data_PCOD9139446
_publ_section_title
;
Structure prediction by ZEFSAII (Michael W. Deem and Ramdas Pophale) SiO2 
 PCOD9139446
Probable space group: C C
;
_chemical_formula_sum "Si O2"
_cell_formula_units_Z 28
_cell_length_a 6.946776
_cell_length_b 7.456012
_cell_length_c 22.672725
_cell_angle_alpha 90.000000
_cell_angle_beta 93.240209
_cell_angle_gamma 90.000000
_cell_volume 1172.461986
_symmetry_space_group_name_H-M "C C"
_symmetry_group_IT_number 9
_symmetry_cell_setting 'monoclinic'
loop_
_space_group_symop_operation_xyz
x,y,z
x,-y,1/2+z
1/2+x,1/2+y,z
1/2+x,1/2-y,1/2+z
loop_
_atom_site_type_symbol
_atom_site_label
_atom_site_fract_x
_atom_site_fract_y
_atom_site_fract_z
Si Si1 0.942270 0.190110 0.545120
Si Si2 0.985214 0.036834 0.745631
Si Si3 0.101782 0.343498 0.191081
Si Si4 0.341066 0.067569 0.578386
Si Si5 0.885747 0.461586 0.293383
Si Si6 0.277288 0.662354 0.984728
Si Si7 0.267351 0.337655 0.349215
O O1 0.829540 0.355287 0.570425
O O2 0.829073 0.014948 0.522843
O O3 0.056058 0.277034 0.490991
O O4 0.125583 0.136956 0.589327
O O5 0.045311 0.849984 0.716547
O O6 0.385761 0.171563 0.518086
O O7 0.186841 0.127904 0.768002
O O8 0.872721 0.026501 0.806230
O O9 0.000636 0.378895 0.127869
O O10 0.004347 0.483551 0.234884
O O11 0.330267 0.370592 0.199947
O O12 0.826670 0.643816 0.324990
O O13 0.038131 0.362134 0.337671
O O14 0.325629 0.639528 0.917635
#
# Coordination Sequence:
#
# PCOD9139446 Si02
#       7
#     4   4   4   4   4   4   4
#     4  10  25  45  73 101 148 182 245 283 373 418
#     4  11  24  46  70 104 141 189 236 300 361 428
#     4  11  25  48  73 108 144 190 243 297 364 438
#     4  10  25  48  72 110 144 194 238 303 358 440
#     4  11  25  47  67 107 138 191 234 304 359 426
#     4  10  27  48  72 110 141 197 238 303 359 440
#     4  11  27  46  75 104 148 185 248 296 366 434
#
# _framework density 23.881371000000001
#
# number of rings (size 3 to 8) (size 9 to 14) (size 15 to 20)
#    0.857    0.571    2.857    0.857   10.000    1.143 
#    2.571    0.000    0.000    0.000    0.000    0.000 
#    0.000    0.000    0.000    0.000    0.000    0.000 
#
# Total GULP energy -78226.085834 kJ/mol
# GULP energy per Si atom -5587.577560 kJ/mol
# Density = 2.382702 g / cm^3
# Si number density = 23.881371 Si / 1000 Ang^3
#
#
#
# Elastic Constant Matrix: (Units=GPa)
#
#
# Indices 1 2 3 4 5 6 
#
# 1 117.0664 55.8016 36.0549 0.0000 27.1236 0.0000
# 2 55.8016 152.2440 40.2355 0.0000 19.9785 0.0000
# 3 36.0549 40.2355 142.2032 0.0000 28.0636 0.0000
# 4 0.0000 0.0000 0.0000 25.0070 0.0000 2.3774
# 5 27.1236 19.9785 28.0636 0.0000 29.8600 0.0000
# 6 0.0000 0.0000 0.0000 2.3774 0.0000 44.3833
#
#
#
# Elastic Compliance Matrix: (Units=1/GPa)
#
#
# Indices 1 2 3 4 5 6 
#
# 1 0.012192 -0.003226 -0.000514 0.000000 -0.008433 0.000000
# 2 -0.003226 0.008267 -0.001237 0.000000 -0.001437 0.000000
# 3 -0.000514 -0.001237 0.008910 0.000000 -0.007079 0.000000
# 4 0.000000 0.000000 0.000000 0.040193 0.000000 -0.002153
# 5 -0.008433 -0.001437 -0.007079 0.000000 0.048764 0.000000
# 6 0.000000 0.000000 0.000000 -0.002153 0.000000 0.022646
#
#
# Mechanical properties :
#
#
# Convention : Reuss Voigt Hill
#
# Bulk Modulus (GPa) = 51.51200 75.07751 63.29476
# Shear Modulus (GPa) = 31.76640 38.47818 35.12229
#
# Velocity S-wave (km/s) = 3.65111 4.01836 3.83913
# Velocity P-wave (km/s) = 6.27622 7.28255 6.79803
#
# Compressibility (1/GPa) = 0.01941295
#
# Stress axis : x y z
#
# Youngs Moduli (GPa) = 82.01922 120.96948 112.23838
#
# Poissons Ratio (x) = 0.39028 0.05771
# Poissons Ratio (y) = 0.26462 0.13887
# Poissons Ratio (z) = 0.04217 0.14967
#
# Static dielectric constant tensor:
#      x y z
#    x 1.962650 0.000000 -0.016990 
#    y 0.000000 1.924620 0.000000 
#    z -0.016990 0.000000 1.885800 
# 
# From -- ./inp_files/32346.got.cif
#   From: 2010.05.17/outbox.cif.g08.bks.cpg/sg9_17_cif.got.tgz:32346.got - 2010.06.03 20:04:27.
