data_PCOD9139092
_publ_section_title
;
Structure prediction by ZEFSAII (Michael W. Deem and Ramdas Pophale) SiO2 
 PCOD9139092
Probable space group: C C
;
_chemical_formula_sum "Si O2"
_cell_formula_units_Z 12
_cell_length_a 5.112216
_cell_length_b 13.847641
_cell_length_c 5.857210
_cell_angle_alpha 90.000000
_cell_angle_beta 90.009928
_cell_angle_gamma 90.000000
_cell_volume 414.644377
_symmetry_space_group_name_H-M "C C"
_symmetry_group_IT_number 9
_symmetry_cell_setting 'monoclinic'
loop_
_space_group_symop_operation_xyz
x,y,z
x,-y,1/2+z
1/2+x,1/2+y,z
1/2+x,1/2-y,1/2+z
loop_
_atom_site_type_symbol
_atom_site_label
_atom_site_fract_x
_atom_site_fract_y
_atom_site_fract_z
Si Si1 0.936800 0.377838 0.726050
Si Si2 0.561285 0.535760 0.749519
Si Si3 0.438042 0.705290 0.468544
O O1 0.856518 0.489864 0.739195
O O2 0.660119 0.330878 0.797968
O O3 0.977343 0.319388 0.493378
O O4 0.164771 0.339042 0.887146
O O5 0.457187 0.510784 0.005120
O O6 0.519292 0.647773 0.698834
#
# Coordination Sequence:
#
# PCOD9139092 Si02
#       3
#     4   4   4
#     4  11  24  44  73 107 147 194 245 303 368 438
#     4  10  24  44  70 106 144 188 242 298 362 434
#     4  11  24  44  73 107 147 194 245 303 368 438
#
# _framework density 28.940463000000001
#
# number of rings (size 3 to 8) (size 9 to 14) (size 15 to 20)
#    0.000    1.333    0.000    4.000    0.000   16.000 
#    0.000    6.667    0.000    0.000    0.000    0.000 
#    0.000    0.000    0.000    0.000    0.000    0.000 
#
# Total GULP energy -33485.547630 kJ/mol
# GULP energy per Si atom -5580.924605 kJ/mol
# Density = 2.887459 g / cm^3
# Si number density = 28.940463 Si / 1000 Ang^3
#
#
#
# Elastic Constant Matrix: (Units=GPa)
#
#
# Indices 1 2 3 4 5 6 
#
# 1 83.3315 63.1655 19.8965 0.0000 11.8470 0.0000
# 2 63.1655 178.7897 44.4146 0.0000 43.6292 0.0000
# 3 19.8965 44.4146 167.9065 0.0000 19.5217 0.0000
# 4 0.0000 0.0000 0.0000 66.3432 0.0000 -1.1773
# 5 11.8470 43.6292 19.5217 0.0000 55.2343 0.0000
# 6 0.0000 0.0000 0.0000 -1.1773 0.0000 34.9874
#
#
#
# Elastic Compliance Matrix: (Units=1/GPa)
#
#
# Indices 1 2 3 4 5 6 
#
# 1 0.016508 -0.006050 -0.000521 0.000000 0.001422 0.000000
# 2 -0.006050 0.009406 -0.001104 0.000000 -0.005742 0.000000
# 3 -0.000521 -0.001104 0.006461 0.000000 -0.001300 0.000000
# 4 0.000000 0.000000 0.000000 0.015082 0.000000 0.000507
# 5 0.001422 -0.005742 -0.001300 0.000000 0.022795 0.000000
# 6 0.000000 0.000000 0.000000 0.000507 0.000000 0.028599
#
#
# Mechanical properties :
#
#
# Convention : Reuss Voigt Hill
#
# Bulk Modulus (GPa) = 58.73573 76.10900 67.42237
# Shear Modulus (GPa) = 41.71019 51.48304 46.59662
#
# Velocity S-wave (km/s) = 3.80049 4.22231 4.01694
# Velocity P-wave (km/s) = 6.29267 7.07998 6.69790
#
# Compressibility (1/GPa) = 0.01702541
#
# Stress axis : x y z
#
# Youngs Moduli (GPa) = 60.57543 106.31644 154.78671
#
# Poissons Ratio (x) = 0.64320 0.08068
# Poissons Ratio (y) = 0.36647 0.17082
# Poissons Ratio (z) = 0.03157 0.11733
#
# Static dielectric constant tensor:
#      x y z
#    x 2.327670 0.000000 -0.036350 
#    y 0.000000 2.848140 0.000000 
#    z -0.036350 0.000000 2.348320 
# 
# From -- ./inp_files/78.got.cif
#   From: 2010.05.17/outbox.cif.g08.bks.cpg/sg9_1_cif.got.tgz:78.got - 2010.06.03 20:04:27.
