data_PCOD9139069
_publ_section_title
;
Structure prediction by ZEFSAII (Michael W. Deem and Ramdas Pophale) SiO2 
 PCOD9139069
Probable space group: C C
;
_chemical_formula_sum "Si O2"
_cell_formula_units_Z 32
_cell_length_a 4.915479
_cell_length_b 31.074528
_cell_length_c 8.746759
_cell_angle_alpha 90.000000
_cell_angle_beta 104.543987
_cell_angle_gamma 90.000000
_cell_volume 1293.221076
_symmetry_space_group_name_H-M "C C"
_symmetry_group_IT_number 9
_symmetry_cell_setting 'monoclinic'
loop_
_space_group_symop_operation_xyz
x,y,z
x,-y,1/2+z
1/2+x,1/2+y,z
1/2+x,1/2-y,1/2+z
loop_
_atom_site_type_symbol
_atom_site_label
_atom_site_fract_x
_atom_site_fract_y
_atom_site_fract_z
Si Si1 0.321530 0.557887 0.515460
Si Si2 0.518159 0.190322 0.064572
Si Si3 0.831569 0.754420 0.830016
Si Si4 0.365814 0.886971 0.090843
Si Si5 0.061130 0.987256 0.760308
Si Si6 0.276222 0.386466 0.440836
Si Si7 0.372926 0.191478 0.371184
Si Si8 0.316155 0.941600 0.511678
O O1 0.569421 0.591812 0.589964
O O2 0.352822 0.517896 0.634705
O O3 0.394135 0.541035 0.358305
O O4 0.026644 0.580633 0.498805
O O5 0.659036 0.234055 0.152557
O O6 0.382067 0.171625 0.200294
O O7 0.325577 0.207077 0.899495
O O8 0.743781 0.157725 0.028839
O O9 0.676130 0.786139 0.927867
O O10 0.141643 0.771268 0.839585
O O11 0.579304 0.882884 0.263027
O O12 0.321132 0.842931 0.993843
O O13 0.244232 0.960590 0.666405
O O14 0.254279 0.020236 0.883534
O O15 0.586911 0.403453 0.452418
O O16 0.120095 0.422372 0.522048
#
# Coordination Sequence:
#
# PCOD9139069 Si02
#       8
#     4   4   4   4   4   4   4   4
#     4  11  25  42  66  95 133 180 226 284 343 407
#     4  10  28  45  75 101 140 181 231 282 346 407
#     4  10  25  45  71 102 137 171 235 271 346 405
#     4  12  24  44  64 100 139 174 226 282 351 403
#     4  10  24  44  68  94 134 179 232 284 339 409
#     4  12  26  43  68 101 140 179 228 285 343 409
#     4  10  26  43  71 102 131 180 223 279 343 408
#     4  11  26  44  67 101 134 182 231 281 347 402
#
# _framework density 24.744416000000001
#
# number of rings (size 3 to 8) (size 9 to 14) (size 15 to 20)
#    0.750    0.500    2.500    0.750    8.750    6.000 
#    0.000    0.000    0.000    0.000    0.000    0.000 
#    0.000    0.000    0.000    0.000    0.000    0.000 
#
# Total GULP energy -89602.849227 kJ/mol
# GULP energy per Si atom -5600.178077 kJ/mol
# Density = 2.468810 g / cm^3
# Si number density = 24.744416 Si / 1000 Ang^3
#
#
#
# Elastic Constant Matrix: (Units=GPa)
#
#
# Indices 1 2 3 4 5 6 
#
# 1 80.3169 6.0383 5.8492 0.0000 -7.6604 0.0000
# 2 6.0383 50.5303 25.5455 0.0000 -1.2779 0.0000
# 3 5.8492 25.5455 112.9522 0.0000 -6.3784 0.0000
# 4 0.0000 0.0000 0.0000 43.8100 0.0000 -7.4999
# 5 -7.6604 -1.2779 -6.3784 0.0000 29.6482 0.0000
# 6 0.0000 0.0000 0.0000 -7.4999 0.0000 23.6378
#
#
#
# Elastic Compliance Matrix: (Units=1/GPa)
#
#
# Indices 1 2 3 4 5 6 
#
# 1 0.012874 -0.001368 -0.000175 0.000000 0.003230 0.000000
# 2 -0.001368 0.022491 -0.005042 0.000000 -0.000469 0.000000
# 3 -0.000175 -0.005042 0.010111 0.000000 0.001913 0.000000
# 4 0.000000 0.000000 0.000000 0.024137 0.000000 0.007658
# 5 0.003230 -0.000469 0.001913 0.000000 0.034955 0.000000
# 6 0.000000 0.000000 0.000000 0.007658 0.000000 0.044735
#
#
# Mechanical properties :
#
#
# Convention : Reuss Voigt Hill
#
# Bulk Modulus (GPa) = 30.95492 35.40728 33.18110
# Shear Modulus (GPa) = 28.86143 33.17696 31.01920
#
# Velocity S-wave (km/s) = 3.41894 3.66565 3.54444
# Velocity P-wave (km/s) = 5.30307 5.67946 5.49449
#
# Compressibility (1/GPa) = 0.03230504
#
# Stress axis : x y z
#
# Youngs Moduli (GPa) = 77.67388 44.46258 98.90497
#
# Poissons Ratio (x) = 0.06084 0.01729
# Poissons Ratio (y) = 0.10629 0.49870
# Poissons Ratio (z) = 0.01358 0.22419
#
# Static dielectric constant tensor:
#      x y z
#    x 1.906670 0.000000 0.034740 
#    y 0.000000 1.967410 0.000000 
#    z 0.034740 0.000000 1.984170 
# 
# From -- ./inp_files/4378.got.cif
#   From: 2010.05.17/outbox.cif.g08.bks.cpg/sg9_3_cif.got.tgz:4378.got - 2010.06.03 20:04:27.
