data_PCOD9139694
_publ_section_title
;
Structure prediction by ZEFSAII (Michael W. Deem and Ramdas Pophale) SiO2 
 PCOD9139694
Probable space group: C C
;
_chemical_formula_sum "Si O2"
_cell_formula_units_Z 32
_cell_length_a 6.469791
_cell_length_b 13.442640
_cell_length_c 23.419511
_cell_angle_alpha 90.000000
_cell_angle_beta 40.276371
_cell_angle_gamma 90.000000
_cell_volume 1316.753586
_symmetry_space_group_name_H-M "C C"
_symmetry_group_IT_number 9
_symmetry_cell_setting 'monoclinic'
loop_
_space_group_symop_operation_xyz
x,y,z
x,-y,1/2+z
1/2+x,1/2+y,z
1/2+x,1/2-y,1/2+z
loop_
_atom_site_type_symbol
_atom_site_label
_atom_site_fract_x
_atom_site_fract_y
_atom_site_fract_z
Si Si1 0.094750 0.329917 0.922160
Si Si2 0.354541 0.951380 0.875561
Si Si3 0.798722 0.114523 0.965800
Si Si4 0.750760 0.874046 0.343050
Si Si5 0.337804 0.112519 0.254864
Si Si6 0.952707 0.563459 0.571282
Si Si7 0.490386 0.110820 0.684027
Si Si8 0.859282 0.804915 0.207564
O O1 0.454568 0.366679 0.826599
O O2 0.839021 0.376649 0.931663
O O3 0.965278 0.215481 0.952496
O O4 0.061458 0.382139 0.990792
O O5 0.414247 0.887637 0.806195
O O6 0.627190 0.023474 0.842823
O O7 0.069895 0.027165 0.916615
O O8 0.680802 0.130537 0.924989
O O9 0.506324 0.055019 0.057195
O O10 0.650464 0.806758 0.310198
O O11 0.126373 0.854791 0.262828
O O12 0.519225 0.197674 0.180630
O O13 0.455836 0.003759 0.211081
O O14 0.118142 0.607219 0.593003
O O15 0.590690 0.600077 0.656028
O O16 0.666475 0.181646 0.690720
#
# Coordination Sequence:
#
# PCOD9139694 Si02
#       8
#     4   4   4   4   4   4   4   4
#     4  12  26  45  73 106 140 189 244 294 358 433
#     4  12  21  43  77 103 139 178 240 301 351 418
#     4  12  25  46  73 102 145 185 236 300 357 427
#     4  11  19  44  67 100 136 179 234 295 351 414
#     4  12  23  44  73 104 133 189 246 292 356 429
#     4  11  27  47  65 107 149 184 245 292 360 441
#     4  11  23  44  66  98 145 182 230 301 353 425
#     4  11  26  43  72 100 141 194 235 293 368 433
#
# _framework density 24.302194
#
# number of rings (size 3 to 8) (size 9 to 14) (size 15 to 20)
#    0.000    0.500    6.250    2.250    3.500    1.000 
#    0.000    2.500    0.000    0.000    0.000    0.000 
#    0.000    0.000    0.000    0.000    0.000    0.000 
#
# Total GULP energy -89125.693213 kJ/mol
# GULP energy per Si atom -5570.355826 kJ/mol
# Density = 2.424688 g / cm^3
# Si number density = 24.302194 Si / 1000 Ang^3
#
#
#
# Elastic Constant Matrix: (Units=GPa)
#
#
# Indices 1 2 3 4 5 6 
#
# 1 126.7808 35.8917 19.9270 0.0031 38.0922 -0.0065
# 2 35.8917 134.3592 5.3315 0.0054 16.6976 -0.0048
# 3 19.9270 5.3315 22.2153 0.0097 16.6444 0.0016
# 4 0.0031 0.0054 0.0097 15.5585 0.0080 3.6257
# 5 38.0922 16.6976 16.6444 0.0080 48.6958 -0.0036
# 6 -0.0065 -0.0048 0.0016 3.6257 -0.0036 41.9467
#
#
#
# Elastic Compliance Matrix: (Units=1/GPa)
#
#
# Indices 1 2 3 4 5 6 
#
# 1 0.011113 -0.001986 -0.004689 0.000004 -0.006409 0.000001
# 2 -0.001986 0.008129 0.001015 -0.000002 -0.001581 0.000001
# 3 -0.004689 0.001015 0.062493 -0.000028 -0.018040 -0.000002
# 4 0.000004 -0.000002 -0.000028 0.065595 -0.000004 -0.005670
# 5 -0.006409 -0.001581 -0.018040 -0.000004 0.032257 0.000003
# 6 0.000001 0.000001 -0.000002 -0.005670 0.000003 0.024330
#
#
# Mechanical properties :
#
#
# Convention : Reuss Voigt Hill
#
# Bulk Modulus (GPa) = 14.20174 45.07285 29.63730
# Shear Modulus (GPa) = 20.94596 36.05388 28.49992
#
# Velocity S-wave (km/s) = 2.93899 3.85589 3.42823
# Velocity P-wave (km/s) = 4.16814 6.19765 5.28130
#
# Compressibility (1/GPa) = 0.07041389
#
# Stress axis : x y z
#
# Youngs Moduli (GPa) = 89.98847 123.00957 16.00177
#
# Poissons Ratio (x) = 0.24429 0.07504
# Poissons Ratio (y) = 0.17871 -0.01624
# Poissons Ratio (z) = 0.42200 -0.12484
#
# Static dielectric constant tensor:
#      x y z
#    x 2.016490 -0.000020 -0.003490 
#    y -0.000020 2.110100 0.000010 
#    z -0.003490 0.000010 2.042090 
# 
# From -- ./inp_files/34840.got.cif
#   From: 2010.05.17/outbox.cif.g08.bks.cpg/sg9_18_cif.got.tgz:34840.got - 2010.06.03 20:04:27.
