data_PCOD9139726
_publ_section_title
;
Structure prediction by ZEFSAII (Michael W. Deem and Ramdas Pophale) SiO2 
 PCOD9139726
Probable space group: C C
;
_chemical_formula_sum "Si O2"
_cell_formula_units_Z 28
_cell_length_a 9.061065
_cell_length_b 18.963662
_cell_length_c 9.001433
_cell_angle_alpha 90.000000
_cell_angle_beta 50.690422
_cell_angle_gamma 90.000000
_cell_volume 1196.754213
_symmetry_space_group_name_H-M "C C"
_symmetry_group_IT_number 9
_symmetry_cell_setting 'monoclinic'
loop_
_space_group_symop_operation_xyz
x,y,z
x,-y,1/2+z
1/2+x,1/2+y,z
1/2+x,1/2-y,1/2+z
loop_
_atom_site_type_symbol
_atom_site_label
_atom_site_fract_x
_atom_site_fract_y
_atom_site_fract_z
Si Si1 0.359080 0.579374 0.392380
Si Si2 0.424773 0.716102 0.177000
Si Si3 0.191949 0.842054 0.251244
Si Si4 0.406765 0.349629 0.170359
Si Si5 0.499266 0.209096 0.936006
Si Si6 0.453085 0.969784 0.191010
Si Si7 0.782461 0.426151 0.598511
O O1 0.316990 0.653212 0.333282
O O2 0.398718 0.595558 0.540409
O O3 0.564169 0.554663 0.202520
O O4 0.173427 0.531491 0.503726
O O5 0.301676 0.768420 0.152436
O O6 0.501873 0.766411 0.261405
O O7 0.575076 0.677988 0.974596
O O8 0.341221 0.904362 0.186571
O O9 0.045040 0.864983 0.218242
O O10 0.189439 0.333572 0.353623
O O11 0.480624 0.277516 0.047720
O O12 0.321320 0.157115 0.076829
O O13 0.421869 0.956910 0.384475
O O14 0.347638 0.040170 0.210030
#
# Coordination Sequence:
#
# PCOD9139726 Si02
#       7
#     4   4   4   4   4   4   4
#     4  11  24  48  76  99 138 193 229 296 358 413
#     4  11  20  41  76  99 144 181 231 296 358 412
#     4  12  23  41  67 114 142 177 235 295 349 422
#     4  11  23  38  72 109 144 177 228 300 361 410
#     4  11  21  44  69 103 140 190 229 286 365 420
#     4  12  28  49  72  99 143 189 241 283 350 426
#     4  12  27  49  72 101 139 191 243 286 341 431
#
# _framework density 23.396616999999999
#
# number of rings (size 3 to 8) (size 9 to 14) (size 15 to 20)
#    0.000    0.571    4.286    5.143    2.000    2.286 
#    5.143    0.000    0.000    0.000    0.000    0.000 
#    0.000    0.000    0.000    0.000    0.000    0.000 
#
# Total GULP energy -78367.768628 kJ/mol
# GULP energy per Si atom -5597.697759 kJ/mol
# Density = 2.334336 g / cm^3
# Si number density = 23.396617 Si / 1000 Ang^3
#
#
#
# Elastic Constant Matrix: (Units=GPa)
#
#
# Indices 1 2 3 4 5 6 
#
# 1 103.9039 17.7718 23.9755 0.0000 -5.3194 0.0000
# 2 17.7718 38.8310 14.6671 0.0000 5.6096 0.0000
# 3 23.9755 14.6671 65.8594 0.0000 -29.2888 0.0000
# 4 0.0000 0.0000 0.0000 11.0161 0.0000 -1.0391
# 5 -5.3194 5.6096 -29.2888 0.0000 37.4173 0.0000
# 6 0.0000 0.0000 0.0000 -1.0391 0.0000 35.3973
#
#
#
# Elastic Compliance Matrix: (Units=1/GPa)
#
#
# Indices 1 2 3 4 5 6 
#
# 1 0.011017 -0.003647 -0.003465 0.000000 -0.000599 0.000000
# 2 -0.003647 0.035071 -0.013885 0.000000 -0.016645 0.000000
# 3 -0.003465 -0.013885 0.031055 0.000000 0.025897 0.000000
# 4 0.000000 0.000000 0.000000 0.091029 0.000000 0.002672
# 5 -0.000599 -0.016645 0.025897 0.000000 0.049407 0.000000
# 6 0.000000 0.000000 0.000000 0.002672 0.000000 0.028329
#
#
# Mechanical properties :
#
#
# Convention : Reuss Voigt Hill
#
# Bulk Modulus (GPa) = 28.45075 35.71368 32.08221
# Shear Modulus (GPa) = 16.68794 26.91146 21.79970
#
# Velocity S-wave (km/s) = 2.67360 3.39518 3.05576
# Velocity P-wave (km/s) = 4.66019 5.53780 5.11785
#
# Compressibility (1/GPa) = 0.03514846
#
# Stress axis : x y z
#
# Youngs Moduli (GPa) = 90.76984 28.51365 32.20133
#
# Poissons Ratio (x) = 0.10398 0.11158
# Poissons Ratio (y) = 0.33101 0.44712
# Poissons Ratio (z) = 0.31452 0.39592
#
# Static dielectric constant tensor:
#      x y z
#    x 1.872270 0.000000 -0.029220 
#    y 0.000000 1.901070 0.000000 
#    z -0.029220 0.000000 1.897010 
# 
# From -- ./inp_files/5669.got.cif
#   From: 2010.05.17/outbox.cif.g08.bks.cpg/sg9_3_cif.got.tgz:5669.got - 2010.06.03 20:04:27.
