data_PCOD9139252
_publ_section_title
;
Structure prediction by ZEFSAII (Michael W. Deem and Ramdas Pophale) SiO2 
 PCOD9139252
Probable space group: C C
;
_chemical_formula_sum "Si O2"
_cell_formula_units_Z 24
_cell_length_a 7.282976
_cell_length_b 13.789434
_cell_length_c 9.644269
_cell_angle_alpha 90.000000
_cell_angle_beta 100.915721
_cell_angle_gamma 90.000000
_cell_volume 951.031492
_symmetry_space_group_name_H-M "C C"
_symmetry_group_IT_number 9
_symmetry_cell_setting 'monoclinic'
loop_
_space_group_symop_operation_xyz
x,y,z
x,-y,1/2+z
1/2+x,1/2+y,z
1/2+x,1/2-y,1/2+z
loop_
_atom_site_type_symbol
_atom_site_label
_atom_site_fract_x
_atom_site_fract_y
_atom_site_fract_z
Si Si1 0.042180 0.565727 0.484790
Si Si2 0.006503 0.126227 0.724874
Si Si3 0.107754 0.235778 0.471989
Si Si4 0.608238 0.913375 0.295386
Si Si5 0.658529 0.581104 0.267155
Si Si6 0.057410 0.781856 0.509093
O O1 0.168530 0.488008 0.424129
O O2 0.998540 0.549277 0.641864
O O3 0.118677 0.673648 0.480546
O O4 0.858000 0.557453 0.363376
O O5 0.048579 0.208572 0.618226
O O6 0.792708 0.121553 0.742308
O O7 0.066960 0.016868 0.697656
O O8 0.100401 0.153537 0.883082
O O9 0.022805 0.324130 0.369952
O O10 0.062569 0.137537 0.381209
O O11 0.332569 0.262810 0.505088
O O12 0.653723 0.663926 0.149761
#
# Coordination Sequence:
#
# PCOD9139252 Si02
#       6
#     4   4   4   4   4   4
#     4  11  27  47  72 105 155 196 250 315 368 451
#     4  11  26  44  79 107 144 205 248 313 374 440
#     4  10  24  48  72 107 147 195 257 311 369 449
#     4  11  27  50  72 111 153 196 256 311 379 446
#     4  11  24  46  76 104 152 196 252 308 369 450
#     4  10  24  47  69 108 147 192 257 306 377 442
#
# _framework density 25.235757
#
# number of rings (size 3 to 8) (size 9 to 14) (size 15 to 20)
#    0.000    1.333    1.667    1.000   16.333    0.000 
#    3.000    0.000    0.000    0.000    0.000    0.000 
#    0.000    0.000    0.000    0.000    0.000    0.000 
#
# Total GULP energy -67033.024112 kJ/mol
# GULP energy per Si atom -5586.085343 kJ/mol
# Density = 2.517832 g / cm^3
# Si number density = 25.235757 Si / 1000 Ang^3
#
#
#
# Elastic Constant Matrix: (Units=GPa)
#
#
# Indices 1 2 3 4 5 6 
#
# 1 85.7713 24.1987 33.0785 0.0000 -8.6501 0.0000
# 2 24.1987 126.1690 49.3898 0.0000 -14.8123 0.0000
# 3 33.0785 49.3898 172.7832 0.0000 -2.4786 0.0000
# 4 0.0000 0.0000 0.0000 56.0537 0.0000 -4.5305
# 5 -8.6501 -14.8123 -2.4786 0.0000 25.0528 0.0000
# 6 0.0000 0.0000 0.0000 -4.5305 0.0000 10.3223
#
#
#
# Elastic Compliance Matrix: (Units=1/GPa)
#
#
# Indices 1 2 3 4 5 6 
#
# 1 0.013196 -0.001285 -0.002108 0.000000 0.003588 0.000000
# 2 -0.001285 0.009731 -0.002463 0.000000 0.005066 0.000000
# 3 -0.002108 -0.002463 0.006874 0.000000 -0.001504 0.000000
# 4 0.000000 0.000000 0.000000 0.018496 0.000000 0.008118
# 5 0.003588 0.005066 -0.001504 0.000000 0.044001 0.000000
# 6 0.000000 0.000000 0.000000 0.008118 0.000000 0.100441
#
#
# Mechanical properties :
#
#
# Convention : Reuss Voigt Hill
#
# Bulk Modulus (GPa) = 55.27844 66.45083 60.86463
# Shear Modulus (GPa) = 23.75520 36.82285 30.28903
#
# Velocity S-wave (km/s) = 3.07144 3.82403 3.46821
# Velocity P-wave (km/s) = 5.87628 6.77398 6.34104
#
# Compressibility (1/GPa) = 0.01809024
#
# Stress axis : x y z
#
# Youngs Moduli (GPa) = 75.78018 102.76198 145.48466
#
# Poissons Ratio (x) = 0.13201 0.30663
# Poissons Ratio (y) = 0.09735 0.35833
# Poissons Ratio (z) = 0.15972 0.25311
#
# Static dielectric constant tensor:
#      x y z
#    x 2.132170 0.000000 0.077180 
#    y 0.000000 2.004540 0.000000 
#    z 0.077180 0.000000 2.065880 
# 
# From -- ./inp_files/4903.got.cif
#   From: 2010.05.17/outbox.cif.g08.bks.cpg/sg9_3_cif.got.tgz:4903.got - 2010.06.03 20:04:27.
