data_PCOD9139226
_publ_section_title
;
Structure prediction by ZEFSAII (Michael W. Deem and Ramdas Pophale) SiO2 
 PCOD9139226
Probable space group: C C
;
_chemical_formula_sum "Si O2"
_cell_formula_units_Z 32
_cell_length_a 15.402906
_cell_length_b 6.565801
_cell_length_c 14.384653
_cell_angle_alpha 90.000000
_cell_angle_beta 115.362520
_cell_angle_gamma 90.000000
_cell_volume 1314.539173
_symmetry_space_group_name_H-M "C C"
_symmetry_group_IT_number 9
_symmetry_cell_setting 'monoclinic'
loop_
_space_group_symop_operation_xyz
x,y,z
x,-y,1/2+z
1/2+x,1/2+y,z
1/2+x,1/2-y,1/2+z
loop_
_atom_site_type_symbol
_atom_site_label
_atom_site_fract_x
_atom_site_fract_y
_atom_site_fract_z
Si Si1 0.142980 0.053111 0.548450
Si Si2 0.298923 0.296644 0.924415
Si Si3 0.849119 0.363975 0.628927
Si Si4 0.007473 0.320480 0.212421
Si Si5 0.637883 0.947854 0.428398
Si Si6 0.157509 0.013638 0.262381
Si Si7 0.823149 0.164019 0.805171
Si Si8 0.501264 0.789741 0.990971
O O1 0.150410 0.228192 0.477460
O O2 0.236360 0.914863 0.575551
O O3 0.145050 0.105066 0.659093
O O4 0.044862 0.931812 0.489689
O O5 0.241176 0.458450 0.960310
O O6 0.326571 0.433885 0.847159
O O7 0.222699 0.125974 0.857548
O O8 0.374152 0.206657 0.034652
O O9 0.905032 0.571120 0.685028
O O10 0.858675 0.197706 0.715639
O O11 0.080346 0.456829 0.305486
O O12 0.054104 0.094795 0.251725
O O13 0.011355 0.328156 0.103752
O O14 0.570556 0.060501 0.469537
O O15 0.220820 0.218826 0.269031
O O16 0.894562 0.293185 0.903508
#
# Coordination Sequence:
#
# PCOD9139226 Si02
#       8
#     4   4   4   4   4   4   4   4
#     4  10  25  44  70 102 145 191 241 306 370 441
#     4  12  26  43  77 108 150 196 247 305 377 450
#     4  11  24  48  73 110 147 197 250 306 377 449
#     4  11  24  46  76 101 148 195 249 311 367 448
#     4  12  25  44  73 102 145 194 241 306 370 439
#     4  10  24  46  73 106 148 193 248 308 377 439
#     4  11  25  48  70 109 151 193 246 313 367 450
#     4  11  25  47  70 104 146 191 250 301 367 446
#
# _framework density 24.343129999999999
#
# number of rings (size 3 to 8) (size 9 to 14) (size 15 to 20)
#    0.000    1.000    3.750    1.500    5.250    2.000 
#    4.500    0.000    0.000    0.000    0.000    0.000 
#    0.000    0.000    0.000    0.000    0.000    0.000 
#
# Total GULP energy -89362.059236 kJ/mol
# GULP energy per Si atom -5585.128702 kJ/mol
# Density = 2.428772 g / cm^3
# Si number density = 24.343130 Si / 1000 Ang^3
#
#
#
# Elastic Constant Matrix: (Units=GPa)
#
#
# Indices 1 2 3 4 5 6 
#
# 1 57.6669 23.3894 18.5198 0.0000 7.6172 0.0000
# 2 23.3894 76.7833 48.2763 0.0000 -14.8051 0.0000
# 3 18.5198 48.2763 144.5762 0.0000 -2.5822 0.0000
# 4 0.0000 0.0000 0.0000 2.8828 0.0000 40.0919
# 5 7.6172 -14.8051 -2.5822 0.0000 29.0300 0.0000
# 6 0.0000 0.0000 0.0000 40.0919 0.0000 -29.4276
#
#
#
# Elastic Compliance Matrix: (Units=1/GPa)
#
#
# Indices 1 2 3 4 5 6 
#
# 1 0.022262 -0.008677 -0.000138 0.000000 -0.010279 0.000000
# 2 -0.008677 0.021915 -0.005976 0.000000 0.012922 0.000000
# 3 -0.000138 -0.005976 0.008890 0.000000 -0.002221 0.000000
# 4 0.000000 0.000000 0.000000 0.017390 0.000000 0.023692
# 5 -0.010279 0.012922 -0.002221 0.000000 0.043537 0.000000
# 6 0.000000 0.000000 0.000000 0.023692 0.000000 -0.001704
#
#
# Mechanical properties :
#
#
# Convention : Reuss Voigt Hill
#
# Bulk Modulus (GPa) = 42.57639 51.04416 46.81027
# Shear Modulus (GPa) = 33.40005 13.08645 23.24325
#
# Velocity S-wave (km/s) = 3.70814 2.32110 3.09336
# Velocity P-wave (km/s) = 5.98847 5.31013 5.65947
#
# Compressibility (1/GPa) = 0.02348719
#
# Stress axis : x y z
#
# Youngs Moduli (GPa) = 44.91922 45.63019 112.48391
#
# Poissons Ratio (x) = 0.39591 0.01553
# Poissons Ratio (y) = 0.38974 0.67217
# Poissons Ratio (z) = 0.00620 0.27267
#
# Static dielectric constant tensor:
#      x y z
#    x 1.927030 0.000000 -0.052840 
#    y 0.000000 2.194160 0.000000 
#    z -0.052840 0.000000 1.958620 
# 
# From -- ./inp_files/26506.got.cif
#   From: 2010.05.17/outbox.cif.g08.bks.cpg/sg9_14_cif.got.tgz:26506.got - 2010.06.03 20:04:27.
