data_PCOD9139827
_publ_section_title
;
Structure prediction by ZEFSAII (Michael W. Deem and Ramdas Pophale) SiO2 
 PCOD9139827
Probable space group: C C
;
_chemical_formula_sum "Si O2"
_cell_formula_units_Z 28
_cell_length_a 7.632582
_cell_length_b 22.173820
_cell_length_c 9.919022
_cell_angle_alpha 90.000000
_cell_angle_beta 49.358583
_cell_angle_gamma 90.000000
_cell_volume 1273.821475
_symmetry_space_group_name_H-M "C C"
_symmetry_group_IT_number 9
_symmetry_cell_setting 'monoclinic'
loop_
_space_group_symop_operation_xyz
x,y,z
x,-y,1/2+z
1/2+x,1/2+y,z
1/2+x,1/2-y,1/2+z
loop_
_atom_site_type_symbol
_atom_site_label
_atom_site_fract_x
_atom_site_fract_y
_atom_site_fract_z
Si Si1 0.422940 0.550727 0.521300
Si Si2 0.819767 0.941261 0.379851
Si Si3 0.941322 0.189644 0.787328
Si Si4 0.856906 0.384653 0.673558
Si Si5 0.638748 0.165823 0.574605
Si Si6 0.918771 0.685289 0.408272
Si Si7 0.921724 0.711445 0.932908
O O1 0.360250 0.490768 0.472095
O O2 0.419320 0.540741 0.683710
O O3 0.659424 0.575677 0.339629
O O4 0.245520 0.604989 0.579793
O O5 0.927424 0.875974 0.359421
O O6 0.547118 0.926806 0.508483
O O7 0.144619 0.185409 0.575820
O O8 0.993244 0.245403 0.857378
O O9 0.689655 0.205540 0.849538
O O10 0.784623 0.333790 0.601220
O O11 0.965464 0.347640 0.744484
O O12 0.547533 0.156468 0.469838
O O13 0.818498 0.221806 0.487185
O O14 0.433302 0.186428 0.776152
#
# Coordination Sequence:
#
# PCOD9139827 Si02
#       7
#     4   4   4   4   4   4   4
#     4  12  26  50  70 100 139 189 239 285 348 417
#     4  11  27  46  73  98 137 187 241 284 340 424
#     4  11  21  44  66 102 138 187 223 283 355 425
#     4  11  24  47  75  99 137 190 223 291 362 421
#     4  12  24  42  67 110 141 176 234 298 345 425
#     4  12  24  39  73 106 143 176 230 293 361 419
#     4  11  22  42  72 101 139 183 230 286 365 415
#
# _framework density 21.981103000000001
#
# number of rings (size 3 to 8) (size 9 to 14) (size 15 to 20)
#    0.000    0.571    4.286    6.000    2.000    2.286 
#    5.143    0.000    0.000    0.000    0.000    0.000 
#    0.000    0.000    0.000    0.000    0.000    0.000 
#
# Total GULP energy -78337.511627 kJ/mol
# GULP energy per Si atom -5595.536545 kJ/mol
# Density = 2.193107 g / cm^3
# Si number density = 21.981103 Si / 1000 Ang^3
#
#
#
# Elastic Constant Matrix: (Units=GPa)
#
#
# Indices 1 2 3 4 5 6 
#
# 1 35.4458 10.9445 2.1808 0.0000 -2.0475 0.0000
# 2 10.9445 106.1512 21.5602 0.0000 5.9903 0.0000
# 3 2.1808 21.5602 115.0949 0.0000 -10.9317 0.0000
# 4 0.0000 0.0000 0.0000 33.7973 0.0000 11.4217
# 5 -2.0475 5.9903 -10.9317 0.0000 27.3491 0.0000
# 6 0.0000 0.0000 0.0000 11.4217 0.0000 20.8505
#
#
#
# Elastic Compliance Matrix: (Units=1/GPa)
#
#
# Indices 1 2 3 4 5 6 
#
# 1 0.029377 -0.003272 0.000346 0.000000 0.003054 0.000000
# 2 -0.003272 0.010399 -0.002209 0.000000 -0.003406 0.000000
# 3 0.000346 -0.002209 0.009505 0.000000 0.004309 0.000000
# 4 0.000000 0.000000 0.000000 0.036310 0.000000 -0.019890
# 5 0.003054 -0.003406 0.004309 0.000000 0.039261 0.000000
# 6 0.000000 0.000000 0.000000 -0.019890 0.000000 0.058856
#
#
# Mechanical properties :
#
#
# Convention : Reuss Voigt Hill
#
# Bulk Modulus (GPa) = 25.63328 36.22922 30.93125
# Shear Modulus (GPa) = 24.15668 31.19978 27.67823
#
# Velocity S-wave (km/s) = 3.31868 3.77157 3.55235
# Velocity P-wave (km/s) = 5.13533 5.95685 5.56128
#
# Compressibility (1/GPa) = 0.03901178
#
# Stress axis : x y z
#
# Youngs Moduli (GPa) = 34.03982 96.16508 105.20679
#
# Poissons Ratio (x) = 0.31461 -0.03643
# Poissons Ratio (y) = 0.11136 0.23245
# Poissons Ratio (z) = -0.01179 0.21247
#
# Static dielectric constant tensor:
#      x y z
#    x 1.836740 0.000000 -0.024390 
#    y 0.000000 1.779060 0.000000 
#    z -0.024390 0.000000 1.830020 
# 
# From -- ./inp_files/5881.got.cif
#   From: 2010.05.17/outbox.cif.g08.bks.cpg/sg9_3_cif.got.tgz:5881.got - 2010.06.03 20:04:27.
