data_PCOD9139007
_publ_section_title
;
Structure prediction by ZEFSAII (Michael W. Deem and Ramdas Pophale) SiO2 
 PCOD9139007
Probable space group: C C
;
_chemical_formula_sum "Si O2"
_cell_formula_units_Z 24
_cell_length_a 9.204128
_cell_length_b 5.360837
_cell_length_c 18.595423
_cell_angle_alpha 90.000000
_cell_angle_beta 96.093170
_cell_angle_gamma 90.000000
_cell_volume 912.348697
_symmetry_space_group_name_H-M "C C"
_symmetry_group_IT_number 9
_symmetry_cell_setting 'monoclinic'
loop_
_space_group_symop_operation_xyz
x,y,z
x,-y,1/2+z
1/2+x,1/2+y,z
1/2+x,1/2-y,1/2+z
loop_
_atom_site_type_symbol
_atom_site_label
_atom_site_fract_x
_atom_site_fract_y
_atom_site_fract_z
Si Si1 0.401700 0.462203 0.648440
Si Si2 0.394988 0.792489 0.531414
Si Si3 0.419574 0.484307 0.400938
Si Si4 0.116041 0.647421 0.566531
Si Si5 0.239206 0.663008 0.277375
Si Si6 0.182560 0.156974 0.320368
O O1 0.444953 0.728993 0.616276
O O2 0.237953 0.455229 0.604083
O O3 0.517834 0.273111 0.622181
O O4 0.362941 0.430237 0.728957
O O5 0.414177 0.546237 0.484213
O O6 0.223140 0.839705 0.530950
O O7 0.503495 0.002271 0.509812
O O8 0.312434 0.691687 0.359538
O O9 0.336226 0.242074 0.365412
O O10 0.573092 0.546393 0.373297
O O11 0.133988 0.425441 0.283542
O O12 0.190501 0.943296 0.259384
#
# Coordination Sequence:
#
# PCOD9139007 Si02
#       6
#     4   4   4   4   4   4
#     4  10  26  41  71 100 145 185 240 295 364 424
#     4  10  24  45  68 106 138 188 236 297 362 430
#     4  10  24  43  72 100 143 186 236 297 359 427
#     4  10  25  41  70 101 142 183 239 293 364 429
#     4  10  26  44  71 104 142 189 239 298 357 433
#     4  10  25  40  72  99 142 181 242 284 366 417
#
# _framework density 26.305728999999999
#
# number of rings (size 3 to 8) (size 9 to 14) (size 15 to 20)
#    2.000    0.000    0.000    1.000    9.333    4.000 
#    0.000    0.000    0.000    0.000    0.000    0.000 
#    0.000    0.000    0.000    0.000    0.000    0.000 
#
# Total GULP energy -66841.225800 kJ/mol
# GULP energy per Si atom -5570.102150 kJ/mol
# Density = 2.624586 g / cm^3
# Si number density = 26.305729 Si / 1000 Ang^3
#
#
#
# Elastic Constant Matrix: (Units=GPa)
#
#
# Indices 1 2 3 4 5 6 
#
# 1 174.7429 58.3064 33.8423 0.0000 -27.8923 0.0000
# 2 58.3064 106.6796 14.0797 0.0000 7.3716 0.0000
# 3 33.8423 14.0797 78.0601 0.0000 -8.2674 0.0000
# 4 0.0000 0.0000 0.0000 24.5237 0.0000 1.6217
# 5 -27.8923 7.3716 -8.2674 0.0000 30.3641 0.0000
# 6 0.0000 0.0000 0.0000 1.6217 0.0000 41.4944
#
#
#
# Elastic Compliance Matrix: (Units=1/GPa)
#
#
# Indices 1 2 3 4 5 6 
#
# 1 0.009511 -0.005578 -0.002110 0.000000 0.009517 0.000000
# 2 -0.005578 0.013125 -0.000854 0.000000 -0.008543 0.000000
# 3 -0.002110 -0.000854 0.014103 0.000000 0.002109 0.000000
# 4 0.000000 0.000000 0.000000 0.040883 0.000000 -0.001598
# 5 0.009517 -0.008543 0.002109 0.000000 0.044324 0.000000
# 6 0.000000 0.000000 0.000000 -0.001598 0.000000 0.024162
#
#
# Mechanical properties :
#
#
# Convention : Reuss Voigt Hill
#
# Bulk Modulus (GPa) = 50.87291 63.54882 57.21087
# Shear Modulus (GPa) = 29.45621 36.16004 32.80813
#
# Velocity S-wave (km/s) = 3.34992 3.71159 3.53538
# Velocity P-wave (km/s) = 5.86035 6.52519 6.20169
#
# Compressibility (1/GPa) = 0.01965683
#
# Stress axis : x y z
#
# Youngs Moduli (GPa) = 105.13619 76.18788 70.90854
#
# Poissons Ratio (x) = 0.42496 0.14959
# Poissons Ratio (y) = 0.58642 0.06056
# Poissons Ratio (z) = 0.22180 0.06507
#
# Static dielectric constant tensor:
#      x y z
#    x 2.090790 0.000000 0.066550 
#    y 0.000000 2.147860 0.000000 
#    z 0.066550 0.000000 2.039290 
# 
# From -- ./inp_files/34853.got.cif
#   From: 2010.05.17/outbox.cif.g08.bks.cpg/sg9_18_cif.got.tgz:34853.got - 2010.06.03 20:04:27.
