data_PCOD9139291
_publ_section_title
;
Structure prediction by ZEFSAII (Michael W. Deem and Ramdas Pophale) SiO2 
 PCOD9139291
Probable space group: C C
;
_chemical_formula_sum "Si O2"
_cell_formula_units_Z 28
_cell_length_a 7.666772
_cell_length_b 17.402149
_cell_length_c 8.299389
_cell_angle_alpha 90.000000
_cell_angle_beta 91.920522
_cell_angle_gamma 90.000000
_cell_volume 1106.668452
_symmetry_space_group_name_H-M "C C"
_symmetry_group_IT_number 9
_symmetry_cell_setting 'monoclinic'
loop_
_space_group_symop_operation_xyz
x,y,z
x,-y,1/2+z
1/2+x,1/2+y,z
1/2+x,1/2-y,1/2+z
loop_
_atom_site_type_symbol
_atom_site_label
_atom_site_fract_x
_atom_site_fract_y
_atom_site_fract_z
Si Si1 0.212250 0.340531 0.979320
Si Si2 0.666634 0.247002 0.967710
Si Si3 0.195632 0.601874 0.137763
Si Si4 0.779619 0.695291 0.834657
Si Si5 0.906994 0.957740 0.159265
Si Si6 0.653604 0.472925 0.422736
Si Si7 0.876124 0.381987 0.840412
O O1 0.176496 0.251341 0.954227
O O2 0.349452 0.373043 0.107388
O O3 0.021621 0.377496 0.986718
O O4 0.976681 0.273927 0.383161
O O5 0.760583 0.306115 0.851743
O O6 0.742367 0.162087 0.002161
O O7 0.702908 0.285537 0.150762
O O8 0.285099 0.628928 0.308420
O O9 0.993686 0.614142 0.183098
O O10 0.247840 0.514683 0.116962
O O11 0.747479 0.607754 0.886898
O O12 0.085586 0.991495 0.088960
O O13 0.960974 0.961954 0.343242
O O14 0.769676 0.541682 0.359822
#
# Coordination Sequence:
#
# PCOD9139291 Si02
#       7
#     4   4   4   4   4   4   4
#     4   9  22  47  67  96 148 190 236 317 359 446
#     4  11  25  48  73 107 150 200 248 314 377 456
#     4   9  24  44  72 105 148 191 250 315 371 441
#     4  11  25  46  73 111 150 195 255 306 384 443
#     4  12  24  46  74 107 149 198 257 304 391 435
#     4  12  26  41  77 109 147 199 254 312 373 463
#     4  10  24  48  70 103 150 193 246 316 371 442
#
# _framework density 25.301164
#
# number of rings (size 3 to 8) (size 9 to 14) (size 15 to 20)
#    0.857    0.571    1.429    2.571    8.000    1.143 
#    5.143    0.000    0.000    0.000    0.000    0.000 
#    0.000    0.000    0.000    0.000    0.000    0.000 
#
# Total GULP energy -78023.155892 kJ/mol
# GULP energy per Si atom -5573.082564 kJ/mol
# Density = 2.524358 g / cm^3
# Si number density = 25.301164 Si / 1000 Ang^3
#
#
#
# Elastic Constant Matrix: (Units=GPa)
#
#
# Indices 1 2 3 4 5 6 
#
# 1 125.6986 70.7824 35.5692 0.0000 10.7816 0.0000
# 2 70.7824 147.3175 13.8472 0.0000 -15.0997 0.0000
# 3 35.5692 13.8472 54.6966 0.0000 8.3082 0.0000
# 4 0.0000 0.0000 0.0000 20.0209 0.0000 -2.8413
# 5 10.7816 -15.0997 8.3082 0.0000 34.0477 0.0000
# 6 0.0000 0.0000 0.0000 -2.8413 0.0000 54.9926
#
#
#
# Elastic Compliance Matrix: (Units=1/GPa)
#
#
# Indices 1 2 3 4 5 6 
#
# 1 0.014139 -0.006777 -0.006587 0.000000 -0.005876 0.000000
# 2 -0.006777 0.010667 0.000687 0.000000 0.006709 0.000000
# 3 -0.006587 0.000687 0.022877 0.000000 -0.003192 0.000000
# 4 0.000000 0.000000 0.000000 0.050317 0.000000 0.002600
# 5 -0.005876 0.006709 -0.003192 0.000000 0.034985 0.000000
# 6 0.000000 0.000000 0.000000 0.002600 0.000000 0.018319
#
#
# Mechanical properties :
#
#
# Convention : Reuss Voigt Hill
#
# Bulk Modulus (GPa) = 44.78072 63.12336 53.95204
# Shear Modulus (GPa) = 27.15914 35.64651 31.40283
#
# Velocity S-wave (km/s) = 3.27989 3.75759 3.52683
# Velocity P-wave (km/s) = 5.66401 6.62034 6.16076
#
# Compressibility (1/GPa) = 0.02233104
#
# Stress axis : x y z
#
# Youngs Moduli (GPa) = 70.72415 93.74562 43.71229
#
# Poissons Ratio (x) = 0.63529 0.28792
# Poissons Ratio (y) = 0.47928 -0.03004
# Poissons Ratio (z) = 0.46584 -0.06443
#
# Static dielectric constant tensor:
#      x y z
#    x 2.054540 0.000000 -0.000560 
#    y 0.000000 2.020840 0.000000 
#    z -0.000560 0.000000 2.042480 
# 
# From -- ./inp_files/5375.got.cif
#   From: 2010.05.17/outbox.cif.g08.bks.cpg/sg9_3_cif.got.tgz:5375.got - 2010.06.03 20:04:27.
