data_PCOD9139259
_publ_section_title
;
Structure prediction by ZEFSAII (Michael W. Deem and Ramdas Pophale) SiO2 
 PCOD9139259
Probable space group: C C
;
_chemical_formula_sum "Si O2"
_cell_formula_units_Z 32
_cell_length_a 7.214716
_cell_length_b 29.878158
_cell_length_c 6.948509
_cell_angle_alpha 90.000000
_cell_angle_beta 99.403609
_cell_angle_gamma 90.000000
_cell_volume 1477.709316
_symmetry_space_group_name_H-M "C C"
_symmetry_group_IT_number 9
_symmetry_cell_setting 'monoclinic'
loop_
_space_group_symop_operation_xyz
x,y,z
x,-y,1/2+z
1/2+x,1/2+y,z
1/2+x,1/2-y,1/2+z
loop_
_atom_site_type_symbol
_atom_site_label
_atom_site_fract_x
_atom_site_fract_y
_atom_site_fract_z
Si Si1 0.084350 0.597871 0.980420
Si Si2 0.370805 0.992969 0.517347
Si Si3 0.615772 0.690147 0.272959
Si Si4 0.422160 0.602394 0.324900
Si Si5 0.736081 0.049980 0.637026
Si Si6 0.085053 0.987913 0.724652
Si Si7 0.390783 0.188091 0.980571
Si Si8 0.752023 0.246988 0.125874
O O1 0.196304 0.577387 0.821394
O O2 0.950926 0.557730 0.031128
O O3 0.970846 0.642331 0.904828
O O4 0.240200 0.610772 0.163030
O O5 0.131133 0.995906 0.481093
O O6 0.539156 0.029222 0.538834
O O7 0.318017 0.999331 0.258993
O O8 0.536222 0.647659 0.373180
O O9 0.727882 0.723167 0.431834
O O10 0.436736 0.716291 0.156234
O O11 0.750152 0.674832 0.125643
O O12 0.340795 0.581511 0.504574
O O13 0.555524 0.565208 0.248624
O O14 0.878145 0.009275 0.691732
O O15 0.283283 0.219733 0.810843
O O16 0.565123 0.216562 0.097148
#
# Coordination Sequence:
#
# PCOD9139259 Si02
#       8
#     4   4   4   4   4   4   4   4
#     4  12  25  44  68 100 138 178 228 281 332 401
#     4  12  23  42  68  93 131 184 231 272 338 394
#     4  11  24  46  73 103 138 174 225 280 342 408
#     4  12  25  44  68 100 138 178 228 281 332 401
#     4  12  26  45  64  98 144 176 228 287 328 394
#     4  12  23  42  68  93 131 184 231 272 338 394
#     4  11  24  46  73 103 138 174 225 280 342 408
#     4  10  24  47  72 106 132 176 220 279 354 408
#
# _framework density 21.655137
#
# number of rings (size 3 to 8) (size 9 to 14) (size 15 to 20)
#    0.000    0.500    5.000    3.750    0.000    4.000 
#    9.000    0.000    0.000    0.000    0.000    0.000 
#    0.000    0.000    0.000    0.000    0.000    0.000 
#
# Total GULP energy -89413.170674 kJ/mol
# GULP energy per Si atom -5588.323167 kJ/mol
# Density = 2.160585 g / cm^3
# Si number density = 21.655137 Si / 1000 Ang^3
#
#
#
# Elastic Constant Matrix: (Units=GPa)
#
#
# Indices 1 2 3 4 5 6 
#
# 1 78.0388 13.3484 28.0782 0.0000 -19.7683 0.0000
# 2 13.3484 102.8071 0.8877 0.0000 -16.5648 0.0000
# 3 28.0782 0.8877 63.5276 0.0000 -4.9163 0.0000
# 4 0.0000 0.0000 0.0000 17.7886 0.0000 -2.6305
# 5 -19.7683 -16.5648 -4.9163 0.0000 43.9786 0.0000
# 6 0.0000 0.0000 0.0000 -2.6305 0.0000 8.2904
#
#
#
# Elastic Compliance Matrix: (Units=1/GPa)
#
#
# Indices 1 2 3 4 5 6 
#
# 1 0.017207 -0.001122 -0.007085 0.000000 0.006520 0.000000
# 2 -0.001122 0.010430 0.000621 0.000000 0.003493 0.000000
# 3 -0.007085 0.000621 0.018798 0.000000 -0.000849 0.000000
# 4 0.000000 0.000000 0.000000 0.058983 0.000000 0.018715
# 5 0.006520 0.003493 -0.000849 0.000000 0.026890 0.000000
# 6 0.000000 0.000000 0.000000 0.018715 0.000000 0.126560
#
#
# Mechanical properties :
#
#
# Convention : Reuss Voigt Hill
#
# Bulk Modulus (GPa) = 31.98781 36.55577 34.27179
# Shear Modulus (GPa) = 17.57705 27.48214 22.52959
#
# Velocity S-wave (km/s) = 2.85209 3.56628 3.22899
# Velocity P-wave (km/s) = 5.06453 5.82025 5.45549
#
# Compressibility (1/GPa) = 0.03126191
#
# Stress axis : x y z
#
# Youngs Moduli (GPa) = 58.11668 95.87530 53.19658
#
# Poissons Ratio (x) = 0.10762 0.37689
# Poissons Ratio (y) = 0.06523 -0.03302
# Poissons Ratio (z) = 0.41175 -0.05951
#
# Static dielectric constant tensor:
#      x y z
#    x 1.728410 0.000000 -0.016460 
#    y 0.000000 1.725080 0.000000 
#    z -0.016460 0.000000 2.065130 
# 
# From -- ./inp_files/4506.got.cif
#   From: 2010.05.17/outbox.cif.g08.bks.cpg/sg9_3_cif.got.tgz:4506.got - 2010.06.03 20:04:27.
