data_PCOD9139819
_publ_section_title
;
Structure prediction by ZEFSAII (Michael W. Deem and Ramdas Pophale) SiO2 
 PCOD9139819
Probable space group: C C
;
_chemical_formula_sum "Si O2"
_cell_formula_units_Z 32
_cell_length_a 28.245399
_cell_length_b 8.798533
_cell_length_c 9.243738
_cell_angle_alpha 90.000000
_cell_angle_beta 147.020566
_cell_angle_gamma 90.000000
_cell_volume 1250.472753
_symmetry_space_group_name_H-M "C C"
_symmetry_group_IT_number 9
_symmetry_cell_setting 'monoclinic'
loop_
_space_group_symop_operation_xyz
x,y,z
x,-y,1/2+z
1/2+x,1/2+y,z
1/2+x,1/2-y,1/2+z
loop_
_atom_site_type_symbol
_atom_site_label
_atom_site_fract_x
_atom_site_fract_y
_atom_site_fract_z
Si Si1 0.323830 0.047680 0.738730
Si Si2 0.143902 0.780405 0.459770
Si Si3 0.944268 0.703813 0.473440
Si Si4 0.506867 0.612156 0.391314
Si Si5 0.756683 0.137566 0.511410
Si Si6 0.216889 0.106698 0.738168
Si Si7 0.014300 0.224018 0.855599
Si Si8 0.359104 0.650312 0.227170
O O1 0.293128 0.108272 0.813554
O O2 0.325380 0.179726 0.623980
O O3 0.413319 0.953921 0.966583
O O4 0.249780 0.941573 0.481851
O O5 0.219097 0.685414 0.572530
O O6 0.095476 0.710687 0.475261
O O7 0.163163 0.958736 0.548301
O O8 0.066650 0.786739 0.145008
O O9 0.854445 0.798179 0.233605
O O10 0.985008 0.683775 0.420577
O O11 0.001940 0.809955 0.723371
O O12 0.542481 0.442498 0.482590
O O13 0.411966 0.602825 0.221023
O O14 0.698773 0.216403 0.234160
O O15 0.780038 0.959725 0.563053
O O16 0.932164 0.178130 0.541111
#
# Coordination Sequence:
#
# PCOD9139819 Si02
#       8
#     4   4   4   4   4   4   4   4
#     4  11  24  40  72 103 137 182 244 312 366 426
#     4  11  24  43  68 103 153 191 243 306 383 443
#     4  11  21  43  72 107 138 181 254 306 357 446
#     4  11  22  40  71 105 147 196 243 303 378 450
#     4  11  22  42  71 104 144 180 252 310 355 432
#     4  11  22  42  66 103 140 187 238 302 368 442
#     4  11  22  40  71 105 140 189 239 301 373 448
#     4  11  23  40  71 104 137 188 247 304 362 435
#
# _framework density 25.590322
#
# number of rings (size 3 to 8) (size 9 to 14) (size 15 to 20)
#    0.000    1.000    5.000    3.750    0.000    0.000 
#    0.000    0.000   11.000    1.500    0.000    0.000 
#    0.000    0.000    0.000    0.000    0.000    0.000 
#
# Total GULP energy -89353.263020 kJ/mol
# GULP energy per Si atom -5584.578939 kJ/mol
# Density = 2.553208 g / cm^3
# Si number density = 25.590322 Si / 1000 Ang^3
#
#
#
# Elastic Constant Matrix: (Units=GPa)
#
#
# Indices 1 2 3 4 5 6 
#
# 1 194.2765 17.7473 18.0303 0.0000 4.1603 0.0000
# 2 17.7473 58.6014 -7.4541 0.0000 9.7224 0.0000
# 3 18.0303 -7.4541 63.2903 0.0000 -5.9126 0.0000
# 4 0.0000 0.0000 0.0000 15.1233 0.0000 -2.5313
# 5 4.1603 9.7224 -5.9126 0.0000 34.8932 0.0000
# 6 0.0000 0.0000 0.0000 -2.5313 0.0000 29.8748
#
#
#
# Elastic Compliance Matrix: (Units=1/GPa)
#
#
# Indices 1 2 3 4 5 6 
#
# 1 0.005492 -0.001819 -0.001822 0.000000 -0.000457 0.000000
# 2 -0.001819 0.018669 0.002288 0.000000 -0.004597 0.000000
# 3 -0.001822 0.002288 0.016816 0.000000 0.002429 0.000000
# 4 0.000000 0.000000 0.000000 0.067074 0.000000 0.005683
# 5 -0.000457 -0.004597 0.002429 0.000000 0.030406 0.000000
# 6 0.000000 0.000000 0.000000 0.005683 0.000000 0.033955
#
#
# Mechanical properties :
#
#
# Convention : Reuss Voigt Hill
#
# Bulk Modulus (GPa) = 26.12990 41.42392 33.77691
# Shear Modulus (GPa) = 26.61343 35.16792 30.89067
#
# Velocity S-wave (km/s) = 3.22837 3.71113 3.47814
# Velocity P-wave (km/s) = 4.91218 5.88097 5.41827
#
# Compressibility (1/GPa) = 0.03827033
#
# Stress axis : x y z
#
# Youngs Moduli (GPa) = 182.07204 53.56438 59.46891
#
# Poissons Ratio (x) = 0.09745 0.10833
# Poissons Ratio (y) = 0.33124 -0.13604
# Poissons Ratio (z) = 0.33166 -0.12253
#
# Static dielectric constant tensor:
#      x y z
#    x 2.042220 0.000000 0.068520 
#    y 0.000000 2.157220 0.000000 
#    z 0.068520 0.000000 2.118790 
# 
# From -- ./inp_files/12455.got.cif
#   From: 2010.05.17/outbox.cif.g08.bks.cpg/sg9_7_cif.got.tgz:12455.got - 2010.06.03 20:04:27.
