data_PCOD9139428
_publ_section_title
;
Structure prediction by ZEFSAII (Michael W. Deem and Ramdas Pophale) SiO2 
 PCOD9139428
Probable space group: C C
;
_chemical_formula_sum "Si O2"
_cell_formula_units_Z 28
_cell_length_a 22.599595
_cell_length_b 5.221151
_cell_length_c 9.553605
_cell_angle_alpha 90.000000
_cell_angle_beta 118.402020
_cell_angle_gamma 90.000000
_cell_volume 991.596795
_symmetry_space_group_name_H-M "C C"
_symmetry_group_IT_number 9
_symmetry_cell_setting 'monoclinic'
loop_
_space_group_symop_operation_xyz
x,y,z
x,-y,1/2+z
1/2+x,1/2+y,z
1/2+x,1/2-y,1/2+z
loop_
_atom_site_type_symbol
_atom_site_label
_atom_site_fract_x
_atom_site_fract_y
_atom_site_fract_z
Si Si1 0.967680 0.736541 0.803750
Si Si2 0.606905 0.525840 0.488798
Si Si3 0.653089 0.979589 0.902961
Si Si4 0.400381 0.618594 0.958976
Si Si5 0.821878 0.521310 0.688471
Si Si6 0.781839 0.182993 0.406229
Si Si7 0.534709 0.833983 0.092269
O O1 0.891045 0.619710 0.702090
O O2 0.006592 0.492392 0.926439
O O3 0.941254 0.937874 0.900089
O O4 0.034725 0.913448 0.839267
O O5 0.646747 0.786926 0.505324
O O6 0.581754 0.407957 0.607333
O O7 0.648839 0.290312 0.475596
O O8 0.585586 0.988611 0.733498
O O9 0.719275 0.990251 0.880675
O O10 0.347127 0.793055 0.818915
O O11 0.355335 0.446793 0.010088
O O12 0.463887 0.779236 0.097480
O O13 0.779986 0.417793 0.511808
O O14 0.786575 0.721941 0.752160
#
# Coordination Sequence:
#
# PCOD9139428 Si02
#       7
#     4   4   4   4   4   4   4
#     4   9  23  45  75 118 160 205 281 351 433 489
#     4  11  25  49  82 118 164 223 280 356 432 514
#     4  11  29  52  79 118 173 227 290 348 436 523
#     4  10  25  44  82 120 162 215 284 362 424 509
#     4  12  26  51  80 123 167 222 288 367 432 521
#     4  12  29  52  83 120 178 227 298 353 450 517
#     4   9  23  47  77 117 162 217 283 353 421 509
#
# _framework density 28.237286000000001
#
# number of rings (size 3 to 8) (size 9 to 14) (size 15 to 20)
#    0.857    0.571    1.429    0.857   10.000    4.571 
#    7.714    0.000    0.000    0.000    0.000    0.000 
#    0.000    0.000    0.000    0.000    0.000    0.000 
#
# Total GULP energy -78303.582612 kJ/mol
# GULP energy per Si atom -5593.113044 kJ/mol
# Density = 2.817302 g / cm^3
# Si number density = 28.237286 Si / 1000 Ang^3
#
#
#
# Elastic Constant Matrix: (Units=GPa)
#
#
# Indices 1 2 3 4 5 6 
#
# 1 290.6113 85.4015 53.5894 0.0000 -28.5676 0.0000
# 2 85.4015 162.9534 20.0357 0.0000 -21.6332 0.0000
# 3 53.5894 20.0357 77.2500 0.0000 -14.2985 0.0000
# 4 0.0000 0.0000 0.0000 39.2669 0.0000 -10.0223
# 5 -28.5676 -21.6332 -14.2985 0.0000 41.9364 0.0000
# 6 0.0000 0.0000 0.0000 -10.0223 0.0000 52.7910
#
#
#
# Elastic Compliance Matrix: (Units=1/GPa)
#
#
# Indices 1 2 3 4 5 6 
#
# 1 0.004586 -0.001931 -0.002441 0.000000 0.001296 0.000000
# 2 -0.001931 0.007499 -0.000142 0.000000 0.002504 0.000000
# 3 -0.002441 -0.000142 0.015320 0.000000 0.003488 0.000000
# 4 0.000000 0.000000 0.000000 0.026764 0.000000 0.005081
# 5 0.001296 0.002504 0.003488 0.000000 0.027209 0.000000
# 6 0.000000 0.000000 0.000000 0.005081 0.000000 0.019907
#
#
# Mechanical properties :
#
#
# Convention : Reuss Voigt Hill
#
# Bulk Modulus (GPa) = 54.41255 94.31865 74.36560
# Shear Modulus (GPa) = 42.94108 51.58473 47.26291
#
# Velocity S-wave (km/s) = 3.90387 4.27878 4.09562
# Velocity P-wave (km/s) = 6.29539 7.60824 6.98274
#
# Compressibility (1/GPa) = 0.01837811
#
# Stress axis : x y z
#
# Youngs Moduli (GPa) = 218.05426 133.35457 65.27238
#
# Poissons Ratio (x) = 0.25756 0.15931
# Poissons Ratio (y) = 0.42115 0.00924
# Poissons Ratio (z) = 0.53219 0.01887
#
# Static dielectric constant tensor:
#      x y z
#    x 2.249780 0.000000 -0.116110 
#    y 0.000000 2.288920 0.000000 
#    z -0.116110 0.000000 2.429500 
# 
# From -- ./inp_files/20502.got.cif
#   From: 2010.05.17/outbox.cif.g08.bks.cpg/sg9_11_cif.got.tgz:20502.got - 2010.06.03 20:04:27.
