data_PCOD9139272
_publ_section_title
;
Structure prediction by ZEFSAII (Michael W. Deem and Ramdas Pophale) SiO2 
 PCOD9139272
Probable space group: C C
;
_chemical_formula_sum "Si O2"
_cell_formula_units_Z 24
_cell_length_a 17.325199
_cell_length_b 4.954267
_cell_length_c 17.831167
_cell_angle_alpha 90.000000
_cell_angle_beta 147.606230
_cell_angle_gamma 90.000000
_cell_volume 819.950085
_symmetry_space_group_name_H-M "C C"
_symmetry_group_IT_number 9
_symmetry_cell_setting 'monoclinic'
loop_
_space_group_symop_operation_xyz
x,y,z
x,-y,1/2+z
1/2+x,1/2+y,z
1/2+x,1/2-y,1/2+z
loop_
_atom_site_type_symbol
_atom_site_label
_atom_site_fract_x
_atom_site_fract_y
_atom_site_fract_z
Si Si1 0.043630 0.215482 0.934610
Si Si2 0.553870 0.687375 0.114295
Si Si3 0.731858 0.172693 0.281830
Si Si4 0.313569 0.908956 0.199014
Si Si5 0.246939 0.205923 0.967738
Si Si6 0.473935 0.413690 0.702321
O O1 0.145444 0.340646 0.950996
O O2 0.889061 0.302175 0.774816
O O3 0.018005 0.285952 0.001858
O O4 0.148922 0.957683 0.037955
O O5 0.597350 0.373772 0.155331
O O6 0.458974 0.739319 0.110185
O O7 0.695378 0.860698 0.246760
O O8 0.829176 0.250386 0.290535
O O9 0.768858 0.211493 0.398634
O O10 0.392731 0.746063 0.199683
O O11 0.401595 0.293743 0.128222
O O12 0.139599 0.951480 0.863350
#
# Coordination Sequence:
#
# PCOD9139272 Si02
#       6
#     4   4   4   4   4   4
#     4  11  25  47  74 109 154 203 259 324 392 468
#     4  10  24  47  74 109 151 202 259 320 390 469
#     4  10  24  47  74 109 151 202 259 320 390 469
#     4  11  26  48  77 112 156 207 265 328 397 477
#     4  11  25  47  74 109 154 203 259 324 392 468
#     4  11  26  48  77 112 156 207 265 328 397 477
#
# _framework density 29.270074999999999
#
# number of rings (size 3 to 8) (size 9 to 14) (size 15 to 20)
#    0.000    1.333    0.000    3.000    0.000   17.333 
#    0.000    1.667    0.000    0.000    0.000    0.000 
#    0.000    0.000    0.000    0.000    0.000    0.000 
#
# Total GULP energy -66872.385454 kJ/mol
# GULP energy per Si atom -5572.698788 kJ/mol
# Density = 2.920345 g / cm^3
# Si number density = 29.270075 Si / 1000 Ang^3
#
#
#
# Elastic Constant Matrix: (Units=GPa)
#
#
# Indices 1 2 3 4 5 6 
#
# 1 287.9259 59.2841 103.0749 0.0002 -69.4848 0.0000
# 2 59.2841 95.8585 35.5483 0.0019 2.4294 0.0022
# 3 103.0749 35.5483 117.1123 0.0001 -49.2314 0.0002
# 4 0.0002 0.0019 0.0001 32.7760 -0.0001 -4.8163
# 5 -69.4848 2.4294 -49.2314 -0.0001 76.9257 -0.0001
# 6 0.0000 0.0022 0.0002 -4.8163 -0.0001 38.9833
#
#
#
# Elastic Compliance Matrix: (Units=1/GPa)
#
#
# Indices 1 2 3 4 5 6 
#
# 1 0.005927 -0.002683 -0.002895 0.000000 0.003586 0.000000
# 2 -0.002683 0.013762 -0.004128 -0.000001 -0.005500 -0.000001
# 3 -0.002895 -0.004128 0.015453 0.000000 0.007405 0.000000
# 4 0.000000 -0.000001 0.000000 0.031074 0.000000 0.003839
# 5 0.003586 -0.005500 0.007405 0.000000 0.021151 0.000000
# 6 0.000000 -0.000001 0.000000 0.003839 0.000000 0.026126
#
#
# Mechanical properties :
#
#
# Convention : Reuss Voigt Hill
#
# Bulk Modulus (GPa) = 63.57335 99.63459 81.60397
# Shear Modulus (GPa) = 36.19301 49.93629 43.06465
#
# Velocity S-wave (km/s) = 3.52023 4.13492 3.83990
# Velocity P-wave (km/s) = 6.18785 7.54390 6.89927
#
# Compressibility (1/GPa) = 0.01572986
#
# Stress axis : x y z
#
# Youngs Moduli (GPa) = 168.70964 72.66638 64.71427
#
# Poissons Ratio (x) = 0.19497 0.18735
# Poissons Ratio (y) = 0.45266 0.26712
# Poissons Ratio (z) = 0.48841 0.29995
#
# Static dielectric constant tensor:
#      x y z
#    x 2.307540 0.000000 0.022370 
#    y 0.000000 2.284860 0.000000 
#    z 0.022370 0.000000 2.252700 
# 
# From -- ./inp_files/30892.got.cif
#   From: 2010.05.17/outbox.cif.g08.bks.cpg/sg9_16_cif.got.tgz:30892.got - 2010.06.03 20:04:27.
