data_PCOD9139923
_publ_section_title
;
Structure prediction by ZEFSAII (Michael W. Deem and Ramdas Pophale) SiO2 
 PCOD9139923
Probable space group: C C
;
_chemical_formula_sum "Si O2"
_cell_formula_units_Z 28
_cell_length_a 6.811590
_cell_length_b 20.472318
_cell_length_c 12.569618
_cell_angle_alpha 90.000000
_cell_angle_beta 132.400680
_cell_angle_gamma 90.000000
_cell_volume 1294.366090
_symmetry_space_group_name_H-M "C C"
_symmetry_group_IT_number 9
_symmetry_cell_setting 'monoclinic'
loop_
_space_group_symop_operation_xyz
x,y,z
x,-y,1/2+z
1/2+x,1/2+y,z
1/2+x,1/2-y,1/2+z
loop_
_atom_site_type_symbol
_atom_site_label
_atom_site_fract_x
_atom_site_fract_y
_atom_site_fract_z
Si Si1 0.788240 0.933342 0.314990
Si Si2 0.007008 0.729765 0.451146
Si Si3 0.819082 0.834884 0.520291
Si Si4 0.679469 0.455224 0.040773
Si Si5 0.503944 0.350402 0.804635
Si Si6 0.278974 0.237104 0.837773
Si Si7 0.438791 0.375067 0.143236
O O1 0.748369 0.879071 0.392638
O O2 0.494572 0.963107 0.180964
O O3 0.907067 0.904452 0.249075
O O4 0.010088 0.982716 0.440924
O O5 0.104174 0.762174 0.379216
O O6 0.166596 0.662652 0.520953
O O7 0.035242 0.782979 0.554995
O O8 0.704010 0.707513 0.344486
O O9 0.570374 0.791260 0.467853
O O10 0.904026 0.876305 0.654578
O O11 0.532154 0.427371 0.091561
O O12 0.640307 0.402046 0.932015
O O13 0.288396 0.309809 0.793637
O O14 0.148791 0.184276 0.712917
#
# Coordination Sequence:
#
# PCOD9139923 Si02
#       7
#     4   4   4   4   4   4   4
#     4  12  29  51  73 101 147 200 253 304 356 430
#     4  11  22  41  71 107 144 182 223 294 377 440
#     4  11  25  42  70 107 145 179 236 297 368 439
#     4  12  29  51  73 101 147 200 253 304 356 430
#     4  11  25  42  70 107 145 179 236 297 368 439
#     4  11  22  41  71 107 144 182 223 294 377 440
#     4  12  24  46  74 102 144 188 242 298 366 438
#
# _framework density 21.632209
#
# number of rings (size 3 to 8) (size 9 to 14) (size 15 to 20)
#    0.000    0.571    5.714    1.714    6.000    3.429 
#    2.571    0.000    0.000    0.000    0.000    0.000 
#    0.000    0.000    0.000    0.000    0.000    0.000 
#
# Total GULP energy -78183.853208 kJ/mol
# GULP energy per Si atom -5584.560943 kJ/mol
# Density = 2.158297 g / cm^3
# Si number density = 21.632209 Si / 1000 Ang^3
#
#
#
# Elastic Constant Matrix: (Units=GPa)
#
#
# Indices 1 2 3 4 5 6 
#
# 1 84.7780 15.8326 25.0009 0.0000 -7.7675 0.0000
# 2 15.8326 53.1704 9.2736 0.0000 -2.9125 0.0000
# 3 25.0009 9.2736 78.1053 0.0000 -16.4384 0.0000
# 4 0.0000 0.0000 0.0000 34.2283 0.0000 6.9619
# 5 -7.7675 -2.9125 -16.4384 0.0000 32.8995 0.0000
# 6 0.0000 0.0000 0.0000 6.9619 0.0000 25.8130
#
#
#
# Elastic Compliance Matrix: (Units=1/GPa)
#
#
# Indices 1 2 3 4 5 6 
#
# 1 0.013620 -0.003346 -0.003741 0.000000 0.001050 0.000000
# 2 -0.003346 0.020039 -0.001231 0.000000 0.000369 0.000000
# 3 -0.003741 -0.001231 0.015576 0.000000 0.006790 0.000000
# 4 0.000000 0.000000 0.000000 0.030911 0.000000 -0.008337
# 5 0.001050 0.000369 0.006790 0.000000 0.034069 0.000000
# 6 0.000000 0.000000 0.000000 -0.008337 0.000000 0.040989
#
#
# Mechanical properties :
#
#
# Convention : Reuss Voigt Hill
#
# Bulk Modulus (GPa) = 30.67550 35.14089 32.90820
# Shear Modulus (GPa) = 27.36650 29.65126 28.50888
#
# Velocity S-wave (km/s) = 3.56066 3.70631 3.63421
# Velocity P-wave (km/s) = 5.57814 5.88181 5.73198
#
# Compressibility (1/GPa) = 0.03259931
#
# Stress axis : x y z
#
# Youngs Moduli (GPa) = 73.42225 49.90388 64.20102
#
# Poissons Ratio (x) = 0.16696 0.24020
# Poissons Ratio (y) = 0.24564 0.07901
# Poissons Ratio (z) = 0.27470 0.06141
#
# Static dielectric constant tensor:
#      x y z
#    x 1.813100 0.000000 0.032850 
#    y 0.000000 1.786730 0.000000 
#    z 0.032850 0.000000 1.854140 
# 
# From -- ./inp_files/3978.got.cif
#   From: 2010.05.17/outbox.cif.g08.bks.cpg/sg9_2_cif.got.tgz:3978.got - 2010.06.03 20:04:27.
