data_PCOD9139698
_publ_section_title
;
Structure prediction by ZEFSAII (Michael W. Deem and Ramdas Pophale) SiO2 
 PCOD9139698
Probable space group: C C
;
_chemical_formula_sum "Si O2"
_cell_formula_units_Z 28
_cell_length_a 6.864618
_cell_length_b 12.570667
_cell_length_c 13.927454
_cell_angle_alpha 90.000000
_cell_angle_beta 101.341235
_cell_angle_gamma 90.000000
_cell_volume 1178.371523
_symmetry_space_group_name_H-M "C C"
_symmetry_group_IT_number 9
_symmetry_cell_setting 'monoclinic'
loop_
_space_group_symop_operation_xyz
x,y,z
x,-y,1/2+z
1/2+x,1/2+y,z
1/2+x,1/2-y,1/2+z
loop_
_atom_site_type_symbol
_atom_site_label
_atom_site_fract_x
_atom_site_fract_y
_atom_site_fract_z
Si Si1 0.422610 0.858398 0.442090
Si Si2 0.000037 0.263230 0.859856
Si Si3 0.402506 0.394017 0.199229
Si Si4 0.909777 0.580574 0.527684
Si Si5 0.376686 0.155145 0.728827
Si Si6 0.475165 0.633023 0.498606
Si Si7 0.279917 0.387545 0.775468
O O1 0.194172 0.808760 0.412407
O O2 0.471084 0.884896 0.336612
O O3 0.537748 0.756615 0.493644
O O4 0.474847 0.962735 0.505673
O O5 0.859666 0.184866 0.784830
O O6 0.059926 0.348477 0.781829
O O7 0.934610 0.332646 0.944866
O O8 0.645291 0.382784 0.212983
O O9 0.346620 0.373244 0.082603
O O10 0.332322 0.510129 0.221398
O O11 0.972377 0.618881 0.639294
O O12 0.672505 0.564976 0.517976
O O13 0.374785 0.282945 0.736252
O O14 0.365942 0.600558 0.391207
#
# Coordination Sequence:
#
# PCOD9139698 Si02
#       7
#     4   4   4   4   4   4   4
#     4   9  20  39  52  75 114 138 172 227 264 312
#     4   9  21  36  52  83 112 136 178 220 265 322
#     4   9  17  34  57  78 106 143 179 220 261 312
#     4  11  20  35  59  80 106 144 178 220 269 312
#     4   8  19  34  52  81 108 138 180 217 265 322
#     4   9  19  35  56  81 104 140 187 215 259 327
#     4   9  18  37  56  76 112 143 172 223 269 311
#
# _framework density 23.761606
#
# number of rings (size 3 to 8) (size 9 to 14) (size 15 to 20)
#    0.000    3.429    0.000    1.714    0.000    5.714 
#    0.000   15.714    0.000    0.000    0.000    0.000 
#    0.000    0.000    0.000    0.000    0.000    0.000 
#
# Total GULP energy -78088.457039 kJ/mol
# GULP energy per Si atom -5577.746931 kJ/mol
# Density = 2.370752 g / cm^3
# Si number density = 23.761606 Si / 1000 Ang^3
#
#
#
# Elastic Constant Matrix: (Units=GPa)
#
#
# Indices 1 2 3 4 5 6 
#
# 1 41.5739 7.5798 11.8278 0.0000 -15.2660 0.0000
# 2 7.5798 125.3927 75.7023 0.0000 -4.7387 0.0000
# 3 11.8278 75.7023 158.1206 0.0000 -25.4763 0.0000
# 4 0.0000 0.0000 0.0000 33.2691 0.0000 -6.7517
# 5 -15.2660 -4.7387 -25.4763 0.0000 30.3541 0.0000
# 6 0.0000 0.0000 0.0000 -6.7517 0.0000 16.7931
#
#
#
# Elastic Compliance Matrix: (Units=1/GPa)
#
#
# Indices 1 2 3 4 5 6 
#
# 1 0.029838 -0.001959 0.001242 0.000000 0.015743 0.000000
# 2 -0.001959 0.011619 -0.006109 0.000000 -0.004298 0.000000
# 3 0.001242 -0.006109 0.010526 0.000000 0.008506 0.000000
# 4 0.000000 0.000000 0.000000 0.032728 0.000000 0.013159
# 5 0.015743 -0.004298 0.008506 0.000000 0.047330 0.000000
# 6 0.000000 0.000000 0.000000 0.013159 0.000000 0.064839
#
#
# Mechanical properties :
#
#
# Convention : Reuss Voigt Hill
#
# Bulk Modulus (GPa) = 26.08692 57.25633 41.67163
# Shear Modulus (GPa) = 22.39051 31.41509 26.90280
#
# Velocity S-wave (km/s) = 3.07302 3.64001 3.36846
# Velocity P-wave (km/s) = 4.85733 6.46643 5.71876
#
# Compressibility (1/GPa) = 0.03833339
#
# Stress axis : x y z
#
# Youngs Moduli (GPa) = 33.51407 86.06684 94.99859
#
# Poissons Ratio (x) = 0.16859 -0.11803
# Poissons Ratio (y) = 0.06565 0.58032
# Poissons Ratio (z) = -0.04164 0.52576
#
# Static dielectric constant tensor:
#      x y z
#    x 2.088180 0.000000 0.056840 
#    y 0.000000 1.869310 0.000000 
#    z 0.056840 0.000000 1.940180 
# 
# From -- ./inp_files/22604.got.cif
#   From: 2010.05.17/outbox.cif.g08.bks.cpg/sg9_12_cif.got.tgz:22604.got - 2010.06.03 20:04:27.
