data_PCOD9139834
_publ_section_title
;
Structure prediction by ZEFSAII (Michael W. Deem and Ramdas Pophale) SiO2 
 PCOD9139834
Probable space group: C C
;
_chemical_formula_sum "Si O2"
_cell_formula_units_Z 32
_cell_length_a 8.225139
_cell_length_b 17.178016
_cell_length_c 11.410346
_cell_angle_alpha 90.000000
_cell_angle_beta 63.191731
_cell_angle_gamma 90.000000
_cell_volume 1438.909164
_symmetry_space_group_name_H-M "C C"
_symmetry_group_IT_number 9
_symmetry_cell_setting 'monoclinic'
loop_
_space_group_symop_operation_xyz
x,y,z
x,-y,1/2+z
1/2+x,1/2+y,z
1/2+x,1/2-y,1/2+z
loop_
_atom_site_type_symbol
_atom_site_label
_atom_site_fract_x
_atom_site_fract_y
_atom_site_fract_z
Si Si1 0.137440 0.624368 0.685760
Si Si2 0.269293 0.289871 0.547265
Si Si3 0.713358 0.067697 0.902128
Si Si4 0.810124 0.503112 0.293683
Si Si5 0.282997 0.604807 0.388612
Si Si6 0.964497 0.669242 0.323754
Si Si7 0.561370 0.299315 0.655949
Si Si8 0.279766 0.052885 0.053153
O O1 0.239885 0.611278 0.772405
O O2 0.258150 0.611555 0.533661
O O3 0.084465 0.713852 0.697208
O O4 0.970097 0.562561 0.733455
O O5 0.264354 0.374679 0.489048
O O6 0.086292 0.285057 0.686653
O O7 0.314378 0.223532 0.436281
O O8 0.439040 0.290378 0.580295
O O9 0.808275 0.985683 0.858247
O O10 0.498785 0.047200 0.983115
O O11 0.722887 0.508647 0.191806
O O12 0.711826 0.480418 0.449228
O O13 0.884837 0.590600 0.292349
O O14 0.106580 0.638211 0.376700
O O15 0.449316 0.653062 0.287410
O O16 0.730579 0.355422 0.573397
#
# Coordination Sequence:
#
# PCOD9139834 Si02
#       8
#     4   4   4   4   4   4   4   4
#     4  11  22  42  69 100 127 185 223 277 342 416
#     4  11  25  44  72 103 139 183 228 290 340 421
#     4  11  24  43  76  93 135 181 235 272 346 410
#     4  11  22  44  73  94 136 183 231 270 352 414
#     4  11  22  46  66  98 133 188 221 277 349 425
#     4  11  21  44  70 103 136 179 231 281 346 411
#     4  11  28  42  68 101 147 166 229 292 349 400
#     4  11  24  45  70 102 131 185 230 291 334 421
#
# _framework density 22.239066999999999
#
# number of rings (size 3 to 8) (size 9 to 14) (size 15 to 20)
#    0.000    1.000    6.250    0.000    7.000    1.000 
#    2.250    0.000    0.000    0.000    0.000    0.000 
#    0.000    0.000    0.000    0.000    0.000    0.000 
#
# Total GULP energy -89398.819857 kJ/mol
# GULP energy per Si atom -5587.426241 kJ/mol
# Density = 2.218845 g / cm^3
# Si number density = 22.239067 Si / 1000 Ang^3
#
#
#
# Elastic Constant Matrix: (Units=GPa)
#
#
# Indices 1 2 3 4 5 6 
#
# 1 25.3486 26.8028 33.6575 0.0000 0.2329 0.0000
# 2 26.8028 166.2448 72.0353 0.0000 -5.6558 0.0000
# 3 33.6575 72.0353 150.1977 0.0000 20.8007 0.0000
# 4 0.0000 0.0000 0.0000 64.1047 0.0000 -18.2809
# 5 0.2329 -5.6558 20.8007 0.0000 28.7769 0.0000
# 6 0.0000 0.0000 0.0000 -18.2809 0.0000 69.9503
#
#
#
# Elastic Compliance Matrix: (Units=1/GPa)
#
#
# Indices 1 2 3 4 5 6 
#
# 1 0.060506 -0.003953 -0.012765 0.000000 0.007960 0.000000
# 2 -0.003953 0.008438 -0.003773 0.000000 0.004417 0.000000
# 3 -0.012765 -0.003773 0.012686 0.000000 -0.009808 0.000000
# 4 0.000000 0.000000 0.000000 0.016856 0.000000 0.004405
# 5 0.007960 0.004417 -0.009808 0.000000 0.042643 0.000000
# 6 0.000000 0.000000 0.000000 0.004405 0.000000 0.015447
#
#
# Mechanical properties :
#
#
# Convention : Reuss Voigt Hill
#
# Bulk Modulus (GPa) = 24.60148 67.42025 46.01087
# Shear Modulus (GPa) = 23.68476 46.51941 35.10209
#
# Velocity S-wave (km/s) = 3.26698 4.57857 3.97722
# Velocity P-wave (km/s) = 5.03162 7.63760 6.46723
#
# Compressibility (1/GPa) = 0.04064796
#
# Stress axis : x y z
#
# Youngs Moduli (GPa) = 16.52733 118.51838 78.82673
#
# Poissons Ratio (x) = 0.46850 1.00624
# Poissons Ratio (y) = 0.06533 0.29738
# Poissons Ratio (z) = 0.21097 0.44712
#
# Static dielectric constant tensor:
#      x y z
#    x 1.820920 0.000000 0.013440 
#    y 0.000000 1.627900 0.000000 
#    z 0.013440 0.000000 1.838790 
# 
# From -- ./inp_files/14659.got.cif
#   From: 2010.05.17/outbox.cif.g08.bks.cpg/sg9_8_cif.got.tgz:14659.got - 2010.06.03 20:04:27.
