data_PCOD9139254
_publ_section_title
;
Structure prediction by ZEFSAII (Michael W. Deem and Ramdas Pophale) SiO2 
 PCOD9139254
Probable space group: C C
;
_chemical_formula_sum "Si O2"
_cell_formula_units_Z 24
_cell_length_a 23.150026
_cell_length_b 5.081401
_cell_length_c 10.843094
_cell_angle_alpha 90.000000
_cell_angle_beta 46.734603
_cell_angle_gamma 90.000000
_cell_volume 928.818776
_symmetry_space_group_name_H-M "C C"
_symmetry_group_IT_number 9
_symmetry_cell_setting 'monoclinic'
loop_
_space_group_symop_operation_xyz
x,y,z
x,-y,1/2+z
1/2+x,1/2+y,z
1/2+x,1/2-y,1/2+z
loop_
_atom_site_type_symbol
_atom_site_label
_atom_site_fract_x
_atom_site_fract_y
_atom_site_fract_z
Si Si1 0.958560 0.407450 0.976340
Si Si2 0.212603 0.414515 0.925173
Si Si3 0.814800 0.726174 0.108294
Si Si4 0.038524 0.472823 0.606659
Si Si5 0.258046 0.104261 0.505189
Si Si6 0.416819 0.414950 0.330241
O O1 0.937960 0.129165 0.944248
O O2 0.008819 0.538584 0.789867
O O3 0.876563 0.564130 0.098619
O O4 0.000088 0.386964 0.045387
O O5 0.278642 0.535277 0.737498
O O6 0.231504 0.123681 0.947954
O O7 0.212018 0.628990 0.038535
O O8 0.130001 0.460200 0.977093
O O9 0.746641 0.537719 0.153558
O O10 0.864545 0.824558 0.914822
O O11 0.999639 0.177247 0.648868
O O12 0.349302 0.207624 0.386620
#
# Coordination Sequence:
#
# PCOD9139254 Si02
#       6
#     4   4   4   4   4   4
#     4   9  23  44  72 103 144 190 244 295 365 439
#     4  12  28  44  76 107 151 189 244 310 373 434
#     4  11  24  43  81 103 145 193 255 299 365 445
#     4  10  24  47  69 109 148 194 239 314 368 437
#     4  11  25  46  71 107 145 189 249 293 373 432
#     4   9  22  44  75 105 141 193 247 299 352 447
#
# _framework density 25.839269999999999
#
# number of rings (size 3 to 8) (size 9 to 14) (size 15 to 20)
#    1.000    0.667    1.667    1.000    9.333    1.333 
#    3.000    0.000    0.000    0.000    0.000    0.000 
#    0.000    0.000    0.000    0.000    0.000    0.000 
#
# Total GULP energy -66889.834429 kJ/mol
# GULP energy per Si atom -5574.152869 kJ/mol
# Density = 2.578046 g / cm^3
# Si number density = 25.839270 Si / 1000 Ang^3
#
#
#
# Elastic Constant Matrix: (Units=GPa)
#
#
# Indices 1 2 3 4 5 6 
#
# 1 172.8820 34.2878 25.2058 0.0002 -3.0080 0.0002
# 2 34.2878 119.2665 2.1979 -0.0002 0.7008 0.0001
# 3 25.2058 2.1979 56.9250 0.0001 2.8700 0.0002
# 4 0.0002 -0.0002 0.0001 20.9468 -0.0001 6.8847
# 5 -3.0080 0.7008 2.8700 -0.0001 45.3457 0.0000
# 6 0.0002 0.0001 0.0002 6.8847 0.0000 29.2668
#
#
#
# Elastic Compliance Matrix: (Units=1/GPa)
#
#
# Indices 1 2 3 4 5 6 
#
# 1 0.006580 -0.001843 -0.002875 0.000000 0.000647 0.000000
# 2 -0.001843 0.008907 0.000487 0.000000 -0.000291 0.000000
# 3 -0.002875 0.000487 0.018892 0.000000 -0.001394 0.000000
# 4 0.000000 0.000000 0.000000 0.051740 0.000000 -0.012171
# 5 0.000647 -0.000291 -0.001394 0.000000 0.022188 0.000000
# 6 0.000000 0.000000 0.000000 -0.012171 0.000000 0.037032
#
#
# Mechanical properties :
#
#
# Convention : Reuss Voigt Hill
#
# Bulk Modulus (GPa) = 38.58522 52.49515 45.54018
# Shear Modulus (GPa) = 30.78057 38.27067 34.52562
#
# Velocity S-wave (km/s) = 3.45517 3.85269 3.65933
# Velocity P-wave (km/s) = 5.55723 6.33649 5.95961
#
# Compressibility (1/GPa) = 0.02591666
#
# Stress axis : x y z
#
# Youngs Moduli (GPa) = 151.97193 112.27084 52.93379
#
# Poissons Ratio (x) = 0.20686 0.15219
# Poissons Ratio (y) = 0.28001 -0.02576
# Poissons Ratio (z) = 0.43693 -0.05463
#
# Static dielectric constant tensor:
#      x y z
#    x 1.990270 0.000000 0.050830 
#    y 0.000000 2.190060 0.000000 
#    z 0.050830 0.000000 2.138650 
# 
# From -- ./inp_files/20423.got.cif
#   From: 2010.05.17/outbox.cif.g08.bks.cpg/sg9_11_cif.got.tgz:20423.got - 2010.06.03 20:04:27.
