data_PCOD9139075
_publ_section_title
;
Structure prediction by ZEFSAII (Michael W. Deem and Ramdas Pophale) SiO2 
 PCOD9139075
Probable space group: C C
;
_chemical_formula_sum "Si O2"
_cell_formula_units_Z 28
_cell_length_a 11.236295
_cell_length_b 8.921990
_cell_length_c 25.927774
_cell_angle_alpha 90.000000
_cell_angle_beta 30.875295
_cell_angle_gamma 90.000000
_cell_volume 1333.866576
_symmetry_space_group_name_H-M "C C"
_symmetry_group_IT_number 9
_symmetry_cell_setting 'monoclinic'
loop_
_space_group_symop_operation_xyz
x,y,z
x,-y,1/2+z
1/2+x,1/2+y,z
1/2+x,1/2-y,1/2+z
loop_
_atom_site_type_symbol
_atom_site_label
_atom_site_fract_x
_atom_site_fract_y
_atom_site_fract_z
Si Si1 0.166150 0.909747 0.554680
Si Si2 0.098009 0.553308 0.014364
Si Si3 0.046214 0.758898 0.333325
Si Si4 0.622908 0.556677 0.669984
Si Si5 0.712885 0.892448 0.670319
Si Si6 0.519851 0.911861 0.150721
Si Si7 0.142462 0.551010 0.389688
O O1 0.112700 0.755055 0.604238
O O2 0.438370 0.936717 0.447818
O O3 0.987630 0.921124 0.574401
O O4 0.090488 0.041725 0.621256
O O5 0.282686 0.681647 0.931874
O O6 0.136161 0.431806 0.953903
O O7 0.123464 0.504079 0.063857
O O8 0.820045 0.564616 0.112068
O O9 0.098309 0.632406 0.270124
O O10 0.239679 0.889010 0.251784
O O11 0.102894 0.694302 0.368740
O O12 0.691074 0.725278 0.656418
O O13 0.387855 0.517916 0.785240
O O14 0.594747 0.011577 0.676258
#
# Coordination Sequence:
#
# PCOD9139075 Si02
#       7
#     4   4   4   4   4   4   4
#     4  10  24  44  68  99 137 183 229 284 348 415
#     4  11  23  41  74  97 138 185 222 285 349 406
#     4  11  24  46  67 106 142 182 235 286 346 420
#     4  11  21  46  72  94 145 184 222 292 350 407
#     4  11  23  47  66 102 139 180 233 288 341 419
#     4  11  24  46  69 103 143 178 232 292 346 410
#     4  11  23  44  72  99 136 186 233 283 348 413
#
# _framework density 20.991605
#
# number of rings (size 3 to 8) (size 9 to 14) (size 15 to 20)
#    0.000    1.143    7.143    0.000    4.000    3.429 
#    5.143    0.000    0.000    0.000    0.000    0.000 
#    0.000    0.000    0.000    0.000    0.000    0.000 
#
# Total GULP energy -78005.655195 kJ/mol
# GULP energy per Si atom -5571.832514 kJ/mol
# Density = 2.094383 g / cm^3
# Si number density = 20.991605 Si / 1000 Ang^3
#
#
#
# Elastic Constant Matrix: (Units=GPa)
#
#
# Indices 1 2 3 4 5 6 
#
# 1 105.6009 31.2418 40.7572 0.0002 2.4300 -0.0001
# 2 31.2418 24.4349 18.9006 -0.0001 -11.5179 0.0000
# 3 40.7572 18.9006 140.5270 0.0002 -23.5864 -0.0002
# 4 0.0002 -0.0001 0.0002 27.7594 -0.0001 1.8914
# 5 2.4300 -11.5179 -23.5864 -0.0001 40.9875 0.0001
# 6 -0.0001 0.0000 -0.0002 1.8914 0.0001 42.6902
#
#
#
# Elastic Compliance Matrix: (Units=1/GPa)
#
#
# Indices 1 2 3 4 5 6 
#
# 1 0.018975 -0.026406 -0.003748 0.000000 -0.010702 0.000000
# 2 -0.026406 0.086718 0.000385 0.000001 0.026156 0.000000
# 3 -0.003748 0.000385 0.009084 0.000000 0.005558 0.000000
# 4 0.000000 0.000001 0.000000 0.036133 0.000000 -0.001601
# 5 -0.010702 0.026156 0.005558 0.000000 0.035581 0.000000
# 6 0.000000 0.000000 0.000000 -0.001601 0.000000 0.023496
#
#
# Mechanical properties :
#
#
# Convention : Reuss Voigt Hill
#
# Bulk Modulus (GPa) = 18.10298 50.26244 34.18271
# Shear Modulus (GPa) = 17.36493 34.26494 25.81494
#
# Velocity S-wave (km/s) = 2.87928 4.04458 3.51062
# Velocity P-wave (km/s) = 4.43806 6.76812 5.72293
#
# Compressibility (1/GPa) = 0.05523954
#
# Stress axis : x y z
#
# Youngs Moduli (GPa) = 52.70207 11.53160 110.08198
#
# Poissons Ratio (x) = 0.30450 0.41258
# Poissons Ratio (y) = 1.39165 -0.04240
# Poissons Ratio (z) = 0.19752 -0.00444
#
# Static dielectric constant tensor:
#      x y z
#    x 1.815250 0.000000 0.017520 
#    y 0.000000 1.749770 0.000000 
#    z 0.017520 0.000000 1.800440 
# 
# From -- ./inp_files/24073.got.cif
#   From: 2010.05.17/outbox.cif.g08.bks.cpg/sg9_13_cif.got.tgz:24073.got - 2010.06.03 20:04:27.
