data_PCOD9139087
_publ_section_title
;
Structure prediction by ZEFSAII (Michael W. Deem and Ramdas Pophale) SiO2 
 PCOD9139087
Probable space group: C C
;
_chemical_formula_sum "Si O2"
_cell_formula_units_Z 32
_cell_length_a 8.752251
_cell_length_b 15.969388
_cell_length_c 12.736861
_cell_angle_alpha 90.000000
_cell_angle_beta 55.247252
_cell_angle_gamma 90.000000
_cell_volume 1462.652765
_symmetry_space_group_name_H-M "C C"
_symmetry_group_IT_number 9
_symmetry_cell_setting 'monoclinic'
loop_
_space_group_symop_operation_xyz
x,y,z
x,-y,1/2+z
1/2+x,1/2+y,z
1/2+x,1/2-y,1/2+z
loop_
_atom_site_type_symbol
_atom_site_label
_atom_site_fract_x
_atom_site_fract_y
_atom_site_fract_z
Si Si1 0.038610 0.766913 0.919190
Si Si2 0.569152 0.069461 0.377227
Si Si3 0.775527 0.077248 0.516031
Si Si4 0.470059 0.228511 0.188661
Si Si5 0.742103 0.690830 0.757428
Si Si6 0.265936 0.398938 0.595470
Si Si7 0.977399 0.730219 0.488615
Si Si8 0.467443 0.899427 0.313094
O O1 0.256483 0.771120 0.804674
O O2 0.971204 0.681461 0.887418
O O3 0.928978 0.852316 0.934641
O O4 0.005057 0.758606 0.057081
O O5 0.646833 0.065696 0.464173
O O6 0.740778 0.086970 0.230009
O O7 0.426675 0.148402 0.441082
O O8 0.473658 0.984658 0.376562
O O9 0.651233 0.099386 0.667386
O O10 0.840375 0.982746 0.515291
O O11 0.592244 0.286710 0.223501
O O12 0.556316 0.134285 0.155377
O O13 0.934055 0.713853 0.625596
O O14 0.792372 0.607254 0.801015
O O15 0.684903 0.754660 0.870443
O O16 0.382784 0.319905 0.508468
#
# Coordination Sequence:
#
# PCOD9139087 Si02
#       8
#     4   4   4   4   4   4   4   4
#     4  12  25  45  74 113 151 203 251 313 387 458
#     4  11  22  43  73 102 146 195 242 318 380 441
#     4  11  24  47  73 102 155 198 251 315 388 446
#     4  11  23  43  74 106 154 198 250 313 385 459
#     4  11  23  42  74 106 144 189 246 303 379 451
#     4  10  24  44  70 103 143 194 245 315 376 445
#     4  11  20  42  70 105 137 192 242 304 372 453
#     4  11  25  44  74 111 150 197 251 317 379 461
#
# _framework density 21.878055
#
# number of rings (size 3 to 8) (size 9 to 14) (size 15 to 20)
#    0.000    1.000    5.000    3.000    0.000    0.000 
#    4.500    0.000    0.000    0.000    0.000    0.000 
#    0.000    0.000    0.000    0.000    0.000    0.000 
#
# Total GULP energy -89089.826122 kJ/mol
# GULP energy per Si atom -5568.114133 kJ/mol
# Density = 2.182826 g / cm^3
# Si number density = 21.878055 Si / 1000 Ang^3
#
#
#
# Elastic Constant Matrix: (Units=GPa)
#
#
# Indices 1 2 3 4 5 6 
#
# 1 83.2134 70.4981 51.6610 0.0000 11.6483 0.0000
# 2 70.4981 204.8594 66.4234 0.0000 4.3260 0.0000
# 3 51.6610 66.4234 144.8361 0.0000 5.9956 0.0000
# 4 0.0000 0.0000 0.0000 40.9517 0.0000 4.5368
# 5 11.6483 4.3260 5.9956 0.0000 24.7395 0.0000
# 6 0.0000 0.0000 0.0000 4.5368 0.0000 39.1587
#
#
#
# Elastic Compliance Matrix: (Units=1/GPa)
#
#
# Indices 1 2 3 4 5 6 
#
# 1 0.020470 -0.005425 -0.004499 0.000000 -0.007599 0.000000
# 2 -0.005425 0.007175 -0.001424 0.000000 0.001645 0.000000
# 3 -0.004499 -0.001424 0.009156 0.000000 0.000148 0.000000
# 4 0.000000 0.000000 0.000000 0.024736 0.000000 -0.002866
# 5 -0.007599 0.001645 0.000148 0.000000 0.043676 0.000000
# 6 0.000000 0.000000 0.000000 -0.002866 0.000000 0.025869
#
#
# Mechanical properties :
#
#
# Convention : Reuss Voigt Hill
#
# Bulk Modulus (GPa) = 70.89216 90.00821 80.45019
# Shear Modulus (GPa) = 31.54973 37.25840 34.40407
#
# Velocity S-wave (km/s) = 3.80158 4.13122 3.96983
# Velocity P-wave (km/s) = 7.19326 7.99914 7.60688
#
# Compressibility (1/GPa) = 0.01410593
#
# Stress axis : x y z
#
# Youngs Moduli (GPa) = 48.85130 139.36798 109.22077
#
# Poissons Ratio (x) = 0.75611 0.49136
# Poissons Ratio (y) = 0.26503 0.15549
# Poissons Ratio (z) = 0.21977 0.19841
#
# Static dielectric constant tensor:
#      x y z
#    x 1.873270 0.000000 0.000560 
#    y 0.000000 1.870780 0.000000 
#    z 0.000560 0.000000 1.839120 
# 
# From -- ./inp_files/15166.got.cif
#   From: 2010.05.17/outbox.cif.g08.bks.cpg/sg9_8_cif.got.tgz:15166.got - 2010.06.03 20:04:27.
