data_PCOD9139711
_publ_section_title
;
Structure prediction by ZEFSAII (Michael W. Deem and Ramdas Pophale) SiO2 
 PCOD9139711
Probable space group: C C
;
_chemical_formula_sum "Si O2"
_cell_formula_units_Z 32
_cell_length_a 8.172345
_cell_length_b 11.286479
_cell_length_c 14.450641
_cell_angle_alpha 90.000000
_cell_angle_beta 80.368774
_cell_angle_gamma 90.000000
_cell_volume 1314.096783
_symmetry_space_group_name_H-M "C C"
_symmetry_group_IT_number 9
_symmetry_cell_setting 'monoclinic'
loop_
_space_group_symop_operation_xyz
x,y,z
x,-y,1/2+z
1/2+x,1/2+y,z
1/2+x,1/2-y,1/2+z
loop_
_atom_site_type_symbol
_atom_site_label
_atom_site_fract_x
_atom_site_fract_y
_atom_site_fract_z
Si Si1 0.312460 0.130686 0.014700
Si Si2 0.317341 0.688443 0.684462
Si Si3 0.578913 0.194298 0.493808
Si Si4 0.612590 0.466399 0.158803
Si Si5 0.316302 0.239290 0.379656
Si Si6 0.676759 0.935533 0.510383
Si Si7 0.301208 0.278337 0.662608
Si Si8 0.540624 0.314191 0.789172
O O1 0.330183 0.224816 0.097345
O O2 0.199844 0.023852 0.061795
O O3 0.497358 0.089920 0.982353
O O4 0.211355 0.206489 0.949916
O O5 0.422507 0.571146 0.659409
O O6 0.391657 0.748270 0.770673
O O7 0.126787 0.694052 0.737769
O O8 0.441431 0.166436 0.430150
O O9 0.469865 0.254109 0.586248
O O10 0.676758 0.076994 0.515489
O O11 0.709663 0.347119 0.172844
O O12 0.618049 0.566635 0.236726
O O13 0.302583 0.368147 0.429784
O O14 0.127494 0.189937 0.382182
O O15 0.699843 0.870443 0.607358
O O16 0.359423 0.316329 0.759808
#
# Coordination Sequence:
#
# PCOD9139711 Si02
#       8
#     4   4   4   4   4   4   4   4
#     4  11  22  41  63  97 119 162 215 258 306 372
#     4   9  20  42  61  87 128 155 213 256 297 373
#     4  11  22  41  62  88 130 164 201 263 310 374
#     4  11  20  38  68  92 121 159 208 268 308 356
#     4   9  23  46  53  93 133 162 211 252 317 384
#     4  11  24  40  64  93 129 165 205 260 317 375
#     4  11  21  36  66  96 117 162 216 253 314 367
#     4   9  22  42  59  90 129 161 211 258 301 381
#
# _framework density 24.351327000000001
#
# number of rings (size 3 to 8) (size 9 to 14) (size 15 to 20)
#    0.750    1.000    5.000    0.000    1.750    1.000 
#    6.750    0.000    0.000    0.000    0.000    0.000 
#    0.000    0.000    0.000    0.000    0.000    0.000 
#
# Total GULP energy -89141.835880 kJ/mol
# GULP energy per Si atom -5571.364743 kJ/mol
# Density = 2.429590 g / cm^3
# Si number density = 24.351327 Si / 1000 Ang^3
#
#
#
# Elastic Constant Matrix: (Units=GPa)
#
#
# Indices 1 2 3 4 5 6 
#
# 1 94.8770 53.4358 21.3872 0.0000 38.9849 0.0000
# 2 53.4358 111.8108 -0.0948 0.0000 13.2597 0.0000
# 3 21.3872 -0.0948 61.2920 0.0000 28.1170 0.0000
# 4 0.0000 0.0000 0.0000 16.0184 0.0000 4.2734
# 5 38.9849 13.2597 28.1170 0.0000 41.2569 0.0000
# 6 0.0000 0.0000 0.0000 4.2734 0.0000 56.0152
#
#
#
# Elastic Compliance Matrix: (Units=1/GPa)
#
#
# Indices 1 2 3 4 5 6 
#
# 1 0.023579 -0.008886 0.000974 0.000000 -0.020089 0.000000
# 2 -0.008886 0.012821 0.001686 0.000000 0.003127 0.000000
# 3 0.000974 0.001686 0.024221 0.000000 -0.017969 0.000000
# 4 0.000000 0.000000 0.000000 0.063725 0.000000 -0.004862
# 5 -0.020089 0.003127 -0.017969 0.000000 0.054462 0.000000
# 6 0.000000 0.000000 0.000000 -0.004862 0.000000 0.018223
#
#
# Mechanical properties :
#
#
# Convention : Reuss Voigt Hill
#
# Bulk Modulus (GPa) = 20.75969 46.38178 33.57073
# Shear Modulus (GPa) = 22.16897 35.54156 28.85527
#
# Velocity S-wave (km/s) = 3.02052 3.82453 3.44605
# Velocity P-wave (km/s) = 4.55064 6.21216 5.44515
#
# Compressibility (1/GPa) = 0.04817029
#
# Stress axis : x y z
#
# Youngs Moduli (GPa) = 42.40980 77.99759 41.28595
#
# Poissons Ratio (x) = 0.69307 -0.04021
# Poissons Ratio (y) = 0.37684 -0.06961
# Poissons Ratio (z) = -0.04131 -0.13151
#
# Static dielectric constant tensor:
#      x y z
#    x 2.066520 0.000000 0.017350 
#    y 0.000000 1.910690 0.000000 
#    z 0.017350 0.000000 1.978860 
# 
# From -- ./inp_files/29077.got.cif
#   From: 2010.05.17/outbox.cif.g08.bks.cpg/sg9_15_cif.got.tgz:29077.got - 2010.06.03 20:04:27.
