data_PCOD9139622
_publ_section_title
;
Structure prediction by ZEFSAII (Michael W. Deem and Ramdas Pophale) SiO2 
 PCOD9139622
Probable space group: C C
;
_chemical_formula_sum "Si O2"
_cell_formula_units_Z 32
_cell_length_a 8.730190
_cell_length_b 11.896453
_cell_length_c 13.641224
_cell_angle_alpha 90.000000
_cell_angle_beta 112.459333
_cell_angle_gamma 90.000000
_cell_volume 1309.294756
_symmetry_space_group_name_H-M "C C"
_symmetry_group_IT_number 9
_symmetry_cell_setting 'monoclinic'
loop_
_space_group_symop_operation_xyz
x,y,z
x,-y,1/2+z
1/2+x,1/2+y,z
1/2+x,1/2-y,1/2+z
loop_
_atom_site_type_symbol
_atom_site_label
_atom_site_fract_x
_atom_site_fract_y
_atom_site_fract_z
Si Si1 0.471810 0.784151 0.444910
Si Si2 0.509347 0.523900 0.456588
Si Si3 0.722075 0.191479 0.179821
Si Si4 0.484648 0.127361 0.738700
Si Si5 0.002159 0.379382 0.805113
Si Si6 0.334378 0.644500 0.756330
Si Si7 0.001717 0.978744 0.675379
Si Si8 0.801400 0.492363 0.895917
O O1 0.440604 0.651259 0.444468
O O2 0.583180 0.818869 0.563771
O O3 0.550472 0.817484 0.358184
O O4 0.322083 0.873374 0.410267
O O5 0.405492 0.441447 0.357981
O O6 0.513935 0.466597 0.563121
O O7 0.696919 0.542819 0.464076
O O8 0.648181 0.166948 0.269194
O O9 0.423436 0.399854 0.180566
O O10 0.810047 0.311508 0.186153
O O11 0.636146 0.143391 0.702161
O O12 0.370508 0.392902 0.689745
O O13 0.460353 0.994615 0.738423
O O14 0.889177 0.270640 0.786846
O O15 0.975812 0.433405 0.909405
O O16 0.171630 0.967655 0.776363
#
# Coordination Sequence:
#
# PCOD9139622 Si02
#       8
#     4   4   4   4   4   4   4   4
#     4  11  26  44  76 114 153 200 257 322 386 454
#     4  11  25  45  78 112 155 195 270 317 383 475
#     4  12  26  48  77 116 156 205 261 321 392 469
#     4  11  25  48  76 104 158 202 250 324 384 459
#     4  11  25  44  78 106 152 202 253 314 390 456
#     4  11  23  46  75 111 146 208 251 319 391 452
#     4  11  24  47  77 111 154 206 259 322 388 464
#     4  10  26  48  75 106 156 208 255 321 394 449
#
# _framework density 24.440639000000001
#
# number of rings (size 3 to 8) (size 9 to 14) (size 15 to 20)
#    0.000    1.000    1.250    4.500   12.250    0.000 
#    2.250    1.250    0.000    0.000    0.000    0.000 
#    0.000    0.000    0.000    0.000    0.000    0.000 
#
# Total GULP energy -89323.739315 kJ/mol
# GULP energy per Si atom -5582.733707 kJ/mol
# Density = 2.438501 g / cm^3
# Si number density = 24.440639 Si / 1000 Ang^3
#
#
#
# Elastic Constant Matrix: (Units=GPa)
#
#
# Indices 1 2 3 4 5 6 
#
# 1 101.4497 15.5974 58.7575 0.0000 -10.9897 0.0000
# 2 15.5974 154.9358 16.5284 0.0000 17.3789 0.0000
# 3 58.7575 16.5284 105.4680 0.0000 -9.0819 0.0000
# 4 0.0000 0.0000 0.0000 22.5075 0.0000 -3.4218
# 5 -10.9897 17.3789 -9.0819 0.0000 29.7412 0.0000
# 6 0.0000 0.0000 0.0000 -3.4218 0.0000 48.6652
#
#
#
# Elastic Compliance Matrix: (Units=1/GPa)
#
#
# Indices 1 2 3 4 5 6 
#
# 1 0.014981 -0.001095 -0.007849 0.000000 0.003778 0.000000
# 2 -0.001095 0.007216 -0.000944 0.000000 -0.004909 0.000000
# 3 -0.007849 -0.000944 0.014173 0.000000 0.001979 0.000000
# 4 0.000000 0.000000 0.000000 0.044910 0.000000 0.003158
# 5 0.003778 -0.004909 0.001979 0.000000 0.038492 0.000000
# 6 0.000000 0.000000 0.000000 0.003158 0.000000 0.020771
#
#
# Mechanical properties :
#
#
# Convention : Reuss Voigt Hill
#
# Bulk Modulus (GPa) = 60.26123 60.40222 60.33173
# Shear Modulus (GPa) = 30.14809 38.24746 34.19778
#
# Velocity S-wave (km/s) = 3.51596 3.96019 3.74467
# Velocity P-wave (km/s) = 6.41813 6.75857 6.59055
#
# Compressibility (1/GPa) = 0.01659442
#
# Stress axis : x y z
#
# Youngs Moduli (GPa) = 66.75270 138.58463 70.55847
#
# Poissons Ratio (x) = 0.15169 0.55381
# Poissons Ratio (y) = 0.07307 0.06659
# Poissons Ratio (z) = 0.52394 0.13079
#
# Static dielectric constant tensor:
#      x y z
#    x 1.996880 0.000000 -0.012950 
#    y 0.000000 1.983050 0.000000 
#    z -0.012950 0.000000 1.970130 
# 
# From -- ./inp_files/24539.got.cif
#   From: 2010.05.17/outbox.cif.g08.bks.cpg/sg9_13_cif.got.tgz:24539.got - 2010.06.03 20:04:27.
