data_PCOD9139332
_publ_section_title
;
Structure prediction by ZEFSAII (Michael W. Deem and Ramdas Pophale) SiO2 
 PCOD9139332
Probable space group: C C
;
_chemical_formula_sum "Si O2"
_cell_formula_units_Z 24
_cell_length_a 9.177254
_cell_length_b 10.219093
_cell_length_c 20.320627
_cell_angle_alpha 90.000000
_cell_angle_beta 30.256615
_cell_angle_gamma 90.000000
_cell_volume 960.249089
_symmetry_space_group_name_H-M "C C"
_symmetry_group_IT_number 9
_symmetry_cell_setting 'monoclinic'
loop_
_space_group_symop_operation_xyz
x,y,z
x,-y,1/2+z
1/2+x,1/2+y,z
1/2+x,1/2-y,1/2+z
loop_
_atom_site_type_symbol
_atom_site_label
_atom_site_fract_x
_atom_site_fract_y
_atom_site_fract_z
Si Si1 0.699050 0.153318 0.476810
Si Si2 0.316595 0.509584 0.136453
Si Si3 0.128466 0.757131 0.255332
Si Si4 0.157726 0.960494 0.136055
Si Si5 0.342149 0.619201 0.988613
Si Si6 0.225598 0.225067 0.191398
O O1 0.474454 0.225544 0.612262
O O2 0.968308 0.230938 0.344317
O O3 0.528924 0.810423 0.608727
O O4 0.811099 0.022432 0.467460
O O5 0.065660 0.607515 0.260832
O O6 0.516546 0.481853 0.121187
O O7 0.230816 0.362332 0.151429
O O8 0.432403 0.587454 0.027679
O O9 0.036767 0.797833 0.363313
O O10 0.010003 0.860279 0.246792
O O11 0.173896 0.099647 0.165826
O O12 0.479478 0.898858 0.005592
#
# Coordination Sequence:
#
# PCOD9139332 Si02
#       6
#     4   4   4   4   4   4
#     4   9  21  51  78  99 156 211 244 311 403 453
#     4  12  27  46  79 123 146 199 276 325 373 470
#     4  10  24  50  77 107 160 207 249 322 393 459
#     4   9  23  49  75 107 150 208 251 319 384 462
#     4  11  23  51  77 112 155 209 256 320 391 464
#     4  11  24  49  76 110 155 206 256 319 400 456
#
# _framework density 24.993513
#
# number of rings (size 3 to 8) (size 9 to 14) (size 15 to 20)
#    1.000    0.667    1.667    1.000    2.333    2.667 
#   15.000    0.000    0.000    0.000    0.000    0.000 
#    0.000    0.000    0.000    0.000    0.000    0.000 
#
# Total GULP energy -67111.236815 kJ/mol
# GULP energy per Si atom -5592.603068 kJ/mol
# Density = 2.493663 g / cm^3
# Si number density = 24.993513 Si / 1000 Ang^3
#
#
#
# Elastic Constant Matrix: (Units=GPa)
#
#
# Indices 1 2 3 4 5 6 
#
# 1 155.8632 48.6733 50.7488 0.0027 36.7162 -0.0144
# 2 48.6733 161.4579 23.6785 0.0009 15.6407 0.0009
# 3 50.7488 23.6785 149.0580 -0.0004 8.3203 -0.0224
# 4 0.0027 0.0009 -0.0004 37.1137 -0.0020 11.2249
# 5 36.7162 15.6407 8.3203 -0.0020 32.3321 0.0169
# 6 -0.0144 0.0009 -0.0224 11.2249 0.0169 22.0715
#
#
#
# Elastic Compliance Matrix: (Units=1/GPa)
#
#
# Indices 1 2 3 4 5 6 
#
# 1 0.010173 -0.001707 -0.002631 -0.000006 -0.010050 0.000015
# 2 -0.001707 0.006898 -0.000443 0.000000 -0.001284 -0.000001
# 3 -0.002631 -0.000443 0.007606 -0.000001 0.001245 0.000006
# 4 -0.000006 0.000000 -0.000001 0.031842 0.000017 -0.016194
# 5 -0.010050 -0.001284 0.001245 0.000017 0.042642 -0.000047
# 6 0.000015 -0.000001 0.000006 -0.016194 -0.000047 0.053543
#
#
# Mechanical properties :
#
#
# Convention : Reuss Voigt Hill
#
# Bulk Modulus (GPa) = 66.16739 79.17561 72.67150
# Shear Modulus (GPa) = 29.88567 41.18870 35.53719
#
# Velocity S-wave (km/s) = 3.46169 4.06393 3.77484
# Velocity P-wave (km/s) = 6.51990 7.33266 6.93819
#
# Compressibility (1/GPa) = 0.01511319
#
# Stress axis : x y z
#
# Youngs Moduli (GPa) = 98.29747 144.97845 131.48336
#
# Poissons Ratio (x) = 0.24754 0.34599
# Poissons Ratio (y) = 0.16783 0.05821
# Poissons Ratio (z) = 0.25866 0.06419
#
# Static dielectric constant tensor:
#      x y z
#    x 1.983990 0.000000 -0.026770 
#    y 0.000000 2.022580 0.000000 
#    z -0.026770 0.000000 1.954410 
# 
# From -- ./inp_files/35289.got.cif
#   From: 2010.05.17/outbox.cif.g08.bks.cpg/sg9_18_cif.got.tgz:35289.got - 2010.06.03 20:04:27.
