data_PCOD9139034
_publ_section_title
;
Structure prediction by ZEFSAII (Michael W. Deem and Ramdas Pophale) SiO2 
 PCOD9139034
Probable space group: C C
;
_chemical_formula_sum "Si O2"
_cell_formula_units_Z 20
_cell_length_a 5.013004
_cell_length_b 18.598337
_cell_length_c 9.138042
_cell_angle_alpha 90.000000
_cell_angle_beta 99.324452
_cell_angle_gamma 90.000000
_cell_volume 840.714588
_symmetry_space_group_name_H-M "C C"
_symmetry_group_IT_number 9
_symmetry_cell_setting 'monoclinic'
loop_
_space_group_symop_operation_xyz
x,y,z
x,-y,1/2+z
1/2+x,1/2+y,z
1/2+x,1/2-y,1/2+z
loop_
_atom_site_type_symbol
_atom_site_label
_atom_site_fract_x
_atom_site_fract_y
_atom_site_fract_z
Si Si1 0.960960 0.467439 0.282580
Si Si2 0.989939 0.104085 0.925123
Si Si3 0.019550 0.781113 0.185452
Si Si4 0.974655 0.349339 0.053815
Si Si5 0.347656 0.873495 0.728380
O O1 0.683988 0.446274 0.340991
O O2 0.973993 0.428021 0.126605
O O3 0.001808 0.551442 0.262254
O O4 0.197211 0.430814 0.396247
O O5 0.985039 0.181064 0.841372
O O6 0.104386 0.110347 0.097346
O O7 0.778542 0.818949 0.070383
O O8 0.993380 0.696056 0.176411
O O9 0.313756 0.801463 0.155191
O O10 0.802372 0.350040 0.891226
#
# Coordination Sequence:
#
# PCOD9139034 Si02
#       5
#     4   4   4   4   4
#     4  10  24  44  64  94 134 170 212 266 320 380
#     4  10  24  44  64  94 134 170 212 266 320 380
#     4  10  24  44  64  94 134 170 212 266 320 380
#     4  10  24  44  64  94 134 170 212 266 320 380
#     4  12  24  42  72  98 124 174 220 262 320 382
#
# _framework density 23.789289
#
# number of rings (size 3 to 8) (size 9 to 14) (size 15 to 20)
#    0.000    1.600    0.000    2.400    0.000   19.200 
#    0.000    0.000    0.000    0.000    0.000    0.000 
#    0.000    0.000    0.000    0.000    0.000    0.000 
#
# Total GULP energy -55968.622125 kJ/mol
# GULP energy per Si atom -5596.862213 kJ/mol
# Density = 2.373514 g / cm^3
# Si number density = 23.789289 Si / 1000 Ang^3
#
#
#
# Elastic Constant Matrix: (Units=GPa)
#
#
# Indices 1 2 3 4 5 6 
#
# 1 58.3657 -1.1954 -11.1045 0.0000 -1.8004 0.0000
# 2 -1.1954 133.0758 -6.4431 0.0000 -6.9343 0.0000
# 3 -11.1045 -6.4431 114.1574 0.0000 35.1791 0.0000
# 4 0.0000 0.0000 0.0000 13.1047 0.0000 4.5117
# 5 -1.8004 -6.9343 35.1791 0.0000 23.5294 0.0000
# 6 0.0000 0.0000 0.0000 4.5117 0.0000 13.2722
#
#
#
# Elastic Compliance Matrix: (Units=1/GPa)
#
#
# Indices 1 2 3 4 5 6 
#
# 1 0.017523 0.000159 0.002385 0.000000 -0.002177 0.000000
# 2 0.000159 0.007648 -0.000466 0.000000 0.002962 0.000000
# 3 0.002385 -0.000466 0.016600 0.000000 -0.024773 0.000000
# 4 0.000000 0.000000 0.000000 0.086422 0.000000 -0.029378
# 5 -0.002177 0.002962 -0.024773 0.000000 0.080245 0.000000
# 6 0.000000 0.000000 0.000000 -0.029378 0.000000 0.085332
#
#
# Mechanical properties :
#
#
# Convention : Reuss Voigt Hill
#
# Bulk Modulus (GPa) = 21.77372 29.79032 25.78202
# Shear Modulus (GPa) = 16.39758 31.60406 24.00082
#
# Velocity S-wave (km/s) = 2.62827 3.64881 3.17975
# Velocity P-wave (km/s) = 4.28754 5.50468 4.93379
#
# Compressibility (1/GPa) = 0.04592693
#
# Stress axis : x y z
#
# Youngs Moduli (GPa) = 57.06742 130.75724 60.24201
#
# Poissons Ratio (x) = -0.02084 -0.14365
# Poissons Ratio (y) = -0.00910 0.02806
# Poissons Ratio (z) = -0.13608 0.06090
#
# Static dielectric constant tensor:
#      x y z
#    x 1.836760 0.000000 -0.006310 
#    y 0.000000 1.899620 0.000000 
#    z -0.006310 0.000000 1.928460 
# 
# From -- ./inp_files/3604.got.cif
#   From: 2010.05.17/outbox.cif.g08.bks.cpg/sg9_2_cif.got.tgz:3604.got - 2010.06.03 20:04:27.
