data_PCOD9139216
_publ_section_title
;
Structure prediction by ZEFSAII (Michael W. Deem and Ramdas Pophale) SiO2 
 PCOD9139216
Probable space group: C C
;
_chemical_formula_sum "Si O2"
_cell_formula_units_Z 28
_cell_length_a 24.426698
_cell_length_b 7.752442
_cell_length_c 10.275043
_cell_angle_alpha 90.000000
_cell_angle_beta 147.377716
_cell_angle_gamma 90.000000
_cell_volume 1048.950462
_symmetry_space_group_name_H-M "C C"
_symmetry_group_IT_number 9
_symmetry_cell_setting 'monoclinic'
loop_
_space_group_symop_operation_xyz
x,y,z
x,-y,1/2+z
1/2+x,1/2+y,z
1/2+x,1/2-y,1/2+z
loop_
_atom_site_type_symbol
_atom_site_label
_atom_site_fract_x
_atom_site_fract_y
_atom_site_fract_z
Si Si1 0.728020 0.919022 0.502400
Si Si2 0.904432 0.414043 0.868189
Si Si3 0.610075 0.298848 0.573115
Si Si4 0.081962 0.438994 0.400789
Si Si5 0.284810 0.996190 0.377310
Si Si6 0.449538 0.516764 0.905539
Si Si7 0.115593 0.772588 0.191565
O O1 0.844430 0.914037 0.691918
O O2 0.679971 0.105349 0.366015
O O3 0.669044 0.754820 0.324342
O O4 0.700165 0.908184 0.599037
O O5 0.870399 0.484525 0.660546
O O6 0.841025 0.516864 0.851945
O O7 0.909421 0.201828 0.884132
O O8 0.018427 0.447051 0.142311
O O9 0.706948 0.350681 0.682221
O O10 0.512145 0.415927 0.404528
O O11 0.570146 0.121162 0.440804
O O12 0.048482 0.295467 0.435366
O O13 0.199105 0.889929 0.286646
O O14 0.540155 0.383980 0.134055
#
# Coordination Sequence:
#
# PCOD9139216 Si02
#       7
#     4   4   4   4   4   4   4
#     4  11  23  45  71 106 151 197 260 325 391 463
#     4  12  25  45  80 115 157 213 261 333 393 476
#     4  10  24  46  71 108 155 203 261 326 384 481
#     4  11  25  46  72 110 159 204 268 332 397 468
#     4  11  26  47  80 114 160 206 267 321 405 469
#     4  11  23  48  72 106 152 204 269 316 400 466
#     4  10  26  47  74 109 154 211 266 327 394 487
#
# _framework density 26.693348
#
# number of rings (size 3 to 8) (size 9 to 14) (size 15 to 20)
#    0.000    1.143    2.857    1.714    6.000    0.000 
#    2.571    0.000    0.000    0.000    0.000    0.000 
#    0.000    0.000    0.000    0.000    0.000    0.000 
#
# Total GULP energy -77954.596820 kJ/mol
# GULP energy per Si atom -5568.185487 kJ/mol
# Density = 2.663259 g / cm^3
# Si number density = 26.693348 Si / 1000 Ang^3
#
#
#
# Elastic Constant Matrix: (Units=GPa)
#
#
# Indices 1 2 3 4 5 6 
#
# 1 117.9132 17.2213 58.6486 0.0000 32.0734 0.0000
# 2 17.2213 92.5010 36.7075 0.0000 11.9729 0.0000
# 3 58.6486 36.7075 126.0985 0.0000 21.4268 0.0000
# 4 0.0000 0.0000 0.0000 23.9416 0.0000 1.9054
# 5 32.0734 11.9729 21.4268 0.0000 57.6395 0.0000
# 6 0.0000 0.0000 0.0000 1.9054 0.0000 32.0734
#
#
#
# Elastic Compliance Matrix: (Units=1/GPa)
#
#
# Indices 1 2 3 4 5 6 
#
# 1 0.012266 0.000332 -0.004942 0.000000 -0.005057 0.000000
# 2 0.000332 0.012323 -0.003496 0.000000 -0.001445 0.000000
# 3 -0.004942 -0.003496 0.011375 0.000000 -0.000752 0.000000
# 4 0.000000 0.000000 0.000000 0.041967 0.000000 -0.002493
# 5 -0.005057 -0.001445 -0.000752 0.000000 0.020743 0.000000
# 6 0.000000 0.000000 0.000000 -0.002493 0.000000 0.031327
#
#
# Mechanical properties :
#
#
# Convention : Reuss Voigt Hill
#
# Bulk Modulus (GPa) = 50.63008 62.40751 56.51879
# Shear Modulus (GPa) = 32.72313 37.65993 35.19153
#
# Velocity S-wave (km/s) = 3.50507 3.76018 3.63487
# Velocity P-wave (km/s) = 5.94888 6.50247 6.23183
#
# Compressibility (1/GPa) = 0.01975111
#
# Stress axis : x y z
#
# Youngs Moduli (GPa) = 81.52476 81.14684 87.91520
#
# Poissons Ratio (x) = -0.02696 0.43451
# Poissons Ratio (y) = -0.02709 0.30738
# Poissons Ratio (z) = 0.40293 0.28372
#
# Static dielectric constant tensor:
#      x y z
#    x 2.200380 0.000000 -0.004330 
#    y 0.000000 2.281280 0.000000 
#    z -0.004330 0.000000 2.157150 
# 
# From -- ./inp_files/21213.got.cif
#   From: 2010.05.17/outbox.cif.g08.bks.cpg/sg9_11_cif.got.tgz:21213.got - 2010.06.03 20:04:27.
