data_PCOD9139584
_publ_section_title
;
Structure prediction by ZEFSAII (Michael W. Deem and Ramdas Pophale) SiO2 
 PCOD9139584
Probable space group: C C
;
_chemical_formula_sum "Si O2"
_cell_formula_units_Z 28
_cell_length_a 9.403728
_cell_length_b 7.798581
_cell_length_c 27.468967
_cell_angle_alpha 90.000000
_cell_angle_beta 33.768145
_cell_angle_gamma 90.000000
_cell_volume 1119.702660
_symmetry_space_group_name_H-M "C C"
_symmetry_group_IT_number 9
_symmetry_cell_setting 'monoclinic'
loop_
_space_group_symop_operation_xyz
x,y,z
x,-y,1/2+z
1/2+x,1/2+y,z
1/2+x,1/2-y,1/2+z
loop_
_atom_site_type_symbol
_atom_site_label
_atom_site_fract_x
_atom_site_fract_y
_atom_site_fract_z
Si Si1 0.485760 0.444897 0.498250
Si Si2 0.608583 0.441993 0.362460
Si Si3 0.914705 0.680343 0.937478
Si Si4 0.968524 0.930995 0.297514
Si Si5 0.152573 0.831520 0.139850
Si Si6 0.814239 0.686846 0.067326
Si Si7 0.649321 0.805889 0.220129
O O1 0.448627 0.373273 0.454078
O O2 0.762938 0.390265 0.435824
O O3 0.269623 0.349806 0.590962
O O4 0.493682 0.649868 0.503421
O O5 0.519398 0.637486 0.390642
O O6 0.554063 0.360650 0.325658
O O7 0.906896 0.429649 0.289750
O O8 0.161963 0.572688 0.882444
O O9 0.713906 0.676485 0.040016
O O10 0.076789 0.841701 0.218042
O O11 0.069906 0.124432 0.266084
O O12 0.901005 0.865207 0.177819
O O13 0.352564 0.987021 0.070955
O O14 0.686863 0.759094 0.152415
#
# Coordination Sequence:
#
# PCOD9139584 Si02
#       7
#     4   4   4   4   4   4   4
#     4  11  26  48  77 108 153 193 249 313 373 449
#     4  11  26  45  73 106 149 198 251 307 376 442
#     4  11  26  47  73 110 149 195 252 310 372 452
#     4  11  26  45  73 106 149 198 251 307 376 442
#     4  11  26  48  77 108 153 193 249 313 373 449
#     4  10  26  44  76 110 144 192 244 304 378 432
#     4  11  26  47  73 110 149 195 252 310 372 452
#
# _framework density 25.006640000000001
#
# number of rings (size 3 to 8) (size 9 to 14) (size 15 to 20)
#    0.000    1.143    0.000    3.429   12.000    6.857 
#    0.000    0.000    0.000    0.000    0.000    0.000 
#    0.000    0.000    0.000    0.000    0.000    0.000 
#
# Total GULP energy -78163.065300 kJ/mol
# GULP energy per Si atom -5583.076093 kJ/mol
# Density = 2.494972 g / cm^3
# Si number density = 25.006640 Si / 1000 Ang^3
#
#
#
# Elastic Constant Matrix: (Units=GPa)
#
#
# Indices 1 2 3 4 5 6 
#
# 1 127.2334 25.2095 83.2539 -0.0006 24.0726 0.0000
# 2 25.2095 76.1816 23.7315 0.0008 1.1221 0.0003
# 3 83.2539 23.7315 104.3105 -0.0059 34.6529 -0.0036
# 4 -0.0006 0.0008 -0.0059 51.4892 -0.0009 -0.8042
# 5 24.0726 1.1221 34.6529 -0.0009 63.1199 -0.0003
# 6 0.0000 0.0003 -0.0036 -0.8042 -0.0003 20.2225
#
#
#
# Elastic Compliance Matrix: (Units=1/GPa)
#
#
# Indices 1 2 3 4 5 6 
#
# 1 0.016651 -0.001381 -0.013300 -0.000001 0.000976 -0.000002
# 2 -0.001381 0.014421 -0.002774 -0.000001 0.001794 -0.000001
# 3 -0.013300 -0.002774 0.023399 0.000003 -0.007725 0.000004
# 4 -0.000001 -0.000001 0.000003 0.019434 -0.000001 0.000773
# 5 0.000976 0.001794 -0.007725 -0.000001 0.019680 -0.000001
# 6 -0.000002 -0.000001 0.000004 0.000773 -0.000001 0.049481
#
#
# Mechanical properties :
#
#
# Convention : Reuss Voigt Hill
#
# Bulk Modulus (GPa) = 51.12255 63.56836 57.34546
# Shear Modulus (GPa) = 27.10067 38.66834 32.88451
#
# Velocity S-wave (km/s) = 3.29559 3.93660 3.63027
# Velocity P-wave (km/s) = 5.91348 6.79251 6.36818
#
# Compressibility (1/GPa) = 0.01956084
#
# Stress axis : x y z
#
# Youngs Moduli (GPa) = 60.05542 69.34110 42.73655
#
# Poissons Ratio (x) = 0.09579 0.56839
# Poissons Ratio (y) = 0.08296 0.11856
# Poissons Ratio (z) = 0.79873 0.19237
#
# Static dielectric constant tensor:
#      x y z
#    x 2.023340 0.000000 0.066050 
#    y 0.000000 1.961280 0.000000 
#    z 0.066050 0.000000 2.023480 
# 
# From -- ./inp_files/32364.got.cif
#   From: 2010.05.17/outbox.cif.g08.bks.cpg/sg9_17_cif.got.tgz:32364.got - 2010.06.03 20:04:27.
