data_PCOD9139882
_publ_section_title
;
Structure prediction by ZEFSAII (Michael W. Deem and Ramdas Pophale) SiO2 
 PCOD9139882
Probable space group: C C
;
_chemical_formula_sum "Si O2"
_cell_formula_units_Z 28
_cell_length_a 10.004982
_cell_length_b 9.483207
_cell_length_c 11.550107
_cell_angle_alpha 90.000000
_cell_angle_beta 65.757165
_cell_angle_gamma 90.000000
_cell_volume 999.225524
_symmetry_space_group_name_H-M "C C"
_symmetry_group_IT_number 9
_symmetry_cell_setting 'monoclinic'
loop_
_space_group_symop_operation_xyz
x,y,z
x,-y,1/2+z
1/2+x,1/2+y,z
1/2+x,1/2-y,1/2+z
loop_
_atom_site_type_symbol
_atom_site_label
_atom_site_fract_x
_atom_site_fract_y
_atom_site_fract_z
Si Si1 0.052780 0.380750 0.425140
Si Si2 0.311886 0.435252 0.595620
Si Si3 0.390606 0.567719 0.818450
Si Si4 0.789059 0.587608 0.864606
Si Si5 0.588286 0.577905 0.138423
Si Si6 0.549507 0.794882 0.989795
Si Si7 0.986517 0.357542 0.698173
O O1 0.222436 0.375113 0.336784
O O2 0.028939 0.545573 0.468069
O O3 0.933403 0.345479 0.372393
O O4 0.009086 0.303476 0.559601
O O5 0.333133 0.501975 0.462216
O O6 0.414926 0.482086 0.670030
O O7 0.393387 0.285736 0.544928
O O8 0.141994 0.424987 0.678270
O O9 0.561937 0.483421 0.770383
O O10 0.458063 0.725661 0.788041
O O11 0.682223 0.717991 0.873560
O O12 0.858637 0.472808 0.755059
O O13 0.696523 0.515931 0.004609
O O14 0.595694 0.741819 0.104705
#
# Coordination Sequence:
#
# PCOD9139882 Si02
#       7
#     4   4   4   4   4   4   4
#     4  11  23  41  64  93 128 171 208 270 337 377
#     4   8  20  40  63  90 116 163 215 255 307 383
#     4  11  22  37  64  91 126 168 206 265 331 389
#     4   9  22  42  62  91 129 164 211 271 313 385
#     4   8  21  38  61  93 122 154 219 257 306 380
#     4   8  21  42  63  92 125 160 227 258 311 398
#     4  11  23  38  65  92 126 164 214 262 329 394
#
# _framework density 28.021701
#
# number of rings (size 3 to 8) (size 9 to 14) (size 15 to 20)
#    1.714    0.571    0.000    1.714    6.000    3.429 
#    7.714    0.000    0.000    0.000    0.000    0.000 
#    0.000    0.000    0.000    0.000    0.000    0.000 
#
# Total GULP energy -77946.972338 kJ/mol
# GULP energy per Si atom -5567.640881 kJ/mol
# Density = 2.795792 g / cm^3
# Si number density = 28.021701 Si / 1000 Ang^3
#
#
#
# Elastic Constant Matrix: (Units=GPa)
#
#
# Indices 1 2 3 4 5 6 
#
# 1 147.9249 22.5176 41.8425 0.0000 -39.1410 0.0000
# 2 22.5176 97.1599 29.8633 0.0000 -13.1941 0.0000
# 3 41.8425 29.8633 174.6225 0.0000 -38.9699 0.0000
# 4 0.0000 0.0000 0.0000 37.7993 0.0000 -8.2643
# 5 -39.1410 -13.1941 -38.9699 0.0000 56.6785 0.0000
# 6 0.0000 0.0000 0.0000 -8.2643 0.0000 20.0845
#
#
#
# Elastic Compliance Matrix: (Units=1/GPa)
#
#
# Indices 1 2 3 4 5 6 
#
# 1 0.008476 -0.001051 -0.000708 0.000000 0.005121 0.000000
# 2 -0.001051 0.011100 -0.001455 0.000000 0.000858 0.000000
# 3 -0.000708 -0.001455 0.007041 0.000000 0.004013 0.000000
# 4 0.000000 0.000000 0.000000 0.029071 0.000000 0.011962
# 5 0.005121 0.000858 0.004013 0.000000 0.024139 0.000000
# 6 0.000000 0.000000 0.000000 0.011962 0.000000 0.054712
#
#
# Mechanical properties :
#
#
# Convention : Reuss Voigt Hill
#
# Bulk Modulus (GPa) = 49.53584 67.57267 58.55425
# Shear Modulus (GPa) = 33.85348 44.61139 39.23243
#
# Velocity S-wave (km/s) = 3.47957 3.99435 3.74581
# Velocity P-wave (km/s) = 5.81887 6.74091 6.29679
#
# Compressibility (1/GPa) = 0.02018740
#
# Stress axis : x y z
#
# Youngs Moduli (GPa) = 117.98480 90.09351 142.02999
#
# Poissons Ratio (x) = 0.09470 0.10059
# Poissons Ratio (y) = 0.12402 0.20665
# Poissons Ratio (z) = 0.08356 0.13108
#
# Static dielectric constant tensor:
#      x y z
#    x 2.421510 0.000000 0.162220 
#    y 0.000000 2.135530 0.000000 
#    z 0.162220 0.000000 2.238990 
# 
# From -- ./inp_files/24604.got.cif
#   From: 2010.05.17/outbox.cif.g08.bks.cpg/sg9_13_cif.got.tgz:24604.got - 2010.06.03 20:04:27.
