data_PCOD9139822
_publ_section_title
;
Structure prediction by ZEFSAII (Michael W. Deem and Ramdas Pophale) SiO2 
 PCOD9139822
Probable space group: C C
;
_chemical_formula_sum "Si O2"
_cell_formula_units_Z 32
_cell_length_a 18.804332
_cell_length_b 11.633562
_cell_length_c 14.406671
_cell_angle_alpha 90.000000
_cell_angle_beta 149.647418
_cell_angle_gamma 90.000000
_cell_volume 1592.577410
_symmetry_space_group_name_H-M "C C"
_symmetry_group_IT_number 9
_symmetry_cell_setting 'monoclinic'
loop_
_space_group_symop_operation_xyz
x,y,z
x,-y,1/2+z
1/2+x,1/2+y,z
1/2+x,1/2-y,1/2+z
loop_
_atom_site_type_symbol
_atom_site_label
_atom_site_fract_x
_atom_site_fract_y
_atom_site_fract_z
Si Si1 0.620180 0.885850 0.276200
Si Si2 0.663761 0.654035 0.437269
Si Si3 0.454570 0.971446 0.267349
Si Si4 0.619085 0.785833 0.575330
Si Si5 0.918507 0.124192 0.469439
Si Si6 0.381064 0.393186 0.311445
Si Si7 0.901903 0.987561 0.130102
Si Si8 0.565457 0.170920 0.511242
O O1 0.657563 0.757817 0.356089
O O2 0.529800 0.947506 0.254120
O O3 0.764679 0.954888 0.431341
O O4 0.547103 0.879636 0.094331
O O5 0.794979 0.569272 0.574675
O O6 0.672171 0.711032 0.547964
O O7 0.519863 0.584340 0.271383
O O8 0.529536 0.887330 0.426780
O O9 0.481325 0.096847 0.339815
O O10 0.758086 0.833301 0.780445
O O11 0.521483 0.710701 0.532198
O O12 0.955091 0.108113 0.618338
O O13 0.923604 0.000166 0.424397
O O14 0.363275 0.442162 0.187780
O O15 0.502852 0.298279 0.445070
O O16 0.231870 0.339738 0.175947
#
# Coordination Sequence:
#
# PCOD9139822 Si02
#       8
#     4   4   4   4   4   4   4   4
#     4  11  22  44  72  97 130 183 231 276 337 397
#     4  11  23  39  70 103 128 173 233 281 323 401
#     4  11  23  44  67 102 133 174 231 280 330 400
#     4  11  21  43  73  98 131 175 225 286 334 389
#     4  12  24  46  71 101 136 177 229 282 340 401
#     4  12  26  46  67 101 141 182 220 281 342 404
#     4  12  24  45  68  97 142 177 223 281 342 402
#     4  12  27  45  70  95 143 185 218 277 344 404
#
# _framework density 20.093215000000001
#
# number of rings (size 3 to 8) (size 9 to 14) (size 15 to 20)
#    0.000    0.500    6.250    3.000    3.500    1.000 
#    4.500    0.000    0.000    0.000    0.000    0.000 
#    0.000    0.000    0.000    0.000    0.000    0.000 
#
# Total GULP energy -89495.697154 kJ/mol
# GULP energy per Si atom -5593.481072 kJ/mol
# Density = 2.004748 g / cm^3
# Si number density = 20.093215 Si / 1000 Ang^3
#
#
#
# Elastic Constant Matrix: (Units=GPa)
#
#
# Indices 1 2 3 4 5 6 
#
# 1 86.9933 31.9383 6.5625 0.0000 -4.7293 0.0000
# 2 31.9383 60.9167 19.1717 0.0000 20.3245 0.0000
# 3 6.5625 19.1717 28.3065 0.0000 5.1415 0.0000
# 4 0.0000 0.0000 0.0000 28.7605 0.0000 9.9804
# 5 -4.7293 20.3245 5.1415 0.0000 33.2572 0.0000
# 6 0.0000 0.0000 0.0000 9.9804 0.0000 26.7035
#
#
#
# Elastic Compliance Matrix: (Units=1/GPa)
#
#
# Indices 1 2 3 4 5 6 
#
# 1 0.016527 -0.012907 0.003139 0.000000 0.009753 0.000000
# 2 -0.012907 0.035618 -0.017331 0.000000 -0.020924 0.000000
# 3 0.003139 -0.017331 0.045614 0.000000 0.003986 0.000000
# 4 0.000000 0.000000 0.000000 0.039952 0.000000 -0.014932
# 5 0.009753 -0.020924 0.003986 0.000000 0.043626 0.000000
# 6 0.000000 0.000000 0.000000 -0.014932 0.000000 0.043029
#
#
# Mechanical properties :
#
#
# Convention : Reuss Voigt Hill
#
# Bulk Modulus (GPa) = 22.95643 32.39572 27.67607
# Shear Modulus (GPa) = 17.05988 25.64718 21.35353
#
# Velocity S-wave (km/s) = 2.91698 3.57656 3.26348
# Velocity P-wave (km/s) = 4.77439 5.76311 5.29189
#
# Compressibility (1/GPa) = 0.04356079
#
# Stress axis : x y z
#
# Youngs Moduli (GPa) = 60.50670 28.07547 21.92305
#
# Poissons Ratio (x) = 0.36236 -0.06881
# Poissons Ratio (y) = 0.78095 0.37995
# Poissons Ratio (z) = -0.18990 0.48658
#
# Static dielectric constant tensor:
#      x y z
#    x 1.704840 0.000000 -0.004190 
#    y 0.000000 1.780430 0.000000 
#    z -0.004190 0.000000 1.699510 
# 
# From -- ./inp_files/9116.got.cif
#   From: 2010.05.17/outbox.cif.g08.bks.cpg/sg9_5_cif.got.tgz:9116.got - 2010.06.03 20:04:27.
