data_PCOD9139841
_publ_section_title
;
Structure prediction by ZEFSAII (Michael W. Deem and Ramdas Pophale) SiO2 
 PCOD9139841
Probable space group: C C
;
_chemical_formula_sum "Si O2"
_cell_formula_units_Z 32
_cell_length_a 11.730034
_cell_length_b 8.348636
_cell_length_c 13.407183
_cell_angle_alpha 90.000000
_cell_angle_beta 115.839595
_cell_angle_gamma 90.000000
_cell_volume 1181.689633
_symmetry_space_group_name_H-M "C C"
_symmetry_group_IT_number 9
_symmetry_cell_setting 'monoclinic'
loop_
_space_group_symop_operation_xyz
x,y,z
x,-y,1/2+z
1/2+x,1/2+y,z
1/2+x,1/2-y,1/2+z
loop_
_atom_site_type_symbol
_atom_site_label
_atom_site_fract_x
_atom_site_fract_y
_atom_site_fract_z
Si Si1 0.048620 0.740780 0.195810
Si Si2 0.938155 0.102974 0.852480
Si Si3 0.293343 0.148043 0.992435
Si Si4 0.937843 0.566636 0.392580
Si Si5 0.433327 0.663281 0.193045
Si Si6 0.655841 0.883934 0.213812
Si Si7 0.715373 0.961489 0.009479
Si Si8 0.751173 0.540465 0.660583
O O1 0.095740 0.557851 0.211101
O O2 0.139235 0.868461 0.175031
O O3 0.009591 0.819444 0.284389
O O4 0.918388 0.720405 0.088611
O O5 0.973696 0.253023 0.940058
O O6 0.788953 0.112346 0.819841
O O7 0.946754 0.921516 0.808080
O O8 0.231245 0.315236 0.938155
O O9 0.213589 0.048570 0.044002
O O10 0.346734 0.026444 0.932920
O O11 0.843207 0.572209 0.261382
O O12 0.072652 0.471815 0.431992
O O13 0.567573 0.733430 0.207150
O O14 0.344354 0.561341 0.081245
O O15 0.347265 0.818682 0.171035
O O16 0.694307 0.888498 0.112444
#
# Coordination Sequence:
#
# PCOD9139841 Si02
#       8
#     4   4   4   4   4   4   4   4
#     4  12  22  45  75 102 141 188 238 292 361 435
#     4  11  25  41  70 109 137 192 236 294 362 429
#     4  12  25  46  72 103 145 198 238 304 368 423
#     4  12  26  46  70 108 155 184 241 308 356 439
#     4  11  21  44  77 103 139 194 243 298 369 426
#     4  11  21  44  73 100 143 184 240 297 354 433
#     4  11  24  43  65 106 146 185 246 301 362 434
#     4  12  24  45  78 107 142 197 240 296 370 431
#
# _framework density 27.079868999999999
#
# number of rings (size 3 to 8) (size 9 to 14) (size 15 to 20)
#    0.000    0.500    8.750    0.000    5.250    0.000 
#    0.000   12.500    0.000    0.000    0.000    0.000 
#    0.000    0.000    0.000    0.000    0.000    0.000 
#
# Total GULP energy -89249.833082 kJ/mol
# GULP energy per Si atom -5578.114568 kJ/mol
# Density = 2.701823 g / cm^3
# Si number density = 27.079869 Si / 1000 Ang^3
#
#
#
# Elastic Constant Matrix: (Units=GPa)
#
#
# Indices 1 2 3 4 5 6 
#
# 1 159.5535 46.2810 2.1502 0.0000 -2.4697 0.0000
# 2 46.2810 161.5419 11.6992 0.0000 -14.9637 0.0000
# 3 2.1502 11.6992 41.1115 0.0000 -2.5026 0.0000
# 4 0.0000 0.0000 0.0000 30.0074 0.0000 0.8484
# 5 -2.4697 -14.9637 -2.5026 0.0000 37.3764 0.0000
# 6 0.0000 0.0000 0.0000 0.8484 0.0000 69.1828
#
#
#
# Elastic Compliance Matrix: (Units=1/GPa)
#
#
# Indices 1 2 3 4 5 6 
#
# 1 0.006841 -0.002005 0.000192 0.000000 -0.000338 0.000000
# 2 -0.002005 0.007134 -0.001767 0.000000 0.002605 0.000000
# 3 0.000192 -0.001767 0.024876 0.000000 0.000971 0.000000
# 4 0.000000 0.000000 0.000000 0.033337 0.000000 -0.000409
# 5 -0.000338 0.002605 0.000971 0.000000 0.027841 0.000000
# 6 0.000000 0.000000 0.000000 -0.000409 0.000000 0.014459
#
#
# Mechanical properties :
#
#
# Convention : Reuss Voigt Hill
#
# Bulk Modulus (GPa) = 31.55372 53.60751 42.58062
# Shear Modulus (GPa) = 37.81820 47.45174 42.63497
#
# Velocity S-wave (km/s) = 3.74109 4.19058 3.97220
# Velocity P-wave (km/s) = 5.50803 6.57675 6.06597
#
# Compressibility (1/GPa) = 0.03169199
#
# Stress axis : x y z
#
# Youngs Moduli (GPa) = 146.17069 140.17157 40.19957
#
# Poissons Ratio (x) = 0.28108 -0.00773
# Poissons Ratio (y) = 0.29310 0.07102
# Poissons Ratio (z) = -0.02810 0.24764
#
# Static dielectric constant tensor:
#      x y z
#    x 2.216200 0.000000 -0.024350 
#    y 0.000000 2.291210 0.000000 
#    z -0.024350 0.000000 2.253230 
# 
# From -- ./inp_files/24396.got.cif
#   From: 2010.05.17/outbox.cif.g08.bks.cpg/sg9_13_cif.got.tgz:24396.got - 2010.06.03 20:04:27.
