data_PCOD9139486
_publ_section_title
;
Structure prediction by ZEFSAII (Michael W. Deem and Ramdas Pophale) SiO2 
 PCOD9139486
Probable space group: C C
;
_chemical_formula_sum "Si O2"
_cell_formula_units_Z 32
_cell_length_a 21.925269
_cell_length_b 7.975046
_cell_length_c 9.707568
_cell_angle_alpha 90.000000
_cell_angle_beta 49.028931
_cell_angle_gamma 90.000000
_cell_volume 1281.619076
_symmetry_space_group_name_H-M "C C"
_symmetry_group_IT_number 9
_symmetry_cell_setting 'monoclinic'
loop_
_space_group_symop_operation_xyz
x,y,z
x,-y,1/2+z
1/2+x,1/2+y,z
1/2+x,1/2-y,1/2+z
loop_
_atom_site_type_symbol
_atom_site_label
_atom_site_fract_x
_atom_site_fract_y
_atom_site_fract_z
Si Si1 0.895890 0.434146 0.114350
Si Si2 0.204485 0.540041 0.104541
Si Si3 0.452682 0.573488 0.032931
Si Si4 0.541151 0.556010 0.148324
Si Si5 0.052623 0.623615 0.793896
Si Si6 0.169606 0.889018 0.768890
Si Si7 0.258543 0.110765 0.412213
Si Si8 0.782446 0.864448 0.752814
O O1 0.948693 0.271217 0.068422
O O2 0.848977 0.541548 0.296677
O O3 0.816461 0.324763 0.174934
O O4 0.961812 0.561718 0.955200
O O5 0.112190 0.533313 0.191856
O O6 0.216204 0.559086 0.250156
O O7 0.246315 0.708427 0.993236
O O8 0.250642 0.389070 0.956007
O O9 0.468796 0.495732 0.156780
O O10 0.364178 0.527750 0.111331
O O11 0.521160 0.530194 0.822634
O O12 0.547276 0.750925 0.174606
O O13 0.616967 0.510325 0.944045
O O14 0.108272 0.735321 0.819874
O O15 0.240245 0.854701 0.775982
O O16 0.201989 0.982707 0.584297
#
# Coordination Sequence:
#
# PCOD9139486 Si02
#       8
#     4   4   4   4   4   4   4   4
#     4  10  28  49  76 118 152 203 257 324 379 465
#     4  12  27  47  80 111 158 203 261 314 387 468
#     4  10  25  46  76 110 153 200 255 318 391 449
#     4  12  24  47  77 111 155 201 255 319 392 453
#     4  12  28  47  79 119 153 198 265 323 386 464
#     4  12  26  50  77 108 154 205 258 315 392 457
#     4  12  27  49  78 111 153 209 256 318 388 464
#     4  10  25  51  73 110 154 203 257 311 389 454
#
# _framework density 24.968418
#
# number of rings (size 3 to 8) (size 9 to 14) (size 15 to 20)
#    0.750    0.000    2.500    3.000    7.000    4.000 
#    0.000    0.000    0.000    0.000    0.000    0.000 
#    0.000    0.000    0.000    0.000    0.000    0.000 
#
# Total GULP energy -89133.541792 kJ/mol
# GULP energy per Si atom -5570.846362 kJ/mol
# Density = 2.491159 g / cm^3
# Si number density = 24.968418 Si / 1000 Ang^3
#
#
#
# Elastic Constant Matrix: (Units=GPa)
#
#
# Indices 1 2 3 4 5 6 
#
# 1 48.6849 15.3383 32.7172 0.0000 7.9638 0.0000
# 2 15.3383 85.1874 27.9886 0.0000 -11.1263 0.0000
# 3 32.7172 27.9886 114.2719 0.0000 -17.8917 0.0000
# 4 0.0000 0.0000 0.0000 29.1676 0.0000 -13.0059
# 5 7.9638 -11.1263 -17.8917 0.0000 54.0378 0.0000
# 6 0.0000 0.0000 0.0000 -13.0059 0.0000 35.8926
#
#
#
# Elastic Compliance Matrix: (Units=1/GPa)
#
#
# Indices 1 2 3 4 5 6 
#
# 1 0.028638 -0.003346 -0.008594 0.000000 -0.007755 0.000000
# 2 -0.003346 0.013303 -0.001893 0.000000 0.002606 0.000000
# 3 -0.008594 -0.001893 0.012458 0.000000 0.005002 0.000000
# 4 0.000000 0.000000 0.000000 0.040892 0.000000 0.014817
# 5 -0.007755 0.002606 0.005002 0.000000 0.021841 0.000000
# 6 0.000000 0.000000 0.000000 0.014817 0.000000 0.033230
#
#
# Mechanical properties :
#
#
# Convention : Reuss Voigt Hill
#
# Bulk Modulus (GPa) = 37.40383 44.47027 40.93705
# Shear Modulus (GPa) = 26.74666 35.29294 31.01980
#
# Velocity S-wave (km/s) = 3.27650 3.76374 3.52854
# Velocity P-wave (km/s) = 5.41543 6.06110 5.74734
#
# Compressibility (1/GPa) = 0.02673523
#
# Stress axis : x y z
#
# Youngs Moduli (GPa) = 34.91827 75.16909 80.26754
#
# Poissons Ratio (x) = 0.25149 0.68983
# Poissons Ratio (y) = 0.11682 0.15191
# Poissons Ratio (z) = 0.30009 0.14226
#
# Static dielectric constant tensor:
#      x y z
#    x 2.065330 0.000000 -0.016770 
#    y 0.000000 2.044640 0.000000 
#    z -0.016770 0.000000 1.954120 
# 
# From -- ./inp_files/12414.got.cif
#   From: 2010.05.17/outbox.cif.g08.bks.cpg/sg9_7_cif.got.tgz:12414.got - 2010.06.03 20:04:27.
