data_PCOD9139113
_publ_section_title
;
Structure prediction by ZEFSAII (Michael W. Deem and Ramdas Pophale) SiO2 
 PCOD9139113
Probable space group: C C
;
_chemical_formula_sum "Si O2"
_cell_formula_units_Z 32
_cell_length_a 10.952529
_cell_length_b 14.316692
_cell_length_c 8.311246
_cell_angle_alpha 90.000000
_cell_angle_beta 89.231265
_cell_angle_gamma 90.000000
_cell_volume 1303.119188
_symmetry_space_group_name_H-M "C C"
_symmetry_group_IT_number 9
_symmetry_cell_setting 'monoclinic'
loop_
_space_group_symop_operation_xyz
x,y,z
x,-y,1/2+z
1/2+x,1/2+y,z
1/2+x,1/2-y,1/2+z
loop_
_atom_site_type_symbol
_atom_site_label
_atom_site_fract_x
_atom_site_fract_y
_atom_site_fract_z
Si Si1 0.517570 0.787590 0.411180
Si Si2 0.352593 0.316836 0.680298
Si Si3 0.802801 0.000560 0.565666
Si Si4 0.574445 0.353843 0.443148
Si Si5 0.746545 0.680597 0.442953
Si Si6 0.014485 0.669512 0.286819
Si Si7 0.583936 0.530232 0.608809
Si Si8 0.124506 0.538633 0.793191
O O1 0.416621 0.723113 0.334433
O O2 0.647316 0.744122 0.354755
O O3 0.508245 0.794810 0.602706
O O4 0.516210 0.890496 0.336688
O O5 0.305248 0.420921 0.707223
O O6 0.443152 0.338143 0.528796
O O7 0.269159 0.237707 0.607658
O O8 0.729565 0.949640 0.426001
O O9 0.941455 0.034720 0.551093
O O10 0.697739 0.068984 0.631929
O O11 0.595165 0.246883 0.384203
O O12 0.628714 0.422392 0.582503
O O13 0.579689 0.420577 0.284556
O O14 0.876290 0.665988 0.357490
O O15 0.673617 0.588986 0.495442
O O16 0.066562 0.564563 0.286617
#
# Coordination Sequence:
#
# PCOD9139113 Si02
#       8
#     4   4   4   4   4   4   4   4
#     4  12  26  50  76 109 158 208 262 322 400 476
#     4  10  24  48  74 109 153 198 257 327 397 469
#     4  11  24  43  76 111 145 200 266 327 384 468
#     4  10  24  44  73 106 151 196 255 320 390 467
#     4  11  25  49  74 113 157 198 261 330 394 481
#     4  11  26  51  73 112 161 205 263 331 402 473
#     4  11  24  46  75 110 152 198 265 333 391 465
#     4  12  25  47  75 108 155 209 263 324 392 477
#
# _framework density 24.556464999999999
#
# number of rings (size 3 to 8) (size 9 to 14) (size 15 to 20)
#    0.000    1.000    3.750    1.500   10.500    0.000 
#    6.750    0.000    0.000    0.000    0.000    0.000 
#    0.000    0.000    0.000    0.000    0.000    0.000 
#
# Total GULP energy -89229.733210 kJ/mol
# GULP energy per Si atom -5576.858326 kJ/mol
# Density = 2.450057 g / cm^3
# Si number density = 24.556465 Si / 1000 Ang^3
#
#
#
# Elastic Constant Matrix: (Units=GPa)
#
#
# Indices 1 2 3 4 5 6 
#
# 1 91.4144 38.1575 26.0630 0.0000 -24.8477 0.0000
# 2 38.1575 153.5164 32.3431 0.0000 -0.2327 0.0000
# 3 26.0630 32.3431 62.1104 0.0000 -12.3216 0.0000
# 4 0.0000 0.0000 0.0000 28.1960 0.0000 6.3721
# 5 -24.8477 -0.2327 -12.3216 0.0000 47.7442 0.0000
# 6 0.0000 0.0000 0.0000 6.3721 0.0000 40.0730
#
#
#
# Elastic Compliance Matrix: (Units=1/GPa)
#
#
# Indices 1 2 3 4 5 6 
#
# 1 0.015048 -0.003021 -0.003363 0.000000 0.006949 0.000000
# 2 -0.003021 0.007969 -0.003358 0.000000 -0.002400 0.000000
# 3 -0.003363 -0.003358 0.019930 0.000000 0.003377 0.000000
# 4 0.000000 0.000000 0.000000 0.036788 0.000000 -0.005850
# 5 0.006949 -0.002400 0.003377 0.000000 0.025421 0.000000
# 6 0.000000 0.000000 0.000000 -0.005850 0.000000 0.025885
#
#
# Mechanical properties :
#
#
# Convention : Reuss Voigt Hill
#
# Bulk Modulus (GPa) = 42.62059 55.57428 49.09744
# Shear Modulus (GPa) = 31.57664 37.23448 34.40556
#
# Velocity S-wave (km/s) = 3.58981 3.89817 3.74716
# Velocity P-wave (km/s) = 5.88015 6.55296 6.22565
#
# Compressibility (1/GPa) = 0.02346284
#
# Stress axis : x y z
#
# Youngs Moduli (GPa) = 66.45491 125.49028 50.17573
#
# Poissons Ratio (x) = 0.37914 0.16872
# Poissons Ratio (y) = 0.20078 0.16849
# Poissons Ratio (z) = 0.22346 0.42139
#
# Static dielectric constant tensor:
#      x y z
#    x 1.943650 0.000000 -0.008250 
#    y 0.000000 2.092150 0.000000 
#    z -0.008250 0.000000 2.093320 
# 
# From -- ./inp_files/7607.got.cif
#   From: 2010.05.17/outbox.cif.g08.bks.cpg/sg9_4_cif.got.tgz:7607.got - 2010.06.03 20:04:27.
