data_PCOD9139580
_publ_section_title
;
Structure prediction by ZEFSAII (Michael W. Deem and Ramdas Pophale) SiO2 
 PCOD9139580
Probable space group: C C
;
_chemical_formula_sum "Si O2"
_cell_formula_units_Z 32
_cell_length_a 10.682187
_cell_length_b 15.106500
_cell_length_c 16.902041
_cell_angle_alpha 90.000000
_cell_angle_beta 30.823284
_cell_angle_gamma 90.000000
_cell_volume 1397.543802
_symmetry_space_group_name_H-M "C C"
_symmetry_group_IT_number 9
_symmetry_cell_setting 'monoclinic'
loop_
_space_group_symop_operation_xyz
x,y,z
x,-y,1/2+z
1/2+x,1/2+y,z
1/2+x,1/2-y,1/2+z
loop_
_atom_site_type_symbol
_atom_site_label
_atom_site_fract_x
_atom_site_fract_y
_atom_site_fract_z
Si Si1 0.898090 0.980961 0.239430
Si Si2 0.449906 0.666907 0.280572
Si Si3 0.496787 0.556455 0.012940
Si Si4 0.343790 0.789878 0.877671
Si Si5 0.539585 0.747797 0.069108
Si Si6 0.500602 0.135589 0.028410
Si Si7 0.762508 0.657563 0.595507
Si Si8 0.978383 0.459776 0.706500
O O1 0.678540 0.911418 0.368555
O O2 0.136650 0.936038 0.148911
O O3 0.842365 0.071530 0.315083
O O4 0.956580 0.004568 0.117389
O O5 0.433158 0.727517 0.211743
O O6 0.320664 0.721499 0.420120
O O7 0.730219 0.647934 0.144851
O O8 0.498176 0.660014 0.037992
O O9 0.257371 0.531749 0.089581
O O10 0.765593 0.533823 0.831754
O O11 0.547088 0.726181 0.731386
O O12 0.358102 0.879262 0.821192
O O13 0.386754 0.812908 0.946188
O O14 0.101154 0.731766 0.999946
O O15 0.424634 0.829386 0.084200
O O16 0.504606 0.072548 0.102745
#
# Coordination Sequence:
#
# PCOD9139580 Si02
#       8
#     4   4   4   4   4   4   4   4
#     4  10  26  44  73 107 142 195 243 312 369 451
#     4  11  28  45  69 107 145 195 245 311 375 442
#     4  11  26  47  75 111 149 199 249 312 380 445
#     4  11  21  41  70  99 135 194 242 303 360 448
#     4  11  25  45  72 105 147 194 245 305 379 447
#     4  11  27  45  69 102 148 192 255 304 381 440
#     4  11  21  43  72 100 141 188 246 297 365 449
#     4  12  26  46  74 109 151 195 255 310 377 450
#
# _framework density 22.897316
#
# number of rings (size 3 to 8) (size 9 to 14) (size 15 to 20)
#    0.000    1.000    3.750    0.750   10.500    3.000 
#    0.000    0.000    0.000    0.000    0.000    0.000 
#    0.000    0.000    0.000    0.000    0.000    0.000 
#
# Total GULP energy -89467.085948 kJ/mol
# GULP energy per Si atom -5591.692872 kJ/mol
# Density = 2.284520 g / cm^3
# Si number density = 22.897316 Si / 1000 Ang^3
#
#
#
# Elastic Constant Matrix: (Units=GPa)
#
#
# Indices 1 2 3 4 5 6 
#
# 1 55.9448 29.1315 7.1284 -0.0062 -14.0096 0.0021
# 2 29.1315 67.7308 30.0640 -0.0077 -0.5845 -0.0003
# 3 7.1284 30.0640 55.7731 -0.0109 -8.0106 0.0044
# 4 -0.0062 -0.0077 -0.0109 46.4463 0.0014 2.8591
# 5 -14.0096 -0.5845 -8.0106 0.0014 40.9677 0.0028
# 6 0.0021 -0.0003 0.0044 2.8591 0.0028 27.6282
#
#
#
# Elastic Compliance Matrix: (Units=1/GPa)
#
#
# Indices 1 2 3 4 5 6 
#
# 1 0.026977 -0.013973 0.005536 0.000003 0.010108 -0.000004
# 2 -0.013973 0.026778 -0.013664 -0.000001 -0.007068 0.000004
# 3 0.005536 -0.013664 0.025549 0.000005 0.006694 -0.000006
# 4 0.000003 -0.000001 0.000005 0.021668 0.000001 -0.002242
# 5 0.010108 -0.007068 0.006694 0.000001 0.029074 -0.000005
# 6 -0.000004 0.000004 -0.000006 -0.002242 -0.000005 0.036427
#
#
# Mechanical properties :
#
#
# Convention : Reuss Voigt Hill
#
# Bulk Modulus (GPa) = 28.48824 34.67739 31.58282
# Shear Modulus (GPa) = 22.48452 30.55011 26.51732
#
# Velocity S-wave (km/s) = 3.13704 3.65666 3.40677
# Velocity P-wave (km/s) = 5.05867 5.74507 5.41276
#
# Compressibility (1/GPa) = 0.03510220
#
# Stress axis : x y z
#
# Youngs Moduli (GPa) = 37.06926 37.34390 39.14045
#
# Poissons Ratio (x) = 0.52180 -0.21667
# Poissons Ratio (y) = 0.51796 0.53481
# Poissons Ratio (z) = -0.20521 0.51026
#
# Static dielectric constant tensor:
#      x y z
#    x 1.848640 0.000000 -0.069180 
#    y 0.000000 1.852580 0.000000 
#    z -0.069180 0.000000 1.893730 
# 
# From -- ./inp_files/30161.got.cif
#   From: 2010.05.17/outbox.cif.g08.bks.cpg/sg9_16_cif.got.tgz:30161.got - 2010.06.03 20:04:27.
