data_PCOD9139258
_publ_section_title
;
Structure prediction by ZEFSAII (Michael W. Deem and Ramdas Pophale) SiO2 
 PCOD9139258
Probable space group: C C
;
_chemical_formula_sum "Si O2"
_cell_formula_units_Z 28
_cell_length_a 8.143983
_cell_length_b 10.293124
_cell_length_c 17.237828
_cell_angle_alpha 90.000000
_cell_angle_beta 131.775286
_cell_angle_gamma 90.000000
_cell_volume 1077.625081
_symmetry_space_group_name_H-M "C C"
_symmetry_group_IT_number 9
_symmetry_cell_setting 'monoclinic'
loop_
_space_group_symop_operation_xyz
x,y,z
x,-y,1/2+z
1/2+x,1/2+y,z
1/2+x,1/2-y,1/2+z
loop_
_atom_site_type_symbol
_atom_site_label
_atom_site_fract_x
_atom_site_fract_y
_atom_site_fract_z
Si Si1 0.529110 0.396708 0.410280
Si Si2 0.693032 0.268451 0.310196
Si Si3 0.218652 0.577180 0.076752
Si Si4 0.047311 0.867184 0.014051
Si Si5 0.660751 0.434377 0.687274
Si Si6 0.580761 0.923226 0.357107
Si Si7 0.716080 0.789619 0.097562
O O1 0.606282 0.370606 0.347662
O O2 0.631228 0.531931 0.474378
O O3 0.765700 0.896007 0.349513
O O4 0.628220 0.280057 0.493212
O O5 0.898648 0.311981 0.320989
O O6 0.477589 0.256771 0.188714
O O7 0.806065 0.159563 0.400544
O O8 0.204045 0.562783 0.978118
O O9 0.126473 0.721186 0.057904
O O10 0.466482 0.566616 0.187623
O O11 0.133662 0.437034 0.077419
O O12 0.101210 0.952671 0.106751
O O13 0.908403 0.460025 0.788444
O O14 0.625036 0.294374 0.639048
#
# Coordination Sequence:
#
# PCOD9139258 Si02
#       7
#     4   4   4   4   4   4   4
#     4  11  25  49  77 111 154 203 255 322 381 461
#     4  11  25  47  77 113 152 202 257 318 386 459
#     4  11  23  46  71 108 149 191 253 313 377 452
#     4  10  24  47  71 109 149 192 255 311 375 458
#     4  11  23  46  74 101 153 200 246 319 375 442
#     4  11  24  49  76 105 154 206 253 314 384 455
#     4  11  24  44  78 111 149 202 253 313 394 447
#
# _framework density 25.983062
#
# number of rings (size 3 to 8) (size 9 to 14) (size 15 to 20)
#    0.000    1.143    4.286    1.714    2.000    3.429 
#    5.143    2.857    0.000    0.000    0.000    0.000 
#    0.000    0.000    0.000    0.000    0.000    0.000 
#
# Total GULP energy -78004.205538 kJ/mol
# GULP energy per Si atom -5571.728967 kJ/mol
# Density = 2.592392 g / cm^3
# Si number density = 25.983062 Si / 1000 Ang^3
#
#
#
# Elastic Constant Matrix: (Units=GPa)
#
#
# Indices 1 2 3 4 5 6 
#
# 1 51.8198 37.6303 36.1212 0.0000 23.5628 0.0000
# 2 37.6303 198.6599 37.9716 0.0000 12.5382 0.0000
# 3 36.1212 37.9716 131.4106 0.0000 45.4990 0.0000
# 4 0.0000 0.0000 0.0000 51.8082 0.0000 -2.3793
# 5 23.5628 12.5382 45.4990 0.0000 39.0757 0.0000
# 6 0.0000 0.0000 0.0000 -2.3793 0.0000 10.4200
#
#
#
# Elastic Compliance Matrix: (Units=1/GPa)
#
#
# Indices 1 2 3 4 5 6 
#
# 1 0.030651 -0.004488 -0.002057 0.000000 -0.014648 0.000000
# 2 -0.004488 0.005986 -0.001287 0.000000 0.002284 0.000000
# 3 -0.002057 -0.001287 0.013361 0.000000 -0.013904 0.000000
# 4 0.000000 0.000000 0.000000 0.019507 0.000000 0.004454
# 5 -0.014648 0.002284 -0.013904 0.000000 0.049881 0.000000
# 6 0.000000 0.000000 0.000000 0.004454 0.000000 0.096986
#
#
# Mechanical properties :
#
#
# Convention : Reuss Voigt Hill
#
# Bulk Modulus (GPa) = 29.12526 67.25961 48.19243
# Shear Modulus (GPa) = 20.53558 38.27192 29.40375
#
# Velocity S-wave (km/s) = 2.81436 3.84208 3.36765
# Velocity P-wave (km/s) = 4.66845 6.75457 5.80597
#
# Compressibility (1/GPa) = 0.03433446
#
# Stress axis : x y z
#
# Youngs Moduli (GPa) = 32.62529 167.06488 74.84485
#
# Poissons Ratio (x) = 0.74985 0.15392
# Poissons Ratio (y) = 0.14643 0.09630
# Poissons Ratio (z) = 0.06710 0.21496
#
# Static dielectric constant tensor:
#      x y z
#    x 2.129650 0.000000 0.075340 
#    y 0.000000 2.141970 0.000000 
#    z 0.075340 0.000000 2.086080 
# 
# From -- ./inp_files/36526.got.cif
#   From: 2010.05.17/outbox.cif.g08.bks.cpg/sg9_19_cif.got.tgz:36526.got - 2010.06.03 20:04:27.
