data_PCOD9139106
_publ_section_title
;
Structure prediction by ZEFSAII (Michael W. Deem and Ramdas Pophale) SiO2 
 PCOD9139106
Probable space group: C C
;
_chemical_formula_sum "Si O2"
_cell_formula_units_Z 28
_cell_length_a 12.802934
_cell_length_b 5.083286
_cell_length_c 15.916375
_cell_angle_alpha 90.000000
_cell_angle_beta 77.971734
_cell_angle_gamma 90.000000
_cell_volume 1013.110957
_symmetry_space_group_name_H-M "C C"
_symmetry_group_IT_number 9
_symmetry_cell_setting 'monoclinic'
loop_
_space_group_symop_operation_xyz
x,y,z
x,-y,1/2+z
1/2+x,1/2+y,z
1/2+x,1/2-y,1/2+z
loop_
_atom_site_type_symbol
_atom_site_label
_atom_site_fract_x
_atom_site_fract_y
_atom_site_fract_z
Si Si1 0.939230 0.442121 0.187220
Si Si2 0.420865 0.027795 0.880911
Si Si3 0.755173 0.250590 0.641106
Si Si4 0.554895 0.349303 0.446313
Si Si5 0.053361 0.923372 0.117740
Si Si6 0.164568 0.250313 0.336355
Si Si7 0.753488 0.040438 0.472824
O O1 0.893398 0.488206 0.287452
O O2 0.860124 0.572446 0.133944
O O3 0.968710 0.139585 0.167435
O O4 0.039000 0.639402 0.160741
O O5 0.545234 0.125990 0.857553
O O6 0.338614 0.235270 0.932832
O O7 0.443670 0.767191 0.932502
O O8 0.665222 0.450324 0.623487
O O9 0.719373 0.171348 0.740595
O O10 0.768830 0.020831 0.570272
O O11 0.539298 0.573761 0.519318
O O12 0.628027 0.448576 0.356716
O O13 0.631890 0.153065 0.483241
O O14 0.240687 0.320295 0.402711
#
# Coordination Sequence:
#
# PCOD9139106 Si02
#       7
#     4   4   4   4   4   4   4
#     4  12  27  47  76 112 149 203 254 312 387 458
#     4  11  24  44  73 104 153 197 262 313 392 461
#     4  11  25  48  74 109 154 199 256 316 385 460
#     4  10  24  44  72 102 151 200 251 322 387 456
#     4  11  27  48  75 112 153 198 254 317 380 459
#     4  11  24  44  74 108 152 200 255 325 388 455
#     4  10  25  45  70 109 148 201 258 315 387 467
#
# _framework density 27.637647000000001
#
# number of rings (size 3 to 8) (size 9 to 14) (size 15 to 20)
#    0.000    1.143    1.429    2.571   10.000    3.429 
#    2.571    0.000    0.000    0.000    0.000    0.000 
#    0.000    0.000    0.000    0.000    0.000    0.000 
#
# Total GULP energy -78416.119155 kJ/mol
# GULP energy per Si atom -5601.151368 kJ/mol
# Density = 2.757474 g / cm^3
# Si number density = 27.637647 Si / 1000 Ang^3
#
#
#
# Elastic Constant Matrix: (Units=GPa)
#
#
# Indices 1 2 3 4 5 6 
#
# 1 127.5061 13.8564 37.7814 0.0000 19.3508 0.0000
# 2 13.8564 99.0312 59.6070 0.0000 -11.0659 0.0000
# 3 37.7814 59.6070 172.6801 0.0000 -8.0443 0.0000
# 4 0.0000 0.0000 0.0000 38.4422 0.0000 -3.1212
# 5 19.3508 -11.0659 -8.0443 0.0000 49.8904 0.0000
# 6 0.0000 0.0000 0.0000 -3.1212 0.0000 50.1723
#
#
#
# Elastic Compliance Matrix: (Units=1/GPa)
#
#
# Indices 1 2 3 4 5 6 
#
# 1 0.009091 -0.000513 -0.001997 0.000000 -0.003962 0.000000
# 2 -0.000513 0.013005 -0.004265 0.000000 0.002396 0.000000
# 3 -0.001997 -0.004265 0.007750 0.000000 0.001078 0.000000
# 4 0.000000 0.000000 0.000000 0.026145 0.000000 0.001626
# 5 -0.003962 0.002396 0.001078 0.000000 0.022286 0.000000
# 6 0.000000 0.000000 0.000000 0.001626 0.000000 0.020032
#
#
# Mechanical properties :
#
#
# Convention : Reuss Voigt Hill
#
# Bulk Modulus (GPa) = 61.36191 69.07857 65.22024
# Shear Modulus (GPa) = 42.62878 46.89915 44.76397
#
# Velocity S-wave (km/s) = 3.93162 4.12385 4.02888
# Velocity P-wave (km/s) = 6.54681 6.90822 6.72994
#
# Compressibility (1/GPa) = 0.01629675
#
# Stress axis : x y z
#
# Youngs Moduli (GPa) = 109.99388 76.89641 129.02556
#
# Poissons Ratio (x) = 0.03945 0.25762
# Poissons Ratio (y) = 0.05643 0.55031
# Poissons Ratio (z) = 0.21962 0.32797
#
# Static dielectric constant tensor:
#      x y z
#    x 2.175270 0.000000 -0.029310 
#    y 0.000000 2.286310 0.000000 
#    z -0.029310 0.000000 2.150580 
# 
# From -- ./inp_files/25257.got.cif
#   From: 2010.05.17/outbox.cif.g08.bks.cpg/sg9_13_cif.got.tgz:25257.got - 2010.06.03 20:04:27.
