data_PCOD9139006
_publ_section_title
;
Structure prediction by ZEFSAII (Michael W. Deem and Ramdas Pophale) SiO2 
 PCOD9139006
Probable space group: C C
;
_chemical_formula_sum "Si O2"
_cell_formula_units_Z 24
_cell_length_a 22.177795
_cell_length_b 4.939694
_cell_length_c 21.697774
_cell_angle_alpha 90.000000
_cell_angle_beta 20.855720
_cell_angle_gamma 90.000000
_cell_volume 846.258413
_symmetry_space_group_name_H-M "C C"
_symmetry_group_IT_number 9
_symmetry_cell_setting 'monoclinic'
loop_
_space_group_symop_operation_xyz
x,y,z
x,-y,1/2+z
1/2+x,1/2+y,z
1/2+x,1/2-y,1/2+z
loop_
_atom_site_type_symbol
_atom_site_label
_atom_site_fract_x
_atom_site_fract_y
_atom_site_fract_z
Si Si1 0.160890 0.459926 0.789090
Si Si2 0.225780 0.961945 0.811529
Si Si3 0.331303 0.935507 0.034359
Si Si4 0.045522 0.600443 0.078001
Si Si5 0.099295 0.358455 0.189330
Si Si6 0.862423 0.029252 0.844603
O O1 0.238281 0.702310 0.754268
O O2 0.153241 0.203027 0.841065
O O3 0.259937 0.336649 0.634576
O O4 0.971105 0.535098 0.950196
O O5 0.406540 0.036435 0.668122
O O6 0.107446 0.860645 0.979990
O O7 0.179766 0.140129 0.160906
O O8 0.454411 0.955564 0.857336
O O9 0.950185 0.712976 0.229689
O O10 0.219032 0.452430 0.930869
O O11 0.247682 0.530598 0.015948
O O12 0.010151 0.174155 0.222315
#
# Coordination Sequence:
#
# PCOD9139006 Si02
#       6
#     4   4   4   4   4   4
#     4  12  26  47  75 111 152 199 254 316 383 457
#     4  11  25  46  74 112 151 197 253 318 383 460
#     4  11  26  45  76 109 155 205 259 317 388 459
#     4  10  24  43  71 109 149 197 252 314 386 455
#     4  10  25  48  74 112 156 206 261 320 386 464
#     4  10  24  45  70 103 151 198 255 317 384 455
#
# _framework density 28.360130000000002
#
# number of rings (size 3 to 8) (size 9 to 14) (size 15 to 20)
#    0.000    1.333    0.000    3.000    0.000   20.000 
#    0.000    0.000    0.000    0.000    0.000    0.000 
#    0.000    0.000    0.000    0.000    0.000    0.000 
#
# Total GULP energy -67288.482194 kJ/mol
# GULP energy per Si atom -5607.373516 kJ/mol
# Density = 2.829558 g / cm^3
# Si number density = 28.360130 Si / 1000 Ang^3
#
#
#
# Elastic Constant Matrix: (Units=GPa)
#
#
# Indices 1 2 3 4 5 6 
#
# 1 191.5079 82.5253 56.4337 0.0028 -25.5365 -0.0006
# 2 82.5253 149.1639 70.7885 -0.0546 7.7874 0.0411
# 3 56.4337 70.7885 133.9699 -0.0054 -3.8292 0.0052
# 4 0.0028 -0.0546 -0.0054 37.5311 0.0132 20.4846
# 5 -25.5365 7.7874 -3.8292 0.0132 77.8525 -0.0103
# 6 -0.0006 0.0411 0.0052 20.4846 -0.0103 37.1300
#
#
#
# Elastic Compliance Matrix: (Units=1/GPa)
#
#
# Indices 1 2 3 4 5 6 
#
# 1 0.007560 -0.003812 -0.001090 -0.000014 0.002807 0.000013
# 2 -0.003812 0.010970 -0.004264 0.000033 -0.002557 -0.000031
# 3 -0.001090 -0.004264 0.010193 -0.000010 0.000570 0.000009
# 4 -0.000014 0.000033 -0.000010 0.038125 -0.000018 -0.021033
# 5 0.002807 -0.002557 0.000570 -0.000018 0.014050 0.000017
# 6 0.000013 -0.000031 0.000009 -0.021033 0.000017 0.038537
#
#
# Mechanical properties :
#
#
# Convention : Reuss Voigt Hill
#
# Bulk Modulus (GPa) = 96.23603 99.34854 97.79228
# Shear Modulus (GPa) = 35.40353 48.16233 41.78293
#
# Velocity S-wave (km/s) = 3.53704 4.12544 3.84252
# Velocity P-wave (km/s) = 7.11956 7.60260 7.36504
#
# Compressibility (1/GPa) = 0.01039112
#
# Stress axis : x y z
#
# Youngs Moduli (GPa) = 132.27696 91.15862 98.10768
#
# Poissons Ratio (x) = 0.34747 0.10696
# Poissons Ratio (y) = 0.50420 0.41831
# Poissons Ratio (z) = 0.14421 0.38868
#
# Static dielectric constant tensor:
#      x y z
#    x 2.297560 -0.000010 0.076220 
#    y -0.000010 2.136660 0.000010 
#    z 0.076220 0.000010 2.165700 
# 
# From -- ./inp_files/36038.got.cif
#   From: 2010.05.17/outbox.cif.g08.bks.cpg/sg9_19_cif.got.tgz:36038.got - 2010.06.03 20:04:27.
