data_PCOD9139596
_publ_section_title
;
Structure prediction by ZEFSAII (Michael W. Deem and Ramdas Pophale) SiO2 
 PCOD9139596
Probable space group: C C
;
_chemical_formula_sum "Si O2"
_cell_formula_units_Z 28
_cell_length_a 7.038450
_cell_length_b 30.706962
_cell_length_c 4.975992
_cell_angle_alpha 90.000000
_cell_angle_beta 101.391338
_cell_angle_gamma 90.000000
_cell_volume 1054.272845
_symmetry_space_group_name_H-M "C C"
_symmetry_group_IT_number 9
_symmetry_cell_setting 'monoclinic'
loop_
_space_group_symop_operation_xyz
x,y,z
x,-y,1/2+z
1/2+x,1/2+y,z
1/2+x,1/2-y,1/2+z
loop_
_atom_site_type_symbol
_atom_site_label
_atom_site_fract_x
_atom_site_fract_y
_atom_site_fract_z
Si Si1 0.118110 0.754178 0.973200
Si Si2 0.745800 0.796724 0.021393
Si Si3 0.904934 0.617185 0.814061
Si Si4 0.305833 0.379427 0.723752
Si Si5 0.222412 0.156724 0.245935
Si Si6 0.809850 0.023920 0.215241
Si Si7 0.840344 0.475243 0.537748
O O1 0.105543 0.720333 0.716179
O O2 0.219432 0.794882 0.858915
O O3 0.221117 0.724959 0.221958
O O4 0.960697 0.778113 0.124443
O O5 0.744205 0.847605 0.949726
O O6 0.837939 0.626551 0.492729
O O7 0.811711 0.572114 0.900723
O O8 0.819357 0.654427 0.983726
O O9 0.131391 0.616022 0.960210
O O10 0.501283 0.358926 0.661793
O O11 0.354778 0.428108 0.829790
O O12 0.877746 0.986554 0.435711
O O13 0.575011 0.021751 0.133907
O O14 0.771627 0.487005 0.815716
#
# Coordination Sequence:
#
# PCOD9139596 Si02
#       7
#     4   4   4   4   4   4   4
#     4  11  25  43  66  98 136 177 225 291 341 403
#     4  11  25  43  69  98 135 181 225 286 346 410
#     4  11  24  42  72  96 130 191 221 278 352 409
#     4  10  26  46  70 102 139 180 233 282 345 414
#     4  11  26  45  66 100 141 172 233 290 335 410
#     4   9  19  37  64  94 130 175 220 277 340 402
#     4   9  17  34  59  92 131 166 221 278 333 402
#
# _framework density 26.558589999999999
#
# number of rings (size 3 to 8) (size 9 to 14) (size 15 to 20)
#    0.000    1.714    0.000    2.571    6.000   10.286 
#    0.000    4.286    0.000    0.000    0.000    0.000 
#    0.000    0.000    0.000    0.000    0.000    0.000 
#
# Total GULP energy -78360.784874 kJ/mol
# GULP energy per Si atom -5597.198920 kJ/mol
# Density = 2.649814 g / cm^3
# Si number density = 26.558590 Si / 1000 Ang^3
#
#
#
# Elastic Constant Matrix: (Units=GPa)
#
#
# Indices 1 2 3 4 5 6 
#
# 1 35.3428 21.3893 -3.7152 0.0000 11.0361 0.0000
# 2 21.3893 150.0074 35.8857 0.0000 -5.4003 0.0000
# 3 -3.7152 35.8857 77.4333 0.0000 -14.6045 0.0000
# 4 0.0000 0.0000 0.0000 40.2807 0.0000 3.7811
# 5 11.0361 -5.4003 -14.6045 0.0000 38.6103 0.0000
# 6 0.0000 0.0000 0.0000 3.7811 0.0000 36.8292
#
#
#
# Elastic Compliance Matrix: (Units=1/GPa)
#
#
# Indices 1 2 3 4 5 6 
#
# 1 0.035317 -0.006018 0.002607 0.000000 -0.009951 0.000000
# 2 -0.006018 0.008526 -0.003974 0.000000 0.001409 0.000000
# 3 0.002607 -0.003974 0.015760 0.000000 0.004660 0.000000
# 4 0.000000 0.000000 0.000000 0.025067 0.000000 -0.002574
# 5 -0.009951 0.001409 0.004660 0.000000 0.030704 0.000000
# 6 0.000000 0.000000 0.000000 -0.002574 0.000000 0.027417
#
#
# Mechanical properties :
#
#
# Convention : Reuss Voigt Hill
#
# Bulk Modulus (GPa) = 22.30504 41.10034 31.70269
# Shear Modulus (GPa) = 28.98452 37.09228 33.03840
#
# Velocity S-wave (km/s) = 3.30713 3.74119 3.53084
# Velocity P-wave (km/s) = 4.79578 5.84559 5.34652
#
# Compressibility (1/GPa) = 0.04483292
#
# Stress axis : x y z
#
# Youngs Moduli (GPa) = 28.31476 117.29070 63.45114
#
# Poissons Ratio (x) = 0.70581 -0.16539
# Poissons Ratio (y) = 0.17039 0.25216
# Poissons Ratio (z) = -0.07380 0.46613
#
# Static dielectric constant tensor:
#      x y z
#    x 2.224340 0.000000 0.084790 
#    y 0.000000 1.811450 0.000000 
#    z 0.084790 0.000000 2.015670 
# 
# From -- ./inp_files/1303.got.cif
#   From: 2010.05.17/outbox.cif.g08.bks.cpg/sg9_1_cif.got.tgz:1303.got - 2010.06.03 20:04:27.
