data_PCOD9139502
_publ_section_title
;
Structure prediction by ZEFSAII (Michael W. Deem and Ramdas Pophale) SiO2 
 PCOD9139502
Probable space group: C C
;
_chemical_formula_sum "Si O2"
_cell_formula_units_Z 28
_cell_length_a 27.043321
_cell_length_b 4.909865
_cell_length_c 8.984886
_cell_angle_alpha 90.000000
_cell_angle_beta 114.692875
_cell_angle_gamma 90.000000
_cell_volume 1083.916487
_symmetry_space_group_name_H-M "C C"
_symmetry_group_IT_number 9
_symmetry_cell_setting 'monoclinic'
loop_
_space_group_symop_operation_xyz
x,y,z
x,-y,1/2+z
1/2+x,1/2+y,z
1/2+x,1/2-y,1/2+z
loop_
_atom_site_type_symbol
_atom_site_label
_atom_site_fract_x
_atom_site_fract_y
_atom_site_fract_z
Si Si1 0.342280 0.240106 0.953970
Si Si2 0.236461 0.381448 0.355837
Si Si3 0.411885 0.521932 0.291877
Si Si4 0.700949 0.350822 0.128980
Si Si5 0.429933 0.872187 0.061782
Si Si6 0.036429 0.658563 0.186101
Si Si7 0.077287 0.852636 0.917608
O O1 0.287373 0.406695 0.911325
O O2 0.364267 0.332260 0.822920
O O3 0.364030 0.925967 0.976957
O O4 0.382017 0.335489 0.134550
O O5 0.229684 0.269825 0.515634
O O6 0.193122 0.599398 0.235542
O O7 0.232353 0.110172 0.244308
O O8 0.442502 0.334057 0.445459
O O9 0.443542 0.258206 0.736504
O O10 0.640968 0.432849 0.002054
O O11 0.471819 0.112905 0.090466
O O12 0.064854 0.383828 0.281977
O O13 0.046070 0.882624 0.323472
O O14 0.060381 0.753945 0.059648
#
# Coordination Sequence:
#
# PCOD9139502 Si02
#       7
#     4   4   4   4   4   4   4
#     4  11  25  46  74 112 158 205 262 325 391 481
#     4  12  27  48  85 118 162 215 273 332 417 474
#     4  10  25  47  72 107 159 206 258 331 388 467
#     4  12  26  52  83 121 164 212 275 345 406 483
#     4  11  27  47  78 110 167 207 275 323 408 480
#     4  12  29  48  83 118 164 216 275 328 414 486
#     4  12  27  52  81 122 164 213 274 342 408 481
#
# _framework density 25.832250999999999
#
# number of rings (size 3 to 8) (size 9 to 14) (size 15 to 20)
#    0.000    0.571    0.000    6.000   12.000    0.000 
#    2.571    0.000    0.000    0.000    0.000    0.000 
#    0.000    0.000    0.000    0.000    0.000    0.000 
#
# Total GULP energy -78352.042908 kJ/mol
# GULP energy per Si atom -5596.574493 kJ/mol
# Density = 2.577346 g / cm^3
# Si number density = 25.832251 Si / 1000 Ang^3
#
#
#
# Elastic Constant Matrix: (Units=GPa)
#
#
# Indices 1 2 3 4 5 6 
#
# 1 125.8728 33.6995 49.5326 0.0000 9.3919 0.0000
# 2 33.6995 146.9982 41.4148 0.0000 13.3017 0.0000
# 3 49.5326 41.4148 121.0412 0.0000 -11.5473 0.0000
# 4 0.0000 0.0000 0.0000 46.4958 0.0000 1.7618
# 5 9.3919 13.3017 -11.5473 0.0000 35.1234 0.0000
# 6 0.0000 0.0000 0.0000 1.7618 0.0000 33.9559
#
#
#
# Elastic Compliance Matrix: (Units=1/GPa)
#
#
# Indices 1 2 3 4 5 6 
#
# 1 0.010101 -0.000781 -0.004228 0.000000 -0.003795 0.000000
# 2 -0.000781 0.008120 -0.002821 0.000000 -0.003794 0.000000
# 3 -0.004228 -0.002821 0.011528 0.000000 0.005989 0.000000
# 4 0.000000 0.000000 0.000000 0.021550 0.000000 -0.001118
# 5 -0.003795 -0.003794 0.005989 0.000000 0.032891 0.000000
# 6 0.000000 0.000000 0.000000 -0.001118 0.000000 0.029508
#
#
# Mechanical properties :
#
#
# Convention : Reuss Voigt Hill
#
# Bulk Modulus (GPa) = 70.97581 71.46732 71.22157
# Shear Modulus (GPa) = 37.29846 41.06605 39.18225
#
# Velocity S-wave (km/s) = 3.80395 3.99146 3.89883
# Velocity P-wave (km/s) = 6.84315 6.99773 6.92087
#
# Compressibility (1/GPa) = 0.01408931
#
# Stress axis : x y z
#
# Youngs Moduli (GPa) = 99.00344 123.15645 86.74261
#
# Poissons Ratio (x) = 0.09617 0.36677
# Poissons Ratio (y) = 0.07731 0.24466
# Poissons Ratio (z) = 0.41861 0.34737
#
# Static dielectric constant tensor:
#      x y z
#    x 2.046430 0.000000 0.058500 
#    y 0.000000 2.129460 0.000000 
#    z 0.058500 0.000000 1.995110 
# 
# From -- ./inp_files/12592.got.cif
#   From: 2010.05.17/outbox.cif.g08.bks.cpg/sg9_7_cif.got.tgz:12592.got - 2010.06.03 20:04:27.
