data_PCOD9139305
_publ_section_title
;
Structure prediction by ZEFSAII (Michael W. Deem and Ramdas Pophale) SiO2 
 PCOD9139305
Probable space group: C C
;
_chemical_formula_sum "Si O2"
_cell_formula_units_Z 28
_cell_length_a 13.307973
_cell_length_b 5.217542
_cell_length_c 18.907695
_cell_angle_alpha 90.000000
_cell_angle_beta 126.518842
_cell_angle_gamma 90.000000
_cell_volume 1055.089881
_symmetry_space_group_name_H-M "C C"
_symmetry_group_IT_number 9
_symmetry_cell_setting 'monoclinic'
loop_
_space_group_symop_operation_xyz
x,y,z
x,-y,1/2+z
1/2+x,1/2+y,z
1/2+x,1/2-y,1/2+z
loop_
_atom_site_type_symbol
_atom_site_label
_atom_site_fract_x
_atom_site_fract_y
_atom_site_fract_z
Si Si1 0.736300 0.775842 0.747700
Si Si2 0.635112 0.580662 0.099911
Si Si3 0.048444 0.582949 0.003641
Si Si4 0.156235 0.339682 0.869525
Si Si5 0.960772 0.465791 0.614886
Si Si6 0.866825 0.031158 0.064816
Si Si7 0.506365 0.688451 0.334952
O O1 0.716757 0.498002 0.702178
O O2 0.731006 0.766854 0.829946
O O3 0.611043 0.944190 0.679377
O O4 0.492277 0.427962 0.569582
O O5 0.635779 0.325563 0.054172
O O6 0.632258 0.830103 0.050237
O O7 0.361807 0.388840 0.767439
O O8 0.942712 0.565221 0.021196
O O9 0.999650 0.648020 0.906047
O O10 0.064496 0.581954 0.811798
O O11 0.087516 0.075164 0.865780
O O12 0.249745 0.467291 0.966488
O O13 0.881558 0.700165 0.609414
O O14 0.905700 0.211964 0.627145
#
# Coordination Sequence:
#
# PCOD9139305 Si02
#       7
#     4   4   4   4   4   4   4
#     4  10  24  48  74 102 150 186 236 312 364 426
#     4   9  19  38  70  95 126 191 234 283 360 407
#     4   9  18  38  61  94 133 172 235 282 333 420
#     4  12  27  43  70 109 144 189 239 294 369 438
#     4   9  19  38  70  95 126 191 234 283 360 407
#     4   9  18  38  61  94 133 172 235 282 333 420
#     4  12  27  43  70 109 144 189 239 294 369 438
#
# _framework density 26.538025000000001
#
# number of rings (size 3 to 8) (size 9 to 14) (size 15 to 20)
#    0.000    2.286    0.000    3.429    0.000   12.571 
#    0.000   17.143    0.000    3.429    0.000    0.000 
#    0.000    0.000    0.000    0.000    0.000    0.000 
#
# Total GULP energy -78065.396448 kJ/mol
# GULP energy per Si atom -5576.099746 kJ/mol
# Density = 2.647762 g / cm^3
# Si number density = 26.538025 Si / 1000 Ang^3
#
#
#
# Elastic Constant Matrix: (Units=GPa)
#
#
# Indices 1 2 3 4 5 6 
#
# 1 121.0736 4.2647 22.3691 0.0000 21.0471 0.0000
# 2 4.2647 180.9885 7.8038 0.0000 5.2933 -0.0001
# 3 22.3691 7.8038 84.0981 0.0000 0.1679 0.0000
# 4 0.0000 0.0000 0.0000 28.6880 0.0000 7.3118
# 5 21.0471 5.2933 0.1679 0.0000 43.8631 0.0000
# 6 0.0000 -0.0001 0.0000 7.3118 0.0000 -1.9191
#
#
#
# Elastic Compliance Matrix: (Units=1/GPa)
#
#
# Indices 1 2 3 4 5 6 
#
# 1 0.009518 0.000018 -0.002524 0.000000 -0.004559 0.000000
# 2 0.000018 0.005567 -0.000520 0.000000 -0.000678 0.000000
# 3 -0.002524 -0.000520 0.012608 0.000000 0.001226 0.000000
# 4 0.000000 0.000000 0.000000 0.017685 0.000000 0.067379
# 5 -0.004559 -0.000678 0.001226 0.000000 0.025063 0.000000
# 6 0.000000 0.000000 0.000000 0.067379 0.000000 -0.264364
#
#
# Mechanical properties :
#
#
# Convention : Reuss Voigt Hill
#
# Bulk Modulus (GPa) = 46.20990 50.55949 48.38469
# Shear Modulus (GPa) = -27.67673 37.57458 4.94892
#
# Velocity S-wave (km/s) = -3.23291 3.76690 1.36707
# Velocity P-wave (km/s) = 1.87480 6.16542 4.55671
#
# Compressibility (1/GPa) = 0.02164038
#
# Stress axis : x y z
#
# Youngs Moduli (GPa) = 105.06658 179.62823 79.31425
#
# Poissons Ratio (x) = -0.00322 0.20020
# Poissons Ratio (y) = -0.00188 0.04124
# Poissons Ratio (z) = 0.26521 0.09341
#
# Static dielectric constant tensor:
#      x y z
#    x 2.164670 0.000000 -0.014770 
#    y 0.000000 2.570650 0.000000 
#    z -0.014770 0.000000 2.221930 
# 
# From -- ./inp_files/33931.got.cif
#   From: 2010.05.17/outbox.cif.g08.bks.cpg/sg9_17_cif.got.tgz:33931.got - 2010.06.03 20:04:27.
