data_PCOD9139962
_publ_section_title
;
Structure prediction by ZEFSAII (Michael W. Deem and Ramdas Pophale) SiO2 
 PCOD9139962
Probable space group: C C
;
_chemical_formula_sum "Si O2"
_cell_formula_units_Z 32
_cell_length_a 13.835614
_cell_length_b 13.177614
_cell_length_c 9.580917
_cell_angle_alpha 90.000000
_cell_angle_beta 125.708784
_cell_angle_gamma 90.000000
_cell_volume 1418.388320
_symmetry_space_group_name_H-M "C C"
_symmetry_group_IT_number 9
_symmetry_cell_setting 'monoclinic'
loop_
_space_group_symop_operation_xyz
x,y,z
x,-y,1/2+z
1/2+x,1/2+y,z
1/2+x,1/2-y,1/2+z
loop_
_atom_site_type_symbol
_atom_site_label
_atom_site_fract_x
_atom_site_fract_y
_atom_site_fract_z
Si Si1 0.721930 0.272444 0.377280
Si Si2 0.266407 0.908171 0.170396
Si Si3 0.670351 0.402045 0.773969
Si Si4 0.173557 0.467272 0.831550
Si Si5 0.930207 0.977262 0.483449
Si Si6 0.012756 0.501932 0.441389
Si Si7 0.988228 0.113239 0.773495
Si Si8 0.859118 0.302158 0.755116
O O1 0.737013 0.306884 0.231092
O O2 0.704106 0.152248 0.370141
O O3 0.610996 0.329946 0.354510
O O4 0.828202 0.314221 0.564644
O O5 0.407562 0.929573 0.297328
O O6 0.210843 0.997979 0.220015
O O7 0.216642 0.910039 0.971434
O O8 0.527684 0.400715 0.635672
O O9 0.743304 0.315283 0.754144
O O10 0.060329 0.478363 0.634573
O O11 0.128533 0.504677 0.942638
O O12 0.287996 0.531024 0.877112
O O13 0.975886 0.983968 0.363105
O O14 0.950747 0.080073 0.588979
O O15 0.954956 0.614376 0.381899
O O16 0.907114 0.189103 0.793794
#
# Coordination Sequence:
#
# PCOD9139962 Si02
#       8
#     4   4   4   4   4   4   4   4
#     4  12  24  45  73 111 143 190 246 299 364 447
#     4  11  23  42  74 107 142 183 247 304 355 432
#     4  11  22  43  71 108 139 188 243 299 361 430
#     4  12  26  46  71 104 148 195 238 302 383 437
#     4  12  25  43  69 103 145 185 236 305 369 435
#     4  11  24  45  72 103 143 197 246 299 372 447
#     4  12  25  45  73 105 145 191 239 302 371 446
#     4  11  23  47  75 103 141 195 249 298 361 448
#
# _framework density 22.560818000000001
#
# number of rings (size 3 to 8) (size 9 to 14) (size 15 to 20)
#    0.000    0.500    5.000    5.250    0.000    0.000 
#    4.500    1.250    0.000    0.000    0.000    0.000 
#    0.000    0.000    0.000    0.000    0.000    0.000 
#
# Total GULP energy -89343.102282 kJ/mol
# GULP energy per Si atom -5583.943893 kJ/mol
# Density = 2.250947 g / cm^3
# Si number density = 22.560818 Si / 1000 Ang^3
#
#
#
# Elastic Constant Matrix: (Units=GPa)
#
#
# Indices 1 2 3 4 5 6 
#
# 1 112.1773 41.5901 30.8953 0.0000 -0.3123 0.0000
# 2 41.5901 43.3355 8.4495 0.0000 -0.0415 0.0000
# 3 30.8953 8.4495 123.4843 0.0000 -2.8949 0.0000
# 4 0.0000 0.0000 0.0000 19.5150 0.0000 0.7719
# 5 -0.3123 -0.0415 -2.8949 0.0000 42.3950 0.0000
# 6 0.0000 0.0000 0.0000 0.7719 0.0000 41.1170
#
#
#
# Elastic Compliance Matrix: (Units=1/GPa)
#
#
# Indices 1 2 3 4 5 6 
#
# 1 0.014706 -0.013577 -0.002753 0.000000 -0.000093 0.000000
# 2 -0.013577 0.035923 0.000939 0.000000 -0.000001 0.000000
# 3 -0.002753 0.000939 0.008736 0.000000 0.000577 0.000000
# 4 0.000000 0.000000 0.000000 0.051281 0.000000 -0.000963
# 5 -0.000093 -0.000001 0.000577 0.000000 0.023626 0.000000
# 6 0.000000 0.000000 0.000000 -0.000963 0.000000 0.024339
#
#
# Mechanical properties :
#
#
# Convention : Reuss Voigt Hill
#
# Bulk Modulus (GPa) = 34.98510 48.98522 41.98516
# Shear Modulus (GPa) = 25.13560 33.80953 29.47257
#
# Velocity S-wave (km/s) = 3.34147 3.87537 3.61828
# Velocity P-wave (km/s) = 5.51615 6.46408 6.00884
#
# Compressibility (1/GPa) = 0.02858360
#
# Stress axis : x y z
#
# Youngs Moduli (GPa) = 67.99899 27.83726 114.46675
#
# Poissons Ratio (x) = 0.37795 0.31508
# Poissons Ratio (y) = 0.92324 -0.10747
# Poissons Ratio (z) = 0.18717 -0.02614
#
# Static dielectric constant tensor:
#      x y z
#    x 1.864770 0.000000 0.040690 
#    y 0.000000 1.906280 0.000000 
#    z 0.040690 0.000000 1.881400 
# 
# From -- ./inp_files/7651.got.cif
#   From: 2010.05.17/outbox.cif.g08.bks.cpg/sg9_4_cif.got.tgz:7651.got - 2010.06.03 20:04:27.
