data_PCOD9139164
_publ_section_title
;
Structure prediction by ZEFSAII (Michael W. Deem and Ramdas Pophale) SiO2 
 PCOD9139164
Probable space group: C C
;
_chemical_formula_sum "Si O2"
_cell_formula_units_Z 20
_cell_length_a 5.242141
_cell_length_b 18.371948
_cell_length_c 8.780991
_cell_angle_alpha 90.000000
_cell_angle_beta 85.822737
_cell_angle_gamma 90.000000
_cell_volume 843.436095
_symmetry_space_group_name_H-M "C C"
_symmetry_group_IT_number 9
_symmetry_cell_setting 'monoclinic'
loop_
_space_group_symop_operation_xyz
x,y,z
x,-y,1/2+z
1/2+x,1/2+y,z
1/2+x,1/2-y,1/2+z
loop_
_atom_site_type_symbol
_atom_site_label
_atom_site_fract_x
_atom_site_fract_y
_atom_site_fract_z
Si Si1 0.445410 0.099922 0.308310
Si Si2 0.082370 0.529512 0.985919
Si Si3 0.598108 0.400300 0.352398
Si Si4 0.084539 0.733071 0.448685
Si Si5 0.077142 0.843378 0.032287
O O1 0.569375 0.179891 0.301428
O O2 0.152354 0.115151 0.371459
O O3 0.559635 0.055456 0.446935
O O4 0.497870 0.054621 0.156582
O O5 0.871611 0.567267 0.885597
O O6 0.366447 0.556482 0.939132
O O7 0.585544 0.316955 0.409135
O O8 0.555109 0.398091 0.173214
O O9 0.334083 0.707656 0.526815
O O10 0.828864 0.706819 0.546004
#
# Coordination Sequence:
#
# PCOD9139164 Si02
#       5
#     4   4   4   4   4
#     4  10  28  46  72 100 143 185 234 285 351 414
#     4  12  28  45  72 105 142 185 235 289 351 418
#     4  12  27  44  74 105 140 184 236 289 353 412
#     4  10  25  42  74  99 142 176 235 285 351 407
#     4  10  24  45  72  97 141 180 230 286 342 413
#
# _framework density 23.712522
#
# number of rings (size 3 to 8) (size 9 to 14) (size 15 to 20)
#    1.200    0.000    0.000    3.600   14.000    0.000 
#    0.000    0.000    0.000    0.000    0.000    0.000 
#    0.000    0.000    0.000    0.000    0.000    0.000 
#
# Total GULP energy -55929.705324 kJ/mol
# GULP energy per Si atom -5592.970532 kJ/mol
# Density = 2.365855 g / cm^3
# Si number density = 23.712522 Si / 1000 Ang^3
#
#
#
# Elastic Constant Matrix: (Units=GPa)
#
#
# Indices 1 2 3 4 5 6 
#
# 1 105.1012 17.8465 9.5268 0.0000 1.1802 0.0000
# 2 17.8465 113.0728 -7.1444 0.0000 -4.2565 0.0000
# 3 9.5268 -7.1444 72.2306 0.0000 -7.5546 0.0000
# 4 0.0000 0.0000 0.0000 36.0548 0.0000 5.4380
# 5 1.1802 -4.2565 -7.5546 0.0000 22.7935 0.0000
# 6 0.0000 0.0000 0.0000 5.4380 0.0000 33.6956
#
#
#
# Elastic Compliance Matrix: (Units=1/GPa)
#
#
# Indices 1 2 3 4 5 6 
#
# 1 0.009971 -0.001729 -0.001630 0.000000 -0.001380 0.000000
# 2 -0.001729 0.009290 0.001386 0.000000 0.002284 0.000000
# 3 -0.001630 0.001386 0.014744 0.000000 0.005230 0.000000
# 4 0.000000 0.000000 0.000000 0.028428 0.000000 -0.004588
# 5 -0.001380 0.002284 0.005230 0.000000 0.046103 0.000000
# 6 0.000000 0.000000 0.000000 -0.004588 0.000000 0.030418
#
#
# Mechanical properties :
#
#
# Convention : Reuss Voigt Hill
#
# Bulk Modulus (GPa) = 33.26851 36.76248 35.01549
# Shear Modulus (GPa) = 32.69673 36.52049 34.60861
#
# Velocity S-wave (km/s) = 3.71736 3.92871 3.82449
# Velocity P-wave (km/s) = 5.69959 6.00972 5.85671
#
# Compressibility (1/GPa) = 0.03005846
#
# Stress axis : x y z
#
# Youngs Moduli (GPa) = 100.28615 107.63989 67.82580
#
# Poissons Ratio (x) = 0.18608 0.11059
# Poissons Ratio (y) = 0.17337 -0.09399
# Poissons Ratio (z) = 0.16351 -0.14916
#
# Static dielectric constant tensor:
#      x y z
#    x 1.891410 0.000000 0.013640 
#    y 0.000000 1.877210 0.000000 
#    z 0.013640 0.000000 1.928540 
# 
# From -- ./inp_files/3645.got.cif
#   From: 2010.05.17/outbox.cif.g08.bks.cpg/sg9_2_cif.got.tgz:3645.got - 2010.06.03 20:04:27.
