data_PCOD9139702
_publ_section_title
;
Structure prediction by ZEFSAII (Michael W. Deem and Ramdas Pophale) SiO2 
 PCOD9139702
Probable space group: C C
;
_chemical_formula_sum "Si O2"
_cell_formula_units_Z 28
_cell_length_a 11.971208
_cell_length_b 14.583765
_cell_length_c 7.732518
_cell_angle_alpha 90.000000
_cell_angle_beta 109.682750
_cell_angle_gamma 90.000000
_cell_volume 1271.106984
_symmetry_space_group_name_H-M "C C"
_symmetry_group_IT_number 9
_symmetry_cell_setting 'monoclinic'
loop_
_space_group_symop_operation_xyz
x,y,z
x,-y,1/2+z
1/2+x,1/2+y,z
1/2+x,1/2-y,1/2+z
loop_
_atom_site_type_symbol
_atom_site_label
_atom_site_fract_x
_atom_site_fract_y
_atom_site_fract_z
Si Si1 0.611800 0.866664 0.470230
Si Si2 0.473711 0.855185 0.898379
Si Si3 0.710704 0.638284 0.674587
Si Si4 0.714037 0.810973 0.886372
Si Si5 0.838611 0.794039 0.502316
Si Si6 0.970609 0.825103 0.903374
Si Si7 0.419633 0.018704 0.699913
O O1 0.668626 0.865362 0.690208
O O2 0.725261 0.855764 0.403186
O O3 0.524608 0.778228 0.420406
O O4 0.533077 0.950534 0.371728
O O5 0.614457 0.838598 0.970812
O O6 0.428106 0.909057 0.704502
O O7 0.409352 0.757968 0.891123
O O8 0.434787 0.921799 0.034820
O O9 0.698995 0.702106 0.837437
O O10 0.775264 0.711465 0.579250
O O11 0.581044 0.617249 0.531694
O O12 0.798125 0.552865 0.725599
O O13 0.854384 0.829339 0.964296
O O14 0.925917 0.842918 0.684691
#
# Coordination Sequence:
#
# PCOD9139702 Si02
#       7
#     4   4   4   4   4   4   4
#     4   9  15  33  54  74 103 140 176 226 263 311
#     4  11  21  33  50  83 111 140 175 215 271 327
#     4   8  16  31  56  75 104 142 178 224 268 311
#     4   9  17  30  51  81 101 138 181 221 267 308
#     4   8  16  30  52  79 103 137 178 221 266 308
#     4   8  13  31  54  76 100 136 183 220 260 312
#     4  11  20  36  53  80 110 143 175 217 275 321
#
# _framework density 22.028044000000001
#
# number of rings (size 3 to 8) (size 9 to 14) (size 15 to 20)
#    0.000    3.429    4.286    0.857    0.000    0.000 
#    5.143    0.000    0.000   15.429    0.000    0.000 
#    0.000    0.000    0.000    0.000    0.000    0.000 
#
# Total GULP energy -77962.337893 kJ/mol
# GULP energy per Si atom -5568.738421 kJ/mol
# Density = 2.197791 g / cm^3
# Si number density = 22.028044 Si / 1000 Ang^3
#
#
#
# Elastic Constant Matrix: (Units=GPa)
#
#
# Indices 1 2 3 4 5 6 
#
# 1 154.6702 47.4191 42.5720 0.0000 32.2294 0.0000
# 2 47.4191 38.7485 13.8830 0.0000 6.4702 0.0000
# 3 42.5720 13.8830 54.4924 0.0000 17.0709 0.0000
# 4 0.0000 0.0000 0.0000 1.6597 0.0000 5.3087
# 5 32.2294 6.4702 17.0709 0.0000 37.8229 0.0000
# 6 0.0000 0.0000 0.0000 5.3087 0.0000 29.8499
#
#
#
# Elastic Compliance Matrix: (Units=1/GPa)
#
#
# Indices 1 2 3 4 5 6 
#
# 1 0.013367 -0.013468 -0.004851 0.000000 -0.006897 0.000000
# 2 -0.013468 0.042082 -0.001793 0.000000 0.005087 0.000000
# 3 -0.004851 -0.001793 0.024699 0.000000 -0.006707 0.000000
# 4 0.000000 0.000000 0.000000 1.397552 0.000000 -0.248548
# 5 -0.006897 0.005087 -0.006707 0.000000 0.034473 0.000000
# 6 0.000000 0.000000 0.000000 -0.248548 0.000000 0.077704
#
#
# Mechanical properties :
#
#
# Convention : Reuss Voigt Hill
#
# Bulk Modulus (GPa) = 25.04753 50.62880 37.83816
# Shear Modulus (GPa) = 3.04246 23.46897 13.25571
#
# Velocity S-wave (km/s) = 1.17651 3.26761 2.45575
# Velocity P-wave (km/s) = 3.63882 6.10492 5.02549
#
# Compressibility (1/GPa) = 0.03992410
#
# Stress axis : x y z
#
# Youngs Moduli (GPa) = 74.81259 23.76296 40.48764
#
# Poissons Ratio (x) = 0.32004 0.19640
# Poissons Ratio (y) = 1.00759 0.07259
# Poissons Ratio (z) = 0.36291 0.04260
#
# Static dielectric constant tensor:
#      x y z
#    x 1.880830 0.000000 -0.065350 
#    y 0.000000 1.837570 0.000000 
#    z -0.065350 0.000000 1.925810 
# 
# From -- ./inp_files/7793.got.cif
#   From: 2010.05.17/outbox.cif.g08.bks.cpg/sg9_4_cif.got.tgz:7793.got - 2010.06.03 20:04:27.
