data_PCOD9139895
_publ_section_title
;
Structure prediction by ZEFSAII (Michael W. Deem and Ramdas Pophale) SiO2 
 PCOD9139895
Probable space group: C C
;
_chemical_formula_sum "Si O2"
_cell_formula_units_Z 32
_cell_length_a 26.118259
_cell_length_b 8.989255
_cell_length_c 19.784313
_cell_angle_alpha 90.000000
_cell_angle_beta 20.517655
_cell_angle_gamma 90.000000
_cell_volume 1628.065791
_symmetry_space_group_name_H-M "C C"
_symmetry_group_IT_number 9
_symmetry_cell_setting 'monoclinic'
loop_
_space_group_symop_operation_xyz
x,y,z
x,-y,1/2+z
1/2+x,1/2+y,z
1/2+x,1/2-y,1/2+z
loop_
_atom_site_type_symbol
_atom_site_label
_atom_site_fract_x
_atom_site_fract_y
_atom_site_fract_z
Si Si1 0.509800 0.859741 0.276880
Si Si2 0.318445 0.791389 0.386117
Si Si3 0.440733 0.710230 0.577072
Si Si4 0.773802 0.192889 0.648412
Si Si5 0.742297 0.423867 0.898440
Si Si6 0.577149 0.794483 0.705227
Si Si7 0.309020 0.593680 0.008704
Si Si8 0.451676 0.509111 0.189206
O O1 0.435757 0.800135 0.300504
O O2 0.388637 0.818317 0.481811
O O3 0.539660 0.034869 0.233470
O O4 0.659694 0.770285 0.104770
O O5 0.385207 0.668840 0.253625
O O6 0.299395 0.953272 0.379236
O O7 0.609711 0.743397 0.351112
O O8 0.338767 0.654002 0.641858
O O9 0.367194 0.859928 0.696521
O O10 0.434121 0.598201 0.648009
O O11 0.780865 0.050255 0.589734
O O12 0.670034 0.290106 0.031962
O O13 0.618903 0.501562 0.005576
O O14 0.668343 0.809664 0.661733
O O15 0.431914 0.696400 0.890088
O O16 0.368353 0.542949 0.861029
#
# Coordination Sequence:
#
# PCOD9139895 Si02
#       8
#     4   4   4   4   4   4   4   4
#     4  12  22  40  65 105 134 179 227 291 345 408
#     4  12  22  40  73  99 137 171 237 296 336 394
#     4  12  25  44  71  97 142 190 223 282 362 422
#     4  12  26  44  68  99 143 185 228 283 363 421
#     4  11  23  42  67 105 135 179 230 286 345 414
#     4  11  22  39  71  99 134 169 236 289 333 399
#     4  11  22  43  67 101 133 175 238 285 335 408
#     4  11  22  44  66 105 134 174 239 284 335 418
#
# _framework density 19.655224
#
# number of rings (size 3 to 8) (size 9 to 14) (size 15 to 20)
#    0.000    0.500    6.250    3.000    1.750    2.000 
#    0.000    3.750    0.000    0.000    0.000    0.000 
#    0.000    0.000    0.000    0.000    0.000    0.000 
#
# Total GULP energy -89365.300617 kJ/mol
# GULP energy per Si atom -5585.331289 kJ/mol
# Density = 1.961049 g / cm^3
# Si number density = 19.655224 Si / 1000 Ang^3
#
#
#
# Elastic Constant Matrix: (Units=GPa)
#
#
# Indices 1 2 3 4 5 6 
#
# 1 91.8648 24.1525 30.9851 0.0002 -12.6203 0.0001
# 2 24.1525 90.6311 52.4752 -0.0002 3.0413 -0.0001
# 3 30.9851 52.4752 109.5550 -0.0002 -17.0235 -0.0001
# 4 0.0002 -0.0002 -0.0002 32.6798 -0.0001 -12.1354
# 5 -12.6203 3.0413 -17.0235 -0.0001 32.7866 -0.0001
# 6 0.0001 -0.0001 -0.0001 -12.1354 -0.0001 22.0763
#
#
#
# Elastic Compliance Matrix: (Units=1/GPa)
#
#
# Indices 1 2 3 4 5 6 
#
# 1 0.012715 -0.002531 -0.001726 0.000000 0.004233 0.000000
# 2 -0.002531 0.016807 -0.008406 0.000000 -0.006898 0.000000
# 3 -0.001726 -0.008406 0.014859 0.000000 0.007831 0.000000
# 4 0.000000 0.000000 0.000000 0.038448 0.000000 0.021135
# 5 0.004233 -0.006898 0.007831 0.000000 0.036835 0.000000
# 6 0.000000 0.000000 0.000000 0.021135 0.000000 0.056915
#
#
# Mechanical properties :
#
#
# Convention : Reuss Voigt Hill
#
# Bulk Modulus (GPa) = 52.48187 56.36406 54.42297
# Shear Modulus (GPa) = 24.00870 29.80441 26.90655
#
# Velocity S-wave (km/s) = 3.49878 3.89827 3.70391
# Velocity P-wave (km/s) = 6.56362 7.00005 6.78534
#
# Compressibility (1/GPa) = 0.01905420
#
# Stress axis : x y z
#
# Youngs Moduli (GPa) = 78.64938 59.49919 67.29807
#
# Poissons Ratio (x) = 0.15060 0.11616
# Poissons Ratio (y) = 0.19907 0.56573
# Poissons Ratio (z) = 0.13575 0.50017
#
# Static dielectric constant tensor:
#      x y z
#    x 1.714140 0.000000 -0.011570 
#    y 0.000000 1.692660 0.000000 
#    z -0.011570 0.000000 1.719620 
# 
# From -- ./inp_files/21160.got.cif
#   From: 2010.05.17/outbox.cif.g08.bks.cpg/sg9_11_cif.got.tgz:21160.got - 2010.06.03 20:04:27.
