data_PCOD9139374
_publ_section_title
;
Structure prediction by ZEFSAII (Michael W. Deem and Ramdas Pophale) SiO2 
 PCOD9139374
Probable space group: C C
;
_chemical_formula_sum "Si O2"
_cell_formula_units_Z 24
_cell_length_a 7.097741
_cell_length_b 7.167628
_cell_length_c 25.584177
_cell_angle_alpha 90.000000
_cell_angle_beta 44.327139
_cell_angle_gamma 90.000000
_cell_volume 909.476519
_symmetry_space_group_name_H-M "C C"
_symmetry_group_IT_number 9
_symmetry_cell_setting 'monoclinic'
loop_
_space_group_symop_operation_xyz
x,y,z
x,-y,1/2+z
1/2+x,1/2+y,z
1/2+x,1/2-y,1/2+z
loop_
_atom_site_type_symbol
_atom_site_label
_atom_site_fract_x
_atom_site_fract_y
_atom_site_fract_z
Si Si1 0.938020 0.575071 0.166490
Si Si2 0.318773 0.520574 0.300427
Si Si3 0.268391 0.174443 0.533708
Si Si4 0.811332 0.074573 0.419817
Si Si5 0.876865 0.907448 0.017104
Si Si6 0.394322 0.078723 0.293339
O O1 0.618120 0.581890 0.223750
O O2 0.004118 0.537452 0.213781
O O3 0.071934 0.768904 0.120225
O O4 0.084071 0.414919 0.103062
O O5 0.265120 0.613791 0.367427
O O6 0.329482 0.298332 0.305729
O O7 0.095302 0.548369 0.300762
O O8 0.500992 0.023386 0.497574
O O9 0.420035 0.372224 0.495625
O O10 0.095965 0.137971 0.516714
O O11 0.878014 0.187980 0.460445
O O12 0.104436 0.977320 0.355163
#
# Coordination Sequence:
#
# PCOD9139374 Si02
#       6
#     4   4   4   4   4   4
#     4   9  26  42  72 104 146 182 256 296 384 428
#     4  11  27  44  72 100 147 195 246 303 371 449
#     4  10  25  42  70 102 142 182 244 303 372 435
#     4  11  26  42  68 100 142 192 244 306 366 450
#     4  10  25  42  70 102 142 182 244 303 372 435
#     4  11  27  44  72 100 147 195 246 303 371 449
#
# _framework density 26.388805999999999
#
# number of rings (size 3 to 8) (size 9 to 14) (size 15 to 20)
#    1.000    0.667    0.000    1.000   16.333    2.667 
#    0.000    0.000    0.000    0.000    0.000    0.000 
#    0.000    0.000    0.000    0.000    0.000    0.000 
#
# Total GULP energy -66937.792024 kJ/mol
# GULP energy per Si atom -5578.149335 kJ/mol
# Density = 2.632874 g / cm^3
# Si number density = 26.388806 Si / 1000 Ang^3
#
#
#
# Elastic Constant Matrix: (Units=GPa)
#
#
# Indices 1 2 3 4 5 6 
#
# 1 249.3873 25.9848 73.6083 -0.0001 13.4535 0.0000
# 2 25.9848 82.2827 0.4189 0.0000 3.1678 0.0000
# 3 73.6083 0.4189 184.0864 -0.0005 10.2494 0.0000
# 4 -0.0001 0.0000 -0.0005 18.4515 0.0000 6.3738
# 5 13.4535 3.1678 10.2494 0.0000 40.4785 0.0001
# 6 0.0000 0.0000 0.0000 6.3738 0.0001 39.2910
#
#
#
# Elastic Compliance Matrix: (Units=1/GPa)
#
#
# Indices 1 2 3 4 5 6 
#
# 1 0.004760 -0.001455 -0.001844 0.000000 -0.001001 0.000000
# 2 -0.001455 0.012635 0.000590 0.000000 -0.000654 0.000000
# 3 -0.001844 0.000590 0.006224 0.000000 -0.001009 0.000000
# 4 0.000000 0.000000 0.000000 0.057413 0.000000 -0.009314
# 5 -0.001001 -0.000654 -0.001009 0.000000 0.025344 0.000000
# 6 0.000000 0.000000 0.000000 -0.009314 0.000000 0.026962
#
#
# Mechanical properties :
#
#
# Convention : Reuss Voigt Hill
#
# Bulk Modulus (GPa) = 54.94628 79.53115 67.23871
# Shear Modulus (GPa) = 34.52447 47.36048 40.94247
#
# Velocity S-wave (km/s) = 3.62097 4.24101 3.94319
# Velocity P-wave (km/s) = 6.19265 7.36106 6.80199
#
# Compressibility (1/GPa) = 0.01819960
#
# Stress axis : x y z
#
# Youngs Moduli (GPa) = 210.09362 79.14538 160.65559
#
# Poissons Ratio (x) = 0.11517 0.29628
# Poissons Ratio (y) = 0.30573 -0.09472
# Poissons Ratio (z) = 0.38745 -0.04666
#
# Static dielectric constant tensor:
#      x y z
#    x 2.025770 0.000000 -0.025980 
#    y 0.000000 2.442630 0.000000 
#    z -0.025980 0.000000 2.115950 
# 
# From -- ./inp_files/29629.got.cif
#   From: 2010.05.17/outbox.cif.g08.bks.cpg/sg9_15_cif.got.tgz:29629.got - 2010.06.03 20:04:27.
