data_PCOD9139956
_publ_section_title
;
Structure prediction by ZEFSAII (Michael W. Deem and Ramdas Pophale) SiO2 
 PCOD9139956
Probable space group: C C
;
_chemical_formula_sum "Si O2"
_cell_formula_units_Z 20
_cell_length_a 9.265866
_cell_length_b 10.549896
_cell_length_c 17.358869
_cell_angle_alpha 90.000000
_cell_angle_beta 153.807217
_cell_angle_gamma 90.000000
_cell_volume 748.998407
_symmetry_space_group_name_H-M "C C"
_symmetry_group_IT_number 9
_symmetry_cell_setting 'monoclinic'
loop_
_space_group_symop_operation_xyz
x,y,z
x,-y,1/2+z
1/2+x,1/2+y,z
1/2+x,1/2-y,1/2+z
loop_
_atom_site_type_symbol
_atom_site_label
_atom_site_fract_x
_atom_site_fract_y
_atom_site_fract_z
Si Si1 0.555390 0.128592 0.125000
Si Si2 0.687402 0.463216 0.845591
Si Si3 0.048595 0.587672 0.751403
Si Si4 0.565823 0.482544 0.608265
Si Si5 0.650664 0.247277 0.547825
O O1 0.426743 0.244138 0.115324
O O2 0.911781 0.120632 0.257244
O O3 0.549849 0.012896 0.183916
O O4 0.273060 0.094654 0.928463
O O5 0.604888 0.482263 0.717302
O O6 0.034652 0.388920 0.019064
O O7 0.679350 0.596732 0.604452
O O8 0.192696 0.537956 0.902495
O O9 0.299622 0.696385 0.848013
O O10 0.718696 0.350674 0.646600
#
# Coordination Sequence:
#
# PCOD9139956 Si02
#       5
#     4   4   4   4   4
#     4  11  22  43  68  93 131 178 209 282 327 383
#     4  12  23  41  69  97 131 166 227 276 320 388
#     4   9  18  41  61  84 130 166 206 261 332 374
#     4   9  20  37  61  92 121 170 208 269 319 381
#     4   9  23  40  63  94 131 170 218 252 344 394
#
# _framework density 26.702328999999999
#
# number of rings (size 3 to 8) (size 9 to 14) (size 15 to 20)
#    1.200    0.800    2.000    1.200    2.800    0.000 
#    7.200    2.000    0.000    0.000    0.000    0.000 
#    0.000    0.000    0.000    0.000    0.000    0.000 
#
# Total GULP energy -55816.508828 kJ/mol
# GULP energy per Si atom -5581.650883 kJ/mol
# Density = 2.664155 g / cm^3
# Si number density = 26.702329 Si / 1000 Ang^3
#
#
#
# Elastic Constant Matrix: (Units=GPa)
#
#
# Indices 1 2 3 4 5 6 
#
# 1 218.7564 39.2119 48.1778 -0.0002 14.4504 -0.0012
# 2 39.2119 68.3041 6.0346 0.0027 1.4056 -0.0003
# 3 48.1778 6.0346 53.2080 0.0254 -11.7975 0.0089
# 4 -0.0002 0.0027 0.0254 31.3789 0.0065 10.4475
# 5 14.4504 1.4056 -11.7975 0.0065 71.5366 -0.0002
# 6 -0.0012 -0.0003 0.0089 10.4475 -0.0002 43.8999
#
#
#
# Elastic Compliance Matrix: (Units=1/GPa)
#
#
# Indices 1 2 3 4 5 6 
#
# 1 0.006663 -0.003232 -0.006177 0.000006 -0.002301 0.000000
# 2 -0.003232 0.016380 0.001185 -0.000003 0.000527 0.000000
# 3 -0.006177 0.001185 0.025455 -0.000022 0.005422 0.000000
# 4 0.000006 -0.000003 -0.000022 0.034611 -0.000008 -0.008237
# 5 -0.002301 0.000527 0.005422 -0.000008 0.015328 0.000001
# 6 0.000000 0.000000 0.000000 -0.008237 0.000001 0.024739
#
#
# Mechanical properties :
#
#
# Convention : Reuss Voigt Hill
#
# Bulk Modulus (GPa) = 31.19985 58.56855 44.88420
# Shear Modulus (GPa) = 33.26544 45.81938 39.54241
#
# Velocity S-wave (km/s) = 3.53340 4.14688 3.85237
# Velocity P-wave (km/s) = 5.32506 6.70151 6.05254
#
# Compressibility (1/GPa) = 0.03205143
#
# Stress axis : x y z
#
# Youngs Moduli (GPa) = 150.08366 61.04909 39.28541
#
# Poissons Ratio (x) = 0.19731 0.24265
# Poissons Ratio (y) = 0.48507 -0.04657
# Poissons Ratio (z) = 0.92702 -0.07237
#
# Static dielectric constant tensor:
#      x y z
#    x 2.008730 0.000000 0.056930 
#    y 0.000000 2.202010 -0.000010 
#    z 0.056930 -0.000010 2.089240 
# 
# From -- ./inp_files/4836.got.cif
#   From: 2010.05.17/outbox.cif.g08.bks.cpg/sg9_3_cif.got.tgz:4836.got - 2010.06.03 20:04:27.
