data_PCOD9139738
_publ_section_title
;
Structure prediction by ZEFSAII (Michael W. Deem and Ramdas Pophale) SiO2 
 PCOD9139738
Probable space group: C C
;
_chemical_formula_sum "Si O2"
_cell_formula_units_Z 32
_cell_length_a 9.766382
_cell_length_b 9.869194
_cell_length_c 31.381541
_cell_angle_alpha 90.000000
_cell_angle_beta 152.958796
_cell_angle_gamma 90.000000
_cell_volume 1375.146108
_symmetry_space_group_name_H-M "C C"
_symmetry_group_IT_number 9
_symmetry_cell_setting 'monoclinic'
loop_
_space_group_symop_operation_xyz
x,y,z
x,-y,1/2+z
1/2+x,1/2+y,z
1/2+x,1/2-y,1/2+z
loop_
_atom_site_type_symbol
_atom_site_label
_atom_site_fract_x
_atom_site_fract_y
_atom_site_fract_z
Si Si1 0.911780 0.073808 0.172110
Si Si2 0.587778 0.494632 0.810788
Si Si3 0.354178 0.765292 0.478050
Si Si4 0.222235 0.054109 0.177580
Si Si5 0.454177 0.733053 0.407197
Si Si6 0.164540 0.730896 0.589906
Si Si7 0.670769 0.880462 0.006031
Si Si8 0.289652 0.462572 0.310360
O O1 0.640320 0.165362 0.079827
O O2 0.004433 0.092127 0.246708
O O3 0.200886 0.097685 0.221096
O O4 0.789621 0.918049 0.136612
O O5 0.761406 0.631275 0.844240
O O6 0.308172 0.526203 0.764228
O O7 0.822416 0.420173 0.907572
O O8 0.424769 0.719255 0.450033
O O9 0.261593 0.645731 0.483175
O O10 0.064249 0.864273 0.397859
O O11 0.282803 0.163022 0.157372
O O12 0.451984 0.931036 0.232499
O O13 0.879460 0.004726 0.077061
O O14 0.338617 0.603043 0.349536
O O15 0.805386 0.742759 0.493935
O O16 0.230996 0.737092 0.557452
#
# Coordination Sequence:
#
# PCOD9139738 Si02
#       8
#     4   4   4   4   4   4   4   4
#     4  11  24  43  65  97 132 171 221 273 323 391
#     4  11  24  43  65  97 132 171 221 273 323 391
#     4  11  25  42  65  97 135 171 217 271 325 395
#     4  11  24  44  68  97 130 171 224 268 328 394
#     4  11  20  44  72  89 125 177 221 265 330 387
#     4  11  20  44  72  89 125 177 221 265 330 387
#     4  11  25  42  65  97 135 171 217 271 325 395
#     4  11  24  44  68  97 130 171 224 268 328 394
#
# _framework density 23.270254999999999
#
# number of rings (size 3 to 8) (size 9 to 14) (size 15 to 20)
#    0.000    1.000    5.000    2.250    3.500    4.000 
#    4.500    0.000    0.000    0.000    0.000    0.000 
#    0.000    0.000    0.000    0.000    0.000    0.000 
#
# Total GULP energy -89387.953310 kJ/mol
# GULP energy per Si atom -5586.747082 kJ/mol
# Density = 2.321729 g / cm^3
# Si number density = 23.270255 Si / 1000 Ang^3
#
#
#
# Elastic Constant Matrix: (Units=GPa)
#
#
# Indices 1 2 3 4 5 6 
#
# 1 76.8548 13.7673 26.3721 0.0001 -5.1689 0.0000
# 2 13.7673 53.8225 -3.2705 0.0001 -12.8486 0.0000
# 3 26.3721 -3.2705 76.8390 0.0004 -7.9438 0.0001
# 4 0.0001 0.0001 0.0004 5.5524 0.0000 -3.6088
# 5 -5.1689 -12.8486 -7.9438 0.0000 37.7065 0.0000
# 6 0.0000 0.0000 0.0001 -3.6088 0.0000 38.8906
#
#
#
# Elastic Compliance Matrix: (Units=1/GPa)
#
#
# Indices 1 2 3 4 5 6 
#
# 1 0.015716 -0.004498 -0.005644 0.000000 -0.000568 0.000000
# 2 -0.004498 0.021709 0.003239 0.000000 0.007463 0.000000
# 3 -0.005644 0.003239 0.015460 -0.000001 0.003587 0.000000
# 4 0.000000 0.000000 -0.000001 0.191663 0.000000 0.017785
# 5 -0.000568 0.007463 0.003587 0.000000 0.029742 0.000000
# 6 0.000000 0.000000 0.000000 0.017785 0.000000 0.027364
#
#
# Mechanical properties :
#
#
# Convention : Reuss Voigt Hill
#
# Bulk Modulus (GPa) = 25.58940 31.25045 28.41992
# Shear Modulus (GPa) = 15.22140 27.80638 21.51389
#
# Velocity S-wave (km/s) = 2.56034 3.46053 3.04390
# Velocity P-wave (km/s) = 4.44533 5.42453 4.95916
#
# Compressibility (1/GPa) = 0.03907869
#
# Stress axis : x y z
#
# Youngs Moduli (GPa) = 63.62979 46.06448 64.68277
#
# Poissons Ratio (x) = 0.20722 0.36507
# Poissons Ratio (y) = 0.28623 -0.20954
# Poissons Ratio (z) = 0.35913 -0.14922
#
# Static dielectric constant tensor:
#      x y z
#    x 1.863520 0.000000 -0.009510 
#    y 0.000000 1.887070 0.000000 
#    z -0.009510 0.000000 1.976530 
# 
# From -- ./inp_files/29274.got.cif
#   From: 2010.05.17/outbox.cif.g08.bks.cpg/sg9_15_cif.got.tgz:29274.got - 2010.06.03 20:04:27.
