data_PCOD9139544
_publ_section_title
;
Structure prediction by ZEFSAII (Michael W. Deem and Ramdas Pophale) SiO2 
 PCOD9139544
Probable space group: C C
;
_chemical_formula_sum "Si O2"
_cell_formula_units_Z 32
_cell_length_a 9.805571
_cell_length_b 16.589736
_cell_length_c 12.583375
_cell_angle_alpha 90.000000
_cell_angle_beta 142.618937
_cell_angle_gamma 90.000000
_cell_volume 1242.736942
_symmetry_space_group_name_H-M "C C"
_symmetry_group_IT_number 9
_symmetry_cell_setting 'monoclinic'
loop_
_space_group_symop_operation_xyz
x,y,z
x,-y,1/2+z
1/2+x,1/2+y,z
1/2+x,1/2-y,1/2+z
loop_
_atom_site_type_symbol
_atom_site_label
_atom_site_fract_x
_atom_site_fract_y
_atom_site_fract_z
Si Si1 0.470530 0.604230 0.987460
Si Si2 0.355756 0.872362 0.028283
Si Si3 0.970531 0.349400 0.487460
Si Si4 0.222735 0.051013 0.651004
Si Si5 0.218326 0.448987 0.823915
Si Si6 0.917085 0.791746 0.661564
Si Si7 0.085307 0.372362 0.946638
Si Si8 0.523978 0.708253 0.813357
O O1 0.276754 0.541384 0.833052
O O2 0.536970 0.657086 0.929116
O O3 0.664306 0.541384 0.141868
O O4 0.404092 0.657086 0.045805
O O5 0.313601 0.942015 0.087399
O O6 0.477354 0.798856 0.164879
O O7 0.470531 0.890586 0.987460
O O8 0.113927 0.833089 0.849996
O O9 0.069212 0.404291 0.644275
O O10 0.180430 0.297735 0.575240
O O11 0.871850 0.404290 0.330645
O O12 0.760633 0.297735 0.399682
O O13 0.970530 0.089183 0.487460
O O14 0.127459 0.442015 0.887521
O O15 0.327136 0.333089 0.124925
O O16 0.963709 0.298855 0.810043
#
# Coordination Sequence:
#
# PCOD9139544 Si02
#       8
#     4   4   4   4   4   4   4   4
#     4  10  26  51  70 111 158 188 254 306 378 445
#     4  12  26  47  78 109 152 199 250 309 372 447
#     4  12  26  45  80 109 148 202 246 310 372 445
#     4  10  25  51  71 109 151 195 249 303 370 447
#     4  10  25  51  71 109 151 195 249 303 370 447
#     4  12  26  47  74 115 150 197 251 309 376 445
#     4  12  26  47  78 109 152 199 250 309 372 447
#     4  12  26  47  74 115 150 197 251 309 376 445
#
# _framework density 25.749617000000001
#
# number of rings (size 3 to 8) (size 9 to 14) (size 15 to 20)
#    0.750    0.000    3.750    2.250    5.250    7.000 
#    4.500    0.000    0.000    0.000    0.000    0.000 
#    0.000    0.000    0.000    0.000    0.000    0.000 
#
# Total GULP energy -89774.319337 kJ/mol
# GULP energy per Si atom -5610.894959 kJ/mol
# Density = 2.569101 g / cm^3
# Si number density = 25.749617 Si / 1000 Ang^3
#
#
#
# Elastic Constant Matrix: (Units=GPa)
#
#
# Indices 1 2 3 4 5 6 
#
# 1 204.2624 39.9320 37.9694 0.0000 -9.7467 -0.0001
# 2 39.9320 100.4462 21.7391 0.0000 -30.2336 0.0000
# 3 37.9694 21.7391 144.7726 0.0000 3.2942 0.0000
# 4 0.0000 0.0000 0.0000 38.5476 0.0000 -6.6225
# 5 -9.7467 -30.2336 3.2942 0.0000 42.7855 0.0000
# 6 -0.0001 0.0000 0.0000 -6.6225 0.0000 40.9509
#
#
#
# Elastic Compliance Matrix: (Units=1/GPa)
#
#
# Indices 1 2 3 4 5 6 
#
# 1 0.005487 -0.001944 -0.001146 0.000000 -0.000035 0.000000
# 2 -0.001944 0.014009 -0.001812 0.000000 0.009596 0.000000
# 3 -0.001146 -0.001812 0.007528 0.000000 -0.002121 0.000000
# 4 0.000000 0.000000 0.000000 0.026683 0.000000 0.004315
# 5 -0.000035 0.009596 -0.002121 0.000000 0.030308 0.000000
# 6 0.000000 0.000000 0.000000 0.004315 0.000000 0.025117
#
#
# Mechanical properties :
#
#
# Convention : Reuss Voigt Hill
#
# Bulk Modulus (GPa) = 58.07359 72.08470 65.07915
# Shear Modulus (GPa) = 40.10332 47.77949 43.94141
#
# Velocity S-wave (km/s) = 3.95071 4.31227 4.13545
# Velocity P-wave (km/s) = 6.58885 7.26977 6.93767
#
# Compressibility (1/GPa) = 0.01721953
#
# Stress axis : x y z
#
# Youngs Moduli (GPa) = 182.24575 71.38373 132.82998
#
# Poissons Ratio (x) = 0.13876 0.15228
# Poissons Ratio (y) = 0.35427 0.24070
# Poissons Ratio (z) = 0.20893 0.12935
#
# Static dielectric constant tensor:
#      x y z
#    x 2.008430 0.000000 0.115180 
#    y 0.000000 1.985680 0.000000 
#    z 0.115180 0.000000 2.082160 
# 
# From -- ./inp_files/15437.got.cif
#   From: 2010.05.17/outbox.cif.g08.bks.cpg/sg9_8_cif.got.tgz:15437.got - 2010.06.03 20:04:27.
