data_PCOD9139017
_publ_section_title
;
Structure prediction by ZEFSAII (Michael W. Deem and Ramdas Pophale) SiO2 
 PCOD9139017
Probable space group: C C
;
_chemical_formula_sum "Si O2"
_cell_formula_units_Z 32
_cell_length_a 12.385286
_cell_length_b 12.559744
_cell_length_c 10.486278
_cell_angle_alpha 90.000000
_cell_angle_beta 77.209603
_cell_angle_gamma 90.000000
_cell_volume 1590.727770
_symmetry_space_group_name_H-M "C C"
_symmetry_group_IT_number 9
_symmetry_cell_setting 'monoclinic'
loop_
_space_group_symop_operation_xyz
x,y,z
x,-y,1/2+z
1/2+x,1/2+y,z
1/2+x,1/2-y,1/2+z
loop_
_atom_site_type_symbol
_atom_site_label
_atom_site_fract_x
_atom_site_fract_y
_atom_site_fract_z
Si Si1 0.781100 0.897280 0.964270
Si Si2 0.338222 0.630698 0.043909
Si Si3 0.989068 0.887675 0.749297
Si Si4 0.137164 0.937608 0.302637
Si Si5 0.892439 0.673836 0.350302
Si Si6 0.263028 0.004629 0.016026
Si Si7 0.640324 0.810540 0.777216
Si Si8 0.231663 0.787525 0.656401
O O1 0.894958 0.851239 0.872921
O O2 0.686458 0.879469 0.882996
O O3 0.747250 0.829882 0.096915
O O4 0.802830 0.020110 0.989165
O O5 0.430562 0.609083 0.127723
O O6 0.229530 0.676760 0.142541
O O7 0.383802 0.721555 0.939829
O O8 0.102800 0.819894 0.712200
O O9 0.026218 0.005522 0.783543
O O10 0.219915 0.959753 0.162362
O O11 0.134682 0.812239 0.322023
O O12 0.174085 0.994081 0.423928
O O13 0.860048 0.569697 0.440034
O O14 0.802739 0.692271 0.263663
O O15 0.016794 0.659982 0.268280
O O16 0.281080 0.128747 0.040413
#
# Coordination Sequence:
#
# PCOD9139017 Si02
#       8
#     4   4   4   4   4   4   4   4
#     4  11  25  44  64  98 139 173 223 277 346 409
#     4  11  26  44  67 100 136 178 224 283 344 411
#     4  10  24  43  73  98 123 184 233 285 331 393
#     4  11  22  43  72  99 132 174 241 281 328 401
#     4  12  25  42  69  98 136 180 225 279 349 410
#     4  11  22  43  69  98 132 170 233 284 330 396
#     4  11  25  43  65  97 135 183 215 280 348 408
#     4  11  25  42  69 102 131 174 236 283 334 404
#
# _framework density 20.116578000000001
#
# number of rings (size 3 to 8) (size 9 to 14) (size 15 to 20)
#    0.000    1.000    5.000    1.500   10.500    2.000 
#    2.250    0.000    0.000    0.000    0.000    0.000 
#    0.000    0.000    0.000    0.000    0.000    0.000 
#
# Total GULP energy -89362.538983 kJ/mol
# GULP energy per Si atom -5585.158686 kJ/mol
# Density = 2.007079 g / cm^3
# Si number density = 20.116578 Si / 1000 Ang^3
#
#
#
# Elastic Constant Matrix: (Units=GPa)
#
#
# Indices 1 2 3 4 5 6 
#
# 1 114.6043 37.7928 32.9249 0.0000 3.3522 0.0000
# 2 37.7928 79.0103 13.7758 0.0000 -3.9577 0.0000
# 3 32.9249 13.7758 69.2770 0.0000 9.4197 0.0000
# 4 0.0000 0.0000 0.0000 29.0168 0.0000 2.8678
# 5 3.3522 -3.9577 9.4197 0.0000 27.5746 0.0000
# 6 0.0000 0.0000 0.0000 2.8678 0.0000 28.9655
#
#
#
# Elastic Compliance Matrix: (Units=1/GPa)
#
#
# Indices 1 2 3 4 5 6 
#
# 1 0.011615 -0.004802 -0.004488 0.000000 -0.000568 0.000000
# 2 -0.004802 0.015322 -0.001199 0.000000 0.003192 0.000000
# 3 -0.004488 -0.001199 0.017572 0.000000 -0.005629 0.000000
# 4 0.000000 0.000000 0.000000 0.034803 0.000000 -0.003446
# 5 -0.000568 0.003192 -0.005629 0.000000 0.038715 0.000000
# 6 0.000000 0.000000 0.000000 -0.003446 0.000000 0.034865
#
#
# Mechanical properties :
#
#
# Convention : Reuss Voigt Hill
#
# Bulk Modulus (GPa) = 42.49613 47.98652 45.24132
# Shear Modulus (GPa) = 27.51568 29.00457 28.26013
#
# Velocity S-wave (km/s) = 3.70241 3.80126 3.75216
# Velocity P-wave (km/s) = 6.28075 6.57054 6.42728
#
# Compressibility (1/GPa) = 0.02353156
#
# Stress axis : x y z
#
# Youngs Moduli (GPa) = 86.09408 65.26416 56.90977
#
# Poissons Ratio (x) = 0.31338 0.25542
# Poissons Ratio (y) = 0.41341 0.06822
# Poissons Ratio (z) = 0.38641 0.07824
#
# Static dielectric constant tensor:
#      x y z
#    x 1.706830 0.000000 -0.011230 
#    y 0.000000 1.702390 0.000000 
#    z -0.011230 0.000000 1.724670 
# 
# From -- ./inp_files/16433.got.cif
#   From: 2010.05.17/outbox.cif.g08.bks.cpg/sg9_9_cif.got.tgz:16433.got - 2010.06.03 20:04:27.
