data_PCOD9139134
_publ_section_title
;
Structure prediction by ZEFSAII (Michael W. Deem and Ramdas Pophale) SiO2 
 PCOD9139134
Probable space group: C C
;
_chemical_formula_sum "Si O2"
_cell_formula_units_Z 28
_cell_length_a 13.900038
_cell_length_b 5.135498
_cell_length_c 30.858910
_cell_angle_alpha 90.000000
_cell_angle_beta 146.771062
_cell_angle_gamma 90.000000
_cell_volume 1207.114361
_symmetry_space_group_name_H-M "C C"
_symmetry_group_IT_number 9
_symmetry_cell_setting 'monoclinic'
loop_
_space_group_symop_operation_xyz
x,y,z
x,-y,1/2+z
1/2+x,1/2+y,z
1/2+x,1/2-y,1/2+z
loop_
_atom_site_type_symbol
_atom_site_label
_atom_site_fract_x
_atom_site_fract_y
_atom_site_fract_z
Si Si1 0.190710 0.224459 0.618290
Si Si2 0.617827 0.361984 0.523186
Si Si3 0.354024 0.032961 0.942368
Si Si4 0.825785 0.142795 0.087247
Si Si5 0.508564 0.722712 0.859436
Si Si6 0.696835 0.494143 0.708079
Si Si7 0.380333 0.212539 0.855061
O O1 0.346961 0.334267 0.647600
O O2 0.860437 0.297868 0.768348
O O3 0.174424 0.928842 0.593894
O O4 0.210677 0.210172 0.676287
O O5 0.692187 0.620126 0.527244
O O6 0.419197 0.259072 0.454330
O O7 0.729075 0.129329 0.544906
O O8 0.178608 0.097048 0.902004
O O9 0.344259 0.169116 0.891755
O O10 0.514219 0.142573 0.032545
O O11 0.010800 0.146946 0.134158
O O12 0.430333 0.506036 0.862037
O O13 0.522840 0.999353 0.890298
O O14 0.716756 0.630822 0.762528
#
# Coordination Sequence:
#
# PCOD9139134 Si02
#       7
#     4   4   4   4   4   4   4
#     4   9  23  43  68 103 136 183 239 286 363 406
#     4   9  22  41  63  99 128 178 224 286 353 404
#     4  11  24  48  73 102 149 188 236 305 351 427
#     4   9  21  41  65  97 133 175 227 293 344 413
#     4  10  27  44  72 102 144 185 245 290 363 426
#     4  10  24  45  67 104 141 187 241 295 352 428
#     4  10  27  44  70 105 137 192 240 283 366 426
#
# _framework density 23.195815
#
# number of rings (size 3 to 8) (size 9 to 14) (size 15 to 20)
#    1.714    0.571    0.000    0.000    6.000    8.000 
#    2.571    0.000    0.000    0.000    0.000    0.000 
#    0.000    0.000    0.000    0.000    0.000    0.000 
#
# Total GULP energy -77955.971472 kJ/mol
# GULP energy per Si atom -5568.283677 kJ/mol
# Density = 2.314302 g / cm^3
# Si number density = 23.195815 Si / 1000 Ang^3
#
#
#
# Elastic Constant Matrix: (Units=GPa)
#
#
# Indices 1 2 3 4 5 6 
#
# 1 59.2122 5.1472 11.0178 0.0041 -2.9756 -0.0068
# 2 5.1472 128.7338 7.2588 0.0127 2.5888 -0.0093
# 3 11.0178 7.2588 40.5232 0.0102 -3.1117 -0.0063
# 4 0.0041 0.0127 0.0102 17.8263 -0.0017 -8.5191
# 5 -2.9756 2.5888 -3.1117 -0.0017 42.5178 0.0018
# 6 -0.0068 -0.0093 -0.0063 -8.5191 0.0018 25.9390
#
#
#
# Elastic Compliance Matrix: (Units=1/GPa)
#
#
# Indices 1 2 3 4 5 6 
#
# 1 0.017850 -0.000468 -0.004698 0.000001 0.000934 0.000004
# 2 -0.000468 0.007874 -0.001330 -0.000004 -0.000609 0.000001
# 3 -0.004698 -0.001330 0.026322 -0.000013 0.001679 0.000000
# 4 0.000001 -0.000004 -0.000013 0.066541 0.000001 0.021854
# 5 0.000934 -0.000609 0.001679 0.000001 0.023745 -0.000001
# 6 0.000004 0.000001 0.000000 0.021854 -0.000001 0.045729
#
#
# Mechanical properties :
#
#
# Convention : Reuss Voigt Hill
#
# Bulk Modulus (GPa) = 25.60509 30.59075 28.09792
# Shear Modulus (GPa) = 23.35685 30.92631 27.14158
#
# Velocity S-wave (km/s) = 3.17668 3.65536 3.42439
# Velocity P-wave (km/s) = 4.95153 5.57066 5.27019
#
# Compressibility (1/GPa) = 0.03905473
#
# Stress axis : x y z
#
# Youngs Moduli (GPa) = 56.02197 127.00158 37.99158
#
# Poissons Ratio (x) = 0.05939 0.17848
# Poissons Ratio (y) = 0.02620 0.05053
# Poissons Ratio (z) = 0.26318 0.16892
#
# Static dielectric constant tensor:
#      x y z
#    x 1.860040 0.000000 -0.048940 
#    y 0.000000 1.932070 0.000000 
#    z -0.048940 0.000000 1.922720 
# 
# From -- ./inp_files/36341.got.cif
#   From: 2010.05.17/outbox.cif.g08.bks.cpg/sg9_19_cif.got.tgz:36341.got - 2010.06.03 20:04:27.
