data_PCOD9139828
_publ_section_title
;
Structure prediction by ZEFSAII (Michael W. Deem and Ramdas Pophale) SiO2 
 PCOD9139828
Probable space group: C C
;
_chemical_formula_sum "Si O2"
_cell_formula_units_Z 32
_cell_length_a 10.602074
_cell_length_b 8.988988
_cell_length_c 12.594066
_cell_angle_alpha 90.000000
_cell_angle_beta 86.326936
_cell_angle_gamma 90.000000
_cell_volume 1197.773145
_symmetry_space_group_name_H-M "C C"
_symmetry_group_IT_number 9
_symmetry_cell_setting 'monoclinic'
loop_
_space_group_symop_operation_xyz
x,y,z
x,-y,1/2+z
1/2+x,1/2+y,z
1/2+x,1/2-y,1/2+z
loop_
_atom_site_type_symbol
_atom_site_label
_atom_site_fract_x
_atom_site_fract_y
_atom_site_fract_z
Si Si1 0.671860 0.455505 0.836870
Si Si2 0.387666 0.101643 0.149897
Si Si3 0.336850 0.219593 0.839726
Si Si4 0.976401 0.336020 0.001327
Si Si5 0.474022 0.377135 0.673216
Si Si6 0.074433 0.497392 0.801856
Si Si7 0.741683 0.834956 0.429704
Si Si8 0.831293 0.092426 0.541993
O O1 0.789020 0.430158 0.749185
O O2 0.715896 0.617661 0.873443
O O3 0.553047 0.439956 0.766395
O O4 0.669133 0.323841 0.924350
O O5 0.524271 0.091590 0.202445
O O6 0.333993 0.252662 0.104640
O O7 0.400265 0.974949 0.058206
O O8 0.345195 0.299875 0.724761
O O9 0.464559 0.120470 0.828901
O O10 0.354393 0.347822 0.923523
O O11 0.037886 0.252002 0.098386
O O12 0.064119 0.391184 0.903324
O O13 0.881735 0.223710 0.946001
O O14 0.442745 0.506497 0.594697
O O15 0.203628 0.587564 0.818846
O O16 0.728545 0.959633 0.523697
#
# Coordination Sequence:
#
# PCOD9139828 Si02
#       8
#     4   4   4   4   4   4   4   4
#     4  11  22  43  70  93 132 186 221 272 351 406
#     4  11  22  43  64  96 133 180 219 278 344 403
#     4  11  22  47  66  94 136 176 224 281 339 406
#     4  11  21  44  67  95 142 176 228 277 343 403
#     4  11  25  44  67 101 136 176 227 287 334 411
#     4  11  22  41  71  92 133 181 218 277 339 409
#     4  11  23  41  65 100 129 177 225 281 334 404
#     4  11  27  41  64 101 133 170 226 287 334 404
#
# _framework density 26.716246000000002
#
# number of rings (size 3 to 8) (size 9 to 14) (size 15 to 20)
#    0.000    1.000    7.500    0.000    3.500    2.000 
#    2.250    0.000    0.000    0.000    0.000    0.000 
#    0.000    0.000    0.000    0.000    0.000    0.000 
#
# Total GULP energy -89265.976865 kJ/mol
# GULP energy per Si atom -5579.123554 kJ/mol
# Density = 2.665544 g / cm^3
# Si number density = 26.716246 Si / 1000 Ang^3
#
#
#
# Elastic Constant Matrix: (Units=GPa)
#
#
# Indices 1 2 3 4 5 6 
#
# 1 69.3976 52.1780 45.9324 0.0000 29.1732 0.0000
# 2 52.1780 164.0170 65.8924 0.0000 12.1718 0.0000
# 3 45.9324 65.8924 127.9323 0.0000 25.3878 0.0000
# 4 0.0000 0.0000 0.0000 64.4620 0.0000 8.7577
# 5 29.1732 12.1718 25.3878 0.0000 54.1399 0.0000
# 6 0.0000 0.0000 0.0000 8.7577 0.0000 32.7138
#
#
#
# Elastic Compliance Matrix: (Units=1/GPa)
#
#
# Indices 1 2 3 4 5 6 
#
# 1 0.026113 -0.005800 -0.004250 0.000000 -0.010774 0.000000
# 2 -0.005800 0.008977 -0.003044 0.000000 0.002535 0.000000
# 3 -0.004250 -0.003044 0.011379 0.000000 -0.002362 0.000000
# 4 0.000000 0.000000 0.000000 0.016099 0.000000 -0.004310
# 5 -0.010774 0.002535 -0.002362 0.000000 0.024814 0.000000
# 6 0.000000 0.000000 0.000000 -0.004310 0.000000 0.031722
#
#
# Mechanical properties :
#
#
# Convention : Reuss Voigt Hill
#
# Bulk Modulus (GPa) = 49.30932 76.59472 62.95202
# Shear Modulus (GPa) = 32.88355 43.41941 38.15148
#
# Velocity S-wave (km/s) = 3.51215 4.03576 3.78302
# Velocity P-wave (km/s) = 5.91131 7.10270 6.53422
#
# Compressibility (1/GPa) = 0.02028014
#
# Stress axis : x y z
#
# Youngs Moduli (GPa) = 38.29543 111.39580 87.88049
#
# Poissons Ratio (x) = 0.64612 0.37349
# Poissons Ratio (y) = 0.22212 0.26752
# Poissons Ratio (z) = 0.16275 0.33911
#
# Static dielectric constant tensor:
#      x y z
#    x 2.142730 0.000000 0.015370 
#    y 0.000000 2.230860 0.000000 
#    z 0.015370 0.000000 2.065210 
# 
# From -- ./inp_files/25596.got.cif
#   From: 2010.05.17/outbox.cif.g08.bks.cpg/sg9_13_cif.got.tgz:25596.got - 2010.06.03 20:04:27.
