data_PCOD9139823
_publ_section_title
;
Structure prediction by ZEFSAII (Michael W. Deem and Ramdas Pophale) SiO2 
 PCOD9139823
Probable space group: C C
;
_chemical_formula_sum "Si O2"
_cell_formula_units_Z 28
_cell_length_a 7.276386
_cell_length_b 12.630415
_cell_length_c 13.521243
_cell_angle_alpha 90.000000
_cell_angle_beta 69.729126
_cell_angle_gamma 90.000000
_cell_volume 1165.689761
_symmetry_space_group_name_H-M "C C"
_symmetry_group_IT_number 9
_symmetry_cell_setting 'monoclinic'
loop_
_space_group_symop_operation_xyz
x,y,z
x,-y,1/2+z
1/2+x,1/2+y,z
1/2+x,1/2-y,1/2+z
loop_
_atom_site_type_symbol
_atom_site_label
_atom_site_fract_x
_atom_site_fract_y
_atom_site_fract_z
Si Si1 0.792060 0.359421 0.789430
Si Si2 0.280174 0.973457 0.119502
Si Si3 0.345685 0.523604 0.173975
Si Si4 0.401058 0.766526 0.394333
Si Si5 0.750412 0.794279 0.134469
Si Si6 0.290916 0.750826 0.209783
Si Si7 0.043967 0.506135 0.388560
O O1 0.800732 0.457844 0.713783
O O2 0.575212 0.321094 0.859439
O O3 0.856552 0.259043 0.709739
O O4 0.916574 0.403060 0.857154
O O5 0.237416 0.853272 0.158169
O O6 0.470664 0.982265 0.014721
O O7 0.077767 0.018836 0.112397
O O8 0.264633 0.420252 0.135983
O O9 0.261808 0.638516 0.162093
O O10 0.265454 0.514144 0.303471
O O11 0.321399 0.752822 0.518929
O O12 0.239840 0.752236 0.336865
O O13 0.479778 0.886831 0.370998
O O14 0.525163 0.760872 0.181582
#
# Coordination Sequence:
#
# PCOD9139823 Si02
#       7
#     4   4   4   4   4   4   4
#     4  11  22  44  68  98 140 179 226 290 332 413
#     4  12  25  46  71 102 142 180 231 294 343 408
#     4  12  25  47  67 106 137 180 241 281 341 424
#     4  11  21  43  73  98 136 190 227 278 356 408
#     4  11  23  45  71  98 145 182 225 290 351 403
#     4  11  25  45  68  99 141 180 233 288 337 416
#     4  12  25  44  72 103 141 185 231 283 356 408
#
# _framework density 24.020114
#
# number of rings (size 3 to 8) (size 9 to 14) (size 15 to 20)
#    0.000    0.571    8.571    0.857    4.000    0.000 
#    0.000    1.429    0.000    0.000    0.000    0.000 
#    0.000    0.000    0.000    0.000    0.000    0.000 
#
# Total GULP energy -78172.058340 kJ/mol
# GULP energy per Si atom -5583.718453 kJ/mol
# Density = 2.396544 g / cm^3
# Si number density = 24.020114 Si / 1000 Ang^3
#
#
#
# Elastic Constant Matrix: (Units=GPa)
#
#
# Indices 1 2 3 4 5 6 
#
# 1 24.7209 14.5729 -2.6601 0.0000 -12.4325 0.0000
# 2 14.5729 183.8153 0.1564 0.0000 11.7988 0.0000
# 3 -2.6601 0.1564 91.0155 0.0000 -9.5243 0.0000
# 4 0.0000 0.0000 0.0000 25.2704 0.0000 -2.0366
# 5 -12.4325 11.7988 -9.5243 0.0000 24.4999 0.0000
# 6 0.0000 0.0000 0.0000 -2.0366 0.0000 38.0134
#
#
#
# Elastic Compliance Matrix: (Units=1/GPa)
#
#
# Indices 1 2 3 4 5 6 
#
# 1 0.065371 -0.007706 0.006029 0.000000 0.039227 0.000000
# 2 -0.007706 0.006530 -0.001016 0.000000 -0.007450 0.000000
# 3 0.006029 -0.001016 0.012026 0.000000 0.008224 0.000000
# 4 0.000000 0.000000 0.000000 0.039744 0.000000 0.002129
# 5 0.039227 -0.007450 0.008224 0.000000 0.067507 0.000000
# 6 0.000000 0.000000 0.000000 0.002129 0.000000 0.026421
#
#
# Mechanical properties :
#
#
# Convention : Reuss Voigt Hill
#
# Bulk Modulus (GPa) = 12.73222 35.96555 24.34889
# Shear Modulus (GPa) = 20.06708 36.72224 28.39466
#
# Velocity S-wave (km/s) = 2.89351 3.91424 3.44193
# Velocity P-wave (km/s) = 4.05899 5.95265 5.09458
#
# Compressibility (1/GPa) = 0.07854089
#
# Stress axis : x y z
#
# Youngs Moduli (GPa) = 15.29734 153.13400 83.15551
#
# Poissons Ratio (x) = 1.18000 -0.50133
# Poissons Ratio (y) = 0.11788 0.08449
# Poissons Ratio (z) = -0.09222 0.15559
#
# Static dielectric constant tensor:
#      x y z
#    x 1.952300 0.000000 -0.004950 
#    y 0.000000 1.901120 0.000000 
#    z -0.004950 0.000000 1.988390 
# 
# From -- ./inp_files/22586.got.cif
#   From: 2010.05.17/outbox.cif.g08.bks.cpg/sg9_12_cif.got.tgz:22586.got - 2010.06.03 20:04:27.
