data_PCOD9139978
_publ_section_title
;
Structure prediction by ZEFSAII (Michael W. Deem and Ramdas Pophale) SiO2 
 PCOD9139978
Probable space group: C C
;
_chemical_formula_sum "Si O2"
_cell_formula_units_Z 32
_cell_length_a 8.713564
_cell_length_b 12.408705
_cell_length_c 15.020786
_cell_angle_alpha 90.000000
_cell_angle_beta 54.989687
_cell_angle_gamma 90.000000
_cell_volume 1330.223810
_symmetry_space_group_name_H-M "C C"
_symmetry_group_IT_number 9
_symmetry_cell_setting 'monoclinic'
loop_
_space_group_symop_operation_xyz
x,y,z
x,-y,1/2+z
1/2+x,1/2+y,z
1/2+x,1/2-y,1/2+z
loop_
_atom_site_type_symbol
_atom_site_label
_atom_site_fract_x
_atom_site_fract_y
_atom_site_fract_z
Si Si1 0.740870 0.362379 0.680490
Si Si2 0.501659 0.076857 0.408208
Si Si3 0.816526 0.331045 0.293877
Si Si4 0.062578 0.458781 0.081406
Si Si5 0.406240 0.161515 0.958944
Si Si6 0.381722 0.602178 0.205551
Si Si7 0.485442 0.522211 0.975700
Si Si8 0.222045 0.196925 0.382991
O O1 0.906598 0.448408 0.622433
O O2 0.538626 0.414663 0.729891
O O3 0.772347 0.304001 0.762234
O O4 0.765550 0.295593 0.580932
O O5 0.543165 0.108752 0.496138
O O6 0.691626 0.042539 0.295415
O O7 0.390733 0.168439 0.392039
O O8 0.384193 0.965883 0.449180
O O9 0.983891 0.401360 0.195925
O O10 0.811128 0.226120 0.233872
O O11 0.626312 0.400451 0.371899
O O12 0.874759 0.289938 0.372546
O O13 0.271393 0.504868 0.016337
O O14 0.607421 0.193833 0.931623
O O15 0.462392 0.568810 0.083507
O O16 0.580624 0.404147 0.942903
#
# Coordination Sequence:
#
# PCOD9139978 Si02
#       8
#     4   4   4   4   4   4   4   4
#     4  11  22  44  69 107 146 201 255 326 398 476
#     4  11  26  49  68 114 155 201 273 332 395 486
#     4  12  25  46  76 113 157 205 274 326 405 494
#     4  11  26  47  76 103 159 207 260 336 404 471
#     4  11  24  45  75 107 150 203 263 320 402 487
#     4  12  26  42  78 107 159 200 263 330 410 471
#     4  12  25  46  78 109 152 212 259 338 405 480
#     4  12  24  47  76 104 152 205 265 326 403 477
#
# _framework density 24.056103
#
# number of rings (size 3 to 8) (size 9 to 14) (size 15 to 20)
#    0.000    0.500    5.000    3.000    3.500    3.000 
#    2.250    0.000    0.000    0.000    0.000    0.000 
#    0.000    0.000    0.000    0.000    0.000    0.000 
#
# Total GULP energy -89411.737978 kJ/mol
# GULP energy per Si atom -5588.233624 kJ/mol
# Density = 2.400135 g / cm^3
# Si number density = 24.056103 Si / 1000 Ang^3
#
#
#
# Elastic Constant Matrix: (Units=GPa)
#
#
# Indices 1 2 3 4 5 6 
#
# 1 151.4691 23.7953 51.3275 0.0000 -16.1050 0.0000
# 2 23.7953 58.8946 30.6626 0.0000 -1.8586 0.0000
# 3 51.3275 30.6626 159.8061 0.0000 6.8475 0.0000
# 4 0.0000 0.0000 0.0000 22.5074 0.0000 -15.8084
# 5 -16.1050 -1.8586 6.8475 0.0000 54.1557 0.0000
# 6 0.0000 0.0000 0.0000 -15.8084 0.0000 37.0818
#
#
#
# Elastic Compliance Matrix: (Units=1/GPa)
#
#
# Indices 1 2 3 4 5 6 
#
# 1 0.007960 -0.001939 -0.002296 0.000000 0.002591 0.000000
# 2 -0.001939 0.019403 -0.003121 0.000000 0.000484 0.000000
# 3 -0.002296 -0.003121 0.007669 0.000000 -0.001759 0.000000
# 4 0.000000 0.000000 0.000000 0.063419 0.000000 0.027036
# 5 0.002591 0.000484 -0.001759 0.000000 0.019475 0.000000
# 6 0.000000 0.000000 0.000000 0.027036 0.000000 0.038493
#
#
# Mechanical properties :
#
#
# Convention : Reuss Voigt Hill
#
# Bulk Modulus (GPa) = 49.21025 64.63785 56.92405
# Shear Modulus (GPa) = 28.10494 40.37460 34.23977
#
# Velocity S-wave (km/s) = 3.42176 4.10121 3.77680
# Velocity P-wave (km/s) = 6.00934 7.02528 6.53707
#
# Compressibility (1/GPa) = 0.02032097
#
# Stress axis : x y z
#
# Youngs Moduli (GPa) = 125.62799 51.53829 130.39355
#
# Poissons Ratio (x) = 0.09994 0.29933
# Poissons Ratio (y) = 0.24361 0.40694
# Poissons Ratio (z) = 0.28839 0.16084
#
# Static dielectric constant tensor:
#      x y z
#    x 1.933780 0.000000 0.002730 
#    y 0.000000 1.933800 0.000000 
#    z 0.002730 0.000000 2.015710 
# 
# From -- ./inp_files/23359.got.cif
#   From: 2010.05.17/outbox.cif.g08.bks.cpg/sg9_12_cif.got.tgz:23359.got - 2010.06.03 20:04:27.
