data_PCOD9139950
_publ_section_title
;
Structure prediction by ZEFSAII (Michael W. Deem and Ramdas Pophale) SiO2 
 PCOD9139950
Probable space group: C C
;
_chemical_formula_sum "Si O2"
_cell_formula_units_Z 20
_cell_length_a 10.360541
_cell_length_b 20.515300
_cell_length_c 5.106423
_cell_angle_alpha 90.000000
_cell_angle_beta 119.703077
_cell_angle_gamma 90.000000
_cell_volume 942.756143
_symmetry_space_group_name_H-M "C C"
_symmetry_group_IT_number 9
_symmetry_cell_setting 'monoclinic'
loop_
_space_group_symop_operation_xyz
x,y,z
x,-y,1/2+z
1/2+x,1/2+y,z
1/2+x,1/2-y,1/2+z
loop_
_atom_site_type_symbol
_atom_site_label
_atom_site_fract_x
_atom_site_fract_y
_atom_site_fract_z
Si Si1 0.946950 0.863483 0.439810
Si Si2 0.295446 0.703362 0.288347
Si Si3 0.700652 0.958003 0.210534
Si Si4 0.054455 0.322361 0.914706
Si Si5 0.736758 0.300975 0.832854
O O1 0.870129 0.933370 0.336237
O O2 0.883702 0.686844 0.313629
O O3 0.120642 0.859077 0.674573
O O4 0.897135 0.820772 0.135079
O O5 0.127998 0.682140 0.199171
O O6 0.368144 0.667139 0.115906
O O7 0.282721 0.777823 0.171456
O O8 0.605186 0.892961 0.066771
O O9 0.672428 0.987257 0.465900
O O10 0.140842 0.261456 0.136295
#
# Coordination Sequence:
#
# PCOD9139950 Si02
#       5
#     4   4   4   4   4
#     4  11  25  44  68 101 134 177 227 270 340 400
#     4  11  22  43  62 100 138 173 209 271 341 400
#     4  11  23  46  70  91 132 183 231 270 325 400
#     4  11  24  42  69 103 135 174 223 275 338 401
#     4  12  24  43  69 103 143 167 218 284 348 395
#
# _framework density 21.214393999999999
#
# number of rings (size 3 to 8) (size 9 to 14) (size 15 to 20)
#    0.000    0.800    6.000    2.400    5.600    0.000 
#    0.000    2.000    0.000    0.000    0.000    0.000 
#    0.000    0.000    0.000    0.000    0.000    0.000 
#
# Total GULP energy -55788.284645 kJ/mol
# GULP energy per Si atom -5578.828465 kJ/mol
# Density = 2.116611 g / cm^3
# Si number density = 21.214394 Si / 1000 Ang^3
#
#
#
# Elastic Constant Matrix: (Units=GPa)
#
#
# Indices 1 2 3 4 5 6 
#
# 1 188.7556 17.6485 50.2346 0.0000 14.1286 0.0000
# 2 17.6485 58.1831 9.3820 0.0000 9.1135 0.0000
# 3 50.2346 9.3820 105.1665 0.0000 -20.1408 0.0000
# 4 0.0000 0.0000 0.0000 27.9101 0.0000 0.8192
# 5 14.1286 9.1135 -20.1408 0.0000 30.1610 0.0000
# 6 0.0000 0.0000 0.0000 0.8192 0.0000 28.5228
#
#
#
# Elastic Compliance Matrix: (Units=1/GPa)
#
#
# Indices 1 2 3 4 5 6 
#
# 1 0.006988 -0.000439 -0.004472 0.000000 -0.006127 0.000000
# 2 -0.000439 0.018960 -0.002912 0.000000 -0.007468 0.000000
# 3 -0.004472 -0.002912 0.014304 0.000000 0.012526 0.000000
# 4 0.000000 0.000000 0.000000 0.035860 0.000000 -0.001030
# 5 -0.006127 -0.007468 0.012526 0.000000 0.046647 0.000000
# 6 0.000000 0.000000 0.000000 -0.001030 0.000000 0.035089
#
#
# Mechanical properties :
#
#
# Convention : Reuss Voigt Hill
#
# Bulk Modulus (GPa) = 40.64181 56.29283 48.46732
# Shear Modulus (GPa) = 27.51881 35.64144 31.58013
#
# Velocity S-wave (km/s) = 3.60554 4.10330 3.86245
# Velocity P-wave (km/s) = 6.04421 7.00302 6.54120
#
# Compressibility (1/GPa) = 0.02460520
#
# Stress axis : x y z
#
# Youngs Moduli (GPa) = 143.10923 52.74398 69.91218
#
# Poissons Ratio (x) = 0.02314 0.31265
# Poissons Ratio (y) = 0.06279 0.20359
# Poissons Ratio (z) = 0.63999 0.15359
#
# Static dielectric constant tensor:
#      x y z
#    x 1.783950 0.000000 0.017730 
#    y 0.000000 1.772080 0.000000 
#    z 0.017730 0.000000 1.892880 
# 
# From -- ./inp_files/1671.got.cif
#   From: 2010.05.17/outbox.cif.g08.bks.cpg/sg9_1_cif.got.tgz:1671.got - 2010.06.03 20:04:27.
