data_PCOD9139821
_publ_section_title
;
Structure prediction by ZEFSAII (Michael W. Deem and Ramdas Pophale) SiO2 
 PCOD9139821
Probable space group: C C
;
_chemical_formula_sum "Si O2"
_cell_formula_units_Z 28
_cell_length_a 12.367222
_cell_length_b 13.934653
_cell_length_c 9.207178
_cell_angle_alpha 90.000000
_cell_angle_beta 50.145417
_cell_angle_gamma 90.000000
_cell_volume 1218.067432
_symmetry_space_group_name_H-M "C C"
_symmetry_group_IT_number 9
_symmetry_cell_setting 'monoclinic'
loop_
_space_group_symop_operation_xyz
x,y,z
x,-y,1/2+z
1/2+x,1/2+y,z
1/2+x,1/2-y,1/2+z
loop_
_atom_site_type_symbol
_atom_site_label
_atom_site_fract_x
_atom_site_fract_y
_atom_site_fract_z
Si Si1 0.144710 0.799877 0.367240
Si Si2 0.531802 0.368643 0.947428
Si Si3 0.386867 0.188086 0.434413
Si Si4 0.727645 0.904285 0.857478
Si Si5 0.745542 0.799506 0.297228
Si Si6 0.040172 0.971673 0.652951
Si Si7 0.109200 0.446717 0.642824
O O1 0.219222 0.709378 0.380271
O O2 0.115407 0.888622 0.495780
O O3 0.003124 0.753324 0.418778
O O4 0.253259 0.827287 0.149028
O O5 0.628671 0.275163 0.840622
O O6 0.566392 0.448784 0.797554
O O7 0.364712 0.343156 0.088748
O O8 0.565327 0.422059 0.070523
O O9 0.341346 0.242626 0.329765
O O10 0.458304 0.089581 0.323951
O O11 0.699250 0.931027 0.712530
O O12 0.875005 0.950973 0.770757
O O13 0.615536 0.949744 0.065317
O O14 0.665961 0.878435 0.464283
#
# Coordination Sequence:
#
# PCOD9139821 Si02
#       7
#     4   4   4   4   4   4   4
#     4  11  23  43  73 103 144 191 243 297 359 430
#     4  12  30  45  80 102 153 184 252 294 372 423
#     4  11  21  43  73 100 141 187 241 289 364 423
#     4  11  23  42  71 103 142 195 236 293 358 445
#     4  12  23  46  72 107 137 195 235 305 347 440
#     4  12  27  47  73 109 144 195 244 303 360 443
#     4  11  23  40  72 104 139 185 247 287 358 430
#
# _framework density 22.987233
#
# number of rings (size 3 to 8) (size 9 to 14) (size 15 to 20)
#    0.000    0.571    7.143    0.857    6.000    0.000 
#    5.143    0.000    0.000    0.000    0.000    0.000 
#    0.000    0.000    0.000    0.000    0.000    0.000 
#
# Total GULP energy -78347.683110 kJ/mol
# GULP energy per Si atom -5596.263079 kJ/mol
# Density = 2.293491 g / cm^3
# Si number density = 22.987233 Si / 1000 Ang^3
#
#
#
# Elastic Constant Matrix: (Units=GPa)
#
#
# Indices 1 2 3 4 5 6 
#
# 1 37.4069 6.0107 23.5190 0.0000 -2.0655 0.0000
# 2 6.0107 100.8353 49.3276 0.0000 -2.3225 0.0000
# 3 23.5190 49.3276 130.2673 0.0000 -8.1950 0.0000
# 4 0.0000 0.0000 0.0000 2.4258 0.0000 36.0481
# 5 -2.0655 -2.3225 -8.1950 0.0000 24.0587 0.0000
# 6 0.0000 0.0000 0.0000 36.0481 0.0000 -2.2515
#
#
#
# Elastic Compliance Matrix: (Units=1/GPa)
#
#
# Indices 1 2 3 4 5 6 
#
# 1 0.030261 0.001060 -0.005820 0.000000 0.000718 0.000000
# 2 0.001060 0.012213 -0.004840 0.000000 -0.000379 0.000000
# 3 -0.005820 -0.004840 0.010729 0.000000 0.002688 0.000000
# 4 0.000000 0.000000 0.000000 0.001725 0.000000 0.027625
# 5 0.000718 -0.000379 0.002688 0.000000 0.042506 0.000000
# 6 0.000000 0.000000 0.000000 0.027625 0.000000 -0.001859
#
#
# Mechanical properties :
#
#
# Convention : Reuss Voigt Hill
#
# Bulk Modulus (GPa) = 29.40855 47.35823 38.38339
# Shear Modulus (GPa) = 39.64824 17.49009 28.56916
#
# Velocity S-wave (km/s) = 4.15757 2.76136 3.52920
# Velocity P-wave (km/s) = 5.98902 5.55099 5.77416
#
# Compressibility (1/GPa) = 0.03400372
#
# Stress axis : x y z
#
# Youngs Moduli (GPa) = 33.04541 81.88135 93.20623
#
# Poissons Ratio (x) = -0.08676 0.54242
# Poissons Ratio (y) = -0.03501 0.45109
# Poissons Ratio (z) = 0.19231 0.39628
#
# Static dielectric constant tensor:
#      x y z
#    x 1.869540 0.000000 0.003040 
#    y 0.000000 1.868790 0.000000 
#    z 0.003040 0.000000 1.868920 
# 
# From -- ./inp_files/9635.got.cif
#   From: 2010.05.17/outbox.cif.g08.bks.cpg/sg9_5_cif.got.tgz:9635.got - 2010.06.03 20:04:27.
