data_PCOD9139880
_publ_section_title
;
Structure prediction by ZEFSAII (Michael W. Deem and Ramdas Pophale) SiO2 
 PCOD9139880
Probable space group: C C
;
_chemical_formula_sum "Si O2"
_cell_formula_units_Z 32
_cell_length_a 8.722615
_cell_length_b 22.755939
_cell_length_c 8.638415
_cell_angle_alpha 90.000000
_cell_angle_beta 129.277608
_cell_angle_gamma 90.000000
_cell_volume 1327.289587
_symmetry_space_group_name_H-M "C C"
_symmetry_group_IT_number 9
_symmetry_cell_setting 'monoclinic'
loop_
_space_group_symop_operation_xyz
x,y,z
x,-y,1/2+z
1/2+x,1/2+y,z
1/2+x,1/2-y,1/2+z
loop_
_atom_site_type_symbol
_atom_site_label
_atom_site_fract_x
_atom_site_fract_y
_atom_site_fract_z
Si Si1 0.566830 0.410534 0.445230
Si Si2 0.479587 0.029088 0.116819
Si Si3 0.530269 0.815550 0.088956
Si Si4 0.991371 0.375438 0.381893
Si Si5 0.090314 0.812116 0.702472
Si Si6 0.151681 0.432744 0.045423
Si Si7 0.754500 0.201004 0.243392
Si Si8 0.092566 0.169818 0.679007
O O1 0.763050 0.449131 0.536719
O O2 0.563765 0.376018 0.606114
O O3 0.367050 0.442899 0.261271
O O4 0.572367 0.354385 0.336340
O O5 0.622049 0.043589 0.352604
O O6 0.497783 0.962573 0.068958
O O7 0.538900 0.062969 0.994540
O O8 0.584555 0.845660 0.289097
O O9 0.606571 0.749175 0.115809
O O10 0.604426 0.863528 0.015168
O O11 0.294706 0.813248 0.925205
O O12 0.755889 0.373144 0.208268
O O13 0.060405 0.333223 0.566107
O O14 0.908301 0.798673 0.699073
O O15 0.686150 0.266040 0.236680
O O16 0.887109 0.171470 0.458918
#
# Coordination Sequence:
#
# PCOD9139880 Si02
#       8
#     4   4   4   4   4   4   4   4
#     4  11  27  47  71 108 148 190 247 309 375 432
#     4  11  27  50  74 104 141 195 250 316 363 441
#     4  12  23  42  70 105 149 193 241 305 364 448
#     4  11  22  41  66 100 142 185 244 294 361 427
#     4  12  23  42  70 110 151 193 243 298 374 450
#     4  12  26  51  74 105 143 193 252 311 379 430
#     4  12  20  38  65  99 143 190 234 285 362 439
#     4  11  22  37  62  99 141 187 239 294 358 437
#
# _framework density 24.109283000000001
#
# number of rings (size 3 to 8) (size 9 to 14) (size 15 to 20)
#    0.000    0.500    5.000    3.750    0.000    4.000 
#    2.250    0.000    0.000    0.000    0.000    0.000 
#    0.000    0.000    0.000    0.000    0.000    0.000 
#
# Total GULP energy -89411.814075 kJ/mol
# GULP energy per Si atom -5588.238380 kJ/mol
# Density = 2.405441 g / cm^3
# Si number density = 24.109283 Si / 1000 Ang^3
#
#
#
# Elastic Constant Matrix: (Units=GPa)
#
#
# Indices 1 2 3 4 5 6 
#
# 1 66.3677 33.4914 30.3856 0.0000 2.6029 0.0000
# 2 33.4914 85.3149 31.5519 0.0000 8.8718 0.0000
# 3 30.3856 31.5519 135.6699 0.0000 19.5023 0.0000
# 4 0.0000 0.0000 0.0000 24.5823 0.0000 -8.5330
# 5 2.6029 8.8718 19.5023 0.0000 27.1925 0.0000
# 6 0.0000 0.0000 0.0000 -8.5330 0.0000 39.3438
#
#
#
# Elastic Compliance Matrix: (Units=1/GPa)
#
#
# Indices 1 2 3 4 5 6 
#
# 1 0.019931 -0.006903 -0.003242 0.000000 0.002670 0.000000
# 2 -0.006903 0.015343 -0.001558 0.000000 -0.003227 0.000000
# 3 -0.003242 -0.001558 0.009301 0.000000 -0.005852 0.000000
# 4 0.000000 0.000000 0.000000 0.043992 0.000000 0.009541
# 5 0.002670 -0.003227 -0.005852 0.000000 0.041769 0.000000
# 6 0.000000 0.000000 0.000000 0.009541 0.000000 0.027486
#
#
# Mechanical properties :
#
#
# Convention : Reuss Voigt Hill
#
# Bulk Modulus (GPa) = 47.24163 53.13448 50.18806
# Shear Modulus (GPa) = 26.55582 31.01864 28.78723
#
# Velocity S-wave (km/s) = 3.32245 3.59079 3.45922
# Velocity P-wave (km/s) = 5.86136 6.26726 6.06771
#
# Compressibility (1/GPa) = 0.02116777
#
# Stress axis : x y z
#
# Youngs Moduli (GPa) = 50.17428 65.17686 107.52055
#
# Poissons Ratio (x) = 0.44988 0.34861
# Poissons Ratio (y) = 0.34633 0.16755
# Poissons Ratio (z) = 0.16268 0.10157
#
# Static dielectric constant tensor:
#      x y z
#    x 1.978520 0.000000 -0.031870 
#    y 0.000000 1.973970 0.000000 
#    z -0.031870 0.000000 1.930430 
# 
# From -- ./inp_files/6386.got.cif
#   From: 2010.05.17/outbox.cif.g08.bks.cpg/sg9_4_cif.got.tgz:6386.got - 2010.06.03 20:04:27.
