data_PCOD9139854
_publ_section_title
;
Structure prediction by ZEFSAII (Michael W. Deem and Ramdas Pophale) SiO2 
 PCOD9139854
Probable space group: C C
;
_chemical_formula_sum "Si O2"
_cell_formula_units_Z 32
_cell_length_a 11.159879
_cell_length_b 16.986823
_cell_length_c 9.049858
_cell_angle_alpha 90.000000
_cell_angle_beta 124.859676
_cell_angle_gamma 90.000000
_cell_volume 1407.734518
_symmetry_space_group_name_H-M "C C"
_symmetry_group_IT_number 9
_symmetry_cell_setting 'monoclinic'
loop_
_space_group_symop_operation_xyz
x,y,z
x,-y,1/2+z
1/2+x,1/2+y,z
1/2+x,1/2-y,1/2+z
loop_
_atom_site_type_symbol
_atom_site_label
_atom_site_fract_x
_atom_site_fract_y
_atom_site_fract_z
Si Si1 0.224590 0.999656 0.737790
Si Si2 0.739636 0.952902 0.227432
Si Si3 0.204205 0.174954 0.154789
Si Si4 0.373872 0.299844 0.805464
Si Si5 0.145218 0.599024 0.335794
Si Si6 0.032994 0.044351 0.349403
Si Si7 0.857313 0.802815 0.462019
Si Si8 0.362232 0.851088 0.487178
O O1 0.267066 0.908393 0.759597
O O2 0.071173 0.990437 0.716695
O O3 0.178761 0.024845 0.542273
O O4 0.323338 0.067295 0.877700
O O5 0.779278 0.884511 0.368745
O O6 0.642825 0.017017 0.243218
O O7 0.677675 0.918722 0.029907
O O8 0.889957 0.997567 0.295905
O O9 0.294892 0.241780 0.300284
O O10 0.225448 0.174176 0.992719
O O11 0.032068 0.186458 0.066604
O O12 0.266148 0.346320 0.840857
O O13 0.499216 0.364097 0.855489
O O14 0.315421 0.281013 0.600138
O O15 0.408154 0.217668 0.907676
O O16 0.991551 0.638590 0.195092
#
# Coordination Sequence:
#
# PCOD9139854 Si02
#       8
#     4   4   4   4   4   4   4   4
#     4  12  24  45  73 104 142 190 250 308 373 452
#     4  11  22  48  73 107 143 194 249 312 376 460
#     4  12  29  48  72 109 150 199 252 309 392 455
#     4  11  26  47  75 108 145 197 251 314 379 459
#     4  11  27  44  74 108 150 198 250 311 385 464
#     4  11  21  45  77 101 136 186 254 301 368 451
#     4  12  27  48  78 108 147 199 256 320 381 458
#     4  12  30  45  72 109 157 195 248 317 392 451
#
# _framework density 22.731560000000002
#
# number of rings (size 3 to 8) (size 9 to 14) (size 15 to 20)
#    0.000    0.500    3.750    3.750   10.500    0.000 
#    0.000    0.000    0.000    0.000    0.000    0.000 
#    0.000    0.000    0.000    0.000    0.000    0.000 
#
# Total GULP energy -89453.414564 kJ/mol
# GULP energy per Si atom -5590.838410 kJ/mol
# Density = 2.267982 g / cm^3
# Si number density = 22.731560 Si / 1000 Ang^3
#
#
#
# Elastic Constant Matrix: (Units=GPa)
#
#
# Indices 1 2 3 4 5 6 
#
# 1 38.3786 7.6327 19.8272 0.0000 0.4477 0.0000
# 2 7.6327 118.2940 20.6704 0.0000 15.0717 0.0000
# 3 19.8272 20.6704 106.9286 0.0000 -1.9278 0.0000
# 4 0.0000 0.0000 0.0000 49.6911 0.0000 -9.5997
# 5 0.4477 15.0717 -1.9278 0.0000 26.6474 0.0000
# 6 0.0000 0.0000 0.0000 -9.5997 0.0000 19.5875
#
#
#
# Elastic Compliance Matrix: (Units=1/GPa)
#
#
# Indices 1 2 3 4 5 6 
#
# 1 0.028925 -0.000915 -0.005193 0.000000 -0.000344 0.000000
# 2 -0.000915 0.009522 -0.001770 0.000000 -0.005499 0.000000
# 3 -0.005193 -0.001770 0.010691 0.000000 0.001862 0.000000
# 4 0.000000 0.000000 0.000000 0.022229 0.000000 0.010894
# 5 -0.000344 -0.005499 0.001862 0.000000 0.040778 0.000000
# 6 0.000000 0.000000 0.000000 0.010894 0.000000 0.056392
#
#
# Mechanical properties :
#
#
# Convention : Reuss Voigt Hill
#
# Bulk Modulus (GPa) = 29.95638 39.98464 34.97051
# Shear Modulus (GPa) = 25.58596 33.54995 29.56795
#
# Velocity S-wave (km/s) = 3.35859 3.84594 3.61050
# Velocity P-wave (km/s) = 5.31480 6.11144 5.72699
#
# Compressibility (1/GPa) = 0.03338187
#
# Stress axis : x y z
#
# Youngs Moduli (GPa) = 34.57238 105.01505 93.53966
#
# Poissons Ratio (x) = 0.09610 0.48572
# Poissons Ratio (y) = 0.03164 0.16559
# Poissons Ratio (z) = 0.17952 0.18590
#
# Static dielectric constant tensor:
#      x y z
#    x 1.855580 0.000000 -0.014510 
#    y 0.000000 1.837400 0.000000 
#    z -0.014510 0.000000 1.810860 
# 
# From -- ./inp_files/7548.got.cif
#   From: 2010.05.17/outbox.cif.g08.bks.cpg/sg9_4_cif.got.tgz:7548.got - 2010.06.03 20:04:27.
