data_PCOD9139188
_publ_section_title
;
Structure prediction by ZEFSAII (Michael W. Deem and Ramdas Pophale) SiO2 
 PCOD9139188
Probable space group: C C
;
_chemical_formula_sum "Si O2"
_cell_formula_units_Z 24
_cell_length_a 17.423411
_cell_length_b 4.825777
_cell_length_c 13.550391
_cell_angle_alpha 90.000000
_cell_angle_beta 59.139685
_cell_angle_gamma 90.000000
_cell_volume 978.030245
_symmetry_space_group_name_H-M "C C"
_symmetry_group_IT_number 9
_symmetry_cell_setting 'monoclinic'
loop_
_space_group_symop_operation_xyz
x,y,z
x,-y,1/2+z
1/2+x,1/2+y,z
1/2+x,1/2-y,1/2+z
loop_
_atom_site_type_symbol
_atom_site_label
_atom_site_fract_x
_atom_site_fract_y
_atom_site_fract_z
Si Si1 0.330450 0.847258 0.516880
Si Si2 0.817347 0.812086 0.393543
Si Si3 0.628501 0.662491 0.448235
Si Si4 0.568536 0.046531 0.638419
Si Si5 0.437125 0.688575 0.638282
Si Si6 0.639839 0.467381 0.216629
O O1 0.302346 0.579186 0.472139
O O2 0.394352 0.747243 0.561631
O O3 0.243707 0.985458 0.624084
O O4 0.372491 0.091682 0.423244
O O5 0.729476 0.629864 0.421630
O O6 0.865281 0.922388 0.263143
O O7 0.617062 0.979569 0.500302
O O8 0.533557 0.548606 0.553164
O O9 0.627277 0.561538 0.337274
O O10 0.468555 0.969725 0.673201
O O11 0.607858 0.825044 0.693512
O O12 0.584683 0.322107 0.685911
#
# Coordination Sequence:
#
# PCOD9139188 Si02
#       6
#     4   4   4   4   4   4
#     4  12  24  44  69  98 131 173 218 269 324 384
#     4  12  26  46  66  97 136 170 218 270 321 390
#     4  10  24  46  67  98 132 174 215 270 324 389
#     4  10  26  42  66  98 134 168 219 264 326 385
#     4  10  26  44  67 102 127 176 218 268 324 386
#     4  12  22  46  69  97 130 177 214 267 329 386
#
# _framework density 24.539116
#
# number of rings (size 3 to 8) (size 9 to 14) (size 15 to 20)
#    1.000    0.000    5.000    0.000    4.667    5.333 
#    0.000    0.000    0.000    0.000    0.000    0.000 
#    0.000    0.000    0.000    0.000    0.000    0.000 
#
# Total GULP energy -66870.533782 kJ/mol
# GULP energy per Si atom -5572.544482 kJ/mol
# Density = 2.448326 g / cm^3
# Si number density = 24.539116 Si / 1000 Ang^3
#
#
#
# Elastic Constant Matrix: (Units=GPa)
#
#
# Indices 1 2 3 4 5 6 
#
# 1 120.3534 17.7899 49.4180 -0.0011 18.6413 0.0022
# 2 17.7899 92.0509 37.8920 -0.0128 14.5401 0.0093
# 3 49.4180 37.8920 184.7832 -0.0013 8.4709 0.0000
# 4 -0.0011 -0.0128 -0.0013 15.1649 -0.0004 0.0430
# 5 18.6413 14.5401 8.4709 -0.0004 35.4467 0.0001
# 6 0.0022 0.0093 0.0000 0.0430 0.0001 6.6378
#
#
#
# Elastic Compliance Matrix: (Units=1/GPa)
#
#
# Indices 1 2 3 4 5 6 
#
# 1 0.010055 -0.000212 -0.002434 0.000000 -0.004619 -0.000003
# 2 -0.000212 0.012566 -0.002314 0.000010 -0.004490 -0.000018
# 3 -0.002434 -0.002314 0.006506 -0.000002 0.000675 0.000004
# 4 0.000000 0.000010 -0.000002 0.065943 -0.000003 -0.000427
# 5 -0.004619 -0.004490 0.000675 -0.000003 0.032321 0.000007
# 6 -0.000003 -0.000018 0.000004 -0.000427 0.000007 0.150656
#
#
# Mechanical properties :
#
#
# Convention : Reuss Voigt Hill
#
# Bulk Modulus (GPa) = 52.06224 67.48747 59.77486
# Shear Modulus (GPa) = 16.98540 30.92238 23.95389
#
# Velocity S-wave (km/s) = 2.63378 3.55368 3.12773
# Velocity P-wave (km/s) = 5.52369 6.66332 6.12009
#
# Compressibility (1/GPa) = 0.01920778
#
# Stress axis : x y z
#
# Youngs Moduli (GPa) = 99.45266 79.57681 153.69593
#
# Poissons Ratio (x) = 0.01684 0.37408
# Poissons Ratio (y) = 0.02105 0.35572
# Poissons Ratio (z) = 0.24206 0.18418
#
# Static dielectric constant tensor:
#      x y z
#    x 2.005250 0.000000 -0.085760 
#    y 0.000000 2.084090 0.000000 
#    z -0.085760 0.000000 2.016400 
# 
# From -- ./inp_files/18794.got.cif
#   From: 2010.05.17/outbox.cif.g08.bks.cpg/sg9_10_cif.got.tgz:18794.got - 2010.06.03 20:04:27.
