data_PCOD9139370
_publ_section_title
;
Structure prediction by ZEFSAII (Michael W. Deem and Ramdas Pophale) SiO2 
 PCOD9139370
Probable space group: C C
;
_chemical_formula_sum "Si O2"
_cell_formula_units_Z 28
_cell_length_a 16.581294
_cell_length_b 6.355611
_cell_length_c 13.253360
_cell_angle_alpha 90.000000
_cell_angle_beta 72.584399
_cell_angle_gamma 90.000000
_cell_volume 1332.669362
_symmetry_space_group_name_H-M "C C"
_symmetry_group_IT_number 9
_symmetry_cell_setting 'monoclinic'
loop_
_space_group_symop_operation_xyz
x,y,z
x,-y,1/2+z
1/2+x,1/2+y,z
1/2+x,1/2-y,1/2+z
loop_
_atom_site_type_symbol
_atom_site_label
_atom_site_fract_x
_atom_site_fract_y
_atom_site_fract_z
Si Si1 0.135100 0.027346 0.100500
Si Si2 0.399350 0.030373 0.694588
Si Si3 0.212194 0.415737 0.980286
Si Si4 0.543438 0.187778 0.011560
Si Si5 0.357880 0.659492 0.846570
Si Si6 0.001916 0.177802 0.301526
Si Si7 0.787924 0.770260 0.584681
O O1 0.183675 0.179011 0.004716
O O2 0.087502 0.152133 0.205741
O O3 0.064340 0.895021 0.068466
O O4 0.204564 0.871400 0.118754
O O5 0.447995 0.142277 0.767297
O O6 0.344038 0.204044 0.657346
O O7 0.467900 0.940351 0.590631
O O8 0.352106 0.829088 0.760119
O O9 0.128995 0.550257 0.986026
O O10 0.253665 0.495668 0.071499
O O11 0.284014 0.482285 0.874016
O O12 0.520776 0.257341 0.908049
O O13 0.446708 0.536916 0.816789
O O14 0.339863 0.772552 0.961158
#
# Coordination Sequence:
#
# PCOD9139370 Si02
#       7
#     4   4   4   4   4   4   4
#     4  11  23  47  69 100 140 182 226 287 353 413
#     4  12  24  45  68 107 138 182 231 291 352 414
#     4   9  23  47  66  98 137 180 229 283 349 410
#     4  11  25  45  69 102 140 176 234 290 341 417
#     4  10  25  42  67 102 134 179 236 275 356 406
#     4  12  27  42  74 101 135 187 229 289 347 421
#     4   9  25  42  69  98 140 178 225 289 336 427
#
# _framework density 21.010463999999999
#
# number of rings (size 3 to 8) (size 9 to 14) (size 15 to 20)
#    0.857    0.571    2.857    0.857    8.000    2.286 
#    0.000    0.000    0.000    0.000    0.000    0.000 
#    0.000    0.000    0.000    0.000    0.000    0.000 
#
# Total GULP energy -78148.398757 kJ/mol
# GULP energy per Si atom -5582.028483 kJ/mol
# Density = 2.096264 g / cm^3
# Si number density = 21.010464 Si / 1000 Ang^3
#
#
#
# Elastic Constant Matrix: (Units=GPa)
#
#
# Indices 1 2 3 4 5 6 
#
# 1 63.1204 16.8603 38.9359 0.0000 3.3611 0.0000
# 2 16.8603 35.7263 3.3294 0.0000 6.2139 0.0000
# 3 38.9359 3.3294 83.9036 0.0000 9.0339 0.0000
# 4 0.0000 0.0000 0.0000 35.8928 0.0000 -13.6564
# 5 3.3611 6.2139 9.0339 0.0000 35.2163 0.0000
# 6 0.0000 0.0000 0.0000 -13.6564 0.0000 22.4047
#
#
#
# Elastic Compliance Matrix: (Units=1/GPa)
#
#
# Indices 1 2 3 4 5 6 
#
# 1 0.026230 -0.011720 -0.011991 0.000000 0.002641 0.000000
# 2 -0.011720 0.034145 0.004743 0.000000 -0.006123 0.000000
# 3 -0.011991 0.004743 0.017752 0.000000 -0.004246 0.000000
# 4 0.000000 0.000000 0.000000 0.036273 0.000000 0.022110
# 5 0.002641 -0.006123 -0.004246 0.000000 0.030314 0.000000
# 6 0.000000 0.000000 0.000000 0.022110 0.000000 0.058110
#
#
# Mechanical properties :
#
#
# Convention : Reuss Voigt Hill
#
# Bulk Modulus (GPa) = 24.88200 33.44458 29.16329
# Shear Modulus (GPa) = 19.67295 26.94440 23.30868
#
# Velocity S-wave (km/s) = 3.06329 3.58498 3.33436
# Velocity P-wave (km/s) = 4.93761 5.75228 5.36045
#
# Compressibility (1/GPa) = 0.04018970
#
# Stress axis : x y z
#
# Youngs Moduli (GPa) = 38.12495 29.28712 56.33170
#
# Poissons Ratio (x) = 0.34325 0.67548
# Poissons Ratio (y) = 0.44684 -0.26719
# Poissons Ratio (z) = 0.45716 -0.13891
#
# Static dielectric constant tensor:
#      x y z
#    x 1.729620 0.000000 -0.006600 
#    y 0.000000 1.764550 0.000000 
#    z -0.006600 0.000000 1.734640 
# 
# From -- ./inp_files/26264.got.cif
#   From: 2010.05.17/outbox.cif.g08.bks.cpg/sg9_14_cif.got.tgz:26264.got - 2010.06.03 20:04:27.
