data_PCOD9139731
_publ_section_title
;
Structure prediction by ZEFSAII (Michael W. Deem and Ramdas Pophale) SiO2 
 PCOD9139731
Probable space group: C C
;
_chemical_formula_sum "Si O2"
_cell_formula_units_Z 28
_cell_length_a 14.049119
_cell_length_b 14.150664
_cell_length_c 9.180079
_cell_angle_alpha 90.000000
_cell_angle_beta 139.632924
_cell_angle_gamma 90.000000
_cell_volume 1182.045743
_symmetry_space_group_name_H-M "C C"
_symmetry_group_IT_number 9
_symmetry_cell_setting 'monoclinic'
loop_
_space_group_symop_operation_xyz
x,y,z
x,-y,1/2+z
1/2+x,1/2+y,z
1/2+x,1/2-y,1/2+z
loop_
_atom_site_type_symbol
_atom_site_label
_atom_site_fract_x
_atom_site_fract_y
_atom_site_fract_z
Si Si1 0.435830 0.121264 0.781980
Si Si2 0.599636 0.572959 0.879555
Si Si3 0.248495 0.708542 0.117809
Si Si4 0.860515 0.155209 0.930519
Si Si5 0.445705 0.543747 0.428824
Si Si6 0.407953 0.934076 0.907372
Si Si7 0.082828 0.252781 0.019161
O O1 0.300491 0.183697 0.682427
O O2 0.407117 0.085586 0.581151
O O3 0.467783 0.035882 0.929020
O O4 0.578345 0.188778 0.945365
O O5 0.589370 0.555628 0.697306
O O6 0.499143 0.491156 0.833771
O O7 0.541436 0.678659 0.845819
O O8 0.750950 0.568935 0.143272
O O9 0.348072 0.636835 0.327577
O O10 0.293819 0.673446 0.009490
O O11 0.025193 0.193471 0.093631
O O12 0.754180 0.221982 0.710368
O O13 0.854887 0.047051 0.878452
O O14 0.505966 0.853188 0.946426
#
# Coordination Sequence:
#
# PCOD9139731 Si02
#       7
#     4   4   4   4   4   4   4
#     4  12  29  46  82 104 156 187 254 299 375 428
#     4  11  24  43  70 106 142 191 236 305 361 436
#     4  12  24  47  73 108 142 198 240 305 359 442
#     4  11  20  42  70 102 135 188 236 289 360 431
#     4  11  25  42  71 103 147 184 244 297 365 431
#     4  12  25  47  74 110 143 197 243 308 359 444
#     4  11  21  41  72  99 137 187 241 289 357 434
#
# _framework density 23.687745
#
# number of rings (size 3 to 8) (size 9 to 14) (size 15 to 20)
#    0.000    0.571    5.714    1.714    2.000    2.286 
#    2.571    0.000    0.000    0.000    0.000    0.000 
#    0.000    0.000    0.000    0.000    0.000    0.000 
#
# Total GULP energy -78247.521976 kJ/mol
# GULP energy per Si atom -5589.108713 kJ/mol
# Density = 2.363383 g / cm^3
# Si number density = 23.687745 Si / 1000 Ang^3
#
#
#
# Elastic Constant Matrix: (Units=GPa)
#
#
# Indices 1 2 3 4 5 6 
#
# 1 51.3867 40.7726 21.3768 0.0000 7.5677 0.0000
# 2 40.7726 130.9109 26.1209 0.0000 -3.7920 0.0000
# 3 21.3768 26.1209 89.6025 0.0000 3.5518 0.0000
# 4 0.0000 0.0000 0.0000 28.9269 0.0000 9.2956
# 5 7.5677 -3.7920 3.5518 0.0000 26.3677 0.0000
# 6 0.0000 0.0000 0.0000 9.2956 0.0000 42.8852
#
#
#
# Elastic Compliance Matrix: (Units=1/GPa)
#
#
# Indices 1 2 3 4 5 6 
#
# 1 0.029319 -0.008570 -0.004136 0.000000 -0.009090 0.000000
# 2 -0.008570 0.010674 -0.001232 0.000000 0.004161 0.000000
# 3 -0.004136 -0.001232 0.012533 0.000000 -0.000678 0.000000
# 4 0.000000 0.000000 0.000000 0.037158 0.000000 -0.008054
# 5 -0.009090 0.004161 -0.000678 0.000000 0.041224 0.000000
# 6 0.000000 0.000000 0.000000 -0.008054 0.000000 0.025064
#
#
# Mechanical properties :
#
#
# Convention : Reuss Voigt Hill
#
# Bulk Modulus (GPa) = 40.56687 49.82674 45.19681
# Shear Modulus (GPa) = 26.03283 31.87795 28.95539
#
# Velocity S-wave (km/s) = 3.31871 3.67244 3.50005
# Velocity P-wave (km/s) = 5.64340 6.25003 5.95445
#
# Compressibility (1/GPa) = 0.02465066
#
# Stress axis : x y z
#
# Youngs Moduli (GPa) = 34.10744 93.68423 79.78740
#
# Poissons Ratio (x) = 0.80283 0.33002
# Poissons Ratio (y) = 0.29228 0.09831
# Poissons Ratio (z) = 0.14108 0.11544
#
# Static dielectric constant tensor:
#      x y z
#    x 1.890750 0.000000 0.014610 
#    y 0.000000 1.928250 0.000000 
#    z 0.014610 0.000000 1.960640 
# 
# From -- ./inp_files/7343.got.cif
#   From: 2010.05.17/outbox.cif.g08.bks.cpg/sg9_4_cif.got.tgz:7343.got - 2010.06.03 20:04:27.
