data_PCOD9139608
_publ_section_title
;
Structure prediction by ZEFSAII (Michael W. Deem and Ramdas Pophale) SiO2 
 PCOD9139608
Probable space group: C C
;
_chemical_formula_sum "Si O2"
_cell_formula_units_Z 24
_cell_length_a 7.435129
_cell_length_b 7.097411
_cell_length_c 18.908680
_cell_angle_alpha 90.000000
_cell_angle_beta 112.417825
_cell_angle_gamma 90.000000
_cell_volume 922.406812
_symmetry_space_group_name_H-M "C C"
_symmetry_group_IT_number 9
_symmetry_cell_setting 'monoclinic'
loop_
_space_group_symop_operation_xyz
x,y,z
x,-y,1/2+z
1/2+x,1/2+y,z
1/2+x,1/2-y,1/2+z
loop_
_atom_site_type_symbol
_atom_site_label
_atom_site_fract_x
_atom_site_fract_y
_atom_site_fract_z
Si Si1 0.847170 0.460920 0.582680
Si Si2 0.989223 0.745643 0.715624
Si Si3 0.906249 0.180434 0.707979
Si Si4 0.567389 0.554820 0.429953
Si Si5 0.640402 0.950986 0.837080
Si Si6 0.980756 0.512809 0.953713
O O1 0.639010 0.452215 0.512530
O O2 0.991749 0.515618 0.539646
O O3 0.204159 0.742707 0.713586
O O4 0.905469 0.269058 0.629539
O O5 0.857602 0.621825 0.643238
O O6 0.011340 0.627142 0.791186
O O7 0.920459 0.957322 0.711637
O O8 0.079164 0.283534 0.776251
O O9 0.364708 0.492052 0.367747
O O10 0.599743 0.098946 0.412660
O O11 0.538501 0.771870 0.447728
O O12 0.752351 0.470202 0.906759
#
# Coordination Sequence:
#
# PCOD9139608 Si02
#       6
#     4   4   4   4   4   4
#     4   9  26  52  76 117 160 212 278 345 406 498
#     4  11  28  47  83 112 164 217 277 333 419 496
#     4  11  28  47  83 112 164 217 277 333 419 496
#     4  10  26  46  80 114 163 205 275 343 422 481
#     4  11  28  48  76 119 158 210 276 345 416 496
#     4  10  26  46  80 114 163 205 275 343 422 481
#
# _framework density 26.018888
#
# number of rings (size 3 to 8) (size 9 to 14) (size 15 to 20)
#    1.000    0.667    0.000    0.000   14.000    5.333 
#    0.000    3.333    3.667    0.000    0.000    0.000 
#    0.000    0.000    0.000    0.000    0.000    0.000 
#
# Total GULP energy -67277.097655 kJ/mol
# GULP energy per Si atom -5606.424805 kJ/mol
# Density = 2.595967 g / cm^3
# Si number density = 26.018888 Si / 1000 Ang^3
#
#
#
# Elastic Constant Matrix: (Units=GPa)
#
#
# Indices 1 2 3 4 5 6 
#
# 1 105.3912 4.7057 12.8022 0.0000 4.6705 0.0000
# 2 4.7057 150.8796 47.7518 0.0000 0.5147 0.0000
# 3 12.8022 47.7518 148.7116 0.0000 -6.4344 0.0000
# 4 0.0000 0.0000 0.0000 29.3974 0.0000 -1.9056
# 5 4.6705 0.5147 -6.4344 0.0000 36.6474 0.0000
# 6 0.0000 0.0000 0.0000 -1.9056 0.0000 37.1698
#
#
#
# Elastic Compliance Matrix: (Units=1/GPa)
#
#
# Indices 1 2 3 4 5 6 
#
# 1 0.009658 -0.000016 -0.000886 0.000000 -0.001386 0.000000
# 2 -0.000016 0.007388 -0.002393 0.000000 -0.000522 0.000000
# 3 -0.000886 -0.002393 0.007634 0.000000 0.001487 0.000000
# 4 0.000000 0.000000 0.000000 0.034130 0.000000 0.001750
# 5 -0.001386 -0.000522 0.001487 0.000000 0.027732 0.000000
# 6 0.000000 0.000000 0.000000 0.001750 0.000000 0.026993
#
#
# Mechanical properties :
#
#
# Convention : Reuss Voigt Hill
#
# Bulk Modulus (GPa) = 55.28505 59.50017 57.39261
# Shear Modulus (GPa) = 39.63363 43.29111 41.46237
#
# Velocity S-wave (km/s) = 3.90714 4.08344 3.99626
# Velocity P-wave (km/s) = 6.45356 6.71940 6.58782
#
# Compressibility (1/GPa) = 0.01808807
#
# Stress axis : x y z
#
# Youngs Moduli (GPa) = 103.53823 135.36276 131.00017
#
# Poissons Ratio (x) = 0.00216 0.11611
# Poissons Ratio (y) = 0.00166 0.31353
# Poissons Ratio (z) = 0.09177 0.32397
#
# Static dielectric constant tensor:
#      x y z
#    x 2.040010 0.000000 -0.008270 
#    y 0.000000 2.028240 0.000000 
#    z -0.008270 0.000000 2.024730 
# 
# From -- ./inp_files/21772.got.cif
#   From: 2010.05.17/outbox.cif.g08.bks.cpg/sg9_11_cif.got.tgz:21772.got - 2010.06.03 20:04:27.
