data_PCOD9139883
_publ_section_title
;
Structure prediction by ZEFSAII (Michael W. Deem and Ramdas Pophale) SiO2 
 PCOD9139883
Probable space group: C C
;
_chemical_formula_sum "Si O2"
_cell_formula_units_Z 32
_cell_length_a 21.474061
_cell_length_b 6.402367
_cell_length_c 10.569742
_cell_angle_alpha 90.000000
_cell_angle_beta 106.730010
_cell_angle_gamma 90.000000
_cell_volume 1391.668692
_symmetry_space_group_name_H-M "C C"
_symmetry_group_IT_number 9
_symmetry_cell_setting 'monoclinic'
loop_
_space_group_symop_operation_xyz
x,y,z
x,-y,1/2+z
1/2+x,1/2+y,z
1/2+x,1/2-y,1/2+z
loop_
_atom_site_type_symbol
_atom_site_label
_atom_site_fract_x
_atom_site_fract_y
_atom_site_fract_z
Si Si1 0.222000 0.923408 0.332840
Si Si2 0.157403 0.830811 0.560949
Si Si3 0.435829 0.436486 0.626316
Si Si4 0.364204 0.923402 0.989310
Si Si5 0.650378 0.063516 0.195824
Si Si6 0.428807 0.830819 0.761208
Si Si7 0.045792 0.117116 0.537661
Si Si8 0.540415 0.117152 0.784471
O O1 0.181468 0.919140 0.440705
O O2 0.213949 0.684119 0.279393
O O3 0.196979 0.066390 0.201453
O O4 0.293101 0.000007 0.411076
O O5 0.162508 0.581500 0.581296
O O6 0.082915 0.901820 0.532840
O O7 0.372254 0.315894 0.542753
O O8 0.423704 0.581505 0.740852
O O9 0.474831 0.586643 0.553633
O O10 0.488996 0.252234 0.673469
O O11 0.404738 0.919136 0.881451
O O12 0.389226 0.066384 0.120701
O O13 0.611379 0.913370 0.268522
O O14 0.597208 0.247747 0.148635
O O15 0.503293 0.901864 0.789331
O O16 0.043102 0.249932 0.411045
#
# Coordination Sequence:
#
# PCOD9139883 Si02
#       8
#     4   4   4   4   4   4   4   4
#     4  11  26  47  70  99 140 192 250 294 344 424
#     4  11  24  44  71 104 142 188 236 295 360 421
#     4  11  23  40  67 105 139 183 225 291 361 420
#     4  11  26  47  70  99 140 192 250 294 344 424
#     4  11  23  40  67 105 139 183 225 291 361 420
#     4  11  24  44  71 104 142 188 236 295 360 421
#     4  11  22  37  65 103 144 177 221 284 359 431
#     4  11  22  37  65 103 144 177 221 284 359 431
#
# _framework density 22.993976
#
# number of rings (size 3 to 8) (size 9 to 14) (size 15 to 20)
#    0.000    1.000    2.500    3.750    3.500    5.000 
#    0.000    5.000    0.000    0.000    0.000    0.000 
#    0.000    0.000    0.000    0.000    0.000    0.000 
#
# Total GULP energy -89349.679367 kJ/mol
# GULP energy per Si atom -5584.354960 kJ/mol
# Density = 2.294164 g / cm^3
# Si number density = 22.993976 Si / 1000 Ang^3
#
#
#
# Elastic Constant Matrix: (Units=GPa)
#
#
# Indices 1 2 3 4 5 6 
#
# 1 34.3663 14.3543 10.5921 0.0000 -5.3197 0.0000
# 2 14.3543 102.6189 30.2210 0.0000 7.1625 0.0000
# 3 10.5921 30.2210 104.8183 0.0000 -1.2377 0.0000
# 4 0.0000 0.0000 0.0000 51.1791 0.0000 5.6208
# 5 -5.3197 7.1625 -1.2377 0.0000 32.7779 0.0000
# 6 0.0000 0.0000 0.0000 5.6208 0.0000 29.5848
#
#
#
# Elastic Compliance Matrix: (Units=1/GPa)
#
#
# Indices 1 2 3 4 5 6 
#
# 1 0.032489 -0.004403 -0.001941 0.000000 0.006162 0.000000
# 2 -0.004403 0.011445 -0.002894 0.000000 -0.003325 0.000000
# 3 -0.001941 -0.002894 0.010579 0.000000 0.000717 0.000000
# 4 0.000000 0.000000 0.000000 0.019956 0.000000 -0.003791
# 5 0.006162 -0.003325 0.000717 0.000000 0.032262 0.000000
# 6 0.000000 0.000000 0.000000 -0.003791 0.000000 0.034521
#
#
# Mechanical properties :
#
#
# Convention : Reuss Voigt Hill
#
# Bulk Modulus (GPa) = 27.74879 39.12647 33.43763
# Shear Modulus (GPa) = 29.11349 35.15076 32.13213
#
# Velocity S-wave (km/s) = 3.56214 3.91409 3.74226
# Velocity P-wave (km/s) = 5.38633 6.12207 5.76595
#
# Compressibility (1/GPa) = 0.03603761
#
# Stress axis : x y z
#
# Youngs Moduli (GPa) = 30.77926 87.37388 94.52381
#
# Poissons Ratio (x) = 0.38472 0.18346
# Poissons Ratio (y) = 0.13552 0.27356
# Poissons Ratio (z) = 0.05974 0.25287
#
# Static dielectric constant tensor:
#      x y z
#    x 1.911650 0.000000 0.034120 
#    y 0.000000 1.997470 0.000000 
#    z 0.034120 0.000000 1.941600 
# 
# From -- ./inp_files/19803.got.cif
#   From: 2010.05.17/outbox.cif.g08.bks.cpg/sg9_10_cif.got.tgz:19803.got - 2010.06.03 20:04:27.
