data_PCOD9139598
_publ_section_title
;
Structure prediction by ZEFSAII (Michael W. Deem and Ramdas Pophale) SiO2 
 PCOD9139598
Probable space group: C C
;
_chemical_formula_sum "Si O2"
_cell_formula_units_Z 28
_cell_length_a 5.086339
_cell_length_b 22.419421
_cell_length_c 9.272129
_cell_angle_alpha 90.000000
_cell_angle_beta 93.281935
_cell_angle_gamma 90.000000
_cell_volume 1055.592500
_symmetry_space_group_name_H-M "C C"
_symmetry_group_IT_number 9
_symmetry_cell_setting 'monoclinic'
loop_
_space_group_symop_operation_xyz
x,y,z
x,-y,1/2+z
1/2+x,1/2+y,z
1/2+x,1/2-y,1/2+z
loop_
_atom_site_type_symbol
_atom_site_label
_atom_site_fract_x
_atom_site_fract_y
_atom_site_fract_z
Si Si1 0.471760 0.357514 0.655590
Si Si2 0.581893 0.293220 0.152833
Si Si3 0.830550 0.501222 0.438933
Si Si4 0.770803 0.263485 0.866002
Si Si5 0.923031 0.312594 0.501784
Si Si6 0.670300 0.967680 0.704870
Si Si7 0.028806 0.932620 0.180369
O O1 0.175377 0.336567 0.604943
O O2 0.619545 0.317154 0.779550
O O3 0.668073 0.351508 0.525747
O O4 0.423500 0.425238 0.702995
O O5 0.540557 0.260070 0.304496
O O6 0.798382 0.283145 0.034164
O O7 0.362236 0.253047 0.064847
O O8 0.005268 0.462264 0.553837
O O9 0.013291 0.543914 0.346167
O O10 0.695720 0.458594 0.318435
O O11 0.635375 0.538141 0.535264
O O12 0.572947 0.205119 0.859325
O O13 0.536052 0.362353 0.170166
O O14 0.748416 0.037354 0.703572
#
# Coordination Sequence:
#
# PCOD9139598 Si02
#       7
#     4   4   4   4   4   4   4
#     4  11  24  47  73 105 150 199 253 324 386 477
#     4   9  22  47  75 110 150 198 270 320 406 468
#     4  10  26  46  70 119 150 206 267 318 413 473
#     4   9  22  47  71 110 148 200 260 330 398 480
#     4   9  24  44  72 108 145 198 252 320 388 461
#     4  11  26  47  73 112 153 203 264 325 402 480
#     4  11  24  48  78 110 160 208 258 341 395 487
#
# _framework density 26.525388
#
# number of rings (size 3 to 8) (size 9 to 14) (size 15 to 20)
#    0.857    1.143    0.000    0.857    8.000    5.714 
#   15.429    0.000    0.000    0.000    0.000    0.000 
#    0.000    0.000    0.000    0.000    0.000    0.000 
#
# Total GULP energy -78166.002412 kJ/mol
# GULP energy per Si atom -5583.285887 kJ/mol
# Density = 2.646502 g / cm^3
# Si number density = 26.525388 Si / 1000 Ang^3
#
#
#
# Elastic Constant Matrix: (Units=GPa)
#
#
# Indices 1 2 3 4 5 6 
#
# 1 122.0797 36.1485 47.0488 0.0000 -5.1054 0.0000
# 2 36.1485 151.7028 48.6332 0.0000 -5.2043 0.0000
# 3 47.0488 48.6332 176.1995 0.0000 -8.7094 0.0000
# 4 0.0000 0.0000 0.0000 31.2579 0.0000 -7.9941
# 5 -5.1054 -5.2043 -8.7094 0.0000 24.8432 0.0000
# 6 0.0000 0.0000 0.0000 -7.9941 0.0000 29.6121
#
#
#
# Elastic Compliance Matrix: (Units=1/GPa)
#
#
# Indices 1 2 3 4 5 6 
#
# 1 0.009486 -0.001571 -0.002055 0.000000 0.000900 0.000000
# 2 -0.001571 0.007509 -0.001619 0.000000 0.000682 0.000000
# 3 -0.002055 -0.001619 0.006750 0.000000 0.001605 0.000000
# 4 0.000000 0.000000 0.000000 0.034364 0.000000 0.009277
# 5 0.000900 0.000682 0.001605 0.000000 0.041143 0.000000
# 6 0.000000 0.000000 0.000000 0.009277 0.000000 0.036274
#
#
# Mechanical properties :
#
#
# Convention : Reuss Voigt Hill
#
# Bulk Modulus (GPa) = 75.44268 79.29369 77.36819
# Shear Modulus (GPa) = 33.23684 38.35273 35.79479
#
# Velocity S-wave (km/s) = 3.54364 3.80661 3.67748
# Velocity P-wave (km/s) = 6.72656 7.01988 6.87479
#
# Compressibility (1/GPa) = 0.01325510
#
# Stress axis : x y z
#
# Youngs Moduli (GPa) = 105.41767 133.17953 148.13976
#
# Poissons Ratio (x) = 0.20919 0.30442
# Poissons Ratio (y) = 0.16558 0.23989
# Poissons Ratio (z) = 0.21663 0.21566
#
# Static dielectric constant tensor:
#      x y z
#    x 2.171650 0.000000 0.021880 
#    y 0.000000 2.103690 0.000000 
#    z 0.021880 0.000000 2.257040 
# 
# From -- ./inp_files/4119.got.cif
#   From: 2010.05.17/outbox.cif.g08.bks.cpg/sg9_3_cif.got.tgz:4119.got - 2010.06.03 20:04:27.
