data_PCOD9139490
_publ_section_title
;
Structure prediction by ZEFSAII (Michael W. Deem and Ramdas Pophale) SiO2 
 PCOD9139490
Probable space group: C C
;
_chemical_formula_sum "Si O2"
_cell_formula_units_Z 20
_cell_length_a 27.604033
_cell_length_b 5.208790
_cell_length_c 8.991014
_cell_angle_alpha 90.000000
_cell_angle_beta 40.234406
_cell_angle_gamma 90.000000
_cell_volume 835.014962
_symmetry_space_group_name_H-M "C C"
_symmetry_group_IT_number 9
_symmetry_cell_setting 'monoclinic'
loop_
_space_group_symop_operation_xyz
x,y,z
x,-y,1/2+z
1/2+x,1/2+y,z
1/2+x,1/2-y,1/2+z
loop_
_atom_site_type_symbol
_atom_site_label
_atom_site_fract_x
_atom_site_fract_y
_atom_site_fract_z
Si Si1 0.702840 0.692253 0.692050
Si Si2 0.574603 0.348621 0.993607
Si Si3 0.380951 0.188886 0.281911
Si Si4 0.115103 0.502563 0.145990
Si Si5 0.937497 0.187596 0.319271
O O1 0.791136 0.668496 0.481911
O O2 0.670448 0.844711 0.909363
O O3 0.566974 0.188109 0.861482
O O4 0.662279 0.418134 0.794998
O O5 0.524980 0.604063 0.110526
O O6 0.414530 0.927694 0.271682
O O7 0.561420 0.176939 0.169326
O O8 0.399522 0.427776 0.346209
O O9 0.412067 0.251332 0.045591
O O10 0.167228 0.672650 0.130970
#
# Coordination Sequence:
#
# PCOD9139490 Si02
#       5
#     4   4   4   4   4
#     4  11  25  45  81 109 155 202 268 325 397 473
#     4  11  27  46  80 112 158 206 273 326 397 472
#     4  12  30  52  81 118 165 212 264 327 410 476
#     4  10  25  46  79 114 152 205 274 329 390 466
#     4  12  31  53  79 117 166 211 263 331 402 481
#
# _framework density 23.951668000000002
#
# number of rings (size 3 to 8) (size 9 to 14) (size 15 to 20)
#    0.000    0.800    0.000    3.600   22.400    0.000 
#    0.000    0.000    0.000    0.000    0.000    0.000 
#    0.000    0.000    0.000    0.000    0.000    0.000 
#
# Total GULP energy -56118.878069 kJ/mol
# GULP energy per Si atom -5611.887807 kJ/mol
# Density = 2.389715 g / cm^3
# Si number density = 23.951668 Si / 1000 Ang^3
#
#
#
# Elastic Constant Matrix: (Units=GPa)
#
#
# Indices 1 2 3 4 5 6 
#
# 1 152.2981 75.2311 80.7273 0.0000 22.6228 0.0000
# 2 75.2311 164.4370 58.0771 0.0000 3.8188 0.0000
# 3 80.7273 58.0771 151.9091 0.0000 -20.4919 0.0000
# 4 0.0000 0.0000 0.0000 31.7601 0.0000 -1.7584
# 5 22.6228 3.8188 -20.4919 0.0000 38.4048 0.0000
# 6 0.0000 0.0000 0.0000 -1.7584 0.0000 42.6665
#
#
#
# Elastic Compliance Matrix: (Units=1/GPa)
#
#
# Indices 1 2 3 4 5 6 
#
# 1 0.014322 -0.003457 -0.007954 0.000000 -0.012337 0.000000
# 2 -0.003457 0.008059 -0.001161 0.000000 0.000616 0.000000
# 3 -0.007954 -0.001161 0.012824 0.000000 0.011643 0.000000
# 4 0.000000 0.000000 0.000000 0.031558 0.000000 0.001301
# 5 -0.012337 0.000616 0.011643 0.000000 0.039457 0.000000
# 6 0.000000 0.000000 0.000000 0.001301 0.000000 0.023491
#
#
# Mechanical properties :
#
#
# Convention : Reuss Voigt Hill
#
# Bulk Modulus (GPa) = 99.38282 99.63505 99.50893
# Shear Modulus (GPa) = 31.60408 39.54018 35.57213
#
# Velocity S-wave (km/s) = 3.63642 4.06745 3.85796
# Velocity P-wave (km/s) = 7.69510 7.98421 7.84099
#
# Compressibility (1/GPa) = 0.01006210
#
# Stress axis : x y z
#
# Youngs Moduli (GPa) = 69.82224 124.09122 77.97881
#
# Poissons Ratio (x) = 0.42896 0.62021
# Poissons Ratio (y) = 0.24136 0.09052
# Poissons Ratio (z) = 0.55534 0.14405
#
# Static dielectric constant tensor:
#      x y z
#    x 1.920480 0.000000 -0.013740 
#    y 0.000000 1.922350 0.000000 
#    z -0.013740 0.000000 1.877520 
# 
# From -- ./inp_files/11146.got.cif
#   From: 2010.05.17/outbox.cif.g08.bks.cpg/sg9_6_cif.got.tgz:11146.got - 2010.06.03 20:04:27.
