data_PCOD9139070
_publ_section_title
;
Structure prediction by ZEFSAII (Michael W. Deem and Ramdas Pophale) SiO2 
 PCOD9139070
Probable space group: C C
;
_chemical_formula_sum "Si O2"
_cell_formula_units_Z 28
_cell_length_a 21.743299
_cell_length_b 9.317801
_cell_length_c 7.905756
_cell_angle_alpha 90.000000
_cell_angle_beta 44.067390
_cell_angle_gamma 90.000000
_cell_volume 1113.991515
_symmetry_space_group_name_H-M "C C"
_symmetry_group_IT_number 9
_symmetry_cell_setting 'monoclinic'
loop_
_space_group_symop_operation_xyz
x,y,z
x,-y,1/2+z
1/2+x,1/2+y,z
1/2+x,1/2-y,1/2+z
loop_
_atom_site_type_symbol
_atom_site_label
_atom_site_fract_x
_atom_site_fract_y
_atom_site_fract_z
Si Si1 0.232910 0.650031 0.127020
Si Si2 0.255029 0.877107 0.380240
Si Si3 0.731215 0.173209 0.739183
Si Si4 0.435735 0.032105 0.488608
Si Si5 0.027024 0.233574 0.632516
Si Si6 0.527030 0.191318 0.608054
Si Si7 0.551036 0.456896 0.767139
O O1 0.262785 0.762503 0.211498
O O2 0.257421 0.486276 0.124922
O O3 0.126258 0.657102 0.355002
O O4 0.257045 0.684851 0.885421
O O5 0.264177 0.789984 0.538034
O O6 0.158167 0.947733 0.564911
O O7 0.332161 0.992374 0.206758
O O8 0.624132 0.193774 0.940658
O O9 0.456276 0.142677 0.294905
O O10 0.463634 0.126117 0.593736
O O11 0.499944 0.899364 0.328765
O O12 0.016203 0.129971 0.495444
O O13 0.024395 0.119471 0.791147
O O14 0.522555 0.356510 0.667053
#
# Coordination Sequence:
#
# PCOD9139070 Si02
#       7
#     4   4   4   4   4   4   4
#     4  11  19  42  73  96 130 184 236 274 328 425
#     4  10  26  43  64 101 140 176 226 283 351 403
#     4  11  21  40  73 100 131 188 233 279 335 434
#     4  12  24  44  68 105 137 169 227 299 347 399
#     4  11  22  41  68  98 134 172 234 279 340 406
#     4  11  22  42  72  97 131 182 232 275 344 415
#     4  10  24  44  68  95 131 187 226 273 335 430
#
# _framework density 25.134840000000001
#
# number of rings (size 3 to 8) (size 9 to 14) (size 15 to 20)
#    0.000    1.143    4.286    1.714    4.000    2.286 
#   10.286    0.000    0.000    0.000    0.000    0.000 
#    0.000    0.000    0.000    0.000    0.000    0.000 
#
# Total GULP energy -78426.764242 kJ/mol
# GULP energy per Si atom -5601.911732 kJ/mol
# Density = 2.507763 g / cm^3
# Si number density = 25.134840 Si / 1000 Ang^3
#
#
#
# Elastic Constant Matrix: (Units=GPa)
#
#
# Indices 1 2 3 4 5 6 
#
# 1 63.7802 18.1964 49.2006 0.0000 29.9133 0.0000
# 2 18.1964 128.8581 27.2636 0.0000 0.0645 0.0000
# 3 49.2006 27.2636 85.0910 0.0000 23.3661 0.0000
# 4 0.0000 0.0000 0.0000 19.5014 0.0000 14.7702
# 5 29.9133 0.0645 23.3661 0.0000 46.8307 0.0000
# 6 0.0000 0.0000 0.0000 14.7702 0.0000 17.0243
#
#
#
# Elastic Compliance Matrix: (Units=1/GPa)
#
#
# Indices 1 2 3 4 5 6 
#
# 1 0.035180 -0.001613 -0.015823 0.000000 -0.014575 0.000000
# 2 -0.001613 0.008494 -0.002397 0.000000 0.002215 0.000000
# 3 -0.015823 -0.002397 0.021892 0.000000 -0.000813 0.000000
# 4 0.000000 0.000000 0.000000 0.149549 0.000000 -0.129748
# 5 -0.014575 0.002215 -0.000813 0.000000 0.031066 0.000000
# 6 0.000000 0.000000 0.000000 -0.129748 0.000000 0.171308
#
#
# Mechanical properties :
#
#
# Convention : Reuss Voigt Hill
#
# Bulk Modulus (GPa) = 38.60777 51.89449 45.25113
# Shear Modulus (GPa) = 10.73447 28.87587 19.80517
#
# Velocity S-wave (km/s) = 2.06882 3.39313 2.81010
# Velocity P-wave (km/s) = 4.59351 6.00353 5.34522
#
# Compressibility (1/GPa) = 0.02590152
#
# Stress axis : x y z
#
# Youngs Moduli (GPa) = 28.42498 117.72582 45.67822
#
# Poissons Ratio (x) = 0.18988 0.72275
# Poissons Ratio (y) = 0.04585 0.10950
# Poissons Ratio (z) = 0.44976 0.28221
#
# Static dielectric constant tensor:
#      x y z
#    x 2.023170 0.000000 0.104640 
#    y 0.000000 1.923770 0.000000 
#    z 0.104640 0.000000 2.058510 
# 
# From -- ./inp_files/10355.got.cif
#   From: 2010.05.17/outbox.cif.g08.bks.cpg/sg9_6_cif.got.tgz:10355.got - 2010.06.03 20:04:27.
