data_PCOD9139920
_publ_section_title
;
Structure prediction by ZEFSAII (Michael W. Deem and Ramdas Pophale) SiO2 
 PCOD9139920
Probable space group: C C
;
_chemical_formula_sum "Si O2"
_cell_formula_units_Z 32
_cell_length_a 23.170446
_cell_length_b 5.419074
_cell_length_c 10.666896
_cell_angle_alpha 90.000000
_cell_angle_beta 69.783143
_cell_angle_gamma 90.000000
_cell_volume 1256.844506
_symmetry_space_group_name_H-M "C C"
_symmetry_group_IT_number 9
_symmetry_cell_setting 'monoclinic'
loop_
_space_group_symop_operation_xyz
x,y,z
x,-y,1/2+z
1/2+x,1/2+y,z
1/2+x,1/2-y,1/2+z
loop_
_atom_site_type_symbol
_atom_site_label
_atom_site_fract_x
_atom_site_fract_y
_atom_site_fract_z
Si Si1 0.739130 0.374709 0.145660
Si Si2 0.920388 0.848578 0.066755
Si Si3 0.805235 0.089278 0.282068
Si Si4 0.523658 0.532851 0.313915
Si Si5 0.479923 0.053938 0.226821
Si Si6 0.185433 0.556893 0.009622
Si Si7 0.356225 0.942515 0.416733
Si Si8 0.150590 0.739624 0.782184
O O1 0.758561 0.126915 0.202576
O O2 0.690203 0.321651 0.073459
O O3 0.708714 0.577740 0.256580
O O4 0.802338 0.455097 0.038778
O O5 0.954668 0.614003 0.106143
O O6 0.868415 0.952923 0.200039
O O7 0.880271 0.793128 0.974070
O O8 0.976833 0.000102 0.966286
O O9 0.828568 0.359245 0.305861
O O10 0.757523 0.001398 0.424065
O O11 0.523634 0.280227 0.234062
O O12 0.589078 0.601983 0.321014
O O13 0.502532 0.777915 0.247226
O O14 0.417345 0.096057 0.353417
O O15 0.158770 0.386442 0.139620
O O16 0.148842 0.566207 0.906789
#
# Coordination Sequence:
#
# PCOD9139920 Si02
#       8
#     4   4   4   4   4   4   4   4
#     4  12  24  44  74 114 153 205 257 329 405 483
#     4  11  23  44  73 108 147 203 253 328 391 470
#     4  12  22  43  76 113 156 203 259 331 406 485
#     4  11  29  48  75 107 148 205 265 320 391 469
#     4  11  25  48  71 108 145 199 256 324 388 460
#     4  12  26  49  74 116 153 208 266 330 410 475
#     4  11  22  41  70 111 151 197 256 324 399 474
#     4  12  29  49  77 113 157 212 268 332 398 484
#
# _framework density 25.460588000000001
#
# number of rings (size 3 to 8) (size 9 to 14) (size 15 to 20)
#    0.000    0.500    2.500    6.000    3.500    3.000 
#    0.000    0.000    0.000    0.000    0.000    0.000 
#    0.000    0.000    0.000    0.000    0.000    0.000 
#
# Total GULP energy -89386.715552 kJ/mol
# GULP energy per Si atom -5586.669722 kJ/mol
# Density = 2.540264 g / cm^3
# Si number density = 25.460588 Si / 1000 Ang^3
#
#
#
# Elastic Constant Matrix: (Units=GPa)
#
#
# Indices 1 2 3 4 5 6 
#
# 1 90.5382 16.2005 28.6561 0.0000 6.9165 0.0000
# 2 16.2005 73.2836 19.6858 0.0000 9.5789 0.0000
# 3 28.6561 19.6858 89.0919 0.0000 13.6023 0.0000
# 4 0.0000 0.0000 0.0000 35.4282 0.0000 1.3498
# 5 6.9165 9.5789 13.6023 0.0000 30.2321 0.0000
# 6 0.0000 0.0000 0.0000 1.3498 0.0000 42.6077
#
#
#
# Elastic Compliance Matrix: (Units=1/GPa)
#
#
# Indices 1 2 3 4 5 6 
#
# 1 0.012529 -0.001724 -0.003538 0.000000 -0.000728 0.000000
# 2 -0.001724 0.015074 -0.002263 0.000000 -0.003364 0.000000
# 3 -0.003538 -0.002263 0.013561 0.000000 -0.004575 0.000000
# 4 0.000000 0.000000 0.000000 0.028260 0.000000 -0.000895
# 5 -0.000728 -0.003364 -0.004575 0.000000 0.036368 0.000000
# 6 0.000000 0.000000 0.000000 -0.000895 0.000000 0.023498
#
#
# Mechanical properties :
#
#
# Convention : Reuss Voigt Hill
#
# Bulk Modulus (GPa) = 38.29252 42.44429 40.36840
# Shear Modulus (GPa) = 32.67017 34.21168 33.44092
#
# Velocity S-wave (km/s) = 3.58602 3.66964 3.62807
# Velocity P-wave (km/s) = 5.67614 5.88743 5.78275
#
# Compressibility (1/GPa) = 0.02611476
#
# Stress axis : x y z
#
# Youngs Moduli (GPa) = 79.81524 66.33829 73.74234
#
# Poissons Ratio (x) = 0.11438 0.26088
# Poissons Ratio (y) = 0.13762 0.16686
# Poissons Ratio (z) = 0.28236 0.15010
#
# Static dielectric constant tensor:
#      x y z
#    x 1.994370 0.000000 0.009670 
#    y 0.000000 2.095190 0.000000 
#    z 0.009670 0.000000 2.046050 
# 
# From -- ./inp_files/20563.got.cif
#   From: 2010.05.17/outbox.cif.g08.bks.cpg/sg9_11_cif.got.tgz:20563.got - 2010.06.03 20:04:27.
