data_PCOD9139363
_publ_section_title
;
Structure prediction by ZEFSAII (Michael W. Deem and Ramdas Pophale) SiO2 
 PCOD9139363
Probable space group: C C
;
_chemical_formula_sum "Si O2"
_cell_formula_units_Z 28
_cell_length_a 12.244374
_cell_length_b 9.932340
_cell_length_c 17.737795
_cell_angle_alpha 90.000000
_cell_angle_beta 148.044498
_cell_angle_gamma 90.000000
_cell_volume 1141.713829
_symmetry_space_group_name_H-M "C C"
_symmetry_group_IT_number 9
_symmetry_cell_setting 'monoclinic'
loop_
_space_group_symop_operation_xyz
x,y,z
x,-y,1/2+z
1/2+x,1/2+y,z
1/2+x,1/2-y,1/2+z
loop_
_atom_site_type_symbol
_atom_site_label
_atom_site_fract_x
_atom_site_fract_y
_atom_site_fract_z
Si Si1 0.790720 0.980891 0.135700
Si Si2 0.899058 0.810115 0.819703
Si Si3 0.107586 0.916435 0.438711
Si Si4 0.449550 0.999383 0.329297
Si Si5 0.072555 0.409364 0.737187
Si Si6 0.809553 0.814789 0.381834
Si Si7 0.042362 0.093930 0.154178
O O1 0.784142 0.118962 0.181002
O O2 0.912928 0.995269 0.129468
O O3 0.563726 0.952867 0.972664
O O4 0.940095 0.889737 0.274239
O O5 0.973405 0.662288 0.841918
O O6 0.741849 0.810502 0.799023
O O7 0.076625 0.923023 0.937979
O O8 0.347886 0.889150 0.568290
O O9 0.013889 0.831008 0.451400
O O10 0.532595 0.075991 0.303780
O O11 0.207297 0.023960 0.197014
O O12 0.172616 0.555424 0.778232
O O13 0.669892 0.688390 0.284087
O O14 0.887826 0.822586 0.512238
#
# Coordination Sequence:
#
# PCOD9139363 Si02
#       7
#     4   4   4   4   4   4   4
#     4  10  25  41  68 102 128 184 230 290 345 415
#     4   9  25  42  71 102 135 188 230 286 354 420
#     4   9  23  44  67  96 137 182 223 293 353 420
#     4  12  25  46  69 103 142 178 244 286 356 432
#     4  11  22  46  73  95 140 184 230 287 359 413
#     4  11  25  44  69  98 138 184 235 282 362 426
#     4  12  27  43  69 102 136 186 234 296 347 442
#
# _framework density 24.524533000000002
#
# number of rings (size 3 to 8) (size 9 to 14) (size 15 to 20)
#    0.857    0.571    2.857    0.857   10.000    0.000 
#    5.143    0.000    0.000    0.000    0.000    0.000 
#    0.000    0.000    0.000    0.000    0.000    0.000 
#
# Total GULP energy -78224.385067 kJ/mol
# GULP energy per Si atom -5587.456076 kJ/mol
# Density = 2.446871 g / cm^3
# Si number density = 24.524533 Si / 1000 Ang^3
#
#
#
# Elastic Constant Matrix: (Units=GPa)
#
#
# Indices 1 2 3 4 5 6 
#
# 1 105.0620 13.5842 30.3795 0.0002 -4.0486 0.0000
# 2 13.5842 78.1327 23.7367 0.0001 1.6140 0.0001
# 3 30.3795 23.7367 106.4349 0.0010 2.6601 0.0003
# 4 0.0002 0.0001 0.0010 8.1569 0.0004 -0.6054
# 5 -4.0486 1.6140 2.6601 0.0004 39.8786 0.0001
# 6 0.0000 0.0001 0.0003 -0.6054 0.0001 14.5856
#
#
#
# Elastic Compliance Matrix: (Units=1/GPa)
#
#
# Indices 1 2 3 4 5 6 
#
# 1 0.010510 -0.001001 -0.002809 0.000000 0.001295 0.000000
# 2 -0.001001 0.013829 -0.002787 0.000000 -0.000475 0.000000
# 3 -0.002809 -0.002787 0.010841 -0.000001 -0.000896 0.000000
# 4 0.000000 0.000000 -0.000001 0.122974 -0.000001 0.005104
# 5 0.001295 -0.000475 -0.000896 -0.000001 0.025287 0.000000
# 6 0.000000 0.000000 0.000000 0.005104 0.000000 0.068773
#
#
# Mechanical properties :
#
#
# Convention : Reuss Voigt Hill
#
# Bulk Modulus (GPa) = 45.48056 47.22558 46.35307
# Shear Modulus (GPa) = 18.33281 27.31950 22.82616
#
# Velocity S-wave (km/s) = 2.73706 3.34123 3.05413
# Velocity P-wave (km/s) = 5.34545 5.84666 5.60166
#
# Compressibility (1/GPa) = 0.02198742
#
# Stress axis : x y z
#
# Youngs Moduli (GPa) = 95.15022 72.31126 92.24226
#
# Poissons Ratio (x) = 0.07235 0.25911
# Poissons Ratio (y) = 0.09521 0.25704
# Poissons Ratio (z) = 0.26727 0.20150
#
# Static dielectric constant tensor:
#      x y z
#    x 1.970510 0.000000 0.012120 
#    y 0.000000 1.947990 0.000000 
#    z 0.012120 0.000000 1.952540 
# 
# From -- ./inp_files/30101.got.cif
#   From: 2010.05.17/outbox.cif.g08.bks.cpg/sg9_16_cif.got.tgz:30101.got - 2010.06.03 20:04:27.
