data_PCOD9139200
_publ_section_title
;
Structure prediction by ZEFSAII (Michael W. Deem and Ramdas Pophale) SiO2 
 PCOD9139200
Probable space group: C C
;
_chemical_formula_sum "Si O2"
_cell_formula_units_Z 20
_cell_length_a 6.016164
_cell_length_b 13.145619
_cell_length_c 8.921003
_cell_angle_alpha 90.000000
_cell_angle_beta 81.107845
_cell_angle_gamma 90.000000
_cell_volume 697.048510
_symmetry_space_group_name_H-M "C C"
_symmetry_group_IT_number 9
_symmetry_cell_setting 'monoclinic'
loop_
_space_group_symop_operation_xyz
x,y,z
x,-y,1/2+z
1/2+x,1/2+y,z
1/2+x,1/2-y,1/2+z
loop_
_atom_site_type_symbol
_atom_site_label
_atom_site_fract_x
_atom_site_fract_y
_atom_site_fract_z
Si Si1 0.652370 0.442615 0.524580
Si Si2 0.914474 0.552743 0.272998
Si Si3 0.432565 0.758334 0.185711
Si Si4 0.190361 0.750436 0.934578
Si Si5 0.792099 0.079631 0.709992
O O1 0.742520 0.465418 0.350304
O O2 0.881314 0.444494 0.599239
O O3 0.546338 0.340238 0.599489
O O4 0.490868 0.536411 0.588385
O O5 0.832364 0.654772 0.358148
O O6 0.165633 0.521314 0.280579
O O7 0.456488 0.747877 0.364157
O O8 0.602487 0.853492 0.141711
O O9 0.203168 0.760545 0.112770
O O10 0.315774 0.650510 0.854431
#
# Coordination Sequence:
#
# PCOD9139200 Si02
#       5
#     4   4   4   4   4
#     4  11  24  44  71 105 140 184 238 287 351 423
#     4  11  24  44  71 105 140 184 238 287 351 423
#     4   9  21  42  65 102 134 183 229 283 347 414
#     4   9  21  42  65 102 134 183 229 283 347 414
#     4  10  24  46  70 102 144 184 228 302 342 414
#
# _framework density 28.692408
#
# number of rings (size 3 to 8) (size 9 to 14) (size 15 to 20)
#    1.200    0.800    0.000    2.400    0.000    8.000 
#   10.800    0.000    0.000    0.000    0.000    0.000 
#    0.000    0.000    0.000    0.000    0.000    0.000 
#
# Total GULP energy -55919.083560 kJ/mol
# GULP energy per Si atom -5591.908356 kJ/mol
# Density = 2.862710 g / cm^3
# Si number density = 28.692408 Si / 1000 Ang^3
#
#
#
# Elastic Constant Matrix: (Units=GPa)
#
#
# Indices 1 2 3 4 5 6 
#
# 1 72.5249 23.3400 64.3399 0.0000 8.0422 0.0000
# 2 23.3400 113.2930 -10.8353 0.0000 -8.1046 0.0000
# 3 64.3399 -10.8353 147.4525 0.0000 31.9264 0.0000
# 4 0.0000 0.0000 0.0000 26.7685 0.0000 2.0811
# 5 8.0422 -8.1046 31.9264 0.0000 75.4826 0.0000
# 6 0.0000 0.0000 0.0000 2.0811 0.0000 45.7024
#
#
#
# Elastic Compliance Matrix: (Units=1/GPa)
#
#
# Indices 1 2 3 4 5 6 
#
# 1 0.026913 -0.006625 -0.012610 0.000000 0.001755 0.000000
# 2 -0.006625 0.010558 0.003598 0.000000 0.000318 0.000000
# 3 -0.012610 0.003598 0.013401 0.000000 -0.003938 0.000000
# 4 0.000000 0.000000 0.000000 0.037490 0.000000 -0.001707
# 5 0.001755 0.000318 -0.003938 0.000000 0.014761 0.000000
# 6 0.000000 0.000000 0.000000 -0.001707 0.000000 0.021958
#
#
# Mechanical properties :
#
#
# Convention : Reuss Voigt Hill
#
# Bulk Modulus (GPa) = 51.02526 54.10661 52.56593
# Shear Modulus (GPa) = 30.69587 46.68573 38.69080
#
# Velocity S-wave (km/s) = 3.27437 4.03812 3.67613
# Velocity P-wave (km/s) = 5.66723 6.37498 6.03149
#
# Compressibility (1/GPa) = 0.01959814
#
# Stress axis : x y z
#
# Youngs Moduli (GPa) = 37.15737 94.71208 74.62011
#
# Poissons Ratio (x) = 0.62745 0.94095
# Poissons Ratio (y) = 0.24616 -0.26847
# Poissons Ratio (z) = 0.46855 -0.34075
#
# Static dielectric constant tensor:
#      x y z
#    x 2.262080 0.000000 0.130710 
#    y 0.000000 2.278150 0.000000 
#    z 0.130710 0.000000 2.134780 
# 
# From -- ./inp_files/4875.got.cif
#   From: 2010.05.17/outbox.cif.g08.bks.cpg/sg9_3_cif.got.tgz:4875.got - 2010.06.03 20:04:27.
