data_PCOD9139466
_publ_section_title
;
Structure prediction by ZEFSAII (Michael W. Deem and Ramdas Pophale) SiO2 
 PCOD9139466
Probable space group: C C
;
_chemical_formula_sum "Si O2"
_cell_formula_units_Z 32
_cell_length_a 11.623979
_cell_length_b 10.647922
_cell_length_c 23.640404
_cell_angle_alpha 90.000000
_cell_angle_beta 153.612161
_cell_angle_gamma 90.000000
_cell_volume 1300.446979
_symmetry_space_group_name_H-M "C C"
_symmetry_group_IT_number 9
_symmetry_cell_setting 'monoclinic'
loop_
_space_group_symop_operation_xyz
x,y,z
x,-y,1/2+z
1/2+x,1/2+y,z
1/2+x,1/2-y,1/2+z
loop_
_atom_site_type_symbol
_atom_site_label
_atom_site_fract_x
_atom_site_fract_y
_atom_site_fract_z
Si Si1 0.864520 0.328478 0.681090
Si Si2 0.495684 0.920132 0.849101
Si Si3 0.045575 0.823722 0.048346
Si Si4 0.909016 0.049768 0.710719
Si Si5 0.918732 0.071363 0.386163
Si Si6 0.014659 0.575198 0.956374
Si Si7 0.888540 0.790345 0.391183
Si Si8 0.972941 0.201962 0.300915
O O1 0.865543 0.191085 0.711345
O O2 0.664074 0.307604 0.542758
O O3 0.828986 0.423393 0.718188
O O4 0.143683 0.361446 0.777567
O O5 0.376303 0.822113 0.841076
O O6 0.768289 0.859260 0.951143
O O7 0.551222 0.051707 0.905360
O O8 0.050986 0.701038 0.009191
O O9 0.089840 0.927452 0.019094
O O10 0.233707 0.793356 0.182701
O O11 0.212675 0.043965 0.830623
O O12 0.717544 0.020599 0.574405
O O13 0.867505 0.935297 0.734637
O O14 0.054615 0.159525 0.399410
O O15 0.848801 0.926132 0.344579
O O16 0.691212 0.755098 0.354948
#
# Coordination Sequence:
#
# PCOD9139466 Si02
#       8
#     4   4   4   4   4   4   4   4
#     4  11  24  47  67 100 143 186 241 295 372 435
#     4  11  22  44  73  97 137 186 235 300 358 429
#     4  10  25  46  69 103 137 186 244 294 360 439
#     4  11  20  45  71 102 135 185 245 298 354 434
#     4  11  26  45  68 100 149 188 230 301 368 432
#     4  11  22  41  74 101 135 182 247 291 358 427
#     4  12  26  45  69 111 142 186 245 298 363 446
#     4  11  25  45  73 104 142 189 241 301 361 438
#
# _framework density 24.606923999999999
#
# number of rings (size 3 to 8) (size 9 to 14) (size 15 to 20)
#    0.000    1.000    5.000    1.500    1.750    3.000 
#    6.750    0.000    0.000    0.000    0.000    0.000 
#    0.000    0.000    0.000    0.000    0.000    0.000 
#
# Total GULP energy -89314.180566 kJ/mol
# GULP energy per Si atom -5582.136285 kJ/mol
# Density = 2.455092 g / cm^3
# Si number density = 24.606924 Si / 1000 Ang^3
#
#
#
# Elastic Constant Matrix: (Units=GPa)
#
#
# Indices 1 2 3 4 5 6 
#
# 1 208.9325 48.7858 4.7621 0.0024 5.3619 0.0008
# 2 48.7858 143.3087 -13.0514 0.0011 3.3333 0.0005
# 3 4.7621 -13.0514 89.4549 0.0028 -19.3342 0.0014
# 4 0.0024 0.0011 0.0028 20.6282 0.0016 -15.4232
# 5 5.3619 3.3333 -19.3342 0.0016 34.4358 0.0008
# 6 0.0008 0.0005 0.0014 -15.4232 0.0008 30.9209
#
#
#
# Elastic Compliance Matrix: (Units=1/GPa)
#
#
# Indices 1 2 3 4 5 6 
#
# 1 0.005261 -0.001837 -0.000781 -0.000001 -0.001080 0.000000
# 2 -0.001837 0.007714 0.001279 -0.000001 0.000257 -0.000001
# 3 -0.000781 0.001279 0.012982 -0.000005 0.007287 -0.000003
# 4 -0.000001 -0.000001 -0.000005 0.077309 -0.000007 0.038561
# 5 -0.001080 0.000257 0.007287 -0.000007 0.033274 -0.000005
# 6 0.000000 -0.000001 -0.000003 0.038561 -0.000005 0.051575
#
#
# Mechanical properties :
#
#
# Convention : Reuss Voigt Hill
#
# Bulk Modulus (GPa) = 42.96052 58.07656 50.51854
# Shear Modulus (GPa) = 25.18235 43.94363 34.56299
#
# Velocity S-wave (km/s) = 3.20251 4.23049 3.75187
# Velocity P-wave (km/s) = 5.58313 6.89316 6.27244
#
# Compressibility (1/GPa) = 0.02327718
#
# Stress axis : x y z
#
# Youngs Moduli (GPa) = 190.08930 129.63858 77.03036
#
# Poissons Ratio (x) = 0.23814 0.06020
# Poissons Ratio (y) = 0.34918 -0.09851
# Poissons Ratio (z) = 0.14855 -0.16579
#
# Static dielectric constant tensor:
#      x y z
#    x 1.935310 0.000000 -0.123920 
#    y 0.000000 2.056880 -0.000010 
#    z -0.123920 -0.000010 1.887590 
# 
# From -- ./inp_files/24722.got.cif
#   From: 2010.05.17/outbox.cif.g08.bks.cpg/sg9_13_cif.got.tgz:24722.got - 2010.06.03 20:04:27.
