data_PCOD9139909
_publ_section_title
;
Structure prediction by ZEFSAII (Michael W. Deem and Ramdas Pophale) SiO2 
 PCOD9139909
Probable space group: C C
;
_chemical_formula_sum "Si O2"
_cell_formula_units_Z 32
_cell_length_a 5.238889
_cell_length_b 17.916832
_cell_length_c 15.702630
_cell_angle_alpha 90.000000
_cell_angle_beta 72.767405
_cell_angle_gamma 90.000000
_cell_volume 1407.752152
_symmetry_space_group_name_H-M "C C"
_symmetry_group_IT_number 9
_symmetry_cell_setting 'monoclinic'
loop_
_space_group_symop_operation_xyz
x,y,z
x,-y,1/2+z
1/2+x,1/2+y,z
1/2+x,1/2-y,1/2+z
loop_
_atom_site_type_symbol
_atom_site_label
_atom_site_fract_x
_atom_site_fract_y
_atom_site_fract_z
Si Si1 0.919830 0.045815 0.614330
Si Si2 0.554950 0.096758 0.318924
Si Si3 0.745045 0.876422 0.972389
Si Si4 0.300527 0.314245 0.232714
Si Si5 0.167388 0.234997 0.400348
Si Si6 0.393588 0.962293 0.667637
Si Si7 0.052748 0.171762 0.175508
Si Si8 0.309649 0.768840 0.077776
O O1 0.950555 0.088295 0.520391
O O2 0.782152 0.105053 0.692425
O O3 0.691230 0.986201 0.614806
O O4 0.175153 0.011965 0.638177
O O5 0.644754 0.072345 0.404768
O O6 0.371224 0.169506 0.351249
O O7 0.399201 0.040413 0.271218
O O8 0.821245 0.123680 0.243102
O O9 0.881744 0.804273 0.914732
O O10 0.499727 0.841020 0.048548
O O11 0.246870 0.306689 0.337817
O O12 0.102303 0.251045 0.215782
O O13 0.588531 0.286442 0.170617
O O14 0.183484 0.246185 0.498994
O O15 0.316468 0.877805 0.652500
O O16 0.973077 0.196781 0.089861
#
# Coordination Sequence:
#
# PCOD9139909 Si02
#       8
#     4   4   4   4   4   4   4   4
#     4  12  27  45  70 109 153 193 238 309 384 444
#     4  11  22  42  74 104 140 195 259 295 358 469
#     4  11  23  42  71 110 147 195 256 309 372 447
#     4  12  23  42  75 105 143 191 247 313 373 429
#     4  11  22  40  73 110 141 192 253 312 371 433
#     4  12  26  47  69 103 147 200 244 291 386 454
#     4  12  21  44  75 102 141 191 251 300 363 448
#     4  11  22  40  69 111 146 179 254 319 359 440
#
# _framework density 22.731276000000001
#
# number of rings (size 3 to 8) (size 9 to 14) (size 15 to 20)
#    0.000    0.500    7.500    0.750    1.750    0.000 
#    0.000    2.500    0.000    0.000    0.000    0.000 
#    0.000    0.000    0.000    0.000    0.000    0.000 
#
# Total GULP energy -89363.044973 kJ/mol
# GULP energy per Si atom -5585.190311 kJ/mol
# Density = 2.267954 g / cm^3
# Si number density = 22.731276 Si / 1000 Ang^3
#
#
#
# Elastic Constant Matrix: (Units=GPa)
#
#
# Indices 1 2 3 4 5 6 
#
# 1 120.3766 25.3427 47.7033 0.0000 16.2836 0.0000
# 2 25.3427 51.7175 28.2676 0.0000 12.9108 0.0000
# 3 47.7033 28.2676 87.4753 0.0000 27.0925 0.0000
# 4 0.0000 0.0000 0.0000 32.9175 0.0000 5.3830
# 5 16.2836 12.9108 27.0925 0.0000 45.2963 0.0000
# 6 0.0000 0.0000 0.0000 5.3830 0.0000 49.5221
#
#
#
# Elastic Compliance Matrix: (Units=1/GPa)
#
#
# Indices 1 2 3 4 5 6 
#
# 1 0.010865 -0.002517 -0.005062 0.000000 -0.000161 0.000000
# 2 -0.002517 0.024328 -0.005672 0.000000 -0.002637 0.000000
# 3 -0.005062 -0.005672 0.018362 0.000000 -0.007546 0.000000
# 4 0.000000 0.000000 0.000000 0.030929 0.000000 -0.003362
# 5 -0.000161 -0.002637 -0.007546 0.000000 0.027400 0.000000
# 6 0.000000 0.000000 0.000000 -0.003362 0.000000 0.020558
#
#
# Mechanical properties :
#
#
# Convention : Reuss Voigt Hill
#
# Bulk Modulus (GPa) = 36.96490 51.35520 44.16005
# Shear Modulus (GPa) = 29.76865 36.09755 32.93310
#
# Velocity S-wave (km/s) = 3.62275 3.98931 3.81044
# Velocity P-wave (km/s) = 5.81344 6.62275 6.23125
#
# Compressibility (1/GPa) = 0.02705269
#
# Stress axis : x y z
#
# Youngs Moduli (GPa) = 92.03990 41.10524 54.45928
#
# Poissons Ratio (x) = 0.10347 0.27566
# Poissons Ratio (y) = 0.23169 0.30890
# Poissons Ratio (z) = 0.46588 0.23316
#
# Static dielectric constant tensor:
#      x y z
#    x 1.950340 0.000000 0.046310 
#    y 0.000000 1.874450 0.000000 
#    z 0.046310 0.000000 1.918390 
# 
# From -- ./inp_files/21965.got.cif
#   From: 2010.05.17/outbox.cif.g08.bks.cpg/sg9_11_cif.got.tgz:21965.got - 2010.06.03 20:04:27.
