data_PCOD9139573
_publ_section_title
;
Structure prediction by ZEFSAII (Michael W. Deem and Ramdas Pophale) SiO2 
 PCOD9139573
Probable space group: C C
;
_chemical_formula_sum "Si O2"
_cell_formula_units_Z 24
_cell_length_a 25.703278
_cell_length_b 5.437395
_cell_length_c 9.184345
_cell_angle_alpha 90.000000
_cell_angle_beta 131.605908
_cell_angle_gamma 90.000000
_cell_volume 959.781058
_symmetry_space_group_name_H-M "C C"
_symmetry_group_IT_number 9
_symmetry_cell_setting 'monoclinic'
loop_
_space_group_symop_operation_xyz
x,y,z
x,-y,1/2+z
1/2+x,1/2+y,z
1/2+x,1/2-y,1/2+z
loop_
_atom_site_type_symbol
_atom_site_label
_atom_site_fract_x
_atom_site_fract_y
_atom_site_fract_z
Si Si1 0.784100 0.992792 0.557640
Si Si2 0.987081 0.502790 0.215146
Si Si3 0.692817 0.954904 0.141806
Si Si4 0.172420 0.836419 0.335574
Si Si5 0.434278 0.316329 0.875908
Si Si6 0.054189 0.195653 0.098412
O O1 0.755458 0.857741 0.360932
O O2 0.864433 0.971455 0.735070
O O3 0.736891 0.892431 0.602841
O O4 0.755253 0.274802 0.484849
O O5 0.043395 0.380814 0.211781
O O6 0.023089 0.689158 0.394200
O O7 0.949338 0.309553 0.249653
O O8 0.931580 0.624269 0.002942
O O9 0.649812 0.132649 0.170490
O O10 0.657142 0.754099 0.972031
O O11 0.130969 0.083236 0.229216
O O12 0.502639 0.472350 0.038170
#
# Coordination Sequence:
#
# PCOD9139573 Si02
#       6
#     4   4   4   4   4   4
#     4   8  17  36  71 114 150 190 243 328 368 461
#     4  10  26  43  64 118 154 203 248 310 398 461
#     4   6  16  33  64 116 148 185 262 298 378 459
#     4   8  17  36  64 111 153 206 235 330 367 456
#     4  11  23  44  75 112 157 194 252 325 374 466
#     4  11  23  42  72 103 158 208 250 327 369 459
#
# _framework density 25.005704999999999
#
# number of rings (size 3 to 8) (size 9 to 14) (size 15 to 20)
#    2.000    0.667    0.000    1.000    4.667    1.333 
#    0.000    6.667    0.000   16.000    8.667    0.000 
#    0.000    0.000    0.000    0.000    0.000    0.000 
#
# Total GULP energy -66975.313278 kJ/mol
# GULP energy per Si atom -5581.276106 kJ/mol
# Density = 2.494879 g / cm^3
# Si number density = 25.005705 Si / 1000 Ang^3
#
#
#
# Elastic Constant Matrix: (Units=GPa)
#
#
# Indices 1 2 3 4 5 6 
#
# 1 81.0252 23.9539 57.9275 0.0000 -5.1693 0.0000
# 2 23.9539 61.5234 34.6540 0.0000 5.6518 0.0000
# 3 57.9275 34.6540 131.7272 0.0000 -19.5217 0.0000
# 4 0.0000 0.0000 0.0000 39.9192 0.0000 5.8873
# 5 -5.1693 5.6518 -19.5217 0.0000 66.9859 0.0000
# 6 0.0000 0.0000 0.0000 5.8873 0.0000 37.8843
#
#
#
# Elastic Compliance Matrix: (Units=1/GPa)
#
#
# Indices 1 2 3 4 5 6 
#
# 1 0.018498 -0.002976 -0.007423 0.000000 -0.000485 0.000000
# 2 -0.002976 0.020245 -0.004499 0.000000 -0.003249 0.000000
# 3 -0.007423 -0.004499 0.012553 0.000000 0.003465 0.000000
# 4 0.000000 0.000000 0.000000 0.025638 0.000000 -0.003984
# 5 -0.000485 -0.003249 0.003465 0.000000 0.016175 0.000000
# 6 0.000000 0.000000 0.000000 -0.003984 0.000000 0.027015
#
#
# Mechanical properties :
#
#
# Convention : Reuss Voigt Hill
#
# Bulk Modulus (GPa) = 46.51281 56.37185 51.44233
# Shear Modulus (GPa) = 31.82933 39.47390 35.65162
#
# Velocity S-wave (km/s) = 3.57162 3.97747 3.77999
# Velocity P-wave (km/s) = 5.97075 6.60955 6.29826
#
# Compressibility (1/GPa) = 0.02149946
#
# Stress axis : x y z
#
# Youngs Moduli (GPa) = 54.05970 49.39456 79.66282
#
# Poissons Ratio (x) = 0.14701 0.59137
# Poissons Ratio (y) = 0.16089 0.35837
# Poissons Ratio (z) = 0.40131 0.22221
#
# Static dielectric constant tensor:
#      x y z
#    x 1.981420 0.000000 -0.009080 
#    y 0.000000 2.039370 0.000000 
#    z -0.009080 0.000000 1.936440 
# 
# From -- ./inp_files/12321.got.cif
#   From: 2010.05.17/outbox.cif.g08.bks.cpg/sg9_7_cif.got.tgz:12321.got - 2010.06.03 20:04:27.
