data_PCOD9139796
_publ_section_title
;
Structure prediction by ZEFSAII (Michael W. Deem and Ramdas Pophale) SiO2 
 PCOD9139796
Probable space group: C C
;
_chemical_formula_sum "Si O2"
_cell_formula_units_Z 32
_cell_length_a 26.459875
_cell_length_b 9.184087
_cell_length_c 8.940110
_cell_angle_alpha 90.000000
_cell_angle_beta 141.925256
_cell_angle_gamma 90.000000
_cell_volume 1339.777855
_symmetry_space_group_name_H-M "C C"
_symmetry_group_IT_number 9
_symmetry_cell_setting 'monoclinic'
loop_
_space_group_symop_operation_xyz
x,y,z
x,-y,1/2+z
1/2+x,1/2+y,z
1/2+x,1/2-y,1/2+z
loop_
_atom_site_type_symbol
_atom_site_label
_atom_site_fract_x
_atom_site_fract_y
_atom_site_fract_z
Si Si1 0.298150 0.035627 0.726350
Si Si2 0.105229 0.730079 0.533503
Si Si3 0.887953 0.739722 0.518777
Si Si4 0.539983 0.671348 0.572726
Si Si5 0.762781 0.047802 0.885529
Si Si6 0.184010 0.050942 0.718688
Si Si7 0.972861 0.146985 0.918323
Si Si8 0.338218 0.644321 0.357000
O O1 0.214762 0.071842 0.622817
O O2 0.339126 0.191246 0.801990
O O3 0.357840 0.925676 0.948785
O O4 0.266430 0.948918 0.508969
O O5 0.064402 0.735419 0.274169
O O6 0.172351 0.604941 0.705176
O O7 0.039250 0.738483 0.511547
O O8 0.151626 0.885369 0.649081
O O9 0.810219 0.837010 0.388918
O O10 0.921829 0.786553 0.435278
O O11 0.962100 0.765806 0.805558
O O12 0.615614 0.652093 0.633564
O O13 0.515411 0.505526 0.563730
O O14 0.767331 0.894605 0.811774
O O15 0.816488 0.051185 0.160903
O O16 0.918077 0.112540 0.642532
#
# Coordination Sequence:
#
# PCOD9139796 Si02
#       8
#     4   4   4   4   4   4   4   4
#     4  12  24  45  72 108 148 190 248 307 365 436
#     4  11  23  44  70 104 147 191 245 308 359 439
#     4  12  24  43  73 112 145 194 249 306 366 440
#     4  11  23  40  73 108 149 195 251 298 363 446
#     4  12  25  46  70 108 145 192 253 309 372 435
#     4  11  21  41  71 104 143 193 246 295 360 435
#     4  11  24  42  72 108 148 195 250 300 377 444
#     4  12  26  45  73 106 149 194 246 315 370 441
#
# _framework density 23.884556
#
# number of rings (size 3 to 8) (size 9 to 14) (size 15 to 20)
#    0.000    0.500    5.000    3.750    1.750    1.000 
#    0.000    3.750    0.000    0.000    0.000    0.000 
#    0.000    0.000    0.000    0.000    0.000    0.000 
#
# Total GULP energy -89596.645119 kJ/mol
# GULP energy per Si atom -5599.790320 kJ/mol
# Density = 2.383019 g / cm^3
# Si number density = 23.884556 Si / 1000 Ang^3
#
#
#
# Elastic Constant Matrix: (Units=GPa)
#
#
# Indices 1 2 3 4 5 6 
#
# 1 135.1938 17.3310 39.6593 0.0000 -3.9461 0.0000
# 2 17.3310 67.4294 30.7097 0.0000 6.2120 0.0000
# 3 39.6593 30.7097 91.2476 0.0000 4.5896 0.0000
# 4 0.0000 0.0000 0.0000 33.1564 0.0000 9.3453
# 5 -3.9461 6.2120 4.5896 0.0000 29.7860 0.0000
# 6 0.0000 0.0000 0.0000 9.3453 0.0000 31.5130
#
#
#
# Elastic Compliance Matrix: (Units=1/GPa)
#
#
# Indices 1 2 3 4 5 6 
#
# 1 0.008596 -0.000751 -0.003576 0.000000 0.001846 0.000000
# 2 -0.000751 0.017810 -0.005519 0.000000 -0.002963 0.000000
# 3 -0.003576 -0.005519 0.014449 0.000000 -0.001549 0.000000
# 4 0.000000 0.000000 0.000000 0.032911 0.000000 -0.009760
# 5 0.001846 -0.002963 -0.001549 0.000000 0.034674 0.000000
# 6 0.000000 0.000000 0.000000 -0.009760 0.000000 0.034627
#
#
# Mechanical properties :
#
#
# Convention : Reuss Voigt Hill
#
# Bulk Modulus (GPa) = 47.25172 52.14121 49.69647
# Shear Modulus (GPa) = 29.44424 32.63581 31.04002
#
# Velocity S-wave (km/s) = 3.51490 3.70049 3.60889
# Velocity P-wave (km/s) = 6.02486 6.33531 6.18203
#
# Compressibility (1/GPa) = 0.02116325
#
# Stress axis : x y z
#
# Youngs Moduli (GPa) = 116.33248 56.14942 69.20984
#
# Poissons Ratio (x) = 0.04215 0.24752
# Poissons Ratio (y) = 0.08733 0.38194
# Poissons Ratio (z) = 0.41605 0.30986
#
# Static dielectric constant tensor:
#      x y z
#    x 1.940610 0.000000 -0.003570 
#    y 0.000000 1.880370 0.000000 
#    z -0.003570 0.000000 1.923070 
# 
# From -- ./inp_files/12456.got.cif
#   From: 2010.05.17/outbox.cif.g08.bks.cpg/sg9_7_cif.got.tgz:12456.got - 2010.06.03 20:04:27.
