data_PCOD9139938
_publ_section_title
;
Structure prediction by ZEFSAII (Michael W. Deem and Ramdas Pophale) SiO2 
 PCOD9139938
Probable space group: C C
;
_chemical_formula_sum "Si O2"
_cell_formula_units_Z 24
_cell_length_a 23.434754
_cell_length_b 4.615955
_cell_length_c 8.452940
_cell_angle_alpha 90.000000
_cell_angle_beta 107.965115
_cell_angle_gamma 90.000000
_cell_volume 869.805010
_symmetry_space_group_name_H-M "C C"
_symmetry_group_IT_number 9
_symmetry_cell_setting 'monoclinic'
loop_
_space_group_symop_operation_xyz
x,y,z
x,-y,1/2+z
1/2+x,1/2+y,z
1/2+x,1/2-y,1/2+z
loop_
_atom_site_type_symbol
_atom_site_label
_atom_site_fract_x
_atom_site_fract_y
_atom_site_fract_z
Si Si1 0.555260 0.110051 0.253680
Si Si2 0.212337 0.650851 0.203582
Si Si3 0.299122 0.344458 0.038990
Si Si4 0.967448 0.343883 0.430226
Si Si5 0.382999 0.819320 0.099164
Si Si6 0.126018 0.163993 0.104612
O O1 0.505238 0.030512 0.338568
O O2 0.605075 0.258694 0.407506
O O3 0.579948 0.821844 0.187320
O O4 0.519517 0.289712 0.086590
O O5 0.248140 0.778773 0.381038
O O6 0.185305 0.335294 0.209162
O O7 0.152508 0.838989 0.117847
O O8 0.262934 0.565147 0.120416
O O9 0.344260 0.564415 0.990835
O O10 0.340228 0.076950 0.128371
O O11 0.922269 0.179444 0.274788
O O12 0.926702 0.537952 0.508964
#
# Coordination Sequence:
#
# PCOD9139938 Si02
#       6
#     4   4   4   4   4   4
#     4   9  21  44  70 102 140 184 237 293 352 422
#     4  12  26  44  68 100 140 188 236 288 349 416
#     4  12  25  44  69 102 141 186 237 290 350 422
#     4   9  20  43  70 102 138 182 234 290 356 420
#     4  11  22  42  69 102 139 182 232 293 354 422
#     4  11  24  45  68 100 140 186 234 290 349 416
#
# _framework density 27.592393000000001
#
# number of rings (size 3 to 8) (size 9 to 14) (size 15 to 20)
#    0.000    1.333    0.000    5.000    0.000    4.000 
#    0.000   35.000    0.000    0.000    0.000    0.000 
#    0.000    0.000    0.000    0.000    0.000    0.000 
#
# Total GULP energy -67080.229050 kJ/mol
# GULP energy per Si atom -5590.019088 kJ/mol
# Density = 2.752959 g / cm^3
# Si number density = 27.592393 Si / 1000 Ang^3
#
#
#
# Elastic Constant Matrix: (Units=GPa)
#
#
# Indices 1 2 3 4 5 6 
#
# 1 133.2245 33.4686 43.7778 0.0000 -10.6258 0.0000
# 2 33.4686 116.4451 29.3214 0.0000 2.7498 0.0000
# 3 43.7778 29.3214 175.8310 0.0000 30.0845 0.0000
# 4 0.0000 0.0000 0.0000 26.3829 0.0000 9.2619
# 5 -10.6258 2.7498 30.0845 0.0000 54.4363 0.0000
# 6 0.0000 0.0000 0.0000 9.2619 0.0000 21.2381
#
#
#
# Elastic Compliance Matrix: (Units=1/GPa)
#
#
# Indices 1 2 3 4 5 6 
#
# 1 0.009099 -0.002068 -0.002476 0.000000 0.003249 0.000000
# 2 -0.002068 0.009443 -0.001004 0.000000 -0.000326 0.000000
# 3 -0.002476 -0.001004 0.007229 0.000000 -0.004428 0.000000
# 4 0.000000 0.000000 0.000000 0.044755 0.000000 -0.019518
# 5 0.003249 -0.000326 -0.004428 0.000000 0.021468 0.000000
# 6 0.000000 0.000000 0.000000 -0.019518 0.000000 0.055597
#
#
# Mechanical properties :
#
#
# Convention : Reuss Voigt Hill
#
# Bulk Modulus (GPa) = 68.15252 70.95957 69.55604
# Shear Modulus (GPa) = 30.56645 41.67365 36.12005
#
# Velocity S-wave (km/s) = 3.33195 3.89051 3.62202
# Velocity P-wave (km/s) = 6.28935 6.77897 6.53874
#
# Compressibility (1/GPa) = 0.01467297
#
# Stress axis : x y z
#
# Youngs Moduli (GPa) = 109.90713 105.90193 138.33521
#
# Poissons Ratio (x) = 0.21904 0.34256
# Poissons Ratio (y) = 0.22732 0.13888
# Poissons Ratio (z) = 0.27217 0.10632
#
# Static dielectric constant tensor:
#      x y z
#    x 2.221570 0.000000 -0.035820 
#    y 0.000000 2.135210 0.000000 
#    z -0.035820 0.000000 2.140030 
# 
# From -- ./inp_files/11894.got.cif
#   From: 2010.05.17/outbox.cif.g08.bks.cpg/sg9_6_cif.got.tgz:11894.got - 2010.06.03 20:04:27.
