data_PCOD9139475
_publ_section_title
;
Structure prediction by ZEFSAII (Michael W. Deem and Ramdas Pophale) SiO2 
 PCOD9139475
Probable space group: C C
;
_chemical_formula_sum "Si O2"
_cell_formula_units_Z 32
_cell_length_a 12.245233
_cell_length_b 13.955842
_cell_length_c 12.763617
_cell_angle_alpha 90.000000
_cell_angle_beta 45.596771
_cell_angle_gamma 90.000000
_cell_volume 1558.326723
_symmetry_space_group_name_H-M "C C"
_symmetry_group_IT_number 9
_symmetry_cell_setting 'monoclinic'
loop_
_space_group_symop_operation_xyz
x,y,z
x,-y,1/2+z
1/2+x,1/2+y,z
1/2+x,1/2-y,1/2+z
loop_
_atom_site_type_symbol
_atom_site_label
_atom_site_fract_x
_atom_site_fract_y
_atom_site_fract_z
Si Si1 0.859390 0.810859 0.032170
Si Si2 0.661139 0.027725 0.772139
Si Si3 0.429759 0.596160 0.097407
Si Si4 0.432080 0.885110 0.818208
Si Si5 0.899821 0.825627 0.383482
Si Si6 0.057618 0.331097 0.522620
Si Si7 0.608956 0.458038 0.099862
Si Si8 0.582713 0.663510 0.188061
O O1 0.773056 0.906424 0.127011
O O2 0.724401 0.733487 0.107475
O O3 0.977405 0.766073 0.037309
O O4 0.957227 0.823223 0.861831
O O5 0.584412 0.097840 0.907437
O O6 0.538522 0.970315 0.787025
O O7 0.770217 0.945978 0.748047
O O8 0.543509 0.505846 0.037370
O O9 0.500275 0.673699 0.129889
O O10 0.409097 0.631108 0.993635
O O11 0.475841 0.779346 0.829894
O O12 0.448362 0.877542 0.682645
O O13 0.263060 0.904316 0.971923
O O14 0.987802 0.893321 0.242461
O O15 0.724247 0.816899 0.463025
O O16 0.637227 0.553070 0.150881
#
# Coordination Sequence:
#
# PCOD9139475 Si02
#       8
#     4   4   4   4   4   4   4   4
#     4  12  25  46  77 105 148 185 251 299 360 440
#     4  12  25  46  72 107 145 192 238 299 362 435
#     4  10  25  46  72 101 143 194 230 292 367 420
#     4  12  28  44  73 111 146 185 250 297 364 434
#     4  12  24  50  73 105 151 188 241 299 369 437
#     4  12  25  45  73 110 141 192 241 298 365 433
#     4  10  25  48  70 107 142 189 241 298 361 429
#     4  10  25  47  74 104 142 191 244 294 368 426
#
# _framework density 20.534846999999999
#
# number of rings (size 3 to 8) (size 9 to 14) (size 15 to 20)
#    0.750    0.000    3.750    3.000    3.500    3.000 
#    0.000    0.000    0.000    0.000    0.000    0.000 
#    0.000    0.000    0.000    0.000    0.000    0.000 
#
# Total GULP energy -89398.019228 kJ/mol
# GULP energy per Si atom -5587.376202 kJ/mol
# Density = 2.048811 g / cm^3
# Si number density = 20.534847 Si / 1000 Ang^3
#
#
#
# Elastic Constant Matrix: (Units=GPa)
#
#
# Indices 1 2 3 4 5 6 
#
# 1 105.0239 44.3886 35.7325 0.0000 9.1535 0.0000
# 2 44.3886 103.8788 49.5914 0.0000 7.7966 0.0000
# 3 35.7325 49.5914 125.9820 0.0000 1.5259 0.0000
# 4 0.0000 0.0000 0.0000 37.3604 0.0000 -2.9412
# 5 9.1535 7.7966 1.5259 0.0000 30.2315 0.0000
# 6 0.0000 0.0000 0.0000 -2.9412 0.0000 24.9595
#
#
#
# Elastic Compliance Matrix: (Units=1/GPa)
#
#
# Indices 1 2 3 4 5 6 
#
# 1 0.012089 -0.004132 -0.001772 0.000000 -0.002505 0.000000
# 2 -0.004132 0.013512 -0.004123 0.000000 -0.002026 0.000000
# 3 -0.001772 -0.004123 0.010050 0.000000 0.001092 0.000000
# 4 0.000000 0.000000 0.000000 0.027017 0.000000 0.003184
# 5 -0.002505 -0.002026 0.001092 0.000000 0.034304 0.000000
# 6 0.000000 0.000000 0.000000 0.003184 0.000000 0.040440
#
#
# Mechanical properties :
#
#
# Convention : Reuss Voigt Hill
#
# Bulk Modulus (GPa) = 64.10887 66.03441 65.07164
# Shear Modulus (GPa) = 30.73808 32.18843 31.46325
#
# Velocity S-wave (km/s) = 3.87314 3.96346 3.91856
# Velocity P-wave (km/s) = 7.16163 7.29194 7.22708
#
# Compressibility (1/GPa) = 0.01559846
#
# Stress axis : x y z
#
# Youngs Moduli (GPa) = 82.71807 74.00666 99.50430
#
# Poissons Ratio (x) = 0.30578 0.17633
# Poissons Ratio (y) = 0.34178 0.41021
# Poissons Ratio (z) = 0.14658 0.30509
#
# Static dielectric constant tensor:
#      x y z
#    x 1.758070 0.000000 -0.001300 
#    y 0.000000 1.732240 0.000000 
#    z -0.001300 0.000000 1.691170 
# 
# From -- ./inp_files/16874.got.cif
#   From: 2010.05.17/outbox.cif.g08.bks.cpg/sg9_9_cif.got.tgz:16874.got - 2010.06.03 20:04:27.
