data_PCOD9139732
_publ_section_title
;
Structure prediction by ZEFSAII (Michael W. Deem and Ramdas Pophale) SiO2 
 PCOD9139732
Probable space group: C C
;
_chemical_formula_sum "Si O2"
_cell_formula_units_Z 32
_cell_length_a 30.355351
_cell_length_b 6.991045
_cell_length_c 7.433025
_cell_angle_alpha 90.000000
_cell_angle_beta 55.148382
_cell_angle_gamma 90.000000
_cell_volume 1294.472523
_symmetry_space_group_name_H-M "C C"
_symmetry_group_IT_number 9
_symmetry_cell_setting 'monoclinic'
loop_
_space_group_symop_operation_xyz
x,y,z
x,-y,1/2+z
1/2+x,1/2+y,z
1/2+x,1/2-y,1/2+z
loop_
_atom_site_type_symbol
_atom_site_label
_atom_site_fract_x
_atom_site_fract_y
_atom_site_fract_z
Si Si1 0.525450 0.364094 0.873410
Si Si2 0.950151 0.849029 0.753647
Si Si3 0.763236 0.313130 0.446947
Si Si4 0.886550 0.359255 0.089469
Si Si5 0.756116 0.936751 0.607657
Si Si6 0.680420 0.332105 0.096331
Si Si7 0.103342 0.122031 0.473310
Si Si8 0.871646 0.781550 0.218022
O O1 0.495143 0.256622 0.782509
O O2 0.557436 0.539413 0.708522
O O3 0.571223 0.268212 0.890866
O O4 0.480317 0.465373 0.100963
O O5 0.928154 0.727511 0.636471
O O6 0.902938 0.915513 0.002192
O O7 0.826326 0.345712 0.310063
O O8 0.727962 0.503200 0.495562
O O9 0.753364 0.165445 0.632262
O O10 0.754733 0.177428 0.296214
O O11 0.887650 0.588031 0.074964
O O12 0.887330 0.276415 0.885554
O O13 0.704988 0.855278 0.623821
O O14 0.811869 0.867436 0.381622
O O15 0.649446 0.284756 0.984516
O O16 0.634500 0.437401 0.320681
#
# Coordination Sequence:
#
# PCOD9139732 Si02
#       8
#     4   4   4   4   4   4   4   4
#     4   9  22  42  64 104 124 170 248 303 340 422
#     4  11  24  39  68  93 141 171 236 295 352 403
#     4  11  26  39  63 102 145 183 230 278 343 431
#     4  11  24  41  64  99 145 194 233 279 348 433
#     4  11  26  39  63 102 145 183 230 278 343 431
#     4  11  20  42  70  98 138 184 222 289 360 422
#     4   9  20  39  72  91 123 177 240 291 360 409
#     4  11  24  41  64  99 145 194 233 279 348 433
#
# _framework density 24.720493999999999
#
# number of rings (size 3 to 8) (size 9 to 14) (size 15 to 20)
#    0.000    1.500    3.750    0.000    8.750    0.000 
#    0.000    0.000    0.000   22.500    0.000    0.000 
#    0.000    0.000    0.000    0.000    0.000    0.000 
#
# Total GULP energy -89253.362114 kJ/mol
# GULP energy per Si atom -5578.335132 kJ/mol
# Density = 2.466423 g / cm^3
# Si number density = 24.720494 Si / 1000 Ang^3
#
#
#
# Elastic Constant Matrix: (Units=GPa)
#
#
# Indices 1 2 3 4 5 6 
#
# 1 186.2981 29.8361 11.1998 0.0000 6.1804 0.0000
# 2 29.8361 77.5747 4.8838 0.0000 -4.4816 0.0000
# 3 11.1998 4.8838 109.1959 0.0000 -9.1729 0.0000
# 4 0.0000 0.0000 0.0000 12.9034 0.0000 6.3222
# 5 6.1804 -4.4816 -9.1729 0.0000 36.4888 0.0000
# 6 0.0000 0.0000 0.0000 6.3222 0.0000 21.7927
#
#
#
# Elastic Compliance Matrix: (Units=1/GPa)
#
#
# Indices 1 2 3 4 5 6 
#
# 1 0.005817 -0.002281 -0.000614 0.000000 -0.001420 0.000000
# 2 -0.002281 0.013899 -0.000216 0.000000 0.002039 0.000000
# 3 -0.000614 -0.000216 0.009436 0.000000 0.002450 0.000000
# 4 0.000000 0.000000 0.000000 0.090340 0.000000 -0.026208
# 5 -0.001420 0.002039 0.002450 0.000000 0.028512 0.000000
# 6 0.000000 0.000000 0.000000 -0.026208 0.000000 0.053490
#
#
# Mechanical properties :
#
#
# Convention : Reuss Voigt Hill
#
# Bulk Modulus (GPa) = 43.60969 51.65646 47.63307
# Shear Modulus (GPa) = 23.21691 36.04691 29.63191
#
# Velocity S-wave (km/s) = 3.06792 3.82275 3.46595
# Velocity P-wave (km/s) = 5.49809 6.35816 5.94370
#
# Compressibility (1/GPa) = 0.02293068
#
# Stress axis : x y z
#
# Youngs Moduli (GPa) = 171.90993 71.94557 105.97404
#
# Poissons Ratio (x) = 0.16408 0.06506
# Poissons Ratio (y) = 0.39207 0.02294
# Poissons Ratio (z) = 0.10553 0.01557
#
# Static dielectric constant tensor:
#      x y z
#    x 2.074150 0.000000 0.074850 
#    y 0.000000 2.085180 0.000000 
#    z 0.074850 0.000000 2.091410 
# 
# From -- ./inp_files/12374.got.cif
#   From: 2010.05.17/outbox.cif.g08.bks.cpg/sg9_7_cif.got.tgz:12374.got - 2010.06.03 20:04:27.
