data_PCOD9139072
_publ_section_title
;
Structure prediction by ZEFSAII (Michael W. Deem and Ramdas Pophale) SiO2 
 PCOD9139072
Probable space group: C C
;
_chemical_formula_sum "Si O2"
_cell_formula_units_Z 24
_cell_length_a 4.933307
_cell_length_b 23.165374
_cell_length_c 8.144862
_cell_angle_alpha 90.000000
_cell_angle_beta 99.724072
_cell_angle_gamma 90.000000
_cell_volume 917.436989
_symmetry_space_group_name_H-M "C C"
_symmetry_group_IT_number 9
_symmetry_cell_setting 'monoclinic'
loop_
_space_group_symop_operation_xyz
x,y,z
x,-y,1/2+z
1/2+x,1/2+y,z
1/2+x,1/2-y,1/2+z
loop_
_atom_site_type_symbol
_atom_site_label
_atom_site_fract_x
_atom_site_fract_y
_atom_site_fract_z
Si Si1 0.214130 0.958745 0.989700
Si Si2 0.215381 0.392316 0.083705
Si Si3 0.604734 0.328835 0.377339
Si Si4 0.841186 0.419108 0.634068
Si Si5 0.218356 0.326022 0.769655
Si Si6 0.618116 0.760433 0.439639
O O1 0.257823 0.939293 0.806908
O O2 0.442702 0.923718 0.118054
O O3 0.910961 0.940659 0.016979
O O4 0.294902 0.025215 0.017471
O O5 0.415531 0.362232 0.231525
O O6 0.119216 0.344704 0.941422
O O7 0.655183 0.369099 0.538863
O O8 0.899310 0.307002 0.344527
O O9 0.425204 0.275212 0.421437
O O10 0.137734 0.386714 0.671575
O O11 0.513159 0.299823 0.855582
O O12 0.099781 0.277465 0.631465
#
# Coordination Sequence:
#
# PCOD9139072 Si02
#       6
#     4   4   4   4   4   4
#     4  11  24  42  68  98 137 183 227 283 346 407
#     4  11  24  43  68 101 136 180 231 285 344 412
#     4  11  24  42  67  98 133 175 229 282 343 408
#     4  10  24  45  69 102 140 183 232 286 343 413
#     4  10  24  44  68  98 137 178 230 283 342 409
#     4  11  24  42  66  95 131 179 223 283 344 405
#
# _framework density 26.159837
#
# number of rings (size 3 to 8) (size 9 to 14) (size 15 to 20)
#    0.000    1.333    0.000    4.000    0.000   16.000 
#    0.000    0.000    0.000    0.000    0.000    0.000 
#    0.000    0.000    0.000    0.000    0.000    0.000 
#
# Total GULP energy -67061.366200 kJ/mol
# GULP energy per Si atom -5588.447183 kJ/mol
# Density = 2.610030 g / cm^3
# Si number density = 26.159837 Si / 1000 Ang^3
#
#
#
# Elastic Constant Matrix: (Units=GPa)
#
#
# Indices 1 2 3 4 5 6 
#
# 1 110.7709 49.5711 16.7030 0.0000 19.6093 0.0000
# 2 49.5711 157.8635 52.0294 0.0000 14.5287 0.0000
# 3 16.7030 52.0294 104.4074 0.0000 19.4597 0.0000
# 4 0.0000 0.0000 0.0000 66.6356 0.0000 21.0319
# 5 19.6093 14.5287 19.4597 0.0000 35.0565 0.0000
# 6 0.0000 0.0000 0.0000 21.0319 0.0000 41.2365
#
#
#
# Elastic Compliance Matrix: (Units=1/GPa)
#
#
# Indices 1 2 3 4 5 6 
#
# 1 0.011361 -0.003352 0.000868 0.000000 -0.005448 0.000000
# 2 -0.003352 0.008612 -0.003836 0.000000 0.000436 0.000000
# 3 0.000868 -0.003836 0.012431 0.000000 -0.005796 0.000000
# 4 0.000000 0.000000 0.000000 0.017886 0.000000 -0.009123
# 5 -0.005448 0.000436 -0.005796 0.000000 0.034610 0.000000
# 6 0.000000 0.000000 0.000000 -0.009123 0.000000 0.028903
#
#
# Mechanical properties :
#
#
# Convention : Reuss Voigt Hill
#
# Bulk Modulus (GPa) = 50.59897 67.73875 59.16886
# Shear Modulus (GPa) = 37.58515 45.56828 41.57671
#
# Velocity S-wave (km/s) = 3.79456 4.17816 3.99097
# Velocity P-wave (km/s) = 6.21148 7.01615 6.62604
#
# Compressibility (1/GPa) = 0.01976325
#
# Stress axis : x y z
#
# Youngs Moduli (GPa) = 88.01782 116.12275 80.44394
#
# Poissons Ratio (x) = 0.38929 -0.06986
# Poissons Ratio (y) = 0.29507 0.30861
# Poissons Ratio (z) = -0.07644 0.44548
#
# Static dielectric constant tensor:
#      x y z
#    x 2.056600 0.000000 -0.016790 
#    y 0.000000 2.094180 0.000000 
#    z -0.016790 0.000000 2.076780 
# 
# From -- ./inp_files/3815.got.cif
#   From: 2010.05.17/outbox.cif.g08.bks.cpg/sg9_2_cif.got.tgz:3815.got - 2010.06.03 20:04:27.
