data_PCOD9139494
_publ_section_title
;
Structure prediction by ZEFSAII (Michael W. Deem and Ramdas Pophale) SiO2 
 PCOD9139494
Probable space group: C C
;
_chemical_formula_sum "Si O2"
_cell_formula_units_Z 32
_cell_length_a 11.205920
_cell_length_b 11.559414
_cell_length_c 10.787918
_cell_angle_alpha 90.000000
_cell_angle_beta 102.933340
_cell_angle_gamma 90.000000
_cell_volume 1361.950262
_symmetry_space_group_name_H-M "C C"
_symmetry_group_IT_number 9
_symmetry_cell_setting 'monoclinic'
loop_
_space_group_symop_operation_xyz
x,y,z
x,-y,1/2+z
1/2+x,1/2+y,z
1/2+x,1/2-y,1/2+z
loop_
_atom_site_type_symbol
_atom_site_label
_atom_site_fract_x
_atom_site_fract_y
_atom_site_fract_z
Si Si1 0.756310 0.199892 0.366480
Si Si2 0.383420 0.250274 0.321474
Si Si3 0.523391 0.625514 0.481649
Si Si4 0.099980 0.258245 0.257680
Si Si5 0.589658 0.634756 0.993312
Si Si6 0.897245 0.467278 0.984737
Si Si7 0.040188 0.345717 0.652587
Si Si8 0.864358 0.394947 0.237430
O O1 0.699198 0.293278 0.450222
O O2 0.644486 0.129726 0.278938
O O3 0.808766 0.272825 0.262666
O O4 0.873586 0.132026 0.447104
O O5 0.243622 0.286509 0.296095
O O6 0.478887 0.351585 0.368151
O O7 0.418840 0.159883 0.437851
O O8 0.418719 0.185058 0.203439
O O9 0.570146 0.667026 0.358574
O O10 0.578461 0.500787 0.521270
O O11 0.565200 0.728216 0.583242
O O12 0.075080 0.198465 0.120870
O O13 0.009433 0.366696 0.256989
O O14 0.827732 0.447909 0.097900
O O15 0.008745 0.551317 0.050756
O O16 0.837728 0.526265 0.850344
#
# Coordination Sequence:
#
# PCOD9139494 Si02
#       8
#     4   4   4   4   4   4   4   4
#     4  10  25  47  69 103 145 186 234 299 366 437
#     4  11  26  43  68 102 138 187 237 298 366 438
#     4  11  26  45  70 105 139 188 241 295 366 443
#     4  11  25  43  67 100 139 181 238 297 362 437
#     4  11  26  47  68 104 145 186 240 295 370 443
#     4  12  23  43  70 101 136 178 243 292 353 434
#     4  11  24  44  68 100 142 184 235 297 366 434
#     4  11  25  44  68 103 138 184 240 291 357 438
#
# _framework density 23.495719000000001
#
# number of rings (size 3 to 8) (size 9 to 14) (size 15 to 20)
#    0.000    1.000    5.000    0.750    7.000    1.000 
#    0.000    0.000    0.000    0.000    0.000    0.000 
#    0.000    0.000    0.000    0.000    0.000    0.000 
#
# Total GULP energy -89342.672186 kJ/mol
# GULP energy per Si atom -5583.917012 kJ/mol
# Density = 2.344224 g / cm^3
# Si number density = 23.495719 Si / 1000 Ang^3
#
#
#
# Elastic Constant Matrix: (Units=GPa)
#
#
# Indices 1 2 3 4 5 6 
#
# 1 124.0819 8.8393 20.7110 0.0000 9.0918 0.0000
# 2 8.8393 61.2813 20.2850 0.0000 6.1921 0.0000
# 3 20.7110 20.2850 126.6222 0.0000 -18.2047 0.0000
# 4 0.0000 0.0000 0.0000 31.7311 0.0000 -16.1319
# 5 9.0918 6.1921 -18.2047 0.0000 40.5875 0.0000
# 6 0.0000 0.0000 0.0000 -16.1319 0.0000 -1.1884
#
#
#
# Elastic Compliance Matrix: (Units=1/GPa)
#
#
# Indices 1 2 3 4 5 6 
#
# 1 0.008566 -0.000403 -0.001714 0.000000 -0.002626 0.000000
# 2 -0.000403 0.017925 -0.003406 0.000000 -0.004172 0.000000
# 3 -0.001714 -0.003406 0.009464 0.000000 0.005148 0.000000
# 4 0.000000 0.000000 0.000000 0.003989 0.000000 -0.054143
# 5 -0.002626 -0.004172 0.005148 0.000000 0.028172 0.000000
# 6 0.000000 0.000000 0.000000 -0.054143 0.000000 -0.106499
#
#
# Mechanical properties :
#
#
# Convention : Reuss Voigt Hill
#
# Bulk Modulus (GPa) = 40.14446 45.73955 42.94201
# Shear Modulus (GPa) = -262.67936 31.70271 -115.48833
#
# Velocity S-wave (km/s) = -10.58497 3.67726 -7.01852
# Velocity P-wave (km/s) = 11.50068 6.12692 6.88210
#
# Compressibility (1/GPa) = 0.02491004
#
# Stress axis : x y z
#
# Youngs Moduli (GPa) = 116.73434 55.78757 105.66738
#
# Poissons Ratio (x) = 0.02247 0.18114
# Poissons Ratio (y) = 0.04702 0.35986
# Poissons Ratio (z) = 0.20011 0.18999
#
# Static dielectric constant tensor:
#      x y z
#    x 1.950290 0.000000 0.019110 
#    y 0.000000 1.932200 0.000000 
#    z 0.019110 0.000000 1.874430 
# 
# From -- ./inp_files/16272.got.cif
#   From: 2010.05.17/outbox.cif.g08.bks.cpg/sg9_9_cif.got.tgz:16272.got - 2010.06.03 20:04:27.
