data_PCOD9139284
_publ_section_title
;
Structure prediction by ZEFSAII (Michael W. Deem and Ramdas Pophale) SiO2 
 PCOD9139284
Probable space group: C C
;
_chemical_formula_sum "Si O2"
_cell_formula_units_Z 20
_cell_length_a 7.117922
_cell_length_b 13.943467
_cell_length_c 9.754314
_cell_angle_alpha 90.000000
_cell_angle_beta 59.770671
_cell_angle_gamma 90.000000
_cell_volume 836.456032
_symmetry_space_group_name_H-M "C C"
_symmetry_group_IT_number 9
_symmetry_cell_setting 'monoclinic'
loop_
_space_group_symop_operation_xyz
x,y,z
x,-y,1/2+z
1/2+x,1/2+y,z
1/2+x,1/2-y,1/2+z
loop_
_atom_site_type_symbol
_atom_site_label
_atom_site_fract_x
_atom_site_fract_y
_atom_site_fract_z
Si Si1 0.114520 0.135994 0.801770
Si Si2 0.457168 0.631214 0.576844
Si Si3 0.767487 0.421901 0.739571
Si Si4 0.243768 0.573998 0.142631
Si Si5 0.882122 0.200561 0.317799
O O1 0.002141 0.178332 0.706321
O O2 0.316197 0.197803 0.781247
O O3 0.187413 0.028842 0.735731
O O4 0.934254 0.124880 0.985794
O O5 0.686271 0.597388 0.425544
O O6 0.310034 0.536192 0.643046
O O7 0.359221 0.693793 0.489679
O O8 0.620380 0.346839 0.710476
O O9 0.023360 0.416953 0.638608
O O10 0.226520 0.626608 0.294698
#
# Coordination Sequence:
#
# PCOD9139284 Si02
#       5
#     4   4   4   4   4
#     4  11  23  47  79 105 148 199 247 308 372 439
#     4   9  21  46  70 105 146 199 234 304 378 426
#     4   9  23  45  76 100 154 194 239 306 385 427
#     4  11  21  46  75 105 149 197 243 306 375 442
#     4  10  24  48  68 109 151 189 253 298 368 452
#
# _framework density 23.910401
#
# number of rings (size 3 to 8) (size 9 to 14) (size 15 to 20)
#    1.200    0.800    2.000    0.000    0.000    6.400 
#    7.200    0.000    4.400    0.000    0.000    0.000 
#    0.000    0.000    0.000    0.000    0.000    0.000 
#
# Total GULP energy -55866.964735 kJ/mol
# GULP energy per Si atom -5586.696473 kJ/mol
# Density = 2.385598 g / cm^3
# Si number density = 23.910401 Si / 1000 Ang^3
#
#
#
# Elastic Constant Matrix: (Units=GPa)
#
#
# Indices 1 2 3 4 5 6 
#
# 1 170.6218 59.9015 53.0874 0.0000 3.9800 0.0000
# 2 59.9015 113.0279 39.6315 0.0000 -3.9852 0.0000
# 3 53.0874 39.6315 45.5021 0.0000 16.7716 0.0000
# 4 0.0000 0.0000 0.0000 21.8039 0.0000 1.1732
# 5 3.9800 -3.9852 16.7716 0.0000 59.6310 0.0000
# 6 0.0000 0.0000 0.0000 1.1732 0.0000 45.4302
#
#
#
# Elastic Compliance Matrix: (Units=1/GPa)
#
#
# Indices 1 2 3 4 5 6 
#
# 1 0.009690 -0.001108 -0.011240 0.000000 0.002440 0.000000
# 2 -0.001108 0.014008 -0.012584 0.000000 0.004549 0.000000
# 3 -0.011240 -0.012584 0.051414 0.000000 -0.014551 0.000000
# 4 0.000000 0.000000 0.000000 0.045927 0.000000 -0.001186
# 5 0.002440 0.004549 -0.014551 0.000000 0.021004 0.000000
# 6 0.000000 0.000000 0.000000 -0.001186 0.000000 0.022042
#
#
# Mechanical properties :
#
#
# Convention : Reuss Voigt Hill
#
# Bulk Modulus (GPa) = 39.60729 70.48807 55.04768
# Shear Modulus (GPa) = 22.48546 37.14178 29.81362
#
# Velocity S-wave (km/s) = 3.06993 3.94556 3.53496
# Velocity P-wave (km/s) = 5.40063 7.09230 6.30347
#
# Compressibility (1/GPa) = 0.02524788
#
# Stress axis : x y z
#
# Youngs Moduli (GPa) = 103.19604 71.38969 19.44982
#
# Poissons Ratio (x) = 0.07914 0.21861
# Poissons Ratio (y) = 0.11439 0.24476
# Poissons Ratio (z) = 1.15989 0.89837
#
# Static dielectric constant tensor:
#      x y z
#    x 1.897620 0.000000 0.025290 
#    y 0.000000 1.916070 0.000000 
#    z 0.025290 0.000000 1.896660 
# 
# From -- ./inp_files/12969.got.cif
#   From: 2010.05.17/outbox.cif.g08.bks.cpg/sg9_7_cif.got.tgz:12969.got - 2010.06.03 20:04:27.
