data_PCOD9139625
_publ_section_title
;
Structure prediction by ZEFSAII (Michael W. Deem and Ramdas Pophale) SiO2 
 PCOD9139625
Probable space group: C C
;
_chemical_formula_sum "Si O2"
_cell_formula_units_Z 20
_cell_length_a 7.839598
_cell_length_b 6.707637
_cell_length_c 14.875561
_cell_angle_alpha 90.000000
_cell_angle_beta 105.518794
_cell_angle_gamma 90.000000
_cell_volume 753.715910
_symmetry_space_group_name_H-M "C C"
_symmetry_group_IT_number 9
_symmetry_cell_setting 'monoclinic'
loop_
_space_group_symop_operation_xyz
x,y,z
x,-y,1/2+z
1/2+x,1/2+y,z
1/2+x,1/2-y,1/2+z
loop_
_atom_site_type_symbol
_atom_site_label
_atom_site_fract_x
_atom_site_fract_y
_atom_site_fract_z
Si Si1 0.817430 0.889853 0.751500
Si Si2 0.489134 0.049217 0.096965
Si Si3 0.513793 0.267938 0.933032
Si Si4 0.912067 0.791364 0.466438
Si Si5 0.457506 0.166812 0.279211
O O1 0.914316 0.099824 0.751004
O O2 0.682133 0.861587 0.650730
O O3 0.955114 0.745587 0.820134
O O4 0.665930 0.882338 0.807734
O O5 0.388180 0.058452 0.178481
O O6 0.410761 0.173525 0.003268
O O7 0.504615 0.827642 0.060202
O O8 0.709780 0.181224 0.966043
O O9 0.506273 0.504358 0.952512
O O10 0.897939 0.655854 0.373752
#
# Coordination Sequence:
#
# PCOD9139625 Si02
#       5
#     4   4   4   4   4
#     4   9  23  46  74 108 152 197 253 313 377 454
#     4  10  26  48  80 104 162 194 260 312 384 456
#     4  11  27  47  76 111 151 203 256 314 384 455
#     4  11  27  47  76 111 151 203 256 314 384 455
#     4   9  23  46  74 108 152 197 253 313 377 454
#
# _framework density 26.535198000000001
#
# number of rings (size 3 to 8) (size 9 to 14) (size 15 to 20)
#    1.200    0.800    0.000    0.000   16.800    0.000 
#   18.000    0.000    0.000    0.000    0.000    0.000 
#    0.000    0.000    0.000    0.000    0.000    0.000 
#
# Total GULP energy -55752.260999 kJ/mol
# GULP energy per Si atom -5575.226100 kJ/mol
# Density = 2.647480 g / cm^3
# Si number density = 26.535198 Si / 1000 Ang^3
#
#
#
# Elastic Constant Matrix: (Units=GPa)
#
#
# Indices 1 2 3 4 5 6 
#
# 1 75.9283 3.9743 1.6397 0.0000 -0.9903 0.0000
# 2 3.9743 77.7401 31.0120 0.0000 -3.0053 0.0000
# 3 1.6397 31.0120 180.1610 0.0000 -13.3581 0.0000
# 4 0.0000 0.0000 0.0000 58.9288 0.0000 -9.3500
# 5 -0.9903 -3.0053 -13.3581 0.0000 41.0429 0.0000
# 6 0.0000 0.0000 0.0000 -9.3500 0.0000 18.5393
#
#
#
# Elastic Compliance Matrix: (Units=1/GPa)
#
#
# Indices 1 2 3 4 5 6 
#
# 1 0.013209 -0.000671 0.000016 0.000000 0.000275 0.000000
# 2 -0.000671 0.013848 -0.002361 0.000000 0.000230 0.000000
# 3 0.000016 -0.002361 0.006091 0.000000 0.001810 0.000000
# 4 0.000000 0.000000 0.000000 0.018446 0.000000 0.009303
# 5 0.000275 0.000230 0.001810 0.000000 0.024977 0.000000
# 6 0.000000 0.000000 0.000000 0.009303 0.000000 0.058631
#
#
# Mechanical properties :
#
#
# Convention : Reuss Voigt Hill
#
# Bulk Modulus (GPa) = 36.87841 45.23126 41.05483
# Shear Modulus (GPa) = 33.27289 43.51577 38.39433
#
# Velocity S-wave (km/s) = 3.54491 4.05399 3.80797
# Velocity P-wave (km/s) = 5.53925 6.24467 5.90251
#
# Compressibility (1/GPa) = 0.02711614
#
# Stress axis : x y z
#
# Youngs Moduli (GPa) = 75.70781 72.21135 164.17678
#
# Poissons Ratio (x) = 0.04844 -0.00257
# Poissons Ratio (y) = 0.05079 0.38756
# Poissons Ratio (z) = -0.00118 0.17046
#
# Static dielectric constant tensor:
#      x y z
#    x 2.037460 0.000000 0.043900 
#    y 0.000000 2.220560 0.000000 
#    z 0.043900 0.000000 2.075500 
# 
# From -- ./inp_files/22372.got.cif
#   From: 2010.05.17/outbox.cif.g08.bks.cpg/sg9_12_cif.got.tgz:22372.got - 2010.06.03 20:04:27.
