data_PCOD9139720
_publ_section_title
;
Structure prediction by ZEFSAII (Michael W. Deem and Ramdas Pophale) SiO2 
 PCOD9139720
Probable space group: C C
;
_chemical_formula_sum "Si O2"
_cell_formula_units_Z 32
_cell_length_a 15.409008
_cell_length_b 14.464787
_cell_length_c 12.309765
_cell_angle_alpha 90.000000
_cell_angle_beta 29.034203
_cell_angle_gamma 90.000000
_cell_volume 1331.604005
_symmetry_space_group_name_H-M "C C"
_symmetry_group_IT_number 9
_symmetry_cell_setting 'monoclinic'
loop_
_space_group_symop_operation_xyz
x,y,z
x,-y,1/2+z
1/2+x,1/2+y,z
1/2+x,1/2-y,1/2+z
loop_
_atom_site_type_symbol
_atom_site_label
_atom_site_fract_x
_atom_site_fract_y
_atom_site_fract_z
Si Si1 0.978510 0.570982 0.468150
Si Si2 0.130875 0.944973 0.797614
Si Si3 0.362557 0.221106 0.008729
Si Si4 0.541695 0.364003 0.115221
Si Si5 0.415699 0.918000 0.810072
Si Si6 0.318692 0.498233 0.481133
Si Si7 0.614903 0.170842 0.917072
Si Si8 0.549595 0.111729 0.636813
O O1 0.792692 0.513126 0.661108
O O2 0.959887 0.629844 0.376328
O O3 0.018427 0.616246 0.541241
O O4 0.156489 0.513267 0.243380
O O5 0.188010 0.843328 0.690875
O O6 0.031533 0.927318 0.019674
O O7 0.998245 0.980730 0.850687
O O8 0.289658 0.311011 0.152299
O O9 0.465668 0.166634 0.989441
O O10 0.481476 0.205154 0.771622
O O11 0.373766 0.398781 0.368363
O O12 0.729021 0.383976 0.969265
O O13 0.563554 0.260308 0.047160
O O14 0.571563 0.908352 0.549532
O O15 0.415615 0.029299 0.822732
O O16 0.238948 0.574221 0.481343
#
# Coordination Sequence:
#
# PCOD9139720 Si02
#       8
#     4   4   4   4   4   4   4   4
#     4  11  22  39  67  99 144 183 237 300 365 418
#     4  11  20  41  64 102 141 182 237 303 358 422
#     4  11  23  42  67  99 139 194 228 302 362 436
#     4  11  22  39  65 104 144 183 239 297 372 427
#     4  11  21  40  69  99 141 189 235 305 358 424
#     4  11  23  37  67 107 140 189 241 307 360 433
#     4  11  24  40  68 102 141 184 242 291 371 430
#     4  11  23  42  69 100 148 186 245 297 364 428
#
# _framework density 24.031165999999999
#
# number of rings (size 3 to 8) (size 9 to 14) (size 15 to 20)
#    0.000    1.000    7.500    0.750    3.500    2.000 
#    0.000    0.000    5.500    0.000    0.000    0.000 
#    0.000    0.000    0.000    0.000    0.000    0.000 
#
# Total GULP energy -89154.240914 kJ/mol
# GULP energy per Si atom -5572.140057 kJ/mol
# Density = 2.397647 g / cm^3
# Si number density = 24.031166 Si / 1000 Ang^3
#
#
#
# Elastic Constant Matrix: (Units=GPa)
#
#
# Indices 1 2 3 4 5 6 
#
# 1 200.9995 15.0457 51.5643 -0.0016 2.3390 0.0006
# 2 15.0457 45.4516 34.8472 -0.0009 4.4684 0.0006
# 3 51.5643 34.8472 104.0694 -0.0015 7.1610 0.0011
# 4 -0.0016 -0.0009 -0.0015 36.9540 0.0016 6.6629
# 5 2.3390 4.4684 7.1610 0.0016 59.6026 -0.0009
# 6 0.0006 0.0006 0.0011 6.6629 -0.0009 32.6712
#
#
#
# Elastic Compliance Matrix: (Units=1/GPa)
#
#
# Indices 1 2 3 4 5 6 
#
# 1 0.005705 0.000369 -0.002957 0.000000 0.000104 0.000000
# 2 0.000369 0.029688 -0.010052 0.000000 -0.001032 0.000000
# 3 -0.002957 -0.010052 0.014500 0.000000 -0.000872 0.000000
# 4 0.000000 0.000000 0.000000 0.028094 -0.000001 -0.005729
# 5 0.000104 -0.001032 -0.000872 -0.000001 0.016956 0.000001
# 6 0.000000 0.000000 0.000000 -0.005729 0.000001 0.031776
#
#
# Mechanical properties :
#
#
# Convention : Reuss Voigt Hill
#
# Bulk Modulus (GPa) = 40.63229 61.49276 51.06253
# Shear Modulus (GPa) = 31.20995 42.44979 36.82987
#
# Velocity S-wave (km/s) = 3.60770 4.20747 3.91907
# Velocity P-wave (km/s) = 5.85652 7.01770 6.46324
#
# Compressibility (1/GPa) = 0.02461097
#
# Stress axis : x y z
#
# Youngs Moduli (GPa) = 175.28503 33.68365 68.96410
#
# Poissons Ratio (x) = -0.01242 0.20395
# Poissons Ratio (y) = -0.06461 0.69326
# Poissons Ratio (z) = 0.51837 0.33860
#
# Static dielectric constant tensor:
#      x y z
#    x 1.958980 0.000000 -0.005850 
#    y 0.000000 1.983410 0.000000 
#    z -0.005850 0.000000 2.011750 
# 
# From -- ./inp_files/18542.got.cif
#   From: 2010.05.17/outbox.cif.g08.bks.cpg/sg9_10_cif.got.tgz:18542.got - 2010.06.03 20:04:27.
