data_PCOD9139230
_publ_section_title
;
Structure prediction by ZEFSAII (Michael W. Deem and Ramdas Pophale) SiO2 
 PCOD9139230
Probable space group: C C
;
_chemical_formula_sum "Si O2"
_cell_formula_units_Z 24
_cell_length_a 10.464318
_cell_length_b 10.901981
_cell_length_c 9.302627
_cell_angle_alpha 90.000000
_cell_angle_beta 119.971176
_cell_angle_gamma 90.000000
_cell_volume 919.345293
_symmetry_space_group_name_H-M "C C"
_symmetry_group_IT_number 9
_symmetry_cell_setting 'monoclinic'
loop_
_space_group_symop_operation_xyz
x,y,z
x,-y,1/2+z
1/2+x,1/2+y,z
1/2+x,1/2-y,1/2+z
loop_
_atom_site_type_symbol
_atom_site_label
_atom_site_fract_x
_atom_site_fract_y
_atom_site_fract_z
Si Si1 0.693410 0.923278 0.429580
Si Si2 0.194377 0.998777 0.329057
Si Si3 0.005277 0.412370 0.038768
Si Si4 0.617829 0.330079 0.534567
Si Si5 0.667994 0.732258 0.635925
Si Si6 0.332994 0.663559 0.485507
O O1 0.618827 0.905292 0.234266
O O2 0.722996 0.794177 0.522315
O O3 0.574378 0.995600 0.460990
O O4 0.829950 0.018212 0.512646
O O5 0.493003 0.710870 0.532415
O O6 0.230638 0.894887 0.230310
O O7 0.346022 0.037428 0.488576
O O8 0.132973 0.108378 0.198112
O O9 0.996162 0.275941 0.968053
O O10 0.597327 0.431593 0.397125
O O11 0.763470 0.252133 0.567495
O O12 0.717354 0.823807 0.789764
#
# Coordination Sequence:
#
# PCOD9139230 Si02
#       6
#     4   4   4   4   4   4
#     4  11  22  45  77 108 146 207 251 313 384 452
#     4  11  25  46  76 110 152 198 255 318 377 457
#     4  11  24  46  77 109 154 199 260 312 383 453
#     4  10  25  44  74 110 149 198 252 313 382 450
#     4  11  24  47  75 110 153 197 252 319 376 448
#     4  10  24  46  73 109 154 195 256 319 374 454
#
# _framework density 26.105532
#
# number of rings (size 3 to 8) (size 9 to 14) (size 15 to 20)
#    0.000    1.333    1.667    3.000    9.333    0.000 
#    9.000    0.000    0.000    0.000    0.000    0.000 
#    0.000    0.000    0.000    0.000    0.000    0.000 
#
# Total GULP energy -67238.019907 kJ/mol
# GULP energy per Si atom -5603.168326 kJ/mol
# Density = 2.604611 g / cm^3
# Si number density = 26.105532 Si / 1000 Ang^3
#
#
#
# Elastic Constant Matrix: (Units=GPa)
#
#
# Indices 1 2 3 4 5 6 
#
# 1 80.5549 41.6325 33.0058 0.0000 -6.6009 0.0000
# 2 41.6325 122.8549 38.7897 0.0000 2.8870 0.0000
# 3 33.0058 38.7897 108.9759 0.0000 -14.4959 0.0000
# 4 0.0000 0.0000 0.0000 40.0251 0.0000 -19.9862
# 5 -6.6009 2.8870 -14.4959 0.0000 36.6279 0.0000
# 6 0.0000 0.0000 0.0000 -19.9862 0.0000 41.8186
#
#
#
# Elastic Compliance Matrix: (Units=1/GPa)
#
#
# Indices 1 2 3 4 5 6 
#
# 1 0.016182 -0.004589 -0.002989 0.000000 0.002095 0.000000
# 2 -0.004589 0.010631 -0.002761 0.000000 -0.002758 0.000000
# 3 -0.002989 -0.002761 0.011634 0.000000 0.004283 0.000000
# 4 0.000000 0.000000 0.000000 0.032816 0.000000 0.015683
# 5 0.002095 -0.002758 0.004283 0.000000 0.029592 0.000000
# 6 0.000000 0.000000 0.000000 0.015683 0.000000 0.031408
#
#
# Mechanical properties :
#
#
# Convention : Reuss Voigt Hill
#
# Bulk Modulus (GPa) = 56.27719 59.91573 58.09646
# Shear Modulus (GPa) = 31.47328 36.95817 34.21572
#
# Velocity S-wave (km/s) = 3.47597 3.76669 3.62424
# Velocity P-wave (km/s) = 6.14119 6.47445 6.31002
#
# Compressibility (1/GPa) = 0.01776919
#
# Stress axis : x y z
#
# Youngs Moduli (GPa) = 61.79701 94.06059 85.95366
#
# Poissons Ratio (x) = 0.43166 0.25691
# Poissons Ratio (y) = 0.28360 0.23733
# Poissons Ratio (z) = 0.18470 0.25971
#
# Static dielectric constant tensor:
#      x y z
#    x 2.027320 0.000000 -0.029080 
#    y 0.000000 2.080100 0.000000 
#    z -0.029080 0.000000 1.988680 
# 
# From -- ./inp_files/6892.got.cif
#   From: 2010.05.17/outbox.cif.g08.bks.cpg/sg9_4_cif.got.tgz:6892.got - 2010.06.03 20:04:27.
