data_PCOD9139268
_publ_section_title
;
Structure prediction by ZEFSAII (Michael W. Deem and Ramdas Pophale) SiO2 
 PCOD9139268
Probable space group: C C
;
_chemical_formula_sum "Si O2"
_cell_formula_units_Z 28
_cell_length_a 19.695751
_cell_length_b 7.604226
_cell_length_c 15.359436
_cell_angle_alpha 90.000000
_cell_angle_beta 29.772125
_cell_angle_gamma 90.000000
_cell_volume 1142.266196
_symmetry_space_group_name_H-M "C C"
_symmetry_group_IT_number 9
_symmetry_cell_setting 'monoclinic'
loop_
_space_group_symop_operation_xyz
x,y,z
x,-y,1/2+z
1/2+x,1/2+y,z
1/2+x,1/2-y,1/2+z
loop_
_atom_site_type_symbol
_atom_site_label
_atom_site_fract_x
_atom_site_fract_y
_atom_site_fract_z
Si Si1 0.476180 0.175491 0.440920
Si Si2 0.188032 0.760597 0.344508
Si Si3 0.400824 0.656809 0.401313
Si Si4 0.602257 0.872248 0.491376
Si Si5 0.120644 0.958078 0.069876
Si Si6 0.598658 0.208424 0.809577
Si Si7 0.388259 0.955291 0.857231
O O1 0.342324 0.224774 0.642316
O O2 0.597726 0.274680 0.356406
O O3 0.513815 0.971760 0.412887
O O4 0.438257 0.169580 0.380417
O O5 0.164740 0.564715 0.409633
O O6 0.156135 0.905145 0.453224
O O7 0.494318 0.653808 0.383833
O O8 0.240375 0.661196 0.602165
O O9 0.441556 0.846894 0.316298
O O10 0.465235 0.509295 0.267985
O O11 0.651436 0.743114 0.511770
O O12 0.629531 0.756420 0.375469
O O13 0.447115 0.901971 0.697532
O O14 0.226353 0.983179 0.031367
#
# Coordination Sequence:
#
# PCOD9139268 Si02
#       7
#     4   4   4   4   4   4   4
#     4  10  26  48  79 109 158 206 261 318 399 474
#     4  11  25  52  78 111 160 207 255 330 398 473
#     4  11  23  48  78 105 156 209 255 316 402 454
#     4  11  27  46  73 118 152 191 271 321 387 479
#     4  12  26  45  84 112 154 208 257 328 404 460
#     4  10  24  47  73 112 154 204 253 326 383 479
#     4  11  25  50  73 117 160 193 268 329 387 479
#
# _framework density 24.512675000000002
#
# number of rings (size 3 to 8) (size 9 to 14) (size 15 to 20)
#    0.000    1.143    2.857    1.714    8.000    3.429 
#    5.143    0.000    0.000    0.000    0.000    0.000 
#    0.000    0.000    0.000    0.000    0.000    0.000 
#
# Total GULP energy -78146.245588 kJ/mol
# GULP energy per Si atom -5581.874685 kJ/mol
# Density = 2.445688 g / cm^3
# Si number density = 24.512675 Si / 1000 Ang^3
#
#
#
# Elastic Constant Matrix: (Units=GPa)
#
#
# Indices 1 2 3 4 5 6 
#
# 1 72.1160 26.3582 3.8369 0.0000 -3.9457 0.0000
# 2 26.3582 96.7382 23.5041 0.0003 1.9358 -0.0002
# 3 3.8369 23.5041 72.2298 0.0001 -6.4640 -0.0001
# 4 0.0000 0.0003 0.0001 23.2703 0.0000 13.1522
# 5 -3.9457 1.9358 -6.4640 0.0000 36.2075 0.0000
# 6 0.0000 -0.0002 -0.0001 13.1522 0.0000 29.9962
#
#
#
# Elastic Compliance Matrix: (Units=1/GPa)
#
#
# Indices 1 2 3 4 5 6 
#
# 1 0.015576 -0.004485 0.000818 0.000000 0.002083 0.000000
# 2 -0.004485 0.012574 -0.004022 0.000000 -0.001879 0.000000
# 3 0.000818 -0.004022 0.015383 0.000000 0.003050 0.000000
# 4 0.000000 0.000000 0.000000 0.057131 0.000000 -0.025050
# 5 0.002083 -0.001879 0.003050 0.000000 0.028491 0.000000
# 6 0.000000 0.000000 0.000000 -0.025050 0.000000 0.044321
#
#
# Mechanical properties :
#
#
# Convention : Reuss Voigt Hill
#
# Bulk Modulus (GPa) = 35.51483 38.72028 37.11756
# Shear Modulus (GPa) = 25.22239 30.38712 27.80476
#
# Velocity S-wave (km/s) = 3.21121 3.52469 3.37159
# Velocity P-wave (km/s) = 5.31686 5.69165 5.50744
#
# Compressibility (1/GPa) = 0.02815725
#
# Stress axis : x y z
#
# Youngs Moduli (GPa) = 64.20097 79.53064 65.00746
#
# Poissons Ratio (x) = 0.35666 -0.05320
# Poissons Ratio (y) = 0.28791 0.26143
# Poissons Ratio (z) = -0.05254 0.31983
#
# Static dielectric constant tensor:
#      x y z
#    x 2.057750 0.000000 0.030630 
#    y 0.000000 1.962000 0.000000 
#    z 0.030630 0.000000 1.938250 
# 
# From -- ./inp_files/27287.got.cif
#   From: 2010.05.17/outbox.cif.g08.bks.cpg/sg9_14_cif.got.tgz:27287.got - 2010.06.03 20:04:27.
