data_PCOD9139157
_publ_section_title
;
Structure prediction by ZEFSAII (Michael W. Deem and Ramdas Pophale) SiO2 
 PCOD9139157
Probable space group: C C
;
_chemical_formula_sum "Si O2"
_cell_formula_units_Z 28
_cell_length_a 20.320318
_cell_length_b 8.957392
_cell_length_c 11.104374
_cell_angle_alpha 90.000000
_cell_angle_beta 35.001140
_cell_angle_gamma 90.000000
_cell_volume 1159.337284
_symmetry_space_group_name_H-M "C C"
_symmetry_group_IT_number 9
_symmetry_cell_setting 'monoclinic'
loop_
_space_group_symop_operation_xyz
x,y,z
x,-y,1/2+z
1/2+x,1/2+y,z
1/2+x,1/2-y,1/2+z
loop_
_atom_site_type_symbol
_atom_site_label
_atom_site_fract_x
_atom_site_fract_y
_atom_site_fract_z
Si Si1 0.102700 0.797098 0.857620
Si Si2 0.342114 0.745729 0.138331
Si Si3 0.994552 0.979925 0.845350
Si Si4 0.932278 0.541684 0.078069
Si Si5 0.184871 0.163723 0.494982
Si Si6 0.151259 0.622790 0.270664
Si Si7 0.811706 0.161193 0.457628
O O1 0.134263 0.764661 0.948307
O O2 0.229556 0.799789 0.612270
O O3 0.027781 0.939958 0.933311
O O4 0.022744 0.672055 0.914649
O O5 0.377351 0.918296 0.071616
O O6 0.217094 0.709251 0.275970
O O7 0.345403 0.686895 0.270217
O O8 0.426865 0.635633 0.940046
O O9 0.916937 0.862916 0.890139
O O10 0.116748 0.007990 0.601642
O O11 0.820528 0.628029 0.295612
O O12 0.026173 0.432360 0.002037
O O13 0.149672 0.267078 0.659080
O O14 0.229977 0.482698 0.107940
#
# Coordination Sequence:
#
# PCOD9139157 Si02
#       7
#     4   4   4   4   4   4   4
#     4  11  26  47  72 109 142 196 253 306 382 457
#     4  11  24  47  74 105 151 192 250 314 378 453
#     4  11  24  46  71 108 145 194 244 309 382 449
#     4  11  26  46  73 110 146 196 245 311 373 451
#     4  12  26  45  77 106 150 193 250 312 379 451
#     4  10  26  46  71 113 144 198 243 313 374 450
#     4  10  24  45  72 101 146 189 245 307 376 445
#
# _framework density 24.151727999999999
#
# number of rings (size 3 to 8) (size 9 to 14) (size 15 to 20)
#    0.000    1.143    1.429    2.571   14.000    2.286 
#   10.286    0.000    0.000    0.000    0.000    0.000 
#    0.000    0.000    0.000    0.000    0.000    0.000 
#
# Total GULP energy -78023.812048 kJ/mol
# GULP energy per Si atom -5573.129432 kJ/mol
# Density = 2.409676 g / cm^3
# Si number density = 24.151728 Si / 1000 Ang^3
#
#
#
# Elastic Constant Matrix: (Units=GPa)
#
#
# Indices 1 2 3 4 5 6 
#
# 1 138.5270 29.1698 39.5914 0.0000 -18.8197 0.0000
# 2 29.1698 58.2382 -0.6715 0.0000 -10.2737 0.0000
# 3 39.5914 -0.6715 66.6569 0.0000 -24.2581 0.0000
# 4 0.0000 0.0000 0.0000 24.1150 0.0000 -9.3713
# 5 -18.8197 -10.2737 -24.2581 0.0000 35.8095 0.0000
# 6 0.0000 0.0000 0.0000 -9.3713 0.0000 36.6389
#
#
#
# Elastic Compliance Matrix: (Units=1/GPa)
#
#
# Indices 1 2 3 4 5 6 
#
# 1 0.010004 -0.005147 -0.006129 0.000000 -0.000371 0.000000
# 2 -0.005147 0.021121 0.005960 0.000000 0.007392 0.000000
# 3 -0.006129 0.005960 0.024092 0.000000 0.014809 0.000000
# 4 0.000000 0.000000 0.000000 0.046045 0.000000 0.011777
# 5 -0.000371 0.007392 0.014809 0.000000 0.039884 0.000000
# 6 0.000000 0.000000 0.000000 0.011777 0.000000 0.030306
#
#
# Mechanical properties :
#
#
# Convention : Reuss Voigt Hill
#
# Bulk Modulus (GPa) = 22.42840 44.40018 33.41429
# Shear Modulus (GPa) = 25.38795 32.33483 28.86139
#
# Velocity S-wave (km/s) = 3.24572 3.66296 3.46063
# Velocity P-wave (km/s) = 4.83248 6.02606 5.46197
#
# Compressibility (1/GPa) = 0.04458633
#
# Stress axis : x y z
#
# Youngs Moduli (GPa) = 99.96262 47.34530 41.50787
#
# Poissons Ratio (x) = 0.24367 0.25438
# Poissons Ratio (y) = 0.51447 -0.24738
# Poissons Ratio (z) = 0.61263 -0.28217
#
# Static dielectric constant tensor:
#      x y z
#    x 1.962640 0.000000 0.042330 
#    y 0.000000 2.022310 0.000000 
#    z 0.042330 0.000000 1.949750 
# 
# From -- ./inp_files/20087.got.cif
#   From: 2010.05.17/outbox.cif.g08.bks.cpg/sg9_11_cif.got.tgz:20087.got - 2010.06.03 20:04:27.
