data_PCOD9139997
_publ_section_title
;
Structure prediction by ZEFSAII (Michael W. Deem and Ramdas Pophale) SiO2 
 PCOD9139997
Probable space group: C C
;
_chemical_formula_sum "Si O2"
_cell_formula_units_Z 32
_cell_length_a 11.211273
_cell_length_b 13.587016
_cell_length_c 8.485336
_cell_angle_alpha 90.000000
_cell_angle_beta 95.346698
_cell_angle_gamma 90.000000
_cell_volume 1286.928316
_symmetry_space_group_name_H-M "C C"
_symmetry_group_IT_number 9
_symmetry_cell_setting 'monoclinic'
loop_
_space_group_symop_operation_xyz
x,y,z
x,-y,1/2+z
1/2+x,1/2+y,z
1/2+x,1/2-y,1/2+z
loop_
_atom_site_type_symbol
_atom_site_label
_atom_site_fract_x
_atom_site_fract_y
_atom_site_fract_z
Si Si1 0.027610 0.778502 0.532180
Si Si2 0.401851 0.236028 0.816598
Si Si3 0.341481 0.586347 0.856041
Si Si4 0.965134 0.095490 0.543650
Si Si5 0.343661 0.025896 0.941060
Si Si6 0.179490 0.039189 0.180725
Si Si7 0.160783 0.650122 0.309426
Si Si8 0.616835 0.023244 0.992082
O O1 0.120072 0.859867 0.613173
O O2 0.075221 0.732146 0.375346
O O3 0.983937 0.713768 0.675130
O O4 0.907012 0.834462 0.470675
O O5 0.347341 0.137339 0.880732
O O6 0.284922 0.302314 0.770801
O O7 0.476529 0.301560 0.952280
O O8 0.377999 0.605912 0.682313
O O9 0.201438 0.585088 0.882805
O O10 0.408956 0.484547 0.915237
O O11 0.084967 0.046767 0.631326
O O12 0.480297 0.996766 0.934702
O O13 0.226098 0.968254 0.863962
O O14 0.310370 0.026364 0.119743
O O15 0.176553 0.582280 0.466956
O O16 0.120170 0.580912 0.158402
#
# Coordination Sequence:
#
# PCOD9139997 Si02
#       8
#     4   4   4   4   4   4   4   4
#     4  11  25  48  78 109 150 202 263 323 385 460
#     4  12  26  46  72 116 150 193 263 318 379 474
#     4  11  22  44  76 109 144 201 255 320 390 446
#     4  11  23  42  80 109 144 191 260 329 376 450
#     4  12  28  47  70 107 156 203 245 306 399 464
#     4  11  24  49  73 104 149 202 252 314 383 461
#     4  12  27  50  76 113 157 200 257 323 391 472
#     4  12  27  48  75 111 160 206 249 323 401 469
#
# _framework density 24.865407999999999
#
# number of rings (size 3 to 8) (size 9 to 14) (size 15 to 20)
#    0.000    0.500    3.750    5.250    5.250    0.000 
#    0.000    0.000    0.000    0.000    0.000    0.000 
#    0.000    0.000    0.000    0.000    0.000    0.000 
#
# Total GULP energy -89343.335058 kJ/mol
# GULP energy per Si atom -5583.958441 kJ/mol
# Density = 2.480881 g / cm^3
# Si number density = 24.865408 Si / 1000 Ang^3
#
#
#
# Elastic Constant Matrix: (Units=GPa)
#
#
# Indices 1 2 3 4 5 6 
#
# 1 146.5395 6.6954 38.0772 0.0000 -16.2107 0.0000
# 2 6.6954 50.9605 19.9359 0.0000 -2.3826 0.0000
# 3 38.0772 19.9359 101.0521 0.0000 -26.9464 0.0000
# 4 0.0000 0.0000 0.0000 29.6486 0.0000 -4.2176
# 5 -16.2107 -2.3826 -26.9464 0.0000 50.5533 0.0000
# 6 0.0000 0.0000 0.0000 -4.2176 0.0000 21.5771
#
#
#
# Elastic Compliance Matrix: (Units=1/GPa)
#
#
# Indices 1 2 3 4 5 6 
#
# 1 0.007614 0.000066 -0.002600 0.000000 0.001059 0.000000
# 2 0.000066 0.021355 -0.004621 0.000000 -0.001435 0.000000
# 3 -0.002600 -0.004621 0.013413 0.000000 0.006098 0.000000
# 4 0.000000 0.000000 0.000000 0.034693 0.000000 0.006781
# 5 0.001059 -0.001435 0.006098 0.000000 0.023304 0.000000
# 6 0.000000 0.000000 0.000000 0.006781 0.000000 0.047671
#
#
# Mechanical properties :
#
#
# Convention : Reuss Voigt Hill
#
# Bulk Modulus (GPa) = 35.62064 47.55212 41.58638
# Shear Modulus (GPa) = 29.11800 35.94537 32.53169
#
# Velocity S-wave (km/s) = 3.42574 3.80623 3.62098
# Velocity P-wave (km/s) = 5.47759 6.20337 5.85174
#
# Compressibility (1/GPa) = 0.02807361
#
# Stress axis : x y z
#
# Youngs Moduli (GPa) = 131.34223 46.82781 74.55370
#
# Poissons Ratio (x) = -0.00310 0.19381
# Poissons Ratio (y) = -0.00869 0.34448
# Poissons Ratio (z) = 0.34144 0.21637
#
# Static dielectric constant tensor:
#      x y z
#    x 1.987520 0.000000 0.042170 
#    y 0.000000 2.043210 0.000000 
#    z 0.042170 0.000000 1.972870 
# 
# From -- ./inp_files/7609.got.cif
#   From: 2010.05.17/outbox.cif.g08.bks.cpg/sg9_4_cif.got.tgz:7609.got - 2010.06.03 20:04:27.
