data_PCOD9139116
_publ_section_title
;
Structure prediction by ZEFSAII (Michael W. Deem and Ramdas Pophale) SiO2 
 PCOD9139116
Probable space group: C C
;
_chemical_formula_sum "Si O2"
_cell_formula_units_Z 28
_cell_length_a 9.163255
_cell_length_b 20.355422
_cell_length_c 8.664615
_cell_angle_alpha 90.000000
_cell_angle_beta 42.342051
_cell_angle_gamma 90.000000
_cell_volume 1088.559886
_symmetry_space_group_name_H-M "C C"
_symmetry_group_IT_number 9
_symmetry_cell_setting 'monoclinic'
loop_
_space_group_symop_operation_xyz
x,y,z
x,-y,1/2+z
1/2+x,1/2+y,z
1/2+x,1/2-y,1/2+z
loop_
_atom_site_type_symbol
_atom_site_label
_atom_site_fract_x
_atom_site_fract_y
_atom_site_fract_z
Si Si1 0.036670 0.181896 0.300110
Si Si2 0.464046 0.463281 0.447062
Si Si3 0.664298 0.899720 0.914359
Si Si4 0.415603 0.906587 0.566119
Si Si5 0.416082 0.401703 0.152054
Si Si6 0.945847 0.729319 0.603454
Si Si7 0.864137 0.490451 0.323726
O O1 0.023465 0.248778 0.214367
O O2 0.856734 0.139336 0.349343
O O3 0.997416 0.166703 0.512536
O O4 0.272588 0.149679 0.103824
O O5 0.260626 0.426289 0.680818
O O6 0.489528 0.436063 0.255039
O O7 0.438279 0.540946 0.504204
O O8 0.667603 0.450747 0.399692
O O9 0.473417 0.847089 0.049228
O O10 0.580977 0.960827 0.078768
O O11 0.662771 0.889139 0.372207
O O12 0.371991 0.970857 0.494451
O O13 0.351758 0.933537 0.784260
O O14 0.174351 0.755479 0.321753
#
# Coordination Sequence:
#
# PCOD9139116 Si02
#       7
#     4   4   4   4   4   4   4
#     4  11  23  42  67  97 137 185 243 302 359 431
#     4  12  24  40  62 102 150 191 233 295 376 459
#     4  11  23  42  67  97 137 185 243 302 359 431
#     4  12  23  36  62  97 140 186 230 287 369 452
#     4  12  24  40  62 102 150 191 233 295 376 459
#     4  10  24  44  74 106 134 186 260 316 350 422
#     4  12  23  36  62  97 140 186 230 287 369 452
#
# _framework density 25.722059000000002
#
# number of rings (size 3 to 8) (size 9 to 14) (size 15 to 20)
#    0.000    0.571    5.714    3.429    4.000    0.000 
#    0.000    0.000    0.000    6.857    0.000    0.000 
#    0.000    0.000    0.000    0.000    0.000    0.000 
#
# Total GULP energy -78041.159128 kJ/mol
# GULP energy per Si atom -5574.368509 kJ/mol
# Density = 2.566351 g / cm^3
# Si number density = 25.722059 Si / 1000 Ang^3
#
#
#
# Elastic Constant Matrix: (Units=GPa)
#
#
# Indices 1 2 3 4 5 6 
#
# 1 83.7069 -22.2038 9.9340 0.0000 -5.0881 0.0000
# 2 -22.2038 49.9086 24.0723 0.0000 2.9986 0.0000
# 3 9.9340 24.0723 144.0506 0.0000 3.8413 0.0000
# 4 0.0000 0.0000 0.0000 43.1520 0.0000 -4.2545
# 5 -5.0881 2.9986 3.8413 0.0000 43.6831 0.0000
# 6 0.0000 0.0000 0.0000 -4.2545 0.0000 27.9687
#
#
#
# Elastic Compliance Matrix: (Units=1/GPa)
#
#
# Indices 1 2 3 4 5 6 
#
# 1 0.014241 0.007337 -0.002244 0.000000 0.001352 0.000000
# 2 0.007337 0.025634 -0.004777 0.000000 -0.000485 0.000000
# 3 -0.002244 -0.004777 0.007912 0.000000 -0.000629 0.000000
# 4 0.000000 0.000000 0.000000 0.023527 0.000000 0.003579
# 5 0.001352 -0.000485 -0.000629 0.000000 0.023138 0.000000
# 6 0.000000 0.000000 0.000000 0.003579 0.000000 0.036299
#
#
# Mechanical properties :
#
#
# Convention : Reuss Voigt Hill
#
# Bulk Modulus (GPa) = 20.65312 33.47454 27.06383
# Shear Modulus (GPa) = 34.18615 40.68501 37.43558
#
# Velocity S-wave (km/s) = 3.64958 3.98139 3.81909
# Velocity P-wave (km/s) = 5.07996 5.84616 5.47648
#
# Compressibility (1/GPa) = 0.04841882
#
# Stress axis : x y z
#
# Youngs Moduli (GPa) = 70.21895 39.01092 126.39367
#
# Poissons Ratio (x) = -0.28622 0.28366
# Poissons Ratio (y) = -0.51519 0.60375
# Poissons Ratio (z) = 0.15759 0.18634
#
# Static dielectric constant tensor:
#      x y z
#    x 2.079310 0.000000 -0.097070 
#    y 0.000000 1.997990 0.000000 
#    z -0.097070 0.000000 2.232270 
# 
# From -- ./inp_files/6002.got.cif
#   From: 2010.05.17/outbox.cif.g08.bks.cpg/sg9_4_cif.got.tgz:6002.got - 2010.06.03 20:04:27.
