data_PCOD9139196
_publ_section_title
;
Structure prediction by ZEFSAII (Michael W. Deem and Ramdas Pophale) SiO2 
 PCOD9139196
Probable space group: C C
;
_chemical_formula_sum "Si O2"
_cell_formula_units_Z 24
_cell_length_a 9.137755
_cell_length_b 20.737347
_cell_length_c 5.790296
_cell_angle_alpha 90.000000
_cell_angle_beta 75.866334
_cell_angle_gamma 90.000000
_cell_volume 1064.005127
_symmetry_space_group_name_H-M "C C"
_symmetry_group_IT_number 9
_symmetry_cell_setting 'monoclinic'
loop_
_space_group_symop_operation_xyz
x,y,z
x,-y,1/2+z
1/2+x,1/2+y,z
1/2+x,1/2-y,1/2+z
loop_
_atom_site_type_symbol
_atom_site_label
_atom_site_fract_x
_atom_site_fract_y
_atom_site_fract_z
Si Si1 0.018540 0.855152 0.197000
Si Si2 0.629557 0.073963 0.282778
Si Si3 0.241651 0.573157 0.742801
Si Si4 0.975601 0.241087 0.089028
Si Si5 0.847716 0.355925 0.846454
Si Si6 0.791118 0.751341 0.060033
O O1 0.023549 0.825843 0.452181
O O2 0.922126 0.919569 0.195547
O O3 0.905303 0.801608 0.130504
O O4 0.182669 0.859621 0.022566
O O5 0.687694 0.099623 0.511465
O O6 0.448812 0.081145 0.334823
O O7 0.685066 0.000240 0.262119
O O8 0.685130 0.102303 0.012198
O O9 0.117473 0.259037 0.195895
O O10 0.818110 0.235681 0.281524
O O11 0.947529 0.300926 0.933653
O O12 0.831648 0.322739 0.602702
#
# Coordination Sequence:
#
# PCOD9139196 Si02
#       6
#     4   4   4   4   4   4
#     4  11  24  38  63  98 133 178 221 276 337 407
#     4  10  24  46  69  95 127 176 232 281 337 389
#     4  10  24  46  69  95 127 176 232 281 337 389
#     4  11  23  39  60  97 140 173 217 268 342 416
#     4  11  24  38  63  98 133 178 221 276 337 407
#     4  11  23  39  60  97 140 173 217 268 342 416
#
# _framework density 22.556284999999999
#
# number of rings (size 3 to 8) (size 9 to 14) (size 15 to 20)
#    0.000    1.333    3.333    1.000    9.333    0.000 
#    0.000    6.667    0.000    0.000    0.000    0.000 
#    0.000    0.000    0.000    0.000    0.000    0.000 
#
# Total GULP energy -66828.666679 kJ/mol
# GULP energy per Si atom -5569.055557 kJ/mol
# Density = 2.250495 g / cm^3
# Si number density = 22.556285 Si / 1000 Ang^3
#
#
#
# Elastic Constant Matrix: (Units=GPa)
#
#
# Indices 1 2 3 4 5 6 
#
# 1 157.6845 46.2924 43.0230 0.0000 -22.6305 0.0000
# 2 46.2924 82.9636 10.5373 0.0000 -9.8904 0.0000
# 3 43.0230 10.5373 129.1849 0.0000 0.2706 0.0000
# 4 0.0000 0.0000 0.0000 14.0899 0.0000 -3.4409
# 5 -22.6305 -9.8904 0.2706 0.0000 39.8110 0.0000
# 6 0.0000 0.0000 0.0000 -3.4409 0.0000 43.6633
#
#
#
# Elastic Compliance Matrix: (Units=1/GPa)
#
#
# Indices 1 2 3 4 5 6 
#
# 1 0.008843 -0.004123 -0.002617 0.000000 0.004020 0.000000
# 2 -0.004123 0.014479 0.000189 0.000000 0.001252 0.000000
# 3 -0.002617 0.000189 0.008600 0.000000 -0.001499 0.000000
# 4 0.000000 0.000000 0.000000 0.072366 0.000000 0.005703
# 5 0.004020 0.001252 -0.001499 0.000000 0.027725 0.000000
# 6 0.000000 0.000000 0.000000 0.005703 0.000000 0.023352
#
#
# Mechanical properties :
#
#
# Convention : Reuss Voigt Hill
#
# Bulk Modulus (GPa) = 53.13112 63.28205 58.20658
# Shear Modulus (GPa) = 28.61390 37.51153 33.06272
#
# Velocity S-wave (km/s) = 3.56554 4.08244 3.83271
# Velocity P-wave (km/s) = 6.36842 7.09491 6.74146
#
# Compressibility (1/GPa) = 0.01882136
#
# Stress axis : x y z
#
# Youngs Moduli (GPa) = 113.08130 69.06511 116.27683
#
# Poissons Ratio (x) = 0.28473 0.30432
# Poissons Ratio (y) = 0.46619 -0.02202
# Poissons Ratio (z) = 0.29596 -0.01308
#
# Static dielectric constant tensor:
#      x y z
#    x 1.866260 0.000000 0.098830 
#    y 0.000000 1.873190 0.000000 
#    z 0.098830 0.000000 1.957770 
# 
# From -- ./inp_files/670.got.cif
#   From: 2010.05.17/outbox.cif.g08.bks.cpg/sg9_1_cif.got.tgz:670.got - 2010.06.03 20:04:27.
