data_PCOD9139391
_publ_section_title
;
Structure prediction by ZEFSAII (Michael W. Deem and Ramdas Pophale) SiO2 
 PCOD9139391
Probable space group: C C
;
_chemical_formula_sum "Si O2"
_cell_formula_units_Z 20
_cell_length_a 9.510863
_cell_length_b 17.813160
_cell_length_c 5.331245
_cell_angle_alpha 90.000000
_cell_angle_beta 65.962897
_cell_angle_gamma 90.000000
_cell_volume 824.886840
_symmetry_space_group_name_H-M "C C"
_symmetry_group_IT_number 9
_symmetry_cell_setting 'monoclinic'
loop_
_space_group_symop_operation_xyz
x,y,z
x,-y,1/2+z
1/2+x,1/2+y,z
1/2+x,1/2-y,1/2+z
loop_
_atom_site_type_symbol
_atom_site_label
_atom_site_fract_x
_atom_site_fract_y
_atom_site_fract_z
Si Si1 0.299130 0.764961 0.645110
Si Si2 0.006090 0.817536 0.607740
Si Si3 0.973518 0.971791 0.332626
Si Si4 0.092171 0.682465 0.182480
Si Si5 0.124734 0.471792 0.957598
O O1 0.549133 0.749999 0.895105
O O2 0.233864 0.709543 0.908195
O O3 0.440696 0.817671 0.619263
O O4 0.157563 0.817672 0.670963
O O5 0.864396 0.790455 0.882019
O O6 0.981336 0.891597 0.462184
O O7 0.042677 0.025020 0.501925
O O8 0.799126 0.999999 0.395111
O O9 0.116920 0.608403 0.328043
O O10 0.055575 0.525019 0.788298
#
# Coordination Sequence:
#
# PCOD9139391 Si02
#       5
#     4   4   4   4   4
#     4  10  26  44  76 106 154 188 266 300 382 426
#     4  11  25  45  76 110 148 200 252 313 367 456
#     4  10  25  43  73 109 150 194 251 307 377 447
#     4  11  25  45  76 110 148 200 252 313 367 456
#     4  10  25  43  73 109 150 194 251 307 377 447
#
# _framework density 24.245750000000001
#
# number of rings (size 3 to 8) (size 9 to 14) (size 15 to 20)
#    0.000    1.600    0.000    1.200   22.400    0.000 
#    0.000    2.000    0.000    0.000    0.000    0.000 
#    0.000    0.000    0.000    0.000    0.000    0.000 
#
# Total GULP energy -55872.260362 kJ/mol
# GULP energy per Si atom -5587.226036 kJ/mol
# Density = 2.419057 g / cm^3
# Si number density = 24.245750 Si / 1000 Ang^3
#
#
#
# Elastic Constant Matrix: (Units=GPa)
#
#
# Indices 1 2 3 4 5 6 
#
# 1 96.2029 56.7950 41.0613 0.0000 5.4089 0.0000
# 2 56.7950 201.8489 88.4171 0.0000 16.7399 0.0000
# 3 41.0613 88.4171 223.4607 0.0000 -0.3687 0.0000
# 4 0.0000 0.0000 0.0000 64.7962 0.0000 14.2284
# 5 5.4089 16.7399 -0.3687 0.0000 43.1434 0.0000
# 6 0.0000 0.0000 0.0000 14.2284 0.0000 32.8892
#
#
#
# Elastic Compliance Matrix: (Units=1/GPa)
#
#
# Indices 1 2 3 4 5 6 
#
# 1 0.012697 -0.003043 -0.001130 0.000000 -0.000421 0.000000
# 2 -0.003043 0.006969 -0.002202 0.000000 -0.002341 0.000000
# 3 -0.001130 -0.002202 0.005556 0.000000 0.001044 0.000000
# 4 0.000000 0.000000 0.000000 0.017053 0.000000 -0.007377
# 5 -0.000421 -0.002341 0.001044 0.000000 0.024149 0.000000
# 6 0.000000 0.000000 0.000000 -0.007377 0.000000 0.033597
#
#
# Mechanical properties :
#
#
# Convention : Reuss Voigt Hill
#
# Bulk Modulus (GPa) = 80.17858 99.33993 89.75925
# Shear Modulus (GPa) = 42.76159 50.51505 46.63832
#
# Velocity S-wave (km/s) = 4.20417 4.56945 4.39061
# Velocity P-wave (km/s) = 7.53045 8.30065 7.92491
#
# Compressibility (1/GPa) = 0.01247216
#
# Stress axis : x y z
#
# Youngs Moduli (GPa) = 78.75911 143.48829 179.99317
#
# Poissons Ratio (x) = 0.43660 0.20336
# Poissons Ratio (y) = 0.23965 0.39639
# Poissons Ratio (z) = 0.08899 0.31600
#
# Static dielectric constant tensor:
#      x y z
#    x 2.055260 0.000000 -0.038820 
#    y 0.000000 1.927140 0.000000 
#    z -0.038820 0.000000 2.134890 
# 
# From -- ./inp_files/568.got.cif
#   From: 2010.05.17/outbox.cif.g08.bks.cpg/sg9_1_cif.got.tgz:568.got - 2010.06.03 20:04:27.
