data_PCOD9139195
_publ_section_title
;
Structure prediction by ZEFSAII (Michael W. Deem and Ramdas Pophale) SiO2 
 PCOD9139195
Probable space group: C C
;
_chemical_formula_sum "Si O2"
_cell_formula_units_Z 32
_cell_length_a 16.524795
_cell_length_b 11.582417
_cell_length_c 13.360832
_cell_angle_alpha 90.000000
_cell_angle_beta 36.343881
_cell_angle_gamma 90.000000
_cell_volume 1515.488303
_symmetry_space_group_name_H-M "C C"
_symmetry_group_IT_number 9
_symmetry_cell_setting 'monoclinic'
loop_
_space_group_symop_operation_xyz
x,y,z
x,-y,1/2+z
1/2+x,1/2+y,z
1/2+x,1/2-y,1/2+z
loop_
_atom_site_type_symbol
_atom_site_label
_atom_site_fract_x
_atom_site_fract_y
_atom_site_fract_z
Si Si1 0.963380 0.795976 0.090640
Si Si2 0.083238 0.905417 0.788776
Si Si3 0.699658 0.864329 0.292330
Si Si4 0.971058 0.136946 0.810667
Si Si5 0.584294 0.146566 0.707075
Si Si6 0.114807 0.595637 0.443171
Si Si7 0.721664 0.244589 0.160583
Si Si8 0.874429 0.485745 0.033830
O O1 0.805615 0.773119 0.228858
O O2 0.981084 0.836118 0.184478
O O3 0.000878 0.894855 0.974080
O O4 0.053757 0.688353 0.967959
O O5 0.061693 0.783062 0.753289
O O6 0.026479 0.010646 0.781190
O O7 0.238849 0.933303 0.667627
O O8 0.705796 0.877693 0.166401
O O9 0.713130 0.985194 0.333803
O O10 0.076389 0.227197 0.756136
O O11 0.818510 0.155913 0.004757
O O12 0.601330 0.128624 0.572338
O O13 0.471911 0.054204 0.858689
O O14 0.182886 0.696061 0.308503
O O15 0.973818 0.551534 0.528584
O O16 0.807640 0.362874 0.072150
#
# Coordination Sequence:
#
# PCOD9139195 Si02
#       8
#     4   4   4   4   4   4   4   4
#     4  11  24  42  68  99 139 193 234 298 368 443
#     4  10  25  44  68 107 144 182 248 306 361 448
#     4  10  25  43  66 105 141 186 249 298 356 456
#     4  11  24  44  72  98 146 186 239 299 372 433
#     4  10  25  44  73 101 144 195 236 301 378 431
#     4  11  24  44  75 103 144 194 241 304 379 433
#     4  11  23  45  69 110 138 186 246 304 352 456
#     4  10  24  46  69 105 154 186 241 308 362 448
#
# _framework density 21.115307999999999
#
# number of rings (size 3 to 8) (size 9 to 14) (size 15 to 20)
#    0.000    1.500    1.250    1.500   12.250    8.000 
#    2.250    0.000    0.000    0.000    0.000    0.000 
#    0.000    0.000    0.000    0.000    0.000    0.000 
#
# Total GULP energy -89215.495004 kJ/mol
# GULP energy per Si atom -5575.968438 kJ/mol
# Density = 2.106725 g / cm^3
# Si number density = 21.115308 Si / 1000 Ang^3
#
#
#
# Elastic Constant Matrix: (Units=GPa)
#
#
# Indices 1 2 3 4 5 6 
#
# 1 67.8276 60.6537 67.5773 0.0000 29.2908 0.0000
# 2 60.6537 127.2150 59.9307 0.0000 16.1877 0.0000
# 3 67.5773 59.9307 113.8743 0.0000 39.2913 0.0000
# 4 0.0000 0.0000 0.0000 30.6068 0.0000 -0.2684
# 5 29.2908 16.1877 39.2913 0.0000 50.0271 0.0000
# 6 0.0000 0.0000 0.0000 -0.2684 0.0000 30.5906
#
#
#
# Elastic Compliance Matrix: (Units=1/GPa)
#
#
# Indices 1 2 3 4 5 6 
#
# 1 0.050671 -0.013757 -0.019382 0.000000 -0.009994 0.000000
# 2 -0.013757 0.014248 -0.000718 0.000000 0.004008 0.000000
# 3 -0.019382 -0.000718 0.022861 0.000000 -0.006375 0.000000
# 4 0.000000 0.000000 0.000000 0.032675 0.000000 0.000287
# 5 -0.009994 0.004008 -0.006375 0.000000 0.029550 0.000000
# 6 0.000000 0.000000 0.000000 0.000287 0.000000 0.032692
#
#
# Mechanical properties :
#
#
# Convention : Reuss Voigt Hill
#
# Bulk Modulus (GPa) = 49.83215 76.13783 62.98499
# Shear Modulus (GPa) = 19.44784 30.29523 24.87154
#
# Velocity S-wave (km/s) = 3.03814 3.79192 3.43577
# Velocity P-wave (km/s) = 5.99652 7.43693 6.75523
#
# Compressibility (1/GPa) = 0.02006737
#
# Stress axis : x y z
#
# Youngs Moduli (GPa) = 19.73516 70.18710 43.74329
#
# Poissons Ratio (x) = 0.96553 0.84783
# Poissons Ratio (y) = 0.27149 0.03139
# Poissons Ratio (z) = 0.38250 0.05036
#
# Static dielectric constant tensor:
#      x y z
#    x 1.809160 0.000000 -0.068310 
#    y 0.000000 1.792530 0.000000 
#    z -0.068310 0.000000 1.762110 
# 
# From -- ./inp_files/19305.got.cif
#   From: 2010.05.17/outbox.cif.g08.bks.cpg/sg9_10_cif.got.tgz:19305.got - 2010.06.03 20:04:27.
