data_PCOD9139718
_publ_section_title
;
Structure prediction by ZEFSAII (Michael W. Deem and Ramdas Pophale) SiO2 
 PCOD9139718
Probable space group: C C
;
_chemical_formula_sum "Si O2"
_cell_formula_units_Z 32
_cell_length_a 11.876624
_cell_length_b 12.311693
_cell_length_c 10.324470
_cell_angle_alpha 90.000000
_cell_angle_beta 114.691087
_cell_angle_gamma 90.000000
_cell_volume 1371.634689
_symmetry_space_group_name_H-M "C C"
_symmetry_group_IT_number 9
_symmetry_cell_setting 'monoclinic'
loop_
_space_group_symop_operation_xyz
x,y,z
x,-y,1/2+z
1/2+x,1/2+y,z
1/2+x,1/2-y,1/2+z
loop_
_atom_site_type_symbol
_atom_site_label
_atom_site_fract_x
_atom_site_fract_y
_atom_site_fract_z
Si Si1 0.930450 0.205255 0.433710
Si Si2 0.128787 0.063837 0.439735
Si Si3 0.119283 0.431338 0.168785
Si Si4 0.218173 0.784406 0.766997
Si Si5 0.698493 0.314494 0.454488
Si Si6 0.948652 0.580674 0.360046
Si Si7 0.372797 0.127000 0.711970
Si Si8 0.573241 0.162961 0.189399
O O1 0.823461 0.242490 0.483293
O O2 0.878171 0.254098 0.275283
O O3 0.996792 0.089070 0.446768
O O4 0.042368 0.282089 0.539550
O O5 0.130814 0.147249 0.319850
O O6 0.242505 0.100668 0.585720
O O7 0.167547 0.942309 0.416734
O O8 0.214333 0.345130 0.270842
O O9 0.156345 0.555651 0.211949
O O10 0.990859 0.393983 0.177251
O O11 0.078071 0.421352 0.998336
O O12 0.180982 0.806466 0.600355
O O13 0.353086 0.831333 0.864301
O O14 0.610421 0.253682 0.310013
O O15 0.891738 0.460433 0.337717
O O16 0.959394 0.607260 0.212740
#
# Coordination Sequence:
#
# PCOD9139718 Si02
#       8
#     4   4   4   4   4   4   4   4
#     4  12  24  44  67 108 142 188 248 303 370 443
#     4  12  26  43  76 107 144 192 253 310 369 459
#     4  11  22  41  69 100 136 186 244 303 364 443
#     4  12  23  42  69 106 139 187 253 307 372 448
#     4  12  26  46  70 104 151 198 243 306 386 447
#     4  11  20  40  71  98 133 190 244 294 364 444
#     4  11  21  40  68 101 132 179 245 295 359 439
#     4  11  24  42  70  98 141 194 236 298 374 449
#
# _framework density 23.329827999999999
#
# number of rings (size 3 to 8) (size 9 to 14) (size 15 to 20)
#    0.000    0.500    7.500    2.250    1.750    0.000 
#    2.250    0.000    2.750    0.000    0.000    0.000 
#    0.000    0.000    0.000    0.000    0.000    0.000 
#
# Total GULP energy -89145.971000 kJ/mol
# GULP energy per Si atom -5571.623187 kJ/mol
# Density = 2.327673 g / cm^3
# Si number density = 23.329828 Si / 1000 Ang^3
#
#
#
# Elastic Constant Matrix: (Units=GPa)
#
#
# Indices 1 2 3 4 5 6 
#
# 1 44.4508 19.2527 -3.3324 0.0000 -2.0710 0.0000
# 2 19.2527 121.6898 32.4963 0.0000 9.2214 0.0000
# 3 -3.3324 32.4963 81.0086 0.0000 -1.6309 0.0000
# 4 0.0000 0.0000 0.0000 26.4909 0.0000 1.6519
# 5 -2.0710 9.2214 -1.6309 0.0000 26.5936 0.0000
# 6 0.0000 0.0000 0.0000 1.6519 0.0000 24.0891
#
#
#
# Elastic Compliance Matrix: (Units=1/GPa)
#
#
# Indices 1 2 3 4 5 6 
#
# 1 0.025135 -0.005120 0.003167 0.000000 0.003927 0.000000
# 2 -0.005120 0.010568 -0.004537 0.000000 -0.004342 0.000000
# 3 0.003167 -0.004537 0.014349 0.000000 0.002700 0.000000
# 4 0.000000 0.000000 0.000000 0.037911 0.000000 -0.002600
# 5 0.003927 -0.004342 0.002700 0.000000 0.039580 0.000000
# 6 0.000000 0.000000 0.000000 -0.002600 0.000000 0.041691
#
#
# Mechanical properties :
#
#
# Convention : Reuss Voigt Hill
#
# Bulk Modulus (GPa) = 26.97510 38.22027 32.59768
# Shear Modulus (GPa) = 25.69743 28.68355 27.19049
#
# Velocity S-wave (km/s) = 3.32246 3.51020 3.41762
# Velocity P-wave (km/s) = 5.12893 5.73121 5.43842
#
# Compressibility (1/GPa) = 0.03707123
#
# Stress axis : x y z
#
# Youngs Moduli (GPa) = 39.78563 94.62228 69.69032
#
# Poissons Ratio (x) = 0.48445 -0.22070
# Poissons Ratio (y) = 0.20370 0.31622
# Poissons Ratio (z) = -0.12599 0.42935
#
# Static dielectric constant tensor:
#      x y z
#    x 2.029870 0.000000 -0.041030 
#    y 0.000000 1.938870 0.000000 
#    z -0.041030 0.000000 1.885090 
# 
# From -- ./inp_files/16589.got.cif
#   From: 2010.05.17/outbox.cif.g08.bks.cpg/sg9_9_cif.got.tgz:16589.got - 2010.06.03 20:04:27.
