data_PCOD9139080
_publ_section_title
;
Structure prediction by ZEFSAII (Michael W. Deem and Ramdas Pophale) SiO2 
 PCOD9139080
Probable space group: C C
;
_chemical_formula_sum "Si O2"
_cell_formula_units_Z 28
_cell_length_a 7.472300
_cell_length_b 12.207385
_cell_length_c 18.495261
_cell_angle_alpha 90.000000
_cell_angle_beta 133.581941
_cell_angle_gamma 90.000000
_cell_volume 1222.107373
_symmetry_space_group_name_H-M "C C"
_symmetry_group_IT_number 9
_symmetry_cell_setting 'monoclinic'
loop_
_space_group_symop_operation_xyz
x,y,z
x,-y,1/2+z
1/2+x,1/2+y,z
1/2+x,1/2-y,1/2+z
loop_
_atom_site_type_symbol
_atom_site_label
_atom_site_fract_x
_atom_site_fract_y
_atom_site_fract_z
Si Si1 0.866830 0.122849 0.955300
Si Si2 0.885810 0.348985 0.406608
Si Si3 0.268488 0.950968 0.669611
Si Si4 0.219153 0.693812 0.535289
Si Si5 0.043173 0.597577 0.109353
Si Si6 0.748271 0.896087 0.890540
Si Si7 0.455425 0.551233 0.704547
O O1 0.585813 0.127219 0.900848
O O2 0.886095 0.010988 0.914636
O O3 0.035933 0.117502 0.074799
O O4 0.982906 0.230089 0.952210
O O5 0.881720 0.217476 0.411044
O O6 0.618362 0.392767 0.310436
O O7 0.963081 0.405350 0.503378
O O8 0.403831 0.977118 0.630763
O O9 0.485604 0.896534 0.777020
O O10 0.137987 0.036202 0.686642
O O11 0.450779 0.779272 0.603199
O O12 0.227606 0.609528 0.471650
O O13 0.233830 0.627331 0.613475
O O14 0.328483 0.562698 0.192079
#
# Coordination Sequence:
#
# PCOD9139080 Si02
#       7
#     4   4   4   4   4   4   4
#     4  11  22  44  69 100 140 177 227 289 339 400
#     4  11  23  43  72 101 140 185 231 279 352 408
#     4  11  23  43  74  98 140 180 227 290 343 397
#     4  10  24  45  70 104 139 180 236 275 344 414
#     4  10  24  44  69 103 136 184 227 282 345 408
#     4  11  23  45  65 101 140 177 228 287 332 416
#     4  12  23  48  69 101 145 177 232 292 335 413
#
# _framework density 22.911242000000001
#
# number of rings (size 3 to 8) (size 9 to 14) (size 15 to 20)
#    0.000    1.143    4.286    1.714    0.000    5.714 
#    5.143    1.429    0.000    0.000    0.000    0.000 
#    0.000    0.000    0.000    0.000    0.000    0.000 
#
# Total GULP energy -78059.328263 kJ/mol
# GULP energy per Si atom -5575.666305 kJ/mol
# Density = 2.285910 g / cm^3
# Si number density = 22.911242 Si / 1000 Ang^3
#
#
#
# Elastic Constant Matrix: (Units=GPa)
#
#
# Indices 1 2 3 4 5 6 
#
# 1 79.1613 31.0881 6.4402 0.0000 3.8382 0.0000
# 2 31.0881 79.1523 9.9274 0.0000 9.1414 0.0000
# 3 6.4402 9.9274 74.3162 0.0000 16.9194 0.0000
# 4 0.0000 0.0000 0.0000 38.8763 0.0000 8.3846
# 5 3.8382 9.1414 16.9194 0.0000 23.6944 0.0000
# 6 0.0000 0.0000 0.0000 8.3846 0.0000 23.5995
#
#
#
# Elastic Compliance Matrix: (Units=1/GPa)
#
#
# Indices 1 2 3 4 5 6 
#
# 1 0.014957 -0.005830 -0.000571 0.000000 0.000234 0.000000
# 2 -0.005830 0.015528 -0.000502 0.000000 -0.004688 0.000000
# 3 -0.000571 -0.000502 0.016130 0.000000 -0.011232 0.000000
# 4 0.000000 0.000000 0.000000 0.027857 0.000000 -0.009897
# 5 0.000234 -0.004688 -0.011232 0.000000 0.051995 0.000000
# 6 0.000000 0.000000 0.000000 -0.009897 0.000000 0.045890
#
#
# Mechanical properties :
#
#
# Convention : Reuss Voigt Hill
#
# Bulk Modulus (GPa) = 30.47857 36.39347 33.43602
# Shear Modulus (GPa) = 25.36802 29.57898 27.47350
#
# Velocity S-wave (km/s) = 3.33112 3.59698 3.46660
# Velocity P-wave (km/s) = 5.30348 5.75935 5.53611
#
# Compressibility (1/GPa) = 0.03280994
#
# Stress axis : x y z
#
# Youngs Moduli (GPa) = 66.85801 64.39951 61.99797
#
# Poissons Ratio (x) = 0.37545 0.03538
# Poissons Ratio (y) = 0.38978 0.03111
# Poissons Ratio (z) = 0.03815 0.03231
#
# Static dielectric constant tensor:
#      x y z
#    x 1.910800 0.000000 0.002450 
#    y 0.000000 1.871610 0.000000 
#    z 0.002450 0.000000 1.837540 
# 
# From -- ./inp_files/32649.got.cif
#   From: 2010.05.17/outbox.cif.g08.bks.cpg/sg9_17_cif.got.tgz:32649.got - 2010.06.03 20:04:27.
