data_PCOD9139599
_publ_section_title
;
Structure prediction by ZEFSAII (Michael W. Deem and Ramdas Pophale) SiO2 
 PCOD9139599
Probable space group: C C
;
_chemical_formula_sum "Si O2"
_cell_formula_units_Z 28
_cell_length_a 7.817682
_cell_length_b 20.808658
_cell_length_c 9.238323
_cell_angle_alpha 90.000000
_cell_angle_beta 123.589956
_cell_angle_gamma 90.000000
_cell_volume 1251.900248
_symmetry_space_group_name_H-M "C C"
_symmetry_group_IT_number 9
_symmetry_cell_setting 'monoclinic'
loop_
_space_group_symop_operation_xyz
x,y,z
x,-y,1/2+z
1/2+x,1/2+y,z
1/2+x,1/2-y,1/2+z
loop_
_atom_site_type_symbol
_atom_site_label
_atom_site_fract_x
_atom_site_fract_y
_atom_site_fract_z
Si Si1 0.698470 0.562551 0.830030
Si Si2 0.310185 0.197800 0.817027
Si Si3 0.193902 0.211874 0.209925
Si Si4 0.466519 0.986964 0.190961
Si Si5 0.261281 0.719948 0.037844
Si Si6 0.142617 0.691410 0.420686
Si Si7 0.742741 0.944311 0.060956
O O1 0.686829 0.640051 0.830217
O O2 0.817953 0.549381 0.734480
O O3 0.470401 0.533218 0.712133
O O4 0.828207 0.534294 0.025419
O O5 0.284484 0.211966 0.634513
O O6 0.237936 0.268097 0.835523
O O7 0.546417 0.186499 0.971335
O O8 0.235952 0.259851 0.360843
O O9 0.403308 0.172969 0.287765
O O10 0.974197 0.180780 0.146606
O O11 0.164380 0.257210 0.058924
O O12 0.633252 0.018767 0.377306
O O13 0.593310 0.946483 0.130874
O O14 0.263074 0.628043 0.514204
#
# Coordination Sequence:
#
# PCOD9139599 Si02
#       7
#     4   4   4   4   4   4   4
#     4  11  24  46  71  97 135 173 234 282 333 402
#     4  11  22  38  62  96 131 168 210 272 338 396
#     4   9  20  36  55  88 129 168 210 250 328 403
#     4  10  26  46  70  98 128 184 232 276 336 390
#     4   9  20  36  55  88 129 168 210 250 328 403
#     4  11  22  38  62  96 131 168 210 272 338 396
#     4  11  24  46  71  97 135 173 234 282 333 402
#
# _framework density 22.365998000000001
#
# number of rings (size 3 to 8) (size 9 to 14) (size 15 to 20)
#    0.000    1.714    0.000    3.429   10.000    0.000 
#    0.000    5.714    0.000    0.000    0.000    0.000 
#    0.000    0.000    0.000    0.000    0.000    0.000 
#
# Total GULP energy -78088.945893 kJ/mol
# GULP energy per Si atom -5577.781849 kJ/mol
# Density = 2.231509 g / cm^3
# Si number density = 22.365998 Si / 1000 Ang^3
#
#
#
# Elastic Constant Matrix: (Units=GPa)
#
#
# Indices 1 2 3 4 5 6 
#
# 1 72.5551 -1.5860 30.2553 0.0000 23.1487 0.0000
# 2 -1.5860 32.7355 -1.1450 0.0000 -2.2324 0.0000
# 3 30.2553 -1.1450 107.2840 0.0000 16.1941 0.0000
# 4 0.0000 0.0000 0.0000 -22.4370 0.0000 26.5347
# 5 23.1487 -2.2324 16.1941 0.0000 54.5162 0.0000
# 6 0.0000 0.0000 0.0000 26.5347 0.0000 7.1684
#
#
#
# Elastic Compliance Matrix: (Units=1/GPa)
#
#
# Indices 1 2 3 4 5 6 
#
# 1 0.017427 0.000282 -0.003975 0.000000 -0.006208 0.000000
# 2 0.000282 0.030640 0.000080 0.000000 0.001111 0.000000
# 3 -0.003975 0.000080 0.010666 0.000000 -0.001477 0.000000
# 4 0.000000 0.000000 0.000000 -0.008288 0.000000 0.030678
# 5 -0.006208 0.001111 -0.001477 0.000000 0.021463 0.000000
# 6 0.000000 0.000000 0.000000 0.030678 0.000000 0.025941
#
#
# Mechanical properties :
#
#
# Convention : Reuss Voigt Hill
#
# Bulk Modulus (GPa) = 19.41484 29.73590 24.57537
# Shear Modulus (GPa) = 40.90198 20.18621 30.54410
#
# Velocity S-wave (km/s) = 4.28104 3.00749 3.69948
# Velocity P-wave (km/s) = 5.75636 5.03825 5.40924
#
# Compressibility (1/GPa) = 0.05150699
#
# Stress axis : x y z
#
# Youngs Moduli (GPa) = 57.38335 32.63694 93.75796
#
# Poissons Ratio (x) = -0.00920 0.37264
# Poissons Ratio (y) = -0.01618 -0.00748
# Poissons Ratio (z) = 0.22807 -0.00260
#
# Static dielectric constant tensor:
#      x y z
#    x 1.948700 0.000000 0.045750 
#    y 0.000000 1.819500 0.000000 
#    z 0.045750 0.000000 1.842520 
# 
# From -- ./inp_files/5846.got.cif
#   From: 2010.05.17/outbox.cif.g08.bks.cpg/sg9_3_cif.got.tgz:5846.got - 2010.06.03 20:04:27.
