data_PCOD9139610
_publ_section_title
;
Structure prediction by ZEFSAII (Michael W. Deem and Ramdas Pophale) SiO2 
 PCOD9139610
Probable space group: C C
;
_chemical_formula_sum "Si O2"
_cell_formula_units_Z 28
_cell_length_a 15.436152
_cell_length_b 11.183311
_cell_length_c 10.818153
_cell_angle_alpha 90.000000
_cell_angle_beta 40.528411
_cell_angle_gamma 90.000000
_cell_volume 1213.553710
_symmetry_space_group_name_H-M "C C"
_symmetry_group_IT_number 9
_symmetry_cell_setting 'monoclinic'
loop_
_space_group_symop_operation_xyz
x,y,z
x,-y,1/2+z
1/2+x,1/2+y,z
1/2+x,1/2-y,1/2+z
loop_
_atom_site_type_symbol
_atom_site_label
_atom_site_fract_x
_atom_site_fract_y
_atom_site_fract_z
Si Si1 0.843050 0.294371 0.701910
Si Si2 0.689047 0.911714 0.925270
Si Si3 0.142825 0.227409 0.756022
Si Si4 0.955469 0.671674 0.819583
Si Si5 0.735369 0.518415 0.476316
Si Si6 0.590190 0.158030 0.062816
Si Si7 0.977535 0.100199 0.135136
O O1 0.920107 0.282454 0.492023
O O2 0.955809 0.270892 0.680924
O O3 0.791511 0.427888 0.787176
O O4 0.712674 0.217930 0.860357
O O5 0.695829 0.808061 0.813659
O O6 0.836261 0.966493 0.781511
O O7 0.611313 0.860888 0.129946
O O8 0.591173 0.024173 0.007354
O O9 0.221597 0.129146 0.587677
O O10 0.106357 0.327164 0.692488
O O11 0.033814 0.142502 0.941523
O O12 0.933602 0.777159 0.747140
O O13 0.845516 0.571164 0.909182
O O14 0.593661 0.460076 0.591734
#
# Coordination Sequence:
#
# PCOD9139610 Si02
#       7
#     4   4   4   4   4   4   4
#     4  11  27  44  70 102 143 191 247 302 379 441
#     4  11  26  44  73 105 143 191 246 306 367 442
#     4  10  26  47  73 103 154 191 252 299 380 440
#     4  11  24  45  70 100 146 185 243 304 373 442
#     4  11  24  48  71 105 146 197 242 307 381 442
#     4  11  27  45  71 105 142 195 249 305 375 443
#     4  11  26  43  74 108 140 194 247 305 373 438
#
# _framework density 23.072732999999999
#
# number of rings (size 3 to 8) (size 9 to 14) (size 15 to 20)
#    0.000    1.143    1.429    2.571   14.000    1.143 
#    0.000    0.000    0.000    0.000    0.000    0.000 
#    0.000    0.000    0.000    0.000    0.000    0.000 
#
# Total GULP energy -78064.308700 kJ/mol
# GULP energy per Si atom -5576.022050 kJ/mol
# Density = 2.302022 g / cm^3
# Si number density = 23.072733 Si / 1000 Ang^3
#
#
#
# Elastic Constant Matrix: (Units=GPa)
#
#
# Indices 1 2 3 4 5 6 
#
# 1 54.4769 9.0693 66.5589 0.0000 -10.3818 0.0000
# 2 9.0693 62.1210 19.9360 0.0000 -5.6536 0.0000
# 3 66.5589 19.9360 153.5515 0.0000 -1.7262 0.0000
# 4 0.0000 0.0000 0.0000 36.8288 0.0000 5.8391
# 5 -10.3818 -5.6536 -1.7262 0.0000 51.0808 0.0000
# 6 0.0000 0.0000 0.0000 5.8391 0.0000 18.8958
#
#
#
# Elastic Compliance Matrix: (Units=1/GPa)
#
#
# Indices 1 2 3 4 5 6 
#
# 1 0.042012 0.000425 -0.018176 0.000000 0.007972 0.000000
# 2 0.000425 0.016966 -0.002366 0.000000 0.001884 0.000000
# 3 -0.018176 -0.002366 0.014660 0.000000 -0.003461 0.000000
# 4 0.000000 0.000000 0.000000 0.028552 0.000000 -0.008823
# 5 0.007972 0.001884 -0.003461 0.000000 0.021289 0.000000
# 6 0.000000 0.000000 0.000000 -0.008823 0.000000 0.055648
#
#
# Mechanical properties :
#
#
# Convention : Reuss Voigt Hill
#
# Bulk Modulus (GPa) = 29.93659 51.25309 40.59484
# Shear Modulus (GPa) = 21.69238 33.00009 27.34624
#
# Velocity S-wave (km/s) = 3.06955 3.78599 3.44644
# Velocity P-wave (km/s) = 5.05627 6.43222 5.78530
#
# Compressibility (1/GPa) = 0.03340394
#
# Stress axis : x y z
#
# Youngs Moduli (GPa) = 23.80249 58.94037 68.21496
#
# Poissons Ratio (x) = -0.02506 1.23990
# Poissons Ratio (y) = -0.01012 0.16139
# Poissons Ratio (z) = 0.43264 0.13945
#
# Static dielectric constant tensor:
#      x y z
#    x 1.888110 0.000000 -0.038820 
#    y 0.000000 2.127960 0.000000 
#    z -0.038820 0.000000 1.866710 
# 
# From -- ./inp_files/19297.got.cif
#   From: 2010.05.17/outbox.cif.g08.bks.cpg/sg9_10_cif.got.tgz:19297.got - 2010.06.03 20:04:27.
