data_PCOD9139309
_publ_section_title
;
Structure prediction by ZEFSAII (Michael W. Deem and Ramdas Pophale) SiO2 
 PCOD9139309
Probable space group: C C
;
_chemical_formula_sum "Si O2"
_cell_formula_units_Z 28
_cell_length_a 15.313948
_cell_length_b 9.445652
_cell_length_c 22.313687
_cell_angle_alpha 90.000000
_cell_angle_beta 21.161213
_cell_angle_gamma 90.000000
_cell_volume 1165.170918
_symmetry_space_group_name_H-M "C C"
_symmetry_group_IT_number 9
_symmetry_cell_setting 'monoclinic'
loop_
_space_group_symop_operation_xyz
x,y,z
x,-y,1/2+z
1/2+x,1/2+y,z
1/2+x,1/2-y,1/2+z
loop_
_atom_site_type_symbol
_atom_site_label
_atom_site_fract_x
_atom_site_fract_y
_atom_site_fract_z
Si Si1 0.320910 0.833169 0.701160
Si Si2 0.392539 0.987306 0.843232
Si Si3 0.943603 0.787687 0.237300
Si Si4 0.780875 0.238769 0.589821
Si Si5 0.262558 0.851182 0.263286
Si Si6 0.763790 0.789874 0.635727
Si Si7 0.983940 0.910729 0.689507
O O1 0.491716 0.745229 0.636941
O O2 0.332162 0.785152 0.625285
O O3 0.374698 0.994385 0.684726
O O4 0.041178 0.800740 0.896702
O O5 0.343152 0.866341 0.824508
O O6 0.549272 0.897653 0.790366
O O7 0.584159 0.112415 0.706569
O O8 0.154340 0.050455 0.024070
O O9 0.157538 0.802057 0.148763
O O10 0.835871 0.947274 0.302453
O O11 0.658430 0.366675 0.632012
O O12 0.306291 0.792383 0.168844
O O13 0.349076 0.730012 0.253862
O O14 0.987562 0.870009 0.462306
#
# Coordination Sequence:
#
# PCOD9139309 Si02
#       7
#     4   4   4   4   4   4   4
#     4  12  27  47  74 111 146 201 250 317 377 457
#     4  10  24  48  76 102 155 196 250 318 379 449
#     4  10  26  44  72 103 149 192 251 304 375 443
#     4  12  26  49  76 105 151 197 255 310 385 457
#     4  12  27  45  77 111 150 198 257 316 383 462
#     4  10  25  46  74 102 152 196 249 310 381 448
#     4  12  27  47  77 114 147 202 258 315 382 460
#
# _framework density 24.030806999999999
#
# number of rings (size 3 to 8) (size 9 to 14) (size 15 to 20)
#    0.857    0.000    2.857    2.571    8.000    2.286 
#    0.000    0.000    0.000    0.000    0.000    0.000 
#    0.000    0.000    0.000    0.000    0.000    0.000 
#
# Total GULP energy -78036.279523 kJ/mol
# GULP energy per Si atom -5574.019966 kJ/mol
# Density = 2.397611 g / cm^3
# Si number density = 24.030807 Si / 1000 Ang^3
#
#
#
# Elastic Constant Matrix: (Units=GPa)
#
#
# Indices 1 2 3 4 5 6 
#
# 1 253.6258 282.7499 201.4422 -0.0351 59.0811 -0.0462
# 2 282.7499 613.4046 398.1719 -0.0640 66.8755 -0.1016
# 3 201.4422 398.1719 413.7063 -0.0644 67.9605 -0.0705
# 4 -0.0351 -0.0640 -0.0644 31.5380 -0.0004 0.0454
# 5 59.0811 66.8755 67.9605 -0.0004 36.1837 -0.0261
# 6 -0.0462 -0.1016 -0.0705 0.0454 -0.0261 44.5159
#
#
#
# Elastic Compliance Matrix: (Units=1/GPa)
#
#
# Indices 1 2 3 4 5 6 
#
# 1 0.010484 -0.003980 0.000476 0.000004 -0.010657 -0.000004
# 2 -0.003980 0.005857 -0.004322 -0.000001 0.003791 0.000005
# 3 0.000476 -0.004322 0.007463 0.000007 -0.006807 -0.000002
# 4 0.000004 -0.000001 0.000007 0.031708 -0.000017 -0.000032
# 5 -0.010657 0.003791 -0.006807 -0.000017 0.050817 0.000017
# 6 -0.000004 0.000005 -0.000002 -0.000032 0.000017 0.022464
#
#
# Mechanical properties :
#
#
# Convention : Reuss Voigt Hill
#
# Bulk Modulus (GPa) = 122.65426 338.38498 230.51962
# Shear Modulus (GPa) = 33.97653 49.00570 41.49111
#
# Velocity S-wave (km/s) = 3.76423 4.52074 4.15972
# Velocity P-wave (km/s) = 8.36922 12.97568 10.91815
#
# Compressibility (1/GPa) = 0.00815300
#
# Stress axis : x y z
#
# Youngs Moduli (GPa) = 95.38359 170.74227 133.99554
#
# Poissons Ratio (x) = 0.67953 -0.06381
# Poissons Ratio (y) = 0.37961 0.57909
# Poissons Ratio (z) = -0.04542 0.73790
#
# Static dielectric constant tensor:
#      x y z
#    x 1.747280 0.000160 0.135750 
#    y 0.000160 1.968610 -0.000170 
#    z 0.135750 -0.000170 1.732590 
# 
# From -- ./inp_files/35802.got.cif
#   From: 2010.05.17/outbox.cif.g08.bks.cpg/sg9_18_cif.got.tgz:35802.got - 2010.06.03 20:04:27.
