data_PCOD9139265
_publ_section_title
;
Structure prediction by ZEFSAII (Michael W. Deem and Ramdas Pophale) SiO2 
 PCOD9139265
Probable space group: C C
;
_chemical_formula_sum "Si O2"
_cell_formula_units_Z 32
_cell_length_a 6.331512
_cell_length_b 13.773055
_cell_length_c 17.670429
_cell_angle_alpha 90.000000
_cell_angle_beta 54.476936
_cell_angle_gamma 90.000000
_cell_volume 1254.140204
_symmetry_space_group_name_H-M "C C"
_symmetry_group_IT_number 9
_symmetry_cell_setting 'monoclinic'
loop_
_space_group_symop_operation_xyz
x,y,z
x,-y,1/2+z
1/2+x,1/2+y,z
1/2+x,1/2-y,1/2+z
loop_
_atom_site_type_symbol
_atom_site_label
_atom_site_fract_x
_atom_site_fract_y
_atom_site_fract_z
Si Si1 0.191840 0.489662 0.608280
Si Si2 0.991633 0.816905 0.284100
Si Si3 0.902150 0.653464 0.075241
Si Si4 0.536818 0.807100 0.089916
Si Si5 0.721882 0.506596 0.814177
Si Si6 0.278228 0.010359 0.970590
Si Si7 0.509428 0.202763 0.423457
Si Si8 0.601099 0.310146 0.781917
O O1 0.088069 0.577945 0.578516
O O2 0.490157 0.506413 0.563205
O O3 0.139790 0.389134 0.575135
O O4 0.009239 0.497228 0.719428
O O5 0.280811 0.787167 0.193957
O O6 0.039667 0.928302 0.298040
O O7 0.883771 0.765852 0.383022
O O8 0.795559 0.778079 0.260704
O O9 0.800069 0.757889 0.067302
O O10 0.679900 0.639003 0.186475
O O11 0.900288 0.587114 0.001681
O O12 0.473627 0.774198 0.018653
O O13 0.738072 0.549604 0.894210
O O14 0.621975 0.396764 0.838396
O O15 0.431529 0.909782 0.931500
O O16 0.809198 0.221280 0.343909
#
# Coordination Sequence:
#
# PCOD9139265 Si02
#       8
#     4   4   4   4   4   4   4   4
#     4  10  25  47  68 108 146 193 252 313 377 446
#     4  11  25  49  70 108 146 192 252 312 374 454
#     4  11  25  44  71 106 142 197 248 299 383 451
#     4  11  24  47  72 105 149 189 253 310 377 453
#     4  10  24  47  73 104 145 198 251 307 383 452
#     4  12  25  45  76 106 150 200 247 318 377 457
#     4  12  25  47  73 109 149 192 249 315 377 445
#     4  11  25  48  73 104 151 195 248 318 374 448
#
# _framework density 25.515485999999999
#
# number of rings (size 3 to 8) (size 9 to 14) (size 15 to 20)
#    0.000    1.000    3.750    1.500    5.250    2.000 
#    2.250    0.000    0.000    0.000    0.000    0.000 
#    0.000    0.000    0.000    0.000    0.000    0.000 
#
# Total GULP energy -89494.352404 kJ/mol
# GULP energy per Si atom -5593.397025 kJ/mol
# Density = 2.545741 g / cm^3
# Si number density = 25.515486 Si / 1000 Ang^3
#
#
#
# Elastic Constant Matrix: (Units=GPa)
#
#
# Indices 1 2 3 4 5 6 
#
# 1 58.0264 44.5347 24.4203 0.0000 -20.7741 0.0002
# 2 44.5347 101.0742 18.2577 0.0000 -7.0244 0.0000
# 3 24.4203 18.2577 88.1304 0.0000 15.7202 0.0000
# 4 0.0000 0.0000 0.0000 33.6190 0.0000 0.2347
# 5 -20.7741 -7.0244 15.7202 0.0000 43.6569 -0.0001
# 6 0.0002 0.0000 0.0000 0.2347 -0.0001 43.8814
#
#
#
# Elastic Compliance Matrix: (Units=1/GPa)
#
#
# Indices 1 2 3 4 5 6 
#
# 1 0.041328 -0.014467 -0.012340 0.000000 0.021782 0.000000
# 2 -0.014467 0.015623 0.001658 0.000000 -0.004967 0.000000
# 3 -0.012340 0.001658 0.016481 0.000000 -0.011540 0.000000
# 4 0.000000 0.000000 0.000000 0.029746 0.000000 -0.000159
# 5 0.021782 -0.004967 -0.011540 0.000000 0.036627 0.000000
# 6 0.000000 0.000000 0.000000 -0.000159 0.000000 0.022790
#
#
# Mechanical properties :
#
#
# Convention : Reuss Voigt Hill
#
# Bulk Modulus (GPa) = 43.22477 46.85072 45.03775
# Shear Modulus (GPa) = 22.66506 34.89935 28.78220
#
# Velocity S-wave (km/s) = 2.98365 3.70235 3.36226
# Velocity P-wave (km/s) = 5.37093 6.05624 5.72385
#
# Compressibility (1/GPa) = 0.02313488
#
# Stress axis : x y z
#
# Youngs Moduli (GPa) = 24.19666 64.00697 60.67582
#
# Poissons Ratio (x) = 0.92598 0.74874
# Poissons Ratio (y) = 0.35005 -0.10061
# Poissons Ratio (z) = 0.29859 -0.10613
#
# Static dielectric constant tensor:
#      x y z
#    x 2.058900 0.000000 0.020160 
#    y 0.000000 2.020420 0.000000 
#    z 0.020160 0.000000 1.980600 
# 
# From -- ./inp_files/28682.got.cif
#   From: 2010.05.17/outbox.cif.g08.bks.cpg/sg9_15_cif.got.tgz:28682.got - 2010.06.03 20:04:27.
