data_PCOD9139349
_publ_section_title
;
Structure prediction by ZEFSAII (Michael W. Deem and Ramdas Pophale) SiO2 
 PCOD9139349
Probable space group: C C
;
_chemical_formula_sum "Si O2"
_cell_formula_units_Z 32
_cell_length_a 14.123095
_cell_length_b 19.902501
_cell_length_c 8.945486
_cell_angle_alpha 90.000000
_cell_angle_beta 145.429594
_cell_angle_gamma 90.000000
_cell_volume 1426.740447
_symmetry_space_group_name_H-M "C C"
_symmetry_group_IT_number 9
_symmetry_cell_setting 'monoclinic'
loop_
_space_group_symop_operation_xyz
x,y,z
x,-y,1/2+z
1/2+x,1/2+y,z
1/2+x,1/2-y,1/2+z
loop_
_atom_site_type_symbol
_atom_site_label
_atom_site_fract_x
_atom_site_fract_y
_atom_site_fract_z
Si Si1 0.481600 0.763158 0.743600
Si Si2 0.788878 0.677660 0.256786
Si Si3 0.683994 0.188264 0.234000
Si Si4 0.094100 0.524561 0.379544
Si Si5 0.646313 0.378916 0.822575
Si Si6 0.274317 0.414627 0.392735
Si Si7 0.119174 0.277867 0.326084
Si Si8 0.952506 0.576561 0.909894
O O1 0.395707 0.817485 0.741324
O O2 0.538005 0.791227 0.657824
O O3 0.352768 0.702844 0.541025
O O4 0.644813 0.731186 0.029947
O O5 0.713810 0.611002 0.238510
O O6 0.927555 0.699607 0.558414
O O7 0.680408 0.227811 0.075586
O O8 0.628527 0.115149 0.109418
O O9 0.197333 0.470960 0.407754
O O10 0.208783 0.569832 0.638297
O O11 0.973018 0.488873 0.338219
O O12 0.970748 0.562247 0.106665
O O13 0.475157 0.415231 0.643321
O O14 0.613008 0.299287 0.769275
O O15 0.787898 0.389867 0.130953
O O16 0.218520 0.339619 0.375598
#
# Coordination Sequence:
#
# PCOD9139349 Si02
#       8
#     4   4   4   4   4   4   4   4
#     4  10  25  38  62  99 148 186 223 279 352 445
#     4  11  22  40  61  97 144 189 223 271 354 438
#     4  11  23  42  63  98 137 183 229 281 354 418
#     4  10  25  50  73  95 135 198 251 294 348 415
#     4  12  25  40  73 111 142 183 231 299 375 434
#     4  11  26  46  77 103 142 194 241 301 351 432
#     4  12  24  43  70 107 149 182 228 290 377 438
#     4  11  24  45  71  98 133 185 242 297 353 416
#
# _framework density 22.428747000000001
#
# number of rings (size 3 to 8) (size 9 to 14) (size 15 to 20)
#    0.000    1.000    3.750    1.500    5.250    1.000 
#    0.000    0.000    0.000    0.000    0.000    0.000 
#    0.000    0.000    0.000    0.000    0.000    0.000 
#
# Total GULP energy -89158.735832 kJ/mol
# GULP energy per Si atom -5572.420990 kJ/mol
# Density = 2.237770 g / cm^3
# Si number density = 22.428747 Si / 1000 Ang^3
#
#
#
# Elastic Constant Matrix: (Units=GPa)
#
#
# Indices 1 2 3 4 5 6 
#
# 1 106.3276 24.5236 61.2229 0.0000 -13.4526 0.0000
# 2 24.5236 44.9341 34.0029 0.0000 -2.3653 0.0000
# 3 61.2229 34.0029 134.1900 0.0000 -6.8512 0.0000
# 4 0.0000 0.0000 0.0000 27.6002 0.0000 -10.3716
# 5 -13.4526 -2.3653 -6.8512 0.0000 42.9755 0.0000
# 6 0.0000 0.0000 0.0000 -10.3716 0.0000 30.3690
#
#
#
# Elastic Compliance Matrix: (Units=1/GPa)
#
#
# Indices 1 2 3 4 5 6 
#
# 1 0.013563 -0.003309 -0.005184 0.000000 0.003237 0.000000
# 2 -0.003309 0.028349 -0.005693 0.000000 -0.000383 0.000000
# 3 -0.005184 -0.005693 0.011253 0.000000 -0.000142 0.000000
# 4 0.000000 0.000000 0.000000 0.041566 0.000000 0.014196
# 5 0.003237 -0.000383 -0.000142 0.000000 0.024239 0.000000
# 6 0.000000 0.000000 0.000000 0.014196 0.000000 0.037776
#
#
# Mechanical properties :
#
#
# Convention : Reuss Voigt Hill
#
# Bulk Modulus (GPa) = 40.33613 58.32785 49.33199
# Shear Modulus (GPa) = 25.85562 31.23574 28.54568
#
# Velocity S-wave (km/s) = 3.39896 3.73589 3.57140
# Velocity P-wave (km/s) = 5.78161 6.68367 6.24894
#
# Compressibility (1/GPa) = 0.02479167
#
# Stress axis : x y z
#
# Youngs Moduli (GPa) = 73.73248 35.27487 88.86720
#
# Poissons Ratio (x) = 0.11671 0.46070
# Poissons Ratio (y) = 0.24395 0.50596
# Poissons Ratio (z) = 0.38224 0.20084
#
# Static dielectric constant tensor:
#      x y z
#    x 2.078240 0.000000 -0.018750 
#    y 0.000000 1.937450 0.000000 
#    z -0.018750 0.000000 1.805870 
# 
# From -- ./inp_files/10113.got.cif
#   From: 2010.05.17/outbox.cif.g08.bks.cpg/sg9_6_cif.got.tgz:10113.got - 2010.06.03 20:04:27.
