data_PCOD9139433
_publ_section_title
;
Structure prediction by ZEFSAII (Michael W. Deem and Ramdas Pophale) SiO2 
 PCOD9139433
Probable space group: C C
;
_chemical_formula_sum "Si O2"
_cell_formula_units_Z 24
_cell_length_a 9.614383
_cell_length_b 8.152481
_cell_length_c 13.841013
_cell_angle_alpha 90.000000
_cell_angle_beta 119.836527
_cell_angle_gamma 90.000000
_cell_volume 941.071812
_symmetry_space_group_name_H-M "C C"
_symmetry_group_IT_number 9
_symmetry_cell_setting 'monoclinic'
loop_
_space_group_symop_operation_xyz
x,y,z
x,-y,1/2+z
1/2+x,1/2+y,z
1/2+x,1/2-y,1/2+z
loop_
_atom_site_type_symbol
_atom_site_label
_atom_site_fract_x
_atom_site_fract_y
_atom_site_fract_z
Si Si1 0.987590 0.163166 0.140570
Si Si2 0.869249 0.325839 0.780289
Si Si3 0.378764 0.145702 0.880335
Si Si4 0.897838 0.536947 0.078547
Si Si5 0.423348 0.509007 0.911716
Si Si6 0.232108 0.628588 0.205948
O O1 0.906447 0.343487 0.097611
O O2 0.882244 0.088356 0.190381
O O3 0.175310 0.180135 0.231017
O O4 0.961458 0.062953 0.032740
O O5 0.948595 0.478427 0.863813
O O6 0.878384 0.361017 0.669254
O O7 0.951541 0.165694 0.853511
O O8 0.479504 0.317751 0.917182
O O9 0.248436 0.188496 0.751115
O O10 0.296175 0.101685 0.953643
O O11 0.072630 0.584812 0.097928
O O12 0.241696 0.470228 0.810938
#
# Coordination Sequence:
#
# PCOD9139433 Si02
#       6
#     4   4   4   4   4   4
#     4  12  25  47  71 103 138 182 231 284 342 411
#     4  12  26  46  72 100 142 182 228 284 346 404
#     4  10  25  45  69 105 135 183 230 282 341 413
#     4  12  25  47  71 103 138 182 231 284 342 411
#     4  10  25  45  69 105 135 183 230 282 341 413
#     4  10  26  46  64 102 142 168 230 288 324 410
#
# _framework density 25.502835999999999
#
# number of rings (size 3 to 8) (size 9 to 14) (size 15 to 20)
#    1.000    0.000    5.000    0.000    4.667    5.333 
#    0.000    0.000    0.000    0.000    0.000    0.000 
#    0.000    0.000    0.000    0.000    0.000    0.000 
#
# Total GULP energy -66845.453166 kJ/mol
# GULP energy per Si atom -5570.454430 kJ/mol
# Density = 2.544479 g / cm^3
# Si number density = 25.502836 Si / 1000 Ang^3
#
#
#
# Elastic Constant Matrix: (Units=GPa)
#
#
# Indices 1 2 3 4 5 6 
#
# 1 119.4203 14.1865 42.0196 0.0000 4.2866 0.0000
# 2 14.1865 195.8688 59.4049 0.0000 -16.7016 0.0000
# 3 42.0196 59.4049 137.8524 0.0000 -32.8271 0.0000
# 4 0.0000 0.0000 0.0000 52.8269 0.0000 -8.6173
# 5 4.2866 -16.7016 -32.8271 0.0000 34.2052 0.0000
# 6 0.0000 0.0000 0.0000 -8.6173 0.0000 8.2193
#
#
#
# Elastic Compliance Matrix: (Units=1/GPa)
#
#
# Indices 1 2 3 4 5 6 
#
# 1 0.010118 0.000151 -0.004451 0.000000 -0.005466 0.000000
# 2 0.000151 0.005884 -0.002465 0.000000 0.000488 0.000000
# 3 -0.004451 -0.002465 0.012339 0.000000 0.011196 0.000000
# 4 0.000000 0.000000 0.000000 0.022835 0.000000 0.023941
# 5 -0.005466 0.000488 0.011196 0.000000 0.040904 0.000000
# 6 0.000000 0.000000 0.000000 0.023941 0.000000 0.146764
#
#
# Mechanical properties :
#
#
# Convention : Reuss Voigt Hill
#
# Bulk Modulus (GPa) = 67.51725 76.04037 71.77881
# Shear Modulus (GPa) = 19.43169 41.55232 30.49200
#
# Velocity S-wave (km/s) = 2.76332 4.04086 3.46154
# Velocity P-wave (km/s) = 6.05914 7.18698 6.64702
#
# Compressibility (1/GPa) = 0.01481103
#
# Stress axis : x y z
#
# Youngs Moduli (GPa) = 98.83261 169.95685 81.04127
#
# Poissons Ratio (x) = -0.02566 0.36070
# Poissons Ratio (y) = -0.01492 0.19979
# Poissons Ratio (z) = 0.43988 0.41900
#
# Static dielectric constant tensor:
#      x y z
#    x 2.029250 0.000000 -0.008780 
#    y 0.000000 2.048480 0.000000 
#    z -0.008780 0.000000 2.071790 
# 
# From -- ./inp_files/23988.got.cif
#   From: 2010.05.17/outbox.cif.g08.bks.cpg/sg9_12_cif.got.tgz:23988.got - 2010.06.03 20:04:27.
