data_PCOD9139380
_publ_section_title
;
Structure prediction by ZEFSAII (Michael W. Deem and Ramdas Pophale) SiO2 
 PCOD9139380
Probable space group: C C
;
_chemical_formula_sum "Si O2"
_cell_formula_units_Z 20
_cell_length_a 4.651521
_cell_length_b 12.933395
_cell_length_c 12.890579
_cell_angle_alpha 90.000000
_cell_angle_beta 99.892545
_cell_angle_gamma 90.000000
_cell_volume 763.966370
_symmetry_space_group_name_H-M "C C"
_symmetry_group_IT_number 9
_symmetry_cell_setting 'monoclinic'
loop_
_space_group_symop_operation_xyz
x,y,z
x,-y,1/2+z
1/2+x,1/2+y,z
1/2+x,1/2-y,1/2+z
loop_
_atom_site_type_symbol
_atom_site_label
_atom_site_fract_x
_atom_site_fract_y
_atom_site_fract_z
Si Si1 0.682220 0.469063 0.386880
Si Si2 0.923056 0.597189 0.688985
Si Si3 0.438595 0.276534 0.122494
Si Si4 0.206039 0.606855 0.006105
Si Si5 0.811205 0.105819 0.228260
O O1 0.813006 0.400915 0.301436
O O2 0.419817 0.405938 0.423038
O O3 0.543443 0.572666 0.328094
O O4 0.965171 0.483809 0.476766
O O5 0.622367 0.619562 0.610971
O O6 0.142691 0.682617 0.655271
O O7 0.088790 0.489438 0.703367
O O8 0.495901 0.204057 0.024817
O O9 0.614161 0.207748 0.219519
O O10 0.429335 0.607082 0.117565
#
# Coordination Sequence:
#
# PCOD9139380 Si02
#       5
#     4   4   4   4   4
#     4  12  22  44  73 108 142 190 239 300 355 421
#     4  12  22  44  73  99 137 193 235 295 358 420
#     4  10  25  42  72  98 140 190 237 288 365 416
#     4  10  25  42  72 104 147 186 238 298 359 419
#     4  10  26  44  76  97 150 189 235 301 353 426
#
# _framework density 26.17916
#
# number of rings (size 3 to 8) (size 9 to 14) (size 15 to 20)
#    1.200    0.000    4.000    1.200    5.600    0.000 
#    0.000    8.000    4.400    0.000    0.000    0.000 
#    0.000    0.000    0.000    0.000    0.000    0.000 
#
# Total GULP energy -55682.890414 kJ/mol
# GULP energy per Si atom -5568.289041 kJ/mol
# Density = 2.611957 g / cm^3
# Si number density = 26.179160 Si / 1000 Ang^3
#
#
#
# Elastic Constant Matrix: (Units=GPa)
#
#
# Indices 1 2 3 4 5 6 
#
# 1 147.7795 17.7937 5.0786 0.0000 -37.9160 0.0000
# 2 17.7937 99.6472 -10.5543 0.0000 -13.3018 0.0000
# 3 5.0786 -10.5543 35.6497 0.0000 -20.3992 0.0000
# 4 0.0000 0.0000 0.0000 30.3469 0.0000 5.7203
# 5 -37.9160 -13.3018 -20.3992 0.0000 70.1729 0.0000
# 6 0.0000 0.0000 0.0000 5.7203 0.0000 41.4712
#
#
#
# Elastic Compliance Matrix: (Units=1/GPa)
#
#
# Indices 1 2 3 4 5 6 
#
# 1 0.007972 -0.000683 0.001263 0.000000 0.004545 0.000000
# 2 -0.000683 0.011154 0.005276 0.000000 0.003279 0.000000
# 3 0.001263 0.005276 0.036460 0.000000 0.012281 0.000000
# 4 0.000000 0.000000 0.000000 0.033832 0.000000 -0.004667
# 5 0.004545 0.003279 0.012281 0.000000 0.020898 0.000000
# 6 0.000000 0.000000 0.000000 -0.004667 0.000000 0.024757
#
#
# Mechanical properties :
#
#
# Convention : Reuss Voigt Hill
#
# Bulk Modulus (GPa) = 14.85952 34.19024 24.52488
# Shear Modulus (GPa) = 34.29498 46.44876 40.37187
#
# Velocity S-wave (km/s) = 3.62333 4.21677 3.93127
# Velocity P-wave (km/s) = 4.81593 6.06603 5.47676
#
# Compressibility (1/GPa) = 0.06729691
#
# Stress axis : x y z
#
# Youngs Moduli (GPa) = 125.44224 89.65507 27.42710
#
# Poissons Ratio (x) = 0.06124 -0.03464
# Poissons Ratio (y) = 0.08568 -0.14470
# Poissons Ratio (z) = -0.15841 -0.47299
#
# Static dielectric constant tensor:
#      x y z
#    x 2.043230 0.000000 0.028130 
#    y 0.000000 2.134710 0.000000 
#    z 0.028130 0.000000 2.251140 
# 
# From -- ./inp_files/21622.got.cif
#   From: 2010.05.17/outbox.cif.g08.bks.cpg/sg9_11_cif.got.tgz:21622.got - 2010.06.03 20:04:27.
