data_PCOD9139107
_publ_section_title
;
Structure prediction by ZEFSAII (Michael W. Deem and Ramdas Pophale) SiO2 
 PCOD9139107
Probable space group: C C
;
_chemical_formula_sum "Si O2"
_cell_formula_units_Z 16
_cell_length_a 5.503056
_cell_length_b 8.939990
_cell_length_c 13.257769
_cell_angle_alpha 90.000000
_cell_angle_beta 126.460534
_cell_angle_gamma 90.000000
_cell_volume 524.579523
_symmetry_space_group_name_H-M "C C"
_symmetry_group_IT_number 9
_symmetry_cell_setting 'monoclinic'
loop_
_space_group_symop_operation_xyz
x,y,z
x,-y,1/2+z
1/2+x,1/2+y,z
1/2+x,1/2-y,1/2+z
loop_
_atom_site_type_symbol
_atom_site_label
_atom_site_fract_x
_atom_site_fract_y
_atom_site_fract_z
Si Si1 0.714550 0.421562 0.714070
Si Si2 0.656046 0.901623 0.004082
Si Si3 0.041448 0.839430 0.922681
Si Si4 0.657624 0.877259 0.274805
O O1 0.376384 0.482126 0.615217
O O2 0.794824 0.247080 0.735571
O O3 0.914006 0.471572 0.862539
O O4 0.903767 0.507300 0.675782
O O5 0.402640 0.819102 0.007433
O O6 0.875040 0.801308 0.986713
O O7 0.981811 0.741438 0.806626
O O8 0.918669 0.009795 0.876942
#
# Coordination Sequence:
#
# PCOD9139107 Si02
#       4
#     4   4   4   4
#     4  10  24  44  72 104 144 188 240 296 360 428
#     4  10  24  46  72 106 144 190 240 298 360 430
#     4  10  24  46  74 106 146 190 242 298 362 430
#     4  10  24  46  74 108 146 190 242 300 362 430
#
# _framework density 30.500619
#
# number of rings (size 3 to 8) (size 9 to 14) (size 15 to 20)
#    0.000    2.000    0.000    0.000    0.000   34.000 
#    0.000   20.000    0.000    0.000    0.000    0.000 
#    0.000    0.000    0.000    0.000    0.000    0.000 
#
# Total GULP energy -44555.704898 kJ/mol
# GULP energy per Si atom -5569.463112 kJ/mol
# Density = 3.043120 g / cm^3
# Si number density = 30.500619 Si / 1000 Ang^3
#
#
#
# Elastic Constant Matrix: (Units=GPa)
#
#
# Indices 1 2 3 4 5 6 
#
# 1 222.7052 39.2009 3.8584 0.0000 30.0319 0.0000
# 2 39.2009 195.9899 13.7231 0.0000 19.1662 0.0000
# 3 3.8584 13.7231 165.1833 0.0000 38.2907 0.0000
# 4 0.0000 0.0000 0.0000 46.0302 0.0000 -0.3168
# 5 30.0319 19.1662 38.2907 0.0000 58.4018 0.0000
# 6 0.0000 0.0000 0.0000 -0.3168 0.0000 45.2101
#
#
#
# Elastic Compliance Matrix: (Units=1/GPa)
#
#
# Indices 1 2 3 4 5 6 
#
# 1 0.004978 -0.000773 0.000569 0.000000 -0.002679 0.000000
# 2 -0.000773 0.005392 -0.000132 0.000000 -0.001285 0.000000
# 3 0.000569 -0.000132 0.007204 0.000000 -0.004973 0.000000
# 4 0.000000 0.000000 0.000000 0.021726 0.000000 0.000152
# 5 -0.002679 -0.001285 -0.004973 0.000000 0.022182 0.000000
# 6 0.000000 0.000000 0.000000 0.000152 0.000000 0.022120
#
#
# Mechanical properties :
#
#
# Convention : Reuss Voigt Hill
#
# Bulk Modulus (GPa) = 59.16788 77.49370 68.33079
# Shear Modulus (GPa) = 55.61176 65.06814 60.33995
#
# Velocity S-wave (km/s) = 4.27464 4.62382 4.45266
# Velocity P-wave (km/s) = 6.61849 7.34634 6.99189
#
# Compressibility (1/GPa) = 0.01690106
#
# Stress axis : x y z
#
# Youngs Moduli (GPa) = 200.89236 185.46205 138.80669
#
# Poissons Ratio (x) = 0.14345 -0.07898
# Poissons Ratio (y) = 0.15539 0.01832
# Poissons Ratio (z) = -0.11430 0.02447
#
# Static dielectric constant tensor:
#      x y z
#    x 2.810540 0.000000 -0.301440 
#    y 0.000000 2.546210 0.000000 
#    z -0.301440 0.000000 2.723510 
# 
# From -- ./inp_files/28408.got.cif
#   From: 2010.05.17/outbox.cif.g08.bks.cpg/sg9_15_cif.got.tgz:28408.got - 2010.06.03 20:04:27.
