data_PCOD9139661
_publ_section_title
;
Structure prediction by ZEFSAII (Michael W. Deem and Ramdas Pophale) SiO2 
 PCOD9139661
Probable space group: C C
;
_chemical_formula_sum "Si O2"
_cell_formula_units_Z 28
_cell_length_a 17.855325
_cell_length_b 5.314775
_cell_length_c 18.131016
_cell_angle_alpha 90.000000
_cell_angle_beta 45.950522
_cell_angle_gamma 90.000000
_cell_volume 1236.648834
_symmetry_space_group_name_H-M "C C"
_symmetry_group_IT_number 9
_symmetry_cell_setting 'monoclinic'
loop_
_space_group_symop_operation_xyz
x,y,z
x,-y,1/2+z
1/2+x,1/2+y,z
1/2+x,1/2-y,1/2+z
loop_
_atom_site_type_symbol
_atom_site_label
_atom_site_fract_x
_atom_site_fract_y
_atom_site_fract_z
Si Si1 0.635120 0.554166 0.910360
Si Si2 0.323584 0.291150 0.307975
Si Si3 0.709178 0.118180 0.496275
Si Si4 0.181471 0.652326 0.230827
Si Si5 0.493819 0.928342 0.173577
Si Si6 0.132250 0.157802 0.182021
Si Si7 0.911349 0.093394 0.109297
O O1 0.715382 0.324239 0.851466
O O2 0.658780 0.752663 0.829276
O O3 0.512716 0.493660 0.997586
O O4 0.666250 0.685011 0.965923
O O5 0.297220 0.465847 0.395017
O O6 0.377618 0.422324 0.201408
O O7 0.404273 0.076826 0.275687
O O8 0.606765 0.942867 0.583109
O O9 0.725585 0.265326 0.561231
O O10 0.133491 0.383691 0.241051
O O11 0.306485 0.634142 0.135842
O O12 0.141431 0.884069 0.208900
O O13 0.531747 0.696446 0.198485
O O14 0.447042 0.847375 0.127065
#
# Coordination Sequence:
#
# PCOD9139661 Si02
#       7
#     4   4   4   4   4   4   4
#     4  11  24  43  72 104 141 190 254 300 358 451
#     4  12  19  40  74 107 133 188 261 303 352 427
#     4   9  22  41  69 102 136 194 238 297 356 445
#     4  12  24  50  70 110 149 191 229 316 379 421
#     4   9  22  41  69 100 139 193 238 296 353 450
#     4  10  27  46  72 104 158 183 235 312 377 434
#     4  11  24  43  72 107 138 195 251 302 355 454
#
# _framework density 22.641833999999999
#
# number of rings (size 3 to 8) (size 9 to 14) (size 15 to 20)
#    0.857    0.571    2.857    1.714    4.000    0.000 
#    2.571    0.000    0.000    0.000    0.000    0.000 
#    0.000    0.000    0.000    0.000    0.000    0.000 
#
# Total GULP energy -78140.259720 kJ/mol
# GULP energy per Si atom -5581.447123 kJ/mol
# Density = 2.259030 g / cm^3
# Si number density = 22.641834 Si / 1000 Ang^3
#
#
#
# Elastic Constant Matrix: (Units=GPa)
#
#
# Indices 1 2 3 4 5 6 
#
# 1 41.0214 16.3499 6.5993 0.0006 0.9126 -0.0020
# 2 16.3499 60.1864 21.7429 -0.0105 -4.0091 0.0218
# 3 6.5993 21.7429 112.3914 -0.0022 -18.8507 0.0001
# 4 0.0006 -0.0105 -0.0022 28.1646 -0.0018 -0.0162
# 5 0.9126 -4.0091 -18.8507 -0.0018 46.1157 -0.0003
# 6 -0.0020 0.0218 0.0001 -0.0162 -0.0003 41.3740
#
#
#
# Elastic Compliance Matrix: (Units=1/GPa)
#
#
# Indices 1 2 3 4 5 6 
#
# 1 0.027419 -0.007392 -0.000407 -0.000003 -0.001351 0.000005
# 2 -0.007392 0.019857 -0.003321 0.000007 0.000515 -0.000011
# 3 -0.000407 -0.003321 0.010217 0.000000 0.003896 0.000002
# 4 -0.000003 0.000007 0.000000 0.035506 0.000002 0.000014
# 5 -0.001351 0.000515 0.003896 0.000002 0.023349 0.000000
# 6 0.000005 -0.000011 0.000002 0.000014 0.000000 0.024170
#
#
# Mechanical properties :
#
#
# Convention : Reuss Voigt Hill
#
# Bulk Modulus (GPa) = 28.36504 33.66481 31.01493
# Shear Modulus (GPa) = 28.65201 34.39133 31.52167
#
# Velocity S-wave (km/s) = 3.56117 3.90157 3.73525
# Velocity P-wave (km/s) = 5.42809 5.93271 5.68600
#
# Compressibility (1/GPa) = 0.03525466
#
# Stress axis : x y z
#
# Youngs Moduli (GPa) = 36.47092 50.35982 97.87350
#
# Poissons Ratio (x) = 0.37224 0.03980
# Poissons Ratio (y) = 0.26958 0.32505
# Poissons Ratio (z) = 0.01483 0.16725
#
# Static dielectric constant tensor:
#      x y z
#    x 1.828220 0.000000 -0.011920 
#    y 0.000000 1.916810 0.000000 
#    z -0.011920 0.000000 1.898480 
# 
# From -- ./inp_files/34191.got.cif
#   From: 2010.05.17/outbox.cif.g08.bks.cpg/sg9_18_cif.got.tgz:34191.got - 2010.06.03 20:04:27.
