data_PCOD9139187
_publ_section_title
;
Structure prediction by ZEFSAII (Michael W. Deem and Ramdas Pophale) SiO2 
 PCOD9139187
Probable space group: C C
;
_chemical_formula_sum "Si O2"
_cell_formula_units_Z 32
_cell_length_a 8.751369
_cell_length_b 29.870635
_cell_length_c 5.254833
_cell_angle_alpha 90.000000
_cell_angle_beta 72.904269
_cell_angle_gamma 90.000000
_cell_volume 1312.965080
_symmetry_space_group_name_H-M "C C"
_symmetry_group_IT_number 9
_symmetry_cell_setting 'monoclinic'
loop_
_space_group_symop_operation_xyz
x,y,z
x,-y,1/2+z
1/2+x,1/2+y,z
1/2+x,1/2-y,1/2+z
loop_
_atom_site_type_symbol
_atom_site_label
_atom_site_fract_x
_atom_site_fract_y
_atom_site_fract_z
Si Si1 0.569680 0.178438 0.725070
Si Si2 0.488991 0.474153 0.338993
Si Si3 0.689523 0.749113 0.576788
Si Si4 0.463923 0.307814 0.560479
Si Si5 0.488210 0.113335 0.391776
Si Si6 0.871775 0.471934 0.189377
Si Si7 0.766578 0.331911 0.716887
Si Si8 0.782691 0.889350 0.399511
O O1 0.542400 0.163701 0.446907
O O2 0.628158 0.220383 0.867986
O O3 0.391856 0.170987 0.925138
O O4 0.698099 0.139600 0.723896
O O5 0.450543 0.487973 0.647669
O O6 0.679986 0.466078 0.255353
O O7 0.391211 0.431505 0.292009
O O8 0.810235 0.777110 0.699325
O O9 0.786427 0.710168 0.391031
O O10 0.561168 0.723285 0.813162
O O11 0.586108 0.324771 0.713093
O O12 0.395564 0.352712 0.474876
O O13 0.453168 0.076318 0.619632
O O14 0.320662 0.122620 0.328789
O O15 0.632320 0.096691 0.147316
O O16 0.915177 0.496411 0.429399
#
# Coordination Sequence:
#
# PCOD9139187 Si02
#       8
#     4   4   4   4   4   4   4   4
#     4  10  24  46  67 101 145 179 247 300 365 435
#     4  10  24  46  73 109 151 192 244 306 376 458
#     4  11  24  45  68  99 136 194 237 307 365 439
#     4  11  26  44  69 100 141 183 253 296 373 441
#     4  11  26  47  72 105 147 190 248 306 375 449
#     4  10  25  47  78 113 153 197 246 308 379 463
#     4  11  25  40  71  98 134 190 232 305 361 432
#     4  10  26  45  70 107 139 195 237 308 376 437
#
# _framework density 24.372313999999999
#
# number of rings (size 3 to 8) (size 9 to 14) (size 15 to 20)
#    0.000    1.500    1.250    0.750   12.250    5.000 
#    0.000    0.000    0.000    0.000    0.000    0.000 
#    0.000    0.000    0.000    0.000    0.000    0.000 
#
# Total GULP energy -89384.380503 kJ/mol
# GULP energy per Si atom -5586.523781 kJ/mol
# Density = 2.431684 g / cm^3
# Si number density = 24.372314 Si / 1000 Ang^3
#
#
#
# Elastic Constant Matrix: (Units=GPa)
#
#
# Indices 1 2 3 4 5 6 
#
# 1 104.3727 50.3045 4.4453 0.0000 13.1209 0.0000
# 2 50.3045 94.4110 12.6831 0.0000 -9.4315 0.0000
# 3 4.4453 12.6831 47.5998 0.0000 4.1440 0.0000
# 4 0.0000 0.0000 0.0000 37.4848 0.0000 -6.2542
# 5 13.1209 -9.4315 4.1440 0.0000 14.3928 0.0000
# 6 0.0000 0.0000 0.0000 -6.2542 0.0000 41.4153
#
#
#
# Elastic Compliance Matrix: (Units=1/GPa)
#
#
# Indices 1 2 3 4 5 6 
#
# 1 0.019618 -0.013850 0.004313 0.000000 -0.028202 0.000000
# 2 -0.013850 0.021808 -0.007037 0.000000 0.028943 0.000000
# 3 0.004313 -0.007037 0.023822 0.000000 -0.015402 0.000000
# 4 0.000000 0.000000 0.000000 0.027367 0.000000 0.004133
# 5 -0.028202 0.028943 -0.015402 0.000000 0.118589 0.000000
# 6 0.000000 0.000000 0.000000 0.004133 0.000000 0.024770
#
#
# Mechanical properties :
#
#
# Convention : Reuss Voigt Hill
#
# Bulk Modulus (GPa) = 31.15186 42.36103 36.75645
# Shear Modulus (GPa) = 17.86861 30.58860 24.22860
#
# Velocity S-wave (km/s) = 2.71062 3.54652 3.15636
# Velocity P-wave (km/s) = 4.75458 5.84713 5.32893
#
# Compressibility (1/GPa) = 0.03210081
#
# Stress axis : x y z
#
# Youngs Moduli (GPa) = 50.97436 45.85458 41.97858
#
# Poissons Ratio (x) = 0.63507 -0.18107
# Poissons Ratio (y) = 0.70597 0.29541
# Poissons Ratio (z) = -0.21987 0.32269
#
# Static dielectric constant tensor:
#      x y z
#    x 2.038620 0.000000 0.071930 
#    y 0.000000 1.891930 0.000000 
#    z 0.071930 0.000000 2.038410 
# 
# From -- ./inp_files/1327.got.cif
#   From: 2010.05.17/outbox.cif.g08.bks.cpg/sg9_1_cif.got.tgz:1327.got - 2010.06.03 20:04:27.
