data_PCOD9139935
_publ_section_title
;
Structure prediction by ZEFSAII (Michael W. Deem and Ramdas Pophale) SiO2 
 PCOD9139935
Probable space group: C C
;
_chemical_formula_sum "Si O2"
_cell_formula_units_Z 32
_cell_length_a 25.851967
_cell_length_b 7.066262
_cell_length_c 26.226301
_cell_angle_alpha 90.000000
_cell_angle_beta 162.106296
_cell_angle_gamma 90.000000
_cell_volume 1472.024906
_symmetry_space_group_name_H-M "C C"
_symmetry_group_IT_number 9
_symmetry_cell_setting 'monoclinic'
loop_
_space_group_symop_operation_xyz
x,y,z
x,-y,1/2+z
1/2+x,1/2+y,z
1/2+x,1/2-y,1/2+z
loop_
_atom_site_type_symbol
_atom_site_label
_atom_site_fract_x
_atom_site_fract_y
_atom_site_fract_z
Si Si1 0.240580 0.336549 0.758800
Si Si2 0.389765 0.042191 0.411096
Si Si3 0.760810 0.332625 0.015255
Si Si4 0.953448 0.959843 0.861469
Si Si5 0.487632 0.112163 0.816813
Si Si6 0.315249 0.151790 0.227139
Si Si7 0.067433 0.849189 0.742758
Si Si8 0.845609 0.113605 0.946282
O O1 0.244001 0.116252 0.777003
O O2 0.368535 0.366097 0.831572
O O3 0.299581 0.454874 0.862873
O O4 0.062630 0.424145 0.575299
O O5 0.356507 0.141244 0.325930
O O6 0.397925 0.200467 0.462526
O O7 0.649935 0.161199 0.935048
O O8 0.661294 0.448452 0.878328
O O9 0.838814 0.433799 0.137133
O O10 0.914960 0.249225 0.128665
O O11 0.830884 0.128419 0.728970
O O12 0.962382 0.805216 0.825343
O O13 0.137700 0.047291 0.048602
O O14 0.465730 0.951645 0.838101
O O15 0.986421 0.952990 0.618610
O O16 0.187791 0.689744 0.831075
#
# Coordination Sequence:
#
# PCOD9139935 Si02
#       8
#     4   4   4   4   4   4   4   4
#     4  12  26  40  63  96 137 176 213 258 318 392
#     4  12  26  40  63  96 137 175 215 257 316 396
#     4   9  20  40  70  96 116 167 225 271 322 377
#     4  12  26  40  63  96 137 176 213 258 318 392
#     4  11  22  42  68  94 132 171 211 265 329 373
#     4  12  26  40  63  96 137 175 215 257 316 396
#     4   9  20  40  70  96 116 167 225 271 322 377
#     4  11  22  42  68  94 132 171 211 265 329 373
#
# _framework density 21.738762999999999
#
# number of rings (size 3 to 8) (size 9 to 14) (size 15 to 20)
#    0.000    1.000    5.000    1.500    7.000    0.000 
#    0.000    0.000    0.000   30.000    0.000    0.000 
#    0.000    0.000    0.000    0.000    0.000    0.000 
#
# Total GULP energy -89322.954504 kJ/mol
# GULP energy per Si atom -5582.684657 kJ/mol
# Density = 2.168928 g / cm^3
# Si number density = 21.738763 Si / 1000 Ang^3
#
#
#
# Elastic Constant Matrix: (Units=GPa)
#
#
# Indices 1 2 3 4 5 6 
#
# 1 138.2986 24.6664 43.4768 -0.0005 -1.4542 -0.0004
# 2 24.6664 53.5008 -5.2890 0.0034 -15.4438 0.0015
# 3 43.4768 -5.2890 92.2056 0.0126 -20.7857 0.0024
# 4 -0.0005 0.0034 0.0126 17.5102 0.0047 -0.5717
# 5 -1.4542 -15.4438 -20.7857 0.0047 32.3752 0.0004
# 6 -0.0004 0.0015 0.0024 -0.5717 0.0004 3.2029
#
#
#
# Elastic Compliance Matrix: (Units=1/GPa)
#
#
# Indices 1 2 3 4 5 6 
#
# 1 0.010950 -0.008155 -0.007480 0.000010 -0.008201 0.000013
# 2 -0.008155 0.029221 0.010033 -0.000019 0.020014 -0.000028
# 3 -0.007480 0.010033 0.018650 -0.000021 0.016424 -0.000025
# 4 0.000010 -0.000019 -0.000021 0.057444 -0.000031 0.010254
# 5 -0.008201 0.020014 0.016424 -0.000031 0.050612 -0.000034
# 6 0.000013 -0.000028 -0.000025 0.010254 -0.000034 0.314044
#
#
# Mechanical properties :
#
#
# Convention : Reuss Voigt Hill
#
# Bulk Modulus (GPa) = 21.00067 45.52372 33.26219
# Shear Modulus (GPa) = 9.84256 25.36105 17.60181
#
# Velocity S-wave (km/s) = 2.13014 3.41930 2.84860
# Velocity P-wave (km/s) = 3.96629 6.04777 5.11405
#
# Compressibility (1/GPa) = 0.04761753
#
# Stress axis : x y z
#
# Youngs Moduli (GPa) = 91.32004 34.22235 53.61876
#
# Poissons Ratio (x) = 0.27910 0.40106
# Poissons Ratio (y) = 0.74475 -0.53798
# Poissons Ratio (z) = 0.68306 -0.34336
#
# Static dielectric constant tensor:
#      x y z
#    x 1.787890 -0.000010 -0.009620 
#    y -0.000010 1.770640 0.000000 
#    z -0.009620 0.000000 1.910100 
# 
# From -- ./inp_files/12022.got.cif
#   From: 2010.05.17/outbox.cif.g08.bks.cpg/sg9_7_cif.got.tgz:12022.got - 2010.06.03 20:04:27.
