data_PCOD9139558
_publ_section_title
;
Structure prediction by ZEFSAII (Michael W. Deem and Ramdas Pophale) SiO2 
 PCOD9139558
Probable space group: C C
;
_chemical_formula_sum "Si O2"
_cell_formula_units_Z 24
_cell_length_a 13.771782
_cell_length_b 5.310718
_cell_length_c 13.326731
_cell_angle_alpha 90.000000
_cell_angle_beta 87.882450
_cell_angle_gamma 90.000000
_cell_volume 974.025531
_symmetry_space_group_name_H-M "C C"
_symmetry_group_IT_number 9
_symmetry_cell_setting 'monoclinic'
loop_
_space_group_symop_operation_xyz
x,y,z
x,-y,1/2+z
1/2+x,1/2+y,z
1/2+x,1/2-y,1/2+z
loop_
_atom_site_type_symbol
_atom_site_label
_atom_site_fract_x
_atom_site_fract_y
_atom_site_fract_z
Si Si1 0.570420 0.769942 0.304920
Si Si2 0.289889 0.279740 0.552906
Si Si3 0.380253 0.041374 0.355492
Si Si4 0.103101 0.083398 0.518107
Si Si5 0.378591 0.458339 0.753090
Si Si6 0.110675 0.422753 0.088557
O O1 0.620176 0.651581 0.400823
O O2 0.494490 0.563817 0.265346
O O3 0.625115 0.877570 0.206329
O O4 0.495497 0.985878 0.344615
O O5 0.350094 0.166464 0.460386
O O6 0.204873 0.074588 0.575391
O O7 0.350214 0.360594 0.645641
O O8 0.214432 0.509705 0.533460
O O9 0.350216 0.256743 0.277337
O O10 0.339026 0.762462 0.330278
O O11 0.049742 0.322050 0.569466
O O12 0.060722 0.812631 0.538188
#
# Coordination Sequence:
#
# PCOD9139558 Si02
#       6
#     4   4   4   4   4   4
#     4  10  26  45  72 100 142 178 237 281 349 404
#     4  10  26  43  70 101 143 177 232 283 352 409
#     4  10  26  44  68 103 133 185 224 288 342 413
#     4  10  26  41  71  98 139 182 228 285 343 410
#     4  10  26  39  72  95 142 175 230 281 347 411
#     4  10  26  42  69 101 137 183 227 284 339 415
#
# _framework density 24.640011000000001
#
# number of rings (size 3 to 8) (size 9 to 14) (size 15 to 20)
#    2.000    0.000    0.000    0.000   14.000    0.000 
#    0.000    0.000    0.000    0.000    0.000    0.000 
#    0.000    0.000    0.000    0.000    0.000    0.000 
#
# Total GULP energy -66852.515772 kJ/mol
# GULP energy per Si atom -5571.042981 kJ/mol
# Density = 2.458393 g / cm^3
# Si number density = 24.640011 Si / 1000 Ang^3
#
#
#
# Elastic Constant Matrix: (Units=GPa)
#
#
# Indices 1 2 3 4 5 6 
#
# 1 50.3279 14.3293 17.4621 0.0000 1.3311 0.0000
# 2 14.3293 161.4553 33.9336 0.0000 -11.5249 0.0000
# 3 17.4621 33.9336 96.1858 0.0000 -6.3928 0.0000
# 4 0.0000 0.0000 0.0000 30.5795 0.0000 0.1694
# 5 1.3311 -11.5249 -6.3928 0.0000 41.4895 0.0000
# 6 0.0000 0.0000 0.0000 0.1694 0.0000 14.8340
#
#
#
# Elastic Compliance Matrix: (Units=1/GPa)
#
#
# Indices 1 2 3 4 5 6 
#
# 1 0.021510 -0.001274 -0.003561 0.000000 -0.001593 0.000000
# 2 -0.001274 0.006860 -0.002081 0.000000 0.001626 0.000000
# 3 -0.003561 -0.002081 0.011868 0.000000 0.001365 0.000000
# 4 0.000000 0.000000 0.000000 0.032704 0.000000 -0.000374
# 5 -0.001593 0.001626 0.001365 0.000000 0.024816 0.000000
# 6 0.000000 0.000000 0.000000 -0.000374 0.000000 0.067417
#
#
# Mechanical properties :
#
#
# Convention : Reuss Voigt Hill
#
# Bulk Modulus (GPa) = 37.87099 48.82433 43.34766
# Shear Modulus (GPa) = 26.62275 33.53022 30.07649
#
# Velocity S-wave (km/s) = 3.29061 3.69291 3.49755
# Velocity P-wave (km/s) = 5.46266 6.16778 5.82590
#
# Compressibility (1/GPa) = 0.02640543
#
# Stress axis : x y z
#
# Youngs Moduli (GPa) = 46.48933 145.76962 84.26081
#
# Poissons Ratio (x) = 0.18575 0.30009
# Poissons Ratio (y) = 0.05924 0.17533
# Poissons Ratio (z) = 0.16557 0.30332
#
# Static dielectric constant tensor:
#      x y z
#    x 1.980390 0.000000 -0.014890 
#    y 0.000000 2.079780 0.000000 
#    z -0.014890 0.000000 1.936920 
# 
# From -- ./inp_files/18806.got.cif
#   From: 2010.05.17/outbox.cif.g08.bks.cpg/sg9_10_cif.got.tgz:18806.got - 2010.06.03 20:04:27.
