data_PCOD9139977
_publ_section_title
;
Structure prediction by ZEFSAII (Michael W. Deem and Ramdas Pophale) SiO2 
 PCOD9139977
Probable space group: C C
;
_chemical_formula_sum "Si O2"
_cell_formula_units_Z 28
_cell_length_a 12.233700
_cell_length_b 7.892773
_cell_length_c 14.465046
_cell_angle_alpha 90.000000
_cell_angle_beta 122.734242
_cell_angle_gamma 90.000000
_cell_volume 1174.898110
_symmetry_space_group_name_H-M "C C"
_symmetry_group_IT_number 9
_symmetry_cell_setting 'monoclinic'
loop_
_space_group_symop_operation_xyz
x,y,z
x,-y,1/2+z
1/2+x,1/2+y,z
1/2+x,1/2-y,1/2+z
loop_
_atom_site_type_symbol
_atom_site_label
_atom_site_fract_x
_atom_site_fract_y
_atom_site_fract_z
Si Si1 0.262470 0.948499 0.173360
Si Si2 0.557394 0.155567 0.082956
Si Si3 0.533414 0.143472 0.716803
Si Si4 0.681042 0.990662 0.455103
Si Si5 0.624871 0.627238 0.952049
Si Si6 0.942132 0.142102 0.024511
Si Si7 0.311298 0.007913 0.403589
O O1 0.134878 0.830788 0.131801
O O2 0.385200 0.848934 0.186085
O O3 0.308014 0.014446 0.292662
O O4 0.229786 0.088333 0.081071
O O5 0.561129 0.030428 0.172532
O O6 0.635652 0.073579 0.033525
O O7 0.407737 0.144810 0.980013
O O8 0.623070 0.126773 0.847492
O O9 0.546385 0.298095 0.649846
O O10 0.835675 0.982120 0.516613
O O11 0.625727 0.179118 0.422419
O O12 0.672012 0.520518 0.886812
O O13 0.495735 0.583141 0.949745
O O14 0.874430 0.322541 0.972102
#
# Coordination Sequence:
#
# PCOD9139977 Si02
#       7
#     4   4   4   4   4   4   4
#     4  12  24  42  75 100 138 191 230 282 355 414
#     4  11  22  44  67  99 139 179 231 284 339 413
#     4  11  22  45  69  99 143 184 228 285 353 407
#     4  12  24  44  73  99 143 180 227 294 348 407
#     4  12  25  46  68 104 142 177 238 292 338 422
#     4  11  25  46  68 102 139 184 233 284 344 423
#     4  11  24  47  68  99 146 181 227 295 351 400
#
# _framework density 23.831855000000001
#
# number of rings (size 3 to 8) (size 9 to 14) (size 15 to 20)
#    0.000    0.571    8.571    0.857    4.000    0.000 
#    0.000    1.429    0.000    0.000    0.000    0.000 
#    0.000    0.000    0.000    0.000    0.000    0.000 
#
# Total GULP energy -78281.261394 kJ/mol
# GULP energy per Si atom -5591.518671 kJ/mol
# Density = 2.377761 g / cm^3
# Si number density = 23.831855 Si / 1000 Ang^3
#
#
#
# Elastic Constant Matrix: (Units=GPa)
#
#
# Indices 1 2 3 4 5 6 
#
# 1 122.6941 20.5165 7.6080 0.0000 -21.9593 0.0000
# 2 20.5165 54.4124 13.3523 0.0000 1.5086 0.0000
# 3 7.6080 13.3523 67.9836 0.0000 -14.0307 0.0000
# 4 0.0000 0.0000 0.0000 16.0091 0.0000 -2.0368
# 5 -21.9593 1.5086 -14.0307 0.0000 42.7803 0.0000
# 6 0.0000 0.0000 0.0000 -2.0368 0.0000 37.7405
#
#
#
# Elastic Compliance Matrix: (Units=1/GPa)
#
#
# Indices 1 2 3 4 5 6 
#
# 1 0.009741 -0.004023 0.000817 0.000000 0.005410 0.000000
# 2 -0.004023 0.021142 -0.004593 0.000000 -0.004317 0.000000
# 3 0.000817 -0.004593 0.016776 0.000000 0.006083 0.000000
# 4 0.000000 0.000000 0.000000 0.062896 0.000000 0.003394
# 5 0.005410 -0.004317 0.006083 0.000000 0.028299 0.000000
# 6 0.000000 0.000000 0.000000 0.003394 0.000000 0.026680
#
#
# Mechanical properties :
#
#
# Convention : Reuss Voigt Hill
#
# Bulk Modulus (GPa) = 31.19273 36.44930 33.82101
# Shear Modulus (GPa) = 26.06620 32.88019 29.47320
#
# Velocity S-wave (km/s) = 3.31078 3.71843 3.52051
# Velocity P-wave (km/s) = 5.26613 5.81061 5.54506
#
# Compressibility (1/GPa) = 0.03205876
#
# Stress axis : x y z
#
# Youngs Moduli (GPa) = 102.66267 47.29941 59.61037
#
# Poissons Ratio (x) = 0.19029 -0.04867
# Poissons Ratio (y) = 0.41302 0.27380
# Poissons Ratio (z) = -0.08383 0.21725
#
# Static dielectric constant tensor:
#      x y z
#    x 1.939210 0.000000 0.078320 
#    y 0.000000 1.910820 0.000000 
#    z 0.078320 0.000000 1.909920 
# 
# From -- ./inp_files/24038.got.cif
#   From: 2010.05.17/outbox.cif.g08.bks.cpg/sg9_13_cif.got.tgz:24038.got - 2010.06.03 20:04:27.
