data_PCOD9139439
_publ_section_title
;
Structure prediction by ZEFSAII (Michael W. Deem and Ramdas Pophale) SiO2 
 PCOD9139439
Probable space group: C C
;
_chemical_formula_sum "Si O2"
_cell_formula_units_Z 32
_cell_length_a 14.899561
_cell_length_b 7.623152
_cell_length_c 12.360512
_cell_angle_alpha 90.000000
_cell_angle_beta 66.741686
_cell_angle_gamma 90.000000
_cell_volume 1289.835316
_symmetry_space_group_name_H-M "C C"
_symmetry_group_IT_number 9
_symmetry_cell_setting 'monoclinic'
loop_
_space_group_symop_operation_xyz
x,y,z
x,-y,1/2+z
1/2+x,1/2+y,z
1/2+x,1/2-y,1/2+z
loop_
_atom_site_type_symbol
_atom_site_label
_atom_site_fract_x
_atom_site_fract_y
_atom_site_fract_z
Si Si1 0.742450 0.167276 0.921880
Si Si2 0.008364 0.671777 0.038167
Si Si3 0.028029 0.812215 0.712261
Si Si4 0.371634 0.655690 0.450949
Si Si5 0.233345 0.201935 0.196493
Si Si6 0.248243 0.192882 0.642055
Si Si7 0.957077 0.289384 0.026349
Si Si8 0.036363 0.224529 0.755357
O O1 0.773619 0.213135 0.786132
O O2 0.809484 0.009316 0.934665
O O3 0.624780 0.143760 0.971482
O O4 0.751355 0.318970 0.009235
O O5 0.990355 0.677560 0.175529
O O6 0.954936 0.499700 0.019640
O O7 0.963266 0.839095 0.995140
O O8 0.121818 0.740200 0.730209
O O9 0.030562 0.758112 0.586743
O O10 0.928015 0.762606 0.821172
O O11 0.038009 0.022428 0.716441
O O12 0.291414 0.752597 0.560844
O O13 0.238793 0.992304 0.205018
O O14 0.351801 0.279523 0.616668
O O15 0.147964 0.291552 0.716044
O O16 0.984909 0.228140 0.894479
#
# Coordination Sequence:
#
# PCOD9139439 Si02
#       8
#     4   4   4   4   4   4   4   4
#     4  11  26  47  76 109 156 201 262 324 389 477
#     4  11  26  48  73 111 157 198 262 321 385 478
#     4  11  27  45  74 110 152 200 263 321 392 474
#     4  12  26  44  77 112 150 204 259 320 396 465
#     4  11  25  49  71 104 157 202 252 330 394 469
#     4  10  25  45  70 107 144 192 254 311 382 460
#     4  12  26  45  76 105 150 200 247 317 396 458
#     4  10  27  47  71 106 150 197 251 320 384 461
#
# _framework density 24.809367000000002
#
# number of rings (size 3 to 8) (size 9 to 14) (size 15 to 20)
#    0.000    1.000    2.500    1.500    8.750    8.000 
#    0.000    0.000    0.000    0.000    0.000    0.000 
#    0.000    0.000    0.000    0.000    0.000    0.000 
#
# Total GULP energy -89420.476496 kJ/mol
# GULP energy per Si atom -5588.779781 kJ/mol
# Density = 2.475290 g / cm^3
# Si number density = 24.809367 Si / 1000 Ang^3
#
#
#
# Elastic Constant Matrix: (Units=GPa)
#
#
# Indices 1 2 3 4 5 6 
#
# 1 147.5687 27.3753 46.6071 0.0000 -10.5007 0.0000
# 2 27.3753 73.0758 23.9951 0.0000 15.4654 0.0000
# 3 46.6071 23.9951 120.3415 0.0000 7.0157 0.0000
# 4 0.0000 0.0000 0.0000 32.1605 0.0000 10.5018
# 5 -10.5007 15.4654 7.0157 0.0000 50.5580 0.0000
# 6 0.0000 0.0000 0.0000 10.5018 0.0000 24.6517
#
#
#
# Elastic Compliance Matrix: (Units=1/GPa)
#
#
# Indices 1 2 3 4 5 6 
#
# 1 0.008428 -0.002854 -0.002871 0.000000 0.003022 0.000000
# 2 -0.002854 0.016507 -0.001872 0.000000 -0.005382 0.000000
# 3 -0.002871 -0.001872 0.009876 0.000000 -0.001394 0.000000
# 4 0.000000 0.000000 0.000000 0.036118 0.000000 -0.015387
# 5 0.003022 -0.005382 -0.001394 0.000000 0.022247 0.000000
# 6 0.000000 0.000000 0.000000 -0.015387 0.000000 0.047120
#
#
# Mechanical properties :
#
#
# Convention : Reuss Voigt Hill
#
# Bulk Modulus (GPa) = 50.97705 59.66010 55.31858
# Shear Modulus (GPa) = 30.85838 37.67462 34.26650
#
# Velocity S-wave (km/s) = 3.53061 3.90110 3.72047
# Velocity P-wave (km/s) = 6.10019 6.66266 6.38762
#
# Compressibility (1/GPa) = 0.01961667
#
# Stress axis : x y z
#
# Youngs Moduli (GPa) = 118.65568 60.57860 101.25312
#
# Poissons Ratio (x) = 0.17289 0.29071
# Poissons Ratio (y) = 0.33864 0.18958
# Poissons Ratio (z) = 0.34067 0.11343
#
# Static dielectric constant tensor:
#      x y z
#    x 2.022450 0.000000 -0.040500 
#    y 0.000000 1.992600 0.000000 
#    z -0.040500 0.000000 1.916840 
# 
# From -- ./inp_files/17919.got.cif
#   From: 2010.05.17/outbox.cif.g08.bks.cpg/sg9_9_cif.got.tgz:17919.got - 2010.06.03 20:04:27.
