data_PCOD9139684
_publ_section_title
;
Structure prediction by ZEFSAII (Michael W. Deem and Ramdas Pophale) SiO2 
 PCOD9139684
Probable space group: C C
;
_chemical_formula_sum "Si O2"
_cell_formula_units_Z 32
_cell_length_a 11.527951
_cell_length_b 8.220876
_cell_length_c 20.047677
_cell_angle_alpha 90.000000
_cell_angle_beta 59.180690
_cell_angle_gamma 90.000000
_cell_volume 1631.623223
_symmetry_space_group_name_H-M "C C"
_symmetry_group_IT_number 9
_symmetry_cell_setting 'monoclinic'
loop_
_space_group_symop_operation_xyz
x,y,z
x,-y,1/2+z
1/2+x,1/2+y,z
1/2+x,1/2-y,1/2+z
loop_
_atom_site_type_symbol
_atom_site_label
_atom_site_fract_x
_atom_site_fract_y
_atom_site_fract_z
Si Si1 0.934420 0.622072 0.163180
Si Si2 0.741335 0.934157 0.426867
Si Si3 0.583597 0.633072 0.128178
Si Si4 0.885087 0.048926 0.018427
Si Si5 0.815594 0.940446 0.253550
Si Si6 0.124058 0.135049 0.523377
Si Si7 0.476314 0.876882 0.047127
Si Si8 0.643208 0.065225 0.685981
O O1 0.839890 0.752733 0.225951
O O2 0.886497 0.499484 0.118792
O O3 0.046117 0.732338 0.091962
O O4 0.008080 0.517654 0.198581
O O5 0.839005 0.994785 0.457534
O O6 0.796755 0.961151 0.337147
O O7 0.721250 0.742844 0.449426
O O8 0.595321 0.022035 0.476554
O O9 0.445969 0.541379 0.190002
O O10 0.673238 0.501221 0.061635
O O11 0.548254 0.766573 0.082531
O O12 0.635734 0.741523 0.173824
O O13 0.907073 0.242708 0.020951
O O14 0.764651 0.997934 0.103291
O O15 0.016263 0.955022 0.007080
O O16 0.685170 0.985521 0.247747
#
# Coordination Sequence:
#
# PCOD9139684 Si02
#       8
#     4   4   4   4   4   4   4   4
#     4   9  18  36  57  85 109 141 201 230 265 360
#     4  11  23  38  55  85 123 146 183 249 292 326
#     4   9  18  36  60  85 106 148 202 225 267 359
#     4  11  19  36  63  82 111 153 190 235 284 333
#     4  11  23  38  55  85 123 146 183 249 292 326
#     4   9  18  36  57  85 109 141 201 230 265 360
#     4   9  18  36  60  85 106 148 202 225 267 359
#     4  11  19  36  63  82 111 153 190 235 284 333
#
# _framework density 19.612371
#
# number of rings (size 3 to 8) (size 9 to 14) (size 15 to 20)
#    0.000    2.000    7.500    0.000    0.000    3.000 
#    0.000    5.000    0.000    0.000    0.000    0.000 
#    0.000    0.000    0.000    0.000    0.000    0.000 
#
# Total GULP energy -89140.444807 kJ/mol
# GULP energy per Si atom -5571.277800 kJ/mol
# Density = 1.956773 g / cm^3
# Si number density = 19.612371 Si / 1000 Ang^3
#
#
#
# Elastic Constant Matrix: (Units=GPa)
#
#
# Indices 1 2 3 4 5 6 
#
# 1 74.8389 13.4709 11.0588 0.0000 22.2424 0.0000
# 2 13.4709 85.3331 1.5947 0.0000 -2.6580 0.0000
# 3 11.0588 1.5947 62.9321 0.0000 18.2523 0.0000
# 4 0.0000 0.0000 0.0000 16.0399 0.0000 0.1445
# 5 22.2424 -2.6580 18.2523 0.0000 27.6232 0.0000
# 6 0.0000 0.0000 0.0000 0.1445 0.0000 37.9930
#
#
#
# Elastic Compliance Matrix: (Units=1/GPa)
#
#
# Indices 1 2 3 4 5 6 
#
# 1 0.018619 -0.003478 0.001561 0.000000 -0.016358 0.000000
# 2 -0.003478 0.012434 -0.001068 0.000000 0.004702 0.000000
# 3 0.001561 -0.001068 0.019839 0.000000 -0.014468 0.000000
# 4 0.000000 0.000000 0.000000 0.062347 0.000000 -0.000237
# 5 -0.016358 0.004702 -0.014468 0.000000 0.059386 0.000000
# 6 0.000000 0.000000 0.000000 -0.000237 0.000000 0.026322
#
#
# Mechanical properties :
#
#
# Convention : Reuss Voigt Hill
#
# Bulk Modulus (GPa) = 22.26056 30.59476 26.42766
# Shear Modulus (GPa) = 22.73854 29.46321 26.10088
#
# Velocity S-wave (km/s) = 3.40869 3.88013 3.65202
# Velocity P-wave (km/s) = 5.18335 5.97557 5.59350
#
# Compressibility (1/GPa) = 0.04492250
#
# Stress axis : x y z
#
# Youngs Moduli (GPa) = 53.70805 80.42303 50.40514
#
# Poissons Ratio (x) = 0.27971 -0.07867
# Poissons Ratio (y) = 0.18679 0.05382
# Poissons Ratio (z) = -0.08382 0.08587
#
# Static dielectric constant tensor:
#      x y z
#    x 1.758290 0.000000 0.008560 
#    y 0.000000 1.738660 0.000000 
#    z 0.008560 0.000000 1.652200 
# 
# From -- ./inp_files/29731.got.cif
#   From: 2010.05.17/outbox.cif.g08.bks.cpg/sg9_15_cif.got.tgz:29731.got - 2010.06.03 20:04:27.
