data_PCOD9139739
_publ_section_title
;
Structure prediction by ZEFSAII (Michael W. Deem and Ramdas Pophale) SiO2 
 PCOD9139739
Probable space group: C C
;
_chemical_formula_sum "Si O2"
_cell_formula_units_Z 32
_cell_length_a 15.216566
_cell_length_b 5.712507
_cell_length_c 17.940268
_cell_angle_alpha 90.000000
_cell_angle_beta 62.933429
_cell_angle_gamma 90.000000
_cell_volume 1388.659387
_symmetry_space_group_name_H-M "C C"
_symmetry_group_IT_number 9
_symmetry_cell_setting 'monoclinic'
loop_
_space_group_symop_operation_xyz
x,y,z
x,-y,1/2+z
1/2+x,1/2+y,z
1/2+x,1/2-y,1/2+z
loop_
_atom_site_type_symbol
_atom_site_label
_atom_site_fract_x
_atom_site_fract_y
_atom_site_fract_z
Si Si1 0.628380 0.612716 0.472800
Si Si2 0.404753 0.909882 0.732558
Si Si3 0.279514 0.464412 0.337963
Si Si4 0.136128 0.606164 0.123539
Si Si5 0.759769 0.756714 0.987445
Si Si6 0.527290 0.472685 0.874976
Si Si7 0.725439 0.662180 0.736041
Si Si8 0.427613 0.984362 0.888298
O O1 0.698253 0.774202 0.394440
O O2 0.624584 0.737758 0.553598
O O3 0.674995 0.362873 0.471721
O O4 0.531280 0.562740 0.462978
O O5 0.372912 0.639635 0.756230
O O6 0.521283 0.954879 0.682855
O O7 0.331023 0.029223 0.702055
O O8 0.377603 0.993335 0.826223
O O9 0.308766 0.566671 0.408257
O O10 0.231937 0.640119 0.297501
O O11 0.189899 0.735472 0.170911
O O12 0.206798 0.391010 0.074056
O O13 0.838346 0.556329 0.978082
O O14 0.634710 0.503251 0.797141
O O15 0.495891 0.212413 0.862038
O O16 0.475937 0.729002 0.880716
#
# Coordination Sequence:
#
# PCOD9139739 Si02
#       8
#     4   4   4   4   4   4   4   4
#     4  11  24  48  72 106 155 206 253 338 400 474
#     4  12  25  46  79 112 151 208 262 339 396 489
#     4  11  20  44  80 106 142 202 274 316 392 486
#     4  11  30  48  70 112 168 200 266 338 428 464
#     4  11  24  48  72 106 155 206 253 338 400 474
#     4  12  25  45  85 117 148 203 279 320 389 490
#     4  12  25  46  79 112 151 208 262 339 396 489
#     4  12  25  45  85 117 148 203 279 320 389 490
#
# _framework density 23.043809
#
# number of rings (size 3 to 8) (size 9 to 14) (size 15 to 20)
#    0.000    0.500    6.250    1.500    3.500    3.000 
#    6.750    0.000    0.000    0.000    0.000    0.000 
#    0.000    0.000    0.000    0.000    0.000    0.000 
#
# Total GULP energy -89218.440969 kJ/mol
# GULP energy per Si atom -5576.152561 kJ/mol
# Density = 2.299136 g / cm^3
# Si number density = 23.043809 Si / 1000 Ang^3
#
#
#
# Elastic Constant Matrix: (Units=GPa)
#
#
# Indices 1 2 3 4 5 6 
#
# 1 102.6367 37.2959 22.5273 0.0004 -0.6442 0.0008
# 2 37.2959 87.4660 12.1096 0.0009 -0.8529 0.0018
# 3 22.5273 12.1096 65.4281 0.0000 -5.1970 0.0000
# 4 0.0004 0.0009 0.0000 29.5904 -0.0001 0.7753
# 5 -0.6442 -0.8529 -5.1970 -0.0001 27.8204 0.0004
# 6 0.0008 0.0018 0.0000 0.7753 0.0004 61.4891
#
#
#
# Elastic Compliance Matrix: (Units=1/GPa)
#
#
# Indices 1 2 3 4 5 6 
#
# 1 0.012201 -0.004742 -0.003362 0.000000 -0.000491 0.000000
# 2 -0.004742 0.013577 -0.000869 0.000000 0.000144 0.000000
# 3 -0.003362 -0.000869 0.016844 0.000000 0.003042 0.000000
# 4 0.000000 0.000000 0.000000 0.033806 0.000000 -0.000426
# 5 -0.000491 0.000144 0.003042 0.000000 0.036506 0.000000
# 6 0.000000 0.000000 0.000000 -0.000426 0.000000 0.016268
#
#
# Mechanical properties :
#
#
# Convention : Reuss Voigt Hill
#
# Bulk Modulus (GPa) = 40.52509 44.37737 42.45123
# Shear Modulus (GPa) = 32.18057 36.01986 34.10022
#
# Velocity S-wave (km/s) = 3.74103 3.95790 3.85099
# Velocity P-wave (km/s) = 6.02367 6.33926 6.18348
#
# Compressibility (1/GPa) = 0.02467607
#
# Stress axis : x y z
#
# Youngs Moduli (GPa) = 81.95996 73.65588 59.36826
#
# Poissons Ratio (x) = 0.34927 0.19961
# Poissons Ratio (y) = 0.38864 0.05157
# Poissons Ratio (z) = 0.27557 0.06398
#
# Static dielectric constant tensor:
#      x y z
#    x 1.996260 0.000000 -0.028610 
#    y 0.000000 1.977620 0.000000 
#    z -0.028610 0.000000 1.894320 
# 
# From -- ./inp_files/28653.got.cif
#   From: 2010.05.17/outbox.cif.g08.bks.cpg/sg9_15_cif.got.tgz:28653.got - 2010.06.03 20:04:27.
