data_PCOD9139727
_publ_section_title
;
Structure prediction by ZEFSAII (Michael W. Deem and Ramdas Pophale) SiO2 
 PCOD9139727
Probable space group: C C
;
_chemical_formula_sum "Si O2"
_cell_formula_units_Z 32
_cell_length_a 9.363880
_cell_length_b 17.010660
_cell_length_c 14.000676
_cell_angle_alpha 90.000000
_cell_angle_beta 39.035855
_cell_angle_gamma 90.000000
_cell_volume 1404.537096
_symmetry_space_group_name_H-M "C C"
_symmetry_group_IT_number 9
_symmetry_cell_setting 'monoclinic'
loop_
_space_group_symop_operation_xyz
x,y,z
x,-y,1/2+z
1/2+x,1/2+y,z
1/2+x,1/2-y,1/2+z
loop_
_atom_site_type_symbol
_atom_site_label
_atom_site_fract_x
_atom_site_fract_y
_atom_site_fract_z
Si Si1 0.017140 0.869853 0.028730
Si Si2 0.039451 0.593832 0.727854
Si Si3 0.161046 0.433013 0.571438
Si Si4 0.708262 0.422855 0.737171
Si Si5 0.323091 0.187602 0.530700
Si Si6 0.238764 0.659153 0.198417
Si Si7 0.125723 0.041653 0.063152
Si Si8 0.172997 0.901218 0.280985
O O1 0.161523 0.812373 0.021831
O O2 0.746545 0.857063 0.163123
O O3 0.047935 0.956287 0.063986
O O4 0.101035 0.868062 0.874282
O O5 0.160298 0.525921 0.597965
O O6 0.855710 0.638646 0.756354
O O7 0.881353 0.556983 0.892896
O O8 0.081328 0.394082 0.711755
O O9 0.402862 0.392839 0.425574
O O10 0.977856 0.410094 0.587942
O O11 0.605564 0.439299 0.686696
O O12 0.699760 0.507741 0.792777
O O13 0.287562 0.262132 0.615887
O O14 0.584220 0.179701 0.367828
O O15 0.253344 0.114572 0.632791
O O16 0.456981 0.606374 0.105211
#
# Coordination Sequence:
#
# PCOD9139727 Si02
#       8
#     4   4   4   4   4   4   4   4
#     4  12  23  43  68 110 144 186 241 304 362 431
#     4  11  21  39  68 106 143 173 236 304 353 415
#     4  11  20  42  66  99 145 179 232 292 353 429
#     4  11  23  37  67 105 141 177 233 305 356 413
#     4  12  28  46  74  99 143 198 243 286 371 445
#     4  12  25  47  72  95 142 193 244 287 360 450
#     4  12  24  41  71 109 143 186 239 307 366 419
#     4  11  22  39  68 105 141 184 232 291 365 420
#
# _framework density 22.783307000000001
#
# number of rings (size 3 to 8) (size 9 to 14) (size 15 to 20)
#    0.000    0.500    8.750    0.750    3.500    0.000 
#    0.000    1.250    0.000    0.000    0.000    0.000 
#    0.000    0.000    0.000    0.000    0.000    0.000 
#
# Total GULP energy -89242.557286 kJ/mol
# GULP energy per Si atom -5577.659830 kJ/mol
# Density = 2.273145 g / cm^3
# Si number density = 22.783307 Si / 1000 Ang^3
#
#
#
# Elastic Constant Matrix: (Units=GPa)
#
#
# Indices 1 2 3 4 5 6 
#
# 1 107.6673 6.1918 26.8045 -0.0006 -1.5577 0.0000
# 2 6.1918 40.5066 16.0414 -0.0017 -0.4146 0.0001
# 3 26.8045 16.0414 123.0261 -0.0051 -9.5572 -0.0002
# 4 -0.0006 -0.0017 -0.0051 19.3407 -0.0005 4.9307
# 5 -1.5577 -0.4146 -9.5572 -0.0005 47.7992 0.0005
# 6 0.0000 0.0001 -0.0002 4.9307 0.0005 23.1731
#
#
#
# Elastic Compliance Matrix: (Units=1/GPa)
#
#
# Indices 1 2 3 4 5 6 
#
# 1 0.009839 -0.000689 -0.002062 0.000000 -0.000098 0.000000
# 2 -0.000689 0.026090 -0.003287 0.000001 -0.000453 0.000000
# 3 -0.002062 -0.003287 0.009141 0.000002 0.001732 0.000000
# 4 0.000000 0.000001 0.000002 0.054670 0.000001 -0.011633
# 5 -0.000098 -0.000453 0.001732 0.000001 0.021260 -0.000001
# 6 0.000000 0.000000 0.000000 -0.011633 -0.000001 0.045629
#
#
# Mechanical properties :
#
#
# Convention : Reuss Voigt Hill
#
# Bulk Modulus (GPa) = 30.30738 41.03062 35.66900
# Shear Modulus (GPa) = 26.35725 32.87343 29.61534
#
# Velocity S-wave (km/s) = 3.40496 3.80264 3.60928
# Velocity P-wave (km/s) = 5.36560 6.10968 5.74969
#
# Compressibility (1/GPa) = 0.03299527
#
# Stress axis : x y z
#
# Youngs Moduli (GPa) = 101.63333 38.32935 109.40135
#
# Poissons Ratio (x) = 0.02639 0.22554
# Poissons Ratio (y) = 0.06999 0.35960
# Poissons Ratio (z) = 0.20952 0.12599
#
# Static dielectric constant tensor:
#      x y z
#    x 1.920730 0.000000 -0.026290 
#    y 0.000000 1.894510 0.000000 
#    z -0.026290 0.000000 1.931090 
# 
# From -- ./inp_files/23667.got.cif
#   From: 2010.05.17/outbox.cif.g08.bks.cpg/sg9_12_cif.got.tgz:23667.got - 2010.06.03 20:04:27.
