data_PCOD9139790
_publ_section_title
;
Structure prediction by ZEFSAII (Michael W. Deem and Ramdas Pophale) SiO2 
 PCOD9139790
Probable space group: C C
;
_chemical_formula_sum "Si O2"
_cell_formula_units_Z 24
_cell_length_a 15.989343
_cell_length_b 11.979182
_cell_length_c 14.203430
_cell_angle_alpha 90.000000
_cell_angle_beta 21.311935
_cell_angle_gamma 90.000000
_cell_volume 988.758142
_symmetry_space_group_name_H-M "C C"
_symmetry_group_IT_number 9
_symmetry_cell_setting 'monoclinic'
loop_
_space_group_symop_operation_xyz
x,y,z
x,-y,1/2+z
1/2+x,1/2+y,z
1/2+x,1/2-y,1/2+z
loop_
_atom_site_type_symbol
_atom_site_label
_atom_site_fract_x
_atom_site_fract_y
_atom_site_fract_z
Si Si1 0.402360 0.465697 0.170740
Si Si2 0.651249 0.976558 0.742746
Si Si3 0.757378 0.624223 0.179566
Si Si4 0.660991 0.189229 0.066064
Si Si5 0.916987 0.826889 0.899390
Si Si6 0.520763 0.291024 0.588097
O O1 0.311693 0.513184 0.165751
O O2 0.213121 0.405671 0.432686
O O3 0.510754 0.574808 0.103583
O O4 0.593473 0.374819 0.941467
O O5 0.650864 0.868005 0.680203
O O6 0.720059 0.081302 0.603148
O O7 0.408835 0.015604 0.036409
O O8 0.632306 0.603608 0.210920
O O9 0.874370 0.741999 0.031648
O O10 0.905920 0.258668 0.813514
O O11 0.975010 0.760400 0.745401
O O12 0.780711 0.250435 0.289303
#
# Coordination Sequence:
#
# PCOD9139790 Si02
#       6
#     4   4   4   4   4   4
#     4  11  30  46  77 116 150 205 262 325 383 468
#     4  11  26  49  75 106 155 205 254 315 389 469
#     4  11  23  42  74 110 150 188 256 322 390 448
#     4  12  32  53  79 112 164 213 261 320 403 476
#     4  11  21  40  75 107 139 188 246 313 382 432
#     4  12  26  46  76 111 148 191 251 311 375 453
#
# _framework density 24.272872
#
# number of rings (size 3 to 8) (size 9 to 14) (size 15 to 20)
#    0.000    0.667    5.000    0.000   14.000    1.333 
#    0.000    0.000    0.000    0.000    0.000    0.000 
#    0.000    0.000    0.000    0.000    0.000    0.000 
#
# Total GULP energy -66841.169069 kJ/mol
# GULP energy per Si atom -5570.097422 kJ/mol
# Density = 2.421763 g / cm^3
# Si number density = 24.272872 Si / 1000 Ang^3
#
#
#
# Elastic Constant Matrix: (Units=GPa)
#
#
# Indices 1 2 3 4 5 6 
#
# 1 51.9937 15.2826 27.2154 0.0099 -1.6953 -0.0039
# 2 15.2826 77.1781 10.1888 0.0265 -6.6458 -0.0123
# 3 27.2154 10.1888 63.2315 0.0097 -23.6605 -0.0032
# 4 0.0099 0.0265 0.0097 35.7236 -0.0161 4.2026
# 5 -1.6953 -6.6458 -23.6605 -0.0161 37.8236 0.0066
# 6 -0.0039 -0.0123 -0.0032 4.2026 0.0066 38.7431
#
#
#
# Elastic Compliance Matrix: (Units=1/GPa)
#
#
# Indices 1 2 3 4 5 6 
#
# 1 0.027804 -0.004333 -0.014476 -0.000005 -0.008571 0.000002
# 2 -0.004333 0.013963 0.000601 -0.000009 0.002635 0.000005
# 3 -0.014476 0.000601 0.028391 0.000004 0.017217 -0.000002
# 4 -0.000005 -0.000009 0.000004 0.028355 0.000013 -0.003076
# 5 -0.008571 0.002635 0.017217 0.000013 0.037287 -0.000006
# 6 0.000002 0.000005 -0.000002 -0.003076 -0.000006 0.026145
#
#
# Mechanical properties :
#
#
# Convention : Reuss Voigt Hill
#
# Bulk Modulus (GPa) = 29.63638 33.08633 31.36136
# Shear Modulus (GPa) = 23.85409 31.77250 27.81329
#
# Velocity S-wave (km/s) = 3.13828 3.62190 3.38873
# Velocity P-wave (km/s) = 5.03666 5.58135 5.31598
#
# Compressibility (1/GPa) = 0.03374231
#
# Stress axis : x y z
#
# Youngs Moduli (GPa) = 35.96543 71.62012 35.22243
#
# Poissons Ratio (x) = 0.31031 0.50989
# Poissons Ratio (y) = 0.15583 -0.02117
# Poissons Ratio (z) = 0.52064 -0.04304
#
# Static dielectric constant tensor:
#      x y z
#    x 1.964160 0.000000 -0.121120 
#    y 0.000000 1.949930 -0.000020 
#    z -0.121120 -0.000020 2.163910 
# 
# From -- ./inp_files/26816.got.cif
#   From: 2010.05.17/outbox.cif.g08.bks.cpg/sg9_14_cif.got.tgz:26816.got - 2010.06.03 20:04:27.
