data_PCOD9139356
_publ_section_title
;
Structure prediction by ZEFSAII (Michael W. Deem and Ramdas Pophale) SiO2 
 PCOD9139356
Probable space group: C C
;
_chemical_formula_sum "Si O2"
_cell_formula_units_Z 28
_cell_length_a 8.756884
_cell_length_b 15.841106
_cell_length_c 15.282045
_cell_angle_alpha 90.000000
_cell_angle_beta 146.098494
_cell_angle_gamma 90.000000
_cell_volume 1182.413362
_symmetry_space_group_name_H-M "C C"
_symmetry_group_IT_number 9
_symmetry_cell_setting 'monoclinic'
loop_
_space_group_symop_operation_xyz
x,y,z
x,-y,1/2+z
1/2+x,1/2+y,z
1/2+x,1/2-y,1/2+z
loop_
_atom_site_type_symbol
_atom_site_label
_atom_site_fract_x
_atom_site_fract_y
_atom_site_fract_z
Si Si1 0.828470 0.031161 0.202290
Si Si2 0.033677 0.630511 0.826763
Si Si3 0.210623 0.756524 0.303787
Si Si4 0.124870 0.915301 0.589848
Si Si5 0.859457 0.650328 0.029754
Si Si6 0.032463 0.913750 0.986073
Si Si7 0.409965 0.036834 0.381602
O O1 0.623889 0.112387 0.105744
O O2 0.924713 0.038526 0.348415
O O3 0.113115 0.033840 0.286362
O O4 0.637506 0.959375 0.066691
O O5 0.909837 0.705948 0.824526
O O6 0.847786 0.615264 0.651742
O O7 0.990445 0.548401 0.867711
O O8 0.354575 0.641181 0.962191
O O9 0.162493 0.822065 0.358741
O O10 0.353352 0.670818 0.406683
O O11 0.939947 0.731784 0.123968
O O12 0.266163 0.911322 0.562308
O O13 0.344966 0.898585 0.770930
O O14 0.010001 0.011322 0.546271
#
# Coordination Sequence:
#
# PCOD9139356 Si02
#       7
#     4   4   4   4   4   4   4
#     4  11  23  40  68 105 139 179 238 299 348 429
#     4  11  23  45  69  97 147 188 233 298 363 427
#     4  11  22  45  68  97 136 192 230 297 364 422
#     4  11  25  44  69 104 141 185 242 300 352 433
#     4  11  24  45  70 101 144 186 244 293 365 430
#     4  10  25  40  73 100 134 187 237 291 360 415
#     4  11  22  41  69 102 139 181 234 300 356 412
#
# _framework density 23.680381000000001
#
# number of rings (size 3 to 8) (size 9 to 14) (size 15 to 20)
#    0.000    1.143    4.286    0.857   10.000    0.000 
#    2.571    0.000    0.000    0.000    0.000    0.000 
#    0.000    0.000    0.000    0.000    0.000    0.000 
#
# Total GULP energy -78007.961414 kJ/mol
# GULP energy per Si atom -5571.997244 kJ/mol
# Density = 2.362648 g / cm^3
# Si number density = 23.680381 Si / 1000 Ang^3
#
#
#
# Elastic Constant Matrix: (Units=GPa)
#
#
# Indices 1 2 3 4 5 6 
#
# 1 74.6656 12.6548 50.7980 -0.0015 10.1018 -0.0010
# 2 12.6548 29.8428 31.7493 -0.0011 4.3881 -0.0014
# 3 50.7980 31.7493 187.1651 0.0001 -25.1410 -0.0020
# 4 -0.0015 -0.0011 0.0001 35.3658 0.0004 1.8544
# 5 10.1018 4.3881 -25.1410 0.0004 33.0321 -0.0005
# 6 -0.0010 -0.0014 -0.0020 1.8544 -0.0005 17.5176
#
#
#
# Elastic Compliance Matrix: (Units=1/GPa)
#
#
# Indices 1 2 3 4 5 6 
#
# 1 0.019538 0.000802 -0.006968 0.000001 -0.011385 0.000000
# 2 0.000802 0.045628 -0.009808 0.000002 -0.013771 0.000002
# 3 -0.006968 -0.009808 0.010425 -0.000001 0.011368 0.000000
# 4 0.000001 0.000002 -0.000001 0.028434 -0.000001 -0.003010
# 5 -0.011385 -0.013771 0.011368 -0.000001 0.044237 0.000001
# 6 0.000000 0.000002 0.000000 -0.003010 0.000001 0.057404
#
#
# Mechanical properties :
#
#
# Convention : Reuss Voigt Hill
#
# Bulk Modulus (GPa) = 22.91270 53.56420 38.23845
# Shear Modulus (GPa) = 19.82859 30.28118 25.05488
#
# Velocity S-wave (km/s) = 2.89683 3.57983 3.25629
# Velocity P-wave (km/s) = 4.57008 6.30521 5.50642
#
# Compressibility (1/GPa) = 0.04364393
#
# Stress axis : x y z
#
# Youngs Moduli (GPa) = 51.18186 21.91646 95.92456
#
# Poissons Ratio (x) = -0.01759 0.66843
# Poissons Ratio (y) = -0.04107 0.94079
# Poissons Ratio (z) = 0.35665 0.21495
#
# Static dielectric constant tensor:
#      x y z
#    x 1.931230 0.000000 -0.017040 
#    y 0.000000 1.935810 0.000000 
#    z -0.017040 0.000000 1.982160 
# 
# From -- ./inp_files/23682.got.cif
#   From: 2010.05.17/outbox.cif.g08.bks.cpg/sg9_12_cif.got.tgz:23682.got - 2010.06.03 20:04:27.
