data_PCOD9139055
_publ_section_title
;
Structure prediction by ZEFSAII (Michael W. Deem and Ramdas Pophale) SiO2 
 PCOD9139055
Probable space group: C C
;
_chemical_formula_sum "Si O2"
_cell_formula_units_Z 28
_cell_length_a 11.692764
_cell_length_b 7.020948
_cell_length_c 15.547719
_cell_angle_alpha 90.000000
_cell_angle_beta 84.519308
_cell_angle_gamma 90.000000
_cell_volume 1270.543880
_symmetry_space_group_name_H-M "C C"
_symmetry_group_IT_number 9
_symmetry_cell_setting 'monoclinic'
loop_
_space_group_symop_operation_xyz
x,y,z
x,-y,1/2+z
1/2+x,1/2+y,z
1/2+x,1/2-y,1/2+z
loop_
_atom_site_type_symbol
_atom_site_label
_atom_site_fract_x
_atom_site_fract_y
_atom_site_fract_z
Si Si1 0.602760 0.861161 0.103570
Si Si2 0.358009 0.233122 0.077537
Si Si3 0.570447 0.238200 0.179758
Si Si4 0.868501 0.989873 0.909123
Si Si5 0.941543 0.616522 0.471317
Si Si6 0.130045 0.521609 0.839164
Si Si7 0.560600 0.630530 0.257099
O O1 0.728006 0.780367 0.108587
O O2 0.522584 0.781347 0.186218
O O3 0.615380 0.091508 0.103166
O O4 0.543074 0.792930 0.021614
O O5 0.439810 0.260142 0.154385
O O6 0.390315 0.373142 0.995618
O O7 0.370514 0.019706 0.039364
O O8 0.608862 0.449757 0.201560
O O9 0.603789 0.118558 0.261794
O O10 0.960934 0.940762 0.828213
O O11 0.876619 0.213469 0.930506
O O12 0.740627 0.951326 0.883067
O O13 0.012078 0.485233 0.400822
O O14 0.146707 0.738400 0.806144
#
# Coordination Sequence:
#
# PCOD9139055 Si02
#       7
#     4   4   4   4   4   4   4
#     4  10  24  45  67  99 139 178 230 288 340 411
#     4  11  24  46  72 100 137 184 229 281 353 405
#     4  10  24  44  67  99 141 173 229 280 336 416
#     4  12  25  42  74  99 138 186 229 285 353 398
#     4  11  23  45  67 102 137 174 234 285 335 420
#     4  11  24  44  67 103 140 177 228 289 337 408
#     4  11  24  44  68  98 138 180 227 280 348 408
#
# _framework density 22.037804999999999
#
# number of rings (size 3 to 8) (size 9 to 14) (size 15 to 20)
#    0.000    1.143    4.286    0.857    4.000    3.429 
#    7.714    0.000    0.000    0.000    0.000    0.000 
#    0.000    0.000    0.000    0.000    0.000    0.000 
#
# Total GULP energy -78062.456467 kJ/mol
# GULP energy per Si atom -5575.889748 kJ/mol
# Density = 2.198765 g / cm^3
# Si number density = 22.037805 Si / 1000 Ang^3
#
#
#
# Elastic Constant Matrix: (Units=GPa)
#
#
# Indices 1 2 3 4 5 6 
#
# 1 73.9662 24.8608 18.0470 0.0000 20.6652 0.0000
# 2 24.8608 123.4895 20.0504 0.0000 9.0633 0.0000
# 3 18.0470 20.0504 62.5077 0.0000 14.3727 0.0000
# 4 0.0000 0.0000 0.0000 41.5786 0.0000 3.1290
# 5 20.6652 9.0633 14.3727 0.0000 38.4623 0.0000
# 6 0.0000 0.0000 0.0000 3.1290 0.0000 21.1935
#
#
#
# Elastic Compliance Matrix: (Units=1/GPa)
#
#
# Indices 1 2 3 4 5 6 
#
# 1 0.017087 -0.002491 -0.002361 0.000000 -0.007711 0.000000
# 2 -0.002491 0.008947 -0.002159 0.000000 0.000037 0.000000
# 3 -0.002361 -0.002159 0.018558 0.000000 -0.005157 0.000000
# 4 0.000000 0.000000 0.000000 0.024321 0.000000 -0.003591
# 5 -0.007711 0.000037 -0.005157 0.000000 0.032061 0.000000
# 6 0.000000 0.000000 0.000000 -0.003591 0.000000 0.047714
#
#
# Mechanical properties :
#
#
# Convention : Reuss Voigt Hill
#
# Bulk Modulus (GPa) = 32.71156 42.87553 37.79355
# Shear Modulus (GPa) = 28.91804 33.38056 31.14930
#
# Velocity S-wave (km/s) = 3.62636 3.89613 3.76366
# Velocity P-wave (km/s) = 5.69294 6.30377 6.00612
#
# Compressibility (1/GPa) = 0.03057023
#
# Stress axis : x y z
#
# Youngs Moduli (GPa) = 58.52247 111.76719 53.88430
#
# Poissons Ratio (x) = 0.27837 0.12724
# Poissons Ratio (y) = 0.14576 0.11635
# Poissons Ratio (z) = 0.13819 0.24134
#
# Static dielectric constant tensor:
#      x y z
#    x 1.791360 0.000000 -0.033800 
#    y 0.000000 1.836290 0.000000 
#    z -0.033800 0.000000 1.871960 
# 
# From -- ./inp_files/29666.got.cif
#   From: 2010.05.17/outbox.cif.g08.bks.cpg/sg9_15_cif.got.tgz:29666.got - 2010.06.03 20:04:27.
