data_PCOD9139328
_publ_section_title
;
Structure prediction by ZEFSAII (Michael W. Deem and Ramdas Pophale) SiO2 
 PCOD9139328
Probable space group: C C
;
_chemical_formula_sum "Si O2"
_cell_formula_units_Z 24
_cell_length_a 4.948543
_cell_length_b 15.237616
_cell_length_c 12.473619
_cell_angle_alpha 90.000000
_cell_angle_beta 73.998147
_cell_angle_gamma 90.000000
_cell_volume 904.116629
_symmetry_space_group_name_H-M "C C"
_symmetry_group_IT_number 9
_symmetry_cell_setting 'monoclinic'
loop_
_space_group_symop_operation_xyz
x,y,z
x,-y,1/2+z
1/2+x,1/2+y,z
1/2+x,1/2-y,1/2+z
loop_
_atom_site_type_symbol
_atom_site_label
_atom_site_fract_x
_atom_site_fract_y
_atom_site_fract_z
Si Si1 0.606570 0.022251 0.405690
Si Si2 0.089451 0.937246 0.245950
Si Si3 0.427266 0.302559 0.680817
Si Si4 0.284900 0.654243 0.959261
Si Si5 0.813846 0.670748 0.337232
Si Si6 0.668248 0.110446 0.617164
O O1 0.861157 0.012913 0.293617
O O2 0.562804 0.922882 0.453380
O O3 0.344819 0.924327 0.888806
O O4 0.716677 0.079200 0.492547
O O5 0.042900 0.876861 0.355402
O O6 0.945227 0.891723 0.158822
O O7 0.415563 0.951542 0.190236
O O8 0.370348 0.349347 0.573475
O O9 0.662684 0.331043 0.739761
O O10 0.528412 0.205344 0.637160
O O11 0.135753 0.303836 0.776425
O O12 0.197923 0.750955 0.926632
#
# Coordination Sequence:
#
# PCOD9139328 Si02
#       6
#     4   4   4   4   4   4
#     4  10  26  49  73 113 150 206 250 327 385 467
#     4  10  26  45  71 107 155 195 252 324 373 465
#     4  12  24  45  76 110 148 209 256 316 393 468
#     4  10  24  50  72 113 155 200 262 322 384 473
#     4  12  26  48  75 111 154 203 261 316 394 467
#     4  12  22  47  75 106 152 205 253 315 391 456
#
# _framework density 26.545245000000001
#
# number of rings (size 3 to 8) (size 9 to 14) (size 15 to 20)
#    1.000    0.000    5.000    0.000    2.333    6.667 
#    0.000    0.000    0.000    0.000    0.000    0.000 
#    0.000    0.000    0.000    0.000    0.000    0.000 
#
# Total GULP energy -67204.394016 kJ/mol
# GULP energy per Si atom -5600.366168 kJ/mol
# Density = 2.648483 g / cm^3
# Si number density = 26.545245 Si / 1000 Ang^3
#
#
#
# Elastic Constant Matrix: (Units=GPa)
#
#
# Indices 1 2 3 4 5 6 
#
# 1 154.0685 58.2147 51.5124 0.0000 27.9573 0.0000
# 2 58.2147 165.3202 39.0966 0.0000 28.2949 0.0000
# 3 51.5124 39.0966 110.2129 0.0000 35.1981 0.0000
# 4 0.0000 0.0000 0.0000 47.5592 0.0000 -1.0736
# 5 27.9573 28.2949 35.1981 0.0000 48.2215 0.0000
# 6 0.0000 0.0000 0.0000 -1.0736 0.0000 24.1351
#
#
#
# Elastic Compliance Matrix: (Units=1/GPa)
#
#
# Indices 1 2 3 4 5 6 
#
# 1 0.008479 -0.002052 -0.002673 0.000000 -0.001761 0.000000
# 2 -0.002052 0.007408 -0.000861 0.000000 -0.002528 0.000000
# 3 -0.002673 -0.000861 0.013003 0.000000 -0.007436 0.000000
# 4 0.000000 0.000000 0.000000 0.021048 0.000000 0.000936
# 5 -0.001761 -0.002528 -0.007436 0.000000 0.028670 0.000000
# 6 0.000000 0.000000 0.000000 0.000936 0.000000 0.041475
#
#
# Mechanical properties :
#
#
# Convention : Reuss Voigt Hill
#
# Bulk Modulus (GPa) = 56.44103 80.80546 68.62325
# Shear Modulus (GPa) = 36.45347 42.70168 39.57758
#
# Velocity S-wave (km/s) = 3.70977 4.01513 3.86547
# Velocity P-wave (km/s) = 6.29748 7.21123 6.76979
#
# Compressibility (1/GPa) = 0.01771761
#
# Stress axis : x y z
#
# Youngs Moduli (GPa) = 117.93502 134.98998 76.90577
#
# Poissons Ratio (x) = 0.27705 0.20555
# Poissons Ratio (y) = 0.24205 0.06623
# Poissons Ratio (z) = 0.31521 0.11625
#
# Static dielectric constant tensor:
#      x y z
#    x 1.966710 0.000000 -0.013690 
#    y 0.000000 2.185940 0.000000 
#    z -0.013690 0.000000 2.060890 
# 
# From -- ./inp_files/13021.got.cif
#   From: 2010.05.17/outbox.cif.g08.bks.cpg/sg9_7_cif.got.tgz:13021.got - 2010.06.03 20:04:27.
