data_PCOD9139033
_publ_section_title
;
Structure prediction by ZEFSAII (Michael W. Deem and Ramdas Pophale) SiO2 
 PCOD9139033
Probable space group: C C
;
_chemical_formula_sum "Si O2"
_cell_formula_units_Z 28
_cell_length_a 7.243706
_cell_length_b 24.525833
_cell_length_c 8.790213
_cell_angle_alpha 90.000000
_cell_angle_beta 59.073941
_cell_angle_gamma 90.000000
_cell_volume 1339.633022
_symmetry_space_group_name_H-M "C C"
_symmetry_group_IT_number 9
_symmetry_cell_setting 'monoclinic'
loop_
_space_group_symop_operation_xyz
x,y,z
x,-y,1/2+z
1/2+x,1/2+y,z
1/2+x,1/2-y,1/2+z
loop_
_atom_site_type_symbol
_atom_site_label
_atom_site_fract_x
_atom_site_fract_y
_atom_site_fract_z
Si Si1 0.505180 0.565762 0.248500
Si Si2 0.448502 0.677772 0.139911
Si Si3 0.224192 0.785116 0.279065
Si Si4 0.060830 0.322228 0.562110
Si Si5 0.285140 0.785116 0.922955
Si Si6 0.754669 0.996591 0.101008
Si Si7 0.504158 0.065762 0.953518
O O1 0.446293 0.629456 0.259854
O O2 0.370593 0.534267 0.175841
O O3 0.429709 0.540424 0.439569
O O4 0.754669 0.558657 0.101009
O O5 0.404394 0.738545 0.222285
O O6 0.667402 0.678419 0.947233
O O7 0.254666 0.667239 0.101010
O O8 0.004666 0.750000 0.351010
O O9 0.254667 0.813014 0.101010
O O10 0.104937 0.261455 0.479737
O O11 0.841930 0.321581 0.754787
O O12 0.063042 0.370544 0.442165
O O13 0.638747 0.034268 0.026175
O O14 0.579629 0.959576 0.262449
#
# Coordination Sequence:
#
# PCOD9139033 Si02
#       7
#     4   4   4   4   4   4   4
#     4  11  22  42  64  92 115 160 199 248 305 357
#     4   9  16  33  56  85 120 154 194 239 290 353
#     4   7  13  27  50  80 116 153 189 225 282 353
#     4   9  16  33  56  85 120 154 194 239 290 353
#     4   7  13  27  50  80 116 153 189 225 282 353
#     4  10  24  44  64  82 128 150 200 260 298 352
#     4  11  22  42  64  92 115 160 199 248 305 357
#
# _framework density 20.901247000000001
#
# number of rings (size 3 to 8) (size 9 to 14) (size 15 to 20)
#    0.000    3.429    1.429    0.857    0.000    0.000 
#   15.429    2.857    0.000    0.000    0.000    0.000 
#    0.000    0.000    0.000    0.000    0.000    0.000 
#
# Total GULP energy -78029.509634 kJ/mol
# GULP energy per Si atom -5573.536402 kJ/mol
# Density = 2.085368 g / cm^3
# Si number density = 20.901247 Si / 1000 Ang^3
#
#
#
# Elastic Constant Matrix: (Units=GPa)
#
#
# Indices 1 2 3 4 5 6 
#
# 1 47.8096 4.6836 0.3519 0.0000 -8.0540 0.0000
# 2 4.6836 73.9166 27.5904 0.0000 4.8372 0.0000
# 3 0.3519 27.5904 100.6988 0.0000 -12.1923 0.0000
# 4 0.0000 0.0000 0.0000 -28.7933 0.0000 -30.9935
# 5 -8.0540 4.8372 -12.1923 0.0000 27.0614 0.0000
# 6 0.0000 0.0000 0.0000 -30.9935 0.0000 5.6947
#
#
#
# Elastic Compliance Matrix: (Units=1/GPa)
#
#
# Indices 1 2 3 4 5 6 
#
# 1 0.022473 -0.002520 0.001561 0.000000 0.007842 0.000000
# 2 -0.002520 0.015970 -0.005081 0.000000 -0.005894 0.000000
# 3 0.001561 -0.005081 0.012146 0.000000 0.006845 0.000000
# 4 0.000000 0.000000 0.000000 -0.005064 0.000000 -0.027560
# 5 0.007842 -0.005894 0.006845 0.000000 0.043425 0.000000
# 6 0.000000 0.000000 0.000000 -0.027560 0.000000 0.025604
#
#
# Mechanical properties :
#
#
# Convention : Reuss Voigt Hill
#
# Bulk Modulus (GPa) = 25.96659 31.96412 28.96535
# Shear Modulus (GPa) = 35.85026 13.44583 24.64805
#
# Velocity S-wave (km/s) = 4.14602 2.53909 3.43776
# Velocity P-wave (km/s) = 5.94724 4.89102 5.44481
#
# Compressibility (1/GPa) = 0.03851103
#
# Stress axis : x y z
#
# Youngs Moduli (GPa) = 44.49829 62.61547 82.33204
#
# Poissons Ratio (x) = 0.15779 -0.12856
# Poissons Ratio (y) = 0.11214 0.41829
# Poissons Ratio (z) = -0.06948 0.31812
#
# Static dielectric constant tensor:
#      x y z
#    x 1.800640 0.000000 0.010550 
#    y 0.000000 1.770510 0.000000 
#    z 0.010550 0.000000 1.806760 
# 
# From -- ./inp_files/6219.got.cif
#   From: 2010.05.17/outbox.cif.g08.bks.cpg/sg9_4_cif.got.tgz:6219.got - 2010.06.03 20:04:27.
