data_PCOD9139315
_publ_section_title
;
Structure prediction by ZEFSAII (Michael W. Deem and Ramdas Pophale) SiO2 
 PCOD9139315
Probable space group: C C
;
_chemical_formula_sum "Si O2"
_cell_formula_units_Z 28
_cell_length_a 5.018775
_cell_length_b 13.927312
_cell_length_c 16.192670
_cell_angle_alpha 90.000000
_cell_angle_beta 109.449252
_cell_angle_gamma 90.000000
_cell_volume 1067.249776
_symmetry_space_group_name_H-M "C C"
_symmetry_group_IT_number 9
_symmetry_cell_setting 'monoclinic'
loop_
_space_group_symop_operation_xyz
x,y,z
x,-y,1/2+z
1/2+x,1/2+y,z
1/2+x,1/2-y,1/2+z
loop_
_atom_site_type_symbol
_atom_site_label
_atom_site_fract_x
_atom_site_fract_y
_atom_site_fract_z
Si Si1 0.226580 0.021925 0.990300
Si Si2 0.775194 0.128675 0.241793
Si Si3 0.912765 0.070793 0.807576
Si Si4 0.727842 0.888606 0.993672
Si Si5 0.927528 0.172331 0.075510
Si Si6 0.386241 0.299381 0.164786
Si Si7 0.739172 0.748004 0.389405
O O1 0.188586 0.057327 0.892402
O O2 0.511164 0.959503 0.020818
O O3 0.160090 0.107005 0.049108
O O4 0.949976 0.954842 0.970483
O O5 0.839806 0.118251 0.150042
O O6 0.015470 0.177952 0.323447
O O7 0.526860 0.205407 0.216462
O O8 0.730561 0.024338 0.275370
O O9 0.986116 0.110089 0.725626
O O10 0.754358 0.159144 0.833483
O O11 0.527616 0.815221 0.923711
O O12 0.922476 0.825582 0.073864
O O13 0.058488 0.269496 0.127848
O O14 0.719204 0.206555 0.980183
#
# Coordination Sequence:
#
# PCOD9139315 Si02
#       7
#     4   4   4   4   4   4   4
#     4  11  26  47  80 111 154 207 267 317 405 466
#     4  12  25  49  78 111 156 208 261 331 395 470
#     4  11  25  46  71 119 145 209 256 327 392 473
#     4  11  26  50  77 113 155 209 259 330 386 476
#     4  10  25  48  72 112 157 204 263 327 388 474
#     4  11  27  45  76 110 158 202 267 321 394 465
#     4  10  24  49  74 112 153 201 261 325 394 468
#
# _framework density 26.235655000000001
#
# number of rings (size 3 to 8) (size 9 to 14) (size 15 to 20)
#    0.000    1.143    2.857    0.857   10.000    2.286 
#    5.143    0.000    0.000    0.000    0.000    0.000 
#    0.000    0.000    0.000    0.000    0.000    0.000 
#
# Total GULP energy -78286.180590 kJ/mol
# GULP energy per Si atom -5591.870042 kJ/mol
# Density = 2.617594 g / cm^3
# Si number density = 26.235655 Si / 1000 Ang^3
#
#
#
# Elastic Constant Matrix: (Units=GPa)
#
#
# Indices 1 2 3 4 5 6 
#
# 1 88.8470 31.3966 44.0060 0.0000 7.0484 0.0000
# 2 31.3966 154.2125 57.0757 0.0000 12.0056 0.0000
# 3 44.0060 57.0757 160.7116 0.0000 11.3136 0.0000
# 4 0.0000 0.0000 0.0000 60.7313 0.0000 1.7429
# 5 7.0484 12.0056 11.3136 0.0000 28.2052 0.0000
# 6 0.0000 0.0000 0.0000 1.7429 0.0000 23.4859
#
#
#
# Elastic Compliance Matrix: (Units=1/GPa)
#
#
# Indices 1 2 3 4 5 6 
#
# 1 0.013404 -0.001489 -0.003036 0.000000 -0.001498 0.000000
# 2 -0.001489 0.007763 -0.002205 0.000000 -0.002048 0.000000
# 3 -0.003036 -0.002205 0.007942 0.000000 -0.001488 0.000000
# 4 0.000000 0.000000 0.000000 0.016501 0.000000 -0.001225
# 5 -0.001498 -0.002048 -0.001488 0.000000 0.037297 0.000000
# 6 0.000000 0.000000 0.000000 -0.001225 0.000000 0.042670
#
#
# Mechanical properties :
#
#
# Convention : Reuss Voigt Hill
#
# Bulk Modulus (GPa) = 63.90273 74.30308 69.10291
# Shear Modulus (GPa) = 34.66120 40.57064 37.61592
#
# Velocity S-wave (km/s) = 3.63870 3.93669 3.79062
# Velocity P-wave (km/s) = 6.48565 7.00330 6.74944
#
# Compressibility (1/GPa) = 0.01564878
#
# Stress axis : x y z
#
# Youngs Moduli (GPa) = 74.60453 128.81176 125.91852
#
# Poissons Ratio (x) = 0.19175 0.38231
# Poissons Ratio (y) = 0.11106 0.27769
# Poissons Ratio (z) = 0.22651 0.28407
#
# Static dielectric constant tensor:
#      x y z
#    x 2.141990 0.000000 -0.067580 
#    y 0.000000 2.093230 0.000000 
#    z -0.067580 0.000000 2.047690 
# 
# From -- ./inp_files/28567.got.cif
#   From: 2010.05.17/outbox.cif.g08.bks.cpg/sg9_15_cif.got.tgz:28567.got - 2010.06.03 20:04:27.
