data_PCOD9139812
_publ_section_title
;
Structure prediction by ZEFSAII (Michael W. Deem and Ramdas Pophale) SiO2 
 PCOD9139812
Probable space group: C C
;
_chemical_formula_sum "Si O2"
_cell_formula_units_Z 32
_cell_length_a 28.849916
_cell_length_b 7.874282
_cell_length_c 9.001804
_cell_angle_alpha 90.000000
_cell_angle_beta 39.377863
_cell_angle_gamma 90.000000
_cell_volume 1297.388631
_symmetry_space_group_name_H-M "C C"
_symmetry_group_IT_number 9
_symmetry_cell_setting 'monoclinic'
loop_
_space_group_symop_operation_xyz
x,y,z
x,-y,1/2+z
1/2+x,1/2+y,z
1/2+x,1/2-y,1/2+z
loop_
_atom_site_type_symbol
_atom_site_label
_atom_site_fract_x
_atom_site_fract_y
_atom_site_fract_z
Si Si1 0.497540 0.570673 0.515710
Si Si2 0.560123 0.938327 0.847306
Si Si3 0.657447 0.509424 0.244210
Si Si4 0.689135 0.716424 0.420059
Si Si5 0.886616 0.441314 0.238276
Si Si6 0.588873 0.218274 0.583661
Si Si7 0.838964 0.748802 0.160642
Si Si8 0.409445 0.378568 0.520741
O O1 0.573495 0.543864 0.412022
O O2 0.520624 0.674127 0.312177
O O3 0.463829 0.401206 0.528766
O O4 0.446235 0.648897 0.768942
O O5 0.609104 0.791549 0.649760
O O6 0.605508 0.103646 0.684037
O O7 0.475547 0.963097 0.012930
O O8 0.564979 0.903776 0.009572
O O9 0.693410 0.662888 0.240462
O O10 0.650012 0.341311 0.365909
O O11 0.694948 0.455928 0.001257
O O12 0.757606 0.811851 0.316296
O O13 0.850024 0.617892 0.271848
O O14 0.866209 0.363735 0.450904
O O15 0.866292 0.289727 0.173085
O O16 0.876294 0.931548 0.096422
#
# Coordination Sequence:
#
# PCOD9139812 Si02
#       8
#     4   4   4   4   4   4   4   4
#     4  12  21  42  73 108 136 180 238 300 360 426
#     4  11  25  45  69 112 141 180 244 303 356 428
#     4  11  21  42  73 101 136 189 236 290 361 424
#     4  11  25  47  68 102 149 188 241 295 361 441
#     4  12  26  47  75 105 143 192 245 304 361 433
#     4  11  24  39  67 111 142 174 229 305 360 421
#     4  12  29  50  70 107 150 196 244 296 375 439
#     4  12  25  44  71 106 147 187 241 295 368 436
#
# _framework density 24.664930999999999
#
# number of rings (size 3 to 8) (size 9 to 14) (size 15 to 20)
#    0.000    0.500    3.750    5.250    7.000    0.000 
#    6.750    0.000    0.000    0.000    0.000    0.000 
#    0.000    0.000    0.000    0.000    0.000    0.000 
#
# Total GULP energy -89341.127584 kJ/mol
# GULP energy per Si atom -5583.820474 kJ/mol
# Density = 2.460879 g / cm^3
# Si number density = 24.664931 Si / 1000 Ang^3
#
#
#
# Elastic Constant Matrix: (Units=GPa)
#
#
# Indices 1 2 3 4 5 6 
#
# 1 73.5552 23.4052 12.4983 0.0000 -12.0265 0.0000
# 2 23.4052 82.8581 0.2237 0.0000 3.8100 0.0000
# 3 12.4983 0.2237 41.3443 0.0000 9.5648 0.0000
# 4 0.0000 0.0000 0.0000 31.4747 0.0000 19.7660
# 5 -12.0265 3.8100 9.5648 0.0000 43.1275 0.0000
# 6 0.0000 0.0000 0.0000 19.7660 0.0000 30.1597
#
#
#
# Elastic Compliance Matrix: (Units=1/GPa)
#
#
# Indices 1 2 3 4 5 6 
#
# 1 0.017563 -0.005259 -0.006874 0.000000 0.006887 0.000000
# 2 -0.005259 0.013694 0.002250 0.000000 -0.003175 0.000000
# 3 -0.006874 0.002250 0.028189 0.000000 -0.008367 0.000000
# 4 0.000000 0.000000 0.000000 0.053994 0.000000 -0.035386
# 5 0.006887 -0.003175 -0.008367 0.000000 0.027244 0.000000
# 6 0.000000 0.000000 0.000000 -0.035386 0.000000 0.056348
#
#
# Mechanical properties :
#
#
# Convention : Reuss Voigt Hill
#
# Bulk Modulus (GPa) = 25.20140 30.00134 27.60137
# Shear Modulus (GPa) = 21.73689 31.72773 26.73231
#
# Velocity S-wave (km/s) = 2.97187 3.59046 3.29571
# Velocity P-wave (km/s) = 4.69209 5.42020 5.06923
#
# Compressibility (1/GPa) = 0.03968033
#
# Stress axis : x y z
#
# Youngs Moduli (GPa) = 56.93905 73.02299 35.47526
#
# Poissons Ratio (x) = 0.38403 0.24385
# Poissons Ratio (y) = 0.29945 -0.07983
# Poissons Ratio (z) = 0.39139 -0.16432
#
# Static dielectric constant tensor:
#      x y z
#    x 2.035000 0.000000 -0.049160 
#    y 0.000000 2.071050 0.000000 
#    z -0.049160 0.000000 1.969910 
# 
# From -- ./inp_files/12697.got.cif
#   From: 2010.05.17/outbox.cif.g08.bks.cpg/sg9_7_cif.got.tgz:12697.got - 2010.06.03 20:04:27.
