data_PCOD9139981
_publ_section_title
;
Structure prediction by ZEFSAII (Michael W. Deem and Ramdas Pophale) SiO2 
 PCOD9139981
Probable space group: C C
;
_chemical_formula_sum "Si O2"
_cell_formula_units_Z 32
_cell_length_a 14.353741
_cell_length_b 11.042404
_cell_length_c 14.464848
_cell_angle_alpha 90.000000
_cell_angle_beta 39.052625
_cell_angle_gamma 90.000000
_cell_volume 1444.463402
_symmetry_space_group_name_H-M "C C"
_symmetry_group_IT_number 9
_symmetry_cell_setting 'monoclinic'
loop_
_space_group_symop_operation_xyz
x,y,z
x,-y,1/2+z
1/2+x,1/2+y,z
1/2+x,1/2-y,1/2+z
loop_
_atom_site_type_symbol
_atom_site_label
_atom_site_fract_x
_atom_site_fract_y
_atom_site_fract_z
Si Si1 0.724540 0.347379 0.901680
Si Si2 0.068397 0.256282 0.064621
Si Si3 0.868853 0.155801 0.666333
Si Si4 0.288680 0.900930 0.286646
Si Si5 0.746576 0.177511 0.065739
Si Si6 0.432929 0.468291 0.756884
Si Si7 0.079925 0.120999 0.791967
Si Si8 0.726810 0.907542 0.080392
O O1 0.810154 0.281926 0.751679
O O2 0.786795 0.484921 0.857837
O O3 0.547293 0.346672 0.021641
O O4 0.751716 0.261810 0.970381
O O5 0.115095 0.307642 0.129005
O O6 0.947040 0.355009 0.127404
O O7 0.993429 0.127992 0.139691
O O8 0.205869 0.216971 0.894643
O O9 0.792303 0.121026 0.629583
O O10 0.831741 0.057702 0.774955
O O11 0.183860 0.945166 0.284169
O O12 0.661097 0.254230 0.206964
O O13 0.670589 0.046124 0.115861
O O14 0.916908 0.146178 0.957387
O O15 0.554761 0.549618 0.715701
O O16 0.351774 0.406140 0.904768
#
# Coordination Sequence:
#
# PCOD9139981 Si02
#       8
#     4   4   4   4   4   4   4   4
#     4  12  24  46  70 107 139 189 235 298 349 425
#     4  12  26  46  66 102 141 187 229 304 344 427
#     4  12  26  45  77 101 146 189 238 290 362 423
#     4  12  27  43  74 100 144 184 245 286 364 417
#     4  11  22  44  69  99 138 177 230 288 349 416
#     4  11  23  47  68  97 144 183 225 293 354 418
#     4  11  23  42  70  98 135 183 227 285 351 419
#     4  11  27  43  74 100 143 186 237 284 363 419
#
# _framework density 22.153555000000001
#
# number of rings (size 3 to 8) (size 9 to 14) (size 15 to 20)
#    0.000    0.500    6.250    2.250    8.750    0.000 
#    0.000    1.250    0.000    0.000    0.000    0.000 
#    0.000    0.000    0.000    0.000    0.000    0.000 
#
# Total GULP energy -89348.272268 kJ/mol
# GULP energy per Si atom -5584.267017 kJ/mol
# Density = 2.210313 g / cm^3
# Si number density = 22.153555 Si / 1000 Ang^3
#
#
#
# Elastic Constant Matrix: (Units=GPa)
#
#
# Indices 1 2 3 4 5 6 
#
# 1 109.2689 12.1701 -5.1520 0.0000 10.2081 0.0000
# 2 12.1701 92.2376 22.2045 0.0000 -6.4568 0.0000
# 3 -5.1520 22.2045 54.9165 0.0000 0.7412 0.0000
# 4 0.0000 0.0000 0.0000 41.0143 0.0000 6.8951
# 5 10.2081 -6.4568 0.7412 0.0000 28.8400 0.0000
# 6 0.0000 0.0000 0.0000 6.8951 0.0000 21.2595
#
#
#
# Elastic Compliance Matrix: (Units=1/GPa)
#
#
# Indices 1 2 3 4 5 6 
#
# 1 0.009831 -0.002005 0.001787 0.000000 -0.003975 0.000000
# 2 -0.002005 0.012653 -0.005354 0.000000 0.003680 0.000000
# 3 0.001787 -0.005354 0.020574 0.000000 -0.002360 0.000000
# 4 0.000000 0.000000 0.000000 0.025788 0.000000 -0.008364
# 5 -0.003975 0.003680 -0.002360 0.000000 0.036965 0.000000
# 6 0.000000 0.000000 0.000000 -0.008364 0.000000 0.049750
#
#
# Mechanical properties :
#
#
# Convention : Reuss Voigt Hill
#
# Bulk Modulus (GPa) = 31.33599 34.98535 33.16067
# Shear Modulus (GPa) = 28.19402 33.36945 30.78173
#
# Velocity S-wave (km/s) = 3.57131 3.88529 3.73161
# Velocity P-wave (km/s) = 5.58402 5.99615 5.79375
#
# Compressibility (1/GPa) = 0.03191219
#
# Stress axis : x y z
#
# Youngs Moduli (GPa) = 101.72266 79.03527 48.60597
#
# Poissons Ratio (x) = 0.15850 -0.08685
# Poissons Ratio (y) = 0.20400 0.26022
# Poissons Ratio (z) = -0.18176 0.42313
#
# Static dielectric constant tensor:
#      x y z
#    x 1.851620 0.000000 -0.020300 
#    y 0.000000 1.826280 0.000000 
#    z -0.020300 0.000000 1.836320 
# 
# From -- ./inp_files/25904.got.cif
#   From: 2010.05.17/outbox.cif.g08.bks.cpg/sg9_13_cif.got.tgz:25904.got - 2010.06.03 20:04:27.
