data_PCOD9139788
_publ_section_title
;
Structure prediction by ZEFSAII (Michael W. Deem and Ramdas Pophale) SiO2 
 PCOD9139788
Probable space group: C C
;
_chemical_formula_sum "Si O2"
_cell_formula_units_Z 32
_cell_length_a 9.496778
_cell_length_b 15.853953
_cell_length_c 9.508560
_cell_angle_alpha 90.000000
_cell_angle_beta 76.152071
_cell_angle_gamma 90.000000
_cell_volume 1390.011819
_symmetry_space_group_name_H-M "C C"
_symmetry_group_IT_number 9
_symmetry_cell_setting 'monoclinic'
loop_
_space_group_symop_operation_xyz
x,y,z
x,-y,1/2+z
1/2+x,1/2+y,z
1/2+x,1/2-y,1/2+z
loop_
_atom_site_type_symbol
_atom_site_label
_atom_site_fract_x
_atom_site_fract_y
_atom_site_fract_z
Si Si1 0.440390 0.474544 0.269250
Si Si2 0.381367 0.115562 0.062785
Si Si3 0.830808 0.208471 0.079518
Si Si4 0.576241 0.413478 0.497737
Si Si5 0.713472 0.299221 0.841752
Si Si6 0.173619 0.534318 0.047537
Si Si7 0.753315 0.865471 0.150847
Si Si8 0.902673 0.780907 0.879894
O O1 0.564905 0.461015 0.353033
O O2 0.480654 0.541489 0.141725
O O3 0.296090 0.486292 0.400041
O O4 0.404776 0.390546 0.188813
O O5 0.512327 0.050459 0.031993
O O6 0.429535 0.199302 0.968947
O O7 0.237070 0.088858 0.015690
O O8 0.328781 0.144130 0.230443
O O9 0.855020 0.238030 0.233113
O O10 0.990841 0.174646 0.995321
O O11 0.766268 0.275445 0.984852
O O12 0.727116 0.125211 0.095615
O O13 0.698158 0.210690 0.758722
O O14 0.551092 0.334427 0.859843
O O15 0.173345 0.545222 0.652854
O O16 0.776587 0.830194 0.990263
#
# Coordination Sequence:
#
# PCOD9139788 Si02
#       8
#     4   4   4   4   4   4   4   4
#     4  11  21  41  69  93 130 180 234 271 352 429
#     4  11  25  45  67 100 144 174 234 307 339 413
#     4  11  21  40  72  95 137 182 231 278 355 431
#     4  11  23  41  66 100 133 182 225 291 351 413
#     4  11  23  43  69 102 138 180 234 291 350 422
#     4  11  23  42  70  99 135 182 236 292 349 417
#     4  11  22  40  72  95 129 191 233 277 351 424
#     4  11  24  42  69  98 140 185 229 285 353 425
#
# _framework density 23.021387000000001
#
# number of rings (size 3 to 8) (size 9 to 14) (size 15 to 20)
#    0.000    1.000    7.500    0.750    0.000    2.000 
#    4.500    0.000    0.000    0.000    0.000    0.000 
#    0.000    0.000    0.000    0.000    0.000    0.000 
#
# Total GULP energy -89381.537395 kJ/mol
# GULP energy per Si atom -5586.346087 kJ/mol
# Density = 2.296899 g / cm^3
# Si number density = 23.021387 Si / 1000 Ang^3
#
#
#
# Elastic Constant Matrix: (Units=GPa)
#
#
# Indices 1 2 3 4 5 6 
#
# 1 103.7382 -6.7608 11.0919 0.0000 15.2023 0.0000
# 2 -6.7608 26.2642 -4.1700 0.0000 5.5897 0.0000
# 3 11.0919 -4.1700 116.0029 0.0000 29.0747 0.0000
# 4 0.0000 0.0000 0.0000 20.7785 0.0000 10.4420
# 5 15.2023 5.5897 29.0747 0.0000 37.0414 0.0000
# 6 0.0000 0.0000 0.0000 10.4420 0.0000 26.2089
#
#
#
# Elastic Compliance Matrix: (Units=1/GPa)
#
#
# Indices 1 2 3 4 5 6 
#
# 1 0.010626 0.003939 0.000458 0.000000 -0.005315 0.000000
# 2 0.003939 0.042053 0.003898 0.000000 -0.011022 0.000000
# 3 0.000458 0.003898 0.011094 0.000000 -0.009484 0.000000
# 4 0.000000 0.000000 0.000000 0.060175 0.000000 -0.023974
# 5 -0.005315 -0.011022 -0.009484 0.000000 0.038285 0.000000
# 6 0.000000 0.000000 0.000000 -0.023974 0.000000 0.047707
#
#
# Mechanical properties :
#
#
# Convention : Reuss Voigt Hill
#
# Bulk Modulus (GPa) = 12.44365 27.36972 19.90668
# Shear Modulus (GPa) = 22.71293 33.19538 27.95416
#
# Velocity S-wave (km/s) = 3.14443 3.80140 3.48842
# Velocity P-wave (km/s) = 4.31280 5.58410 4.98911
#
# Compressibility (1/GPa) = 0.08036227
#
# Stress axis : x y z
#
# Youngs Moduli (GPa) = 94.10609 23.77935 90.14022
#
# Poissons Ratio (x) = -0.09367 -0.04125
# Poissons Ratio (y) = -0.37070 -0.35133
# Poissons Ratio (z) = -0.04307 -0.09268
#
# Static dielectric constant tensor:
#      x y z
#    x 1.902650 0.000000 -0.031320 
#    y 0.000000 1.920120 0.000000 
#    z -0.031320 0.000000 1.876960 
# 
# From -- ./inp_files/5604.got.cif
#   From: 2010.05.17/outbox.cif.g08.bks.cpg/sg9_3_cif.got.tgz:5604.got - 2010.06.03 20:04:27.
