data_PCOD9139028
_publ_section_title
;
Structure prediction by ZEFSAII (Michael W. Deem and Ramdas Pophale) SiO2 
 PCOD9139028
Probable space group: C C
;
_chemical_formula_sum "Si O2"
_cell_formula_units_Z 28
_cell_length_a 19.761469
_cell_length_b 7.374911
_cell_length_c 11.303520
_cell_angle_alpha 90.000000
_cell_angle_beta 134.604835
_cell_angle_gamma 90.000000
_cell_volume 1172.868853
_symmetry_space_group_name_H-M "C C"
_symmetry_group_IT_number 9
_symmetry_cell_setting 'monoclinic'
loop_
_space_group_symop_operation_xyz
x,y,z
x,-y,1/2+z
1/2+x,1/2+y,z
1/2+x,1/2-y,1/2+z
loop_
_atom_site_type_symbol
_atom_site_label
_atom_site_fract_x
_atom_site_fract_y
_atom_site_fract_z
Si Si1 0.965350 0.266449 0.666290
Si Si2 0.125099 0.910770 0.218402
Si Si3 0.800784 0.365457 0.281554
Si Si4 0.842559 0.772874 0.390609
Si Si5 0.003776 0.650808 0.771718
Si Si6 0.956847 0.988373 0.861368
Si Si7 0.710502 0.749627 0.441241
O O1 0.884228 0.298080 0.469648
O O2 0.947942 0.095571 0.727918
O O3 0.061969 0.228297 0.714189
O O4 0.975032 0.444022 0.758546
O O5 0.202267 0.826004 0.227684
O O6 0.180201 0.043933 0.373739
O O7 0.052649 0.033871 0.052711
O O8 0.811039 0.585334 0.287688
O O9 0.787798 0.270753 0.139531
O O10 0.872725 0.932387 0.339518
O O11 0.761003 0.824674 0.385392
O O12 0.935075 0.717576 0.581467
O O13 0.113510 0.659012 0.866095
O O14 0.982728 0.783113 0.854975
#
# Coordination Sequence:
#
# PCOD9139028 Si02
#       7
#     4   4   4   4   4   4   4
#     4  11  26  46  77 109 147 205 259 312 389 454
#     4  11  22  47  75 106 148 207 251 314 398 454
#     4  10  24  43  76 108 152 203 252 321 384 460
#     4  10  25  41  72 111 146 199 251 308 392 452
#     4  11  24  48  73 107 149 195 256 314 383 458
#     4  12  23  48  77 105 153 200 252 323 379 462
#     4  11  22  47  72 110 157 197 255 322 381 460
#
# _framework density 23.873085
#
# number of rings (size 3 to 8) (size 9 to 14) (size 15 to 20)
#    0.000    1.143    4.286    0.000    8.000    1.143 
#    5.143    0.000    6.286    0.000    0.000    0.000 
#    0.000    0.000    0.000    0.000    0.000    0.000 
#
# Total GULP energy -78357.088931 kJ/mol
# GULP energy per Si atom -5596.934924 kJ/mol
# Density = 2.381875 g / cm^3
# Si number density = 23.873085 Si / 1000 Ang^3
#
#
#
# Elastic Constant Matrix: (Units=GPa)
#
#
# Indices 1 2 3 4 5 6 
#
# 1 171.3197 48.2187 35.4118 0.0000 21.4661 0.0000
# 2 48.2187 98.3740 24.7300 0.0000 -6.3538 0.0000
# 3 35.4118 24.7300 76.7521 0.0000 5.2642 0.0000
# 4 0.0000 0.0000 0.0000 42.0894 0.0000 -2.3251
# 5 21.4661 -6.3538 5.2642 0.0000 38.5683 0.0000
# 6 0.0000 0.0000 0.0000 -2.3251 0.0000 39.7350
#
#
#
# Elastic Compliance Matrix: (Units=1/GPa)
#
#
# Indices 1 2 3 4 5 6 
#
# 1 0.007892 -0.003631 -0.002149 0.000000 -0.004697 0.000000
# 2 -0.003631 0.012944 -0.002806 0.000000 0.004537 0.000000
# 3 -0.002149 -0.002806 0.015015 0.000000 -0.001316 0.000000
# 4 0.000000 0.000000 0.000000 0.023836 0.000000 0.001395
# 5 -0.004697 0.004537 -0.001316 0.000000 0.029469 0.000000
# 6 0.000000 0.000000 0.000000 0.001395 0.000000 0.025248
#
#
# Mechanical properties :
#
#
# Convention : Reuss Voigt Hill
#
# Bulk Modulus (GPa) = 53.54092 62.57410 58.05751
# Shear Modulus (GPa) = 36.28366 39.95089 38.11727
#
# Velocity S-wave (km/s) = 3.90276 4.09524 4.00016
# Velocity P-wave (km/s) = 6.54101 6.97348 6.76070
#
# Compressibility (1/GPa) = 0.01867730
#
# Stress axis : x y z
#
# Youngs Moduli (GPa) = 126.71271 77.25748 66.60080
#
# Poissons Ratio (x) = 0.28056 0.14312
# Poissons Ratio (y) = 0.46015 0.18690
# Poissons Ratio (z) = 0.27229 0.21680
#
# Static dielectric constant tensor:
#      x y z
#    x 1.919230 0.000000 -0.006490 
#    y 0.000000 1.910900 0.000000 
#    z -0.006490 0.000000 1.879680 
# 
# From -- ./inp_files/20078.got.cif
#   From: 2010.05.17/outbox.cif.g08.bks.cpg/sg9_11_cif.got.tgz:20078.got - 2010.06.03 20:04:27.
