data_PCOD9139500
_publ_section_title
;
Structure prediction by ZEFSAII (Michael W. Deem and Ramdas Pophale) SiO2 
 PCOD9139500
Probable space group: C C
;
_chemical_formula_sum "Si O2"
_cell_formula_units_Z 28
_cell_length_a 17.368866
_cell_length_b 11.088384
_cell_length_c 10.998431
_cell_angle_alpha 90.000000
_cell_angle_beta 31.092856
_cell_angle_gamma 90.000000
_cell_volume 1093.903538
_symmetry_space_group_name_H-M "C C"
_symmetry_group_IT_number 9
_symmetry_cell_setting 'monoclinic'
loop_
_space_group_symop_operation_xyz
x,y,z
x,-y,1/2+z
1/2+x,1/2+y,z
1/2+x,1/2-y,1/2+z
loop_
_atom_site_type_symbol
_atom_site_label
_atom_site_fract_x
_atom_site_fract_y
_atom_site_fract_z
Si Si1 0.525420 0.282287 0.100070
Si Si2 0.014670 0.143678 0.351923
Si Si3 0.035527 0.484670 0.473496
Si Si4 0.331603 0.824897 0.041195
Si Si5 0.014053 0.260301 0.026913
Si Si6 0.728317 0.450107 0.960737
Si Si7 0.753031 0.852924 0.031763
O O1 0.377849 0.278764 0.381367
O O2 0.509264 0.367043 0.004386
O O3 0.551124 0.145006 0.019743
O O4 0.659554 0.329152 0.000319
O O5 0.853439 0.170595 0.516338
O O6 0.128877 0.252431 0.175044
O O7 0.088399 0.034132 0.179209
O O8 0.054650 0.606683 0.526157
O O9 0.855966 0.487937 0.692937
O O10 0.153407 0.469928 0.203199
O O11 0.457925 0.803554 0.970357
O O12 0.168486 0.808203 0.315629
O O13 0.312382 0.938137 0.976641
O O14 0.882786 0.176434 0.257613
#
# Coordination Sequence:
#
# PCOD9139500 Si02
#       7
#     4   4   4   4   4   4   4
#     4  10  25  47  71 107 151 196 260 312 387 474
#     4  11  26  45  81 110 153 207 259 328 397 476
#     4  10  26  45  77 107 150 205 254 322 396 464
#     4  11  26  46  73 107 155 200 254 323 388 473
#     4  12  25  50  72 112 157 199 257 324 394 466
#     4  11  24  49  74 109 151 208 253 326 400 464
#     4  11  26  46  74 118 149 199 265 323 388 475
#
# _framework density 25.596406999999999
#
# number of rings (size 3 to 8) (size 9 to 14) (size 15 to 20)
#    0.000    1.143    2.857    0.857   16.000    0.000 
#    5.143    1.429    0.000    0.000    0.000    0.000 
#    0.000    0.000    0.000    0.000    0.000    0.000 
#
# Total GULP energy -78089.991516 kJ/mol
# GULP energy per Si atom -5577.856537 kJ/mol
# Density = 2.553815 g / cm^3
# Si number density = 25.596407 Si / 1000 Ang^3
#
#
#
# Elastic Constant Matrix: (Units=GPa)
#
#
# Indices 1 2 3 4 5 6 
#
# 1 97.7179 8.5091 -11.8182 0.0000 -1.3779 0.0000
# 2 8.5091 75.9440 31.7871 0.0000 6.4304 0.0000
# 3 -11.8182 31.7871 142.6627 0.0000 -0.2037 0.0000
# 4 0.0000 0.0000 0.0000 51.4344 0.0000 1.3032
# 5 -1.3779 6.4304 -0.2037 0.0000 38.6154 0.0000
# 6 0.0000 0.0000 0.0000 1.3032 0.0000 4.7013
#
#
#
# Elastic Compliance Matrix: (Units=1/GPa)
#
#
# Indices 1 2 3 4 5 6 
#
# 1 0.010551 -0.001771 0.001270 0.000000 0.000678 0.000000
# 2 -0.001771 0.015052 -0.003504 0.000000 -0.002588 0.000000
# 3 0.001270 -0.003504 0.007896 0.000000 0.000670 0.000000
# 4 0.000000 0.000000 0.000000 0.019580 0.000000 -0.005427
# 5 0.000678 -0.002588 0.000670 0.000000 0.026355 0.000000
# 6 0.000000 0.000000 0.000000 -0.005427 0.000000 0.214210
#
#
# Mechanical properties :
#
#
# Convention : Reuss Voigt Hill
#
# Bulk Modulus (GPa) = 39.23398 41.47561 40.35480
# Shear Modulus (GPa) = 16.12116 38.14001 27.13058
#
# Velocity S-wave (km/s) = 2.51235 3.86431 3.25920
# Velocity P-wave (km/s) = 4.87617 6.01243 5.47387
#
# Compressibility (1/GPa) = 0.02548811
#
# Stress axis : x y z
#
# Youngs Moduli (GPa) = 94.77894 66.43694 126.63935
#
# Poissons Ratio (x) = 0.11766 -0.16078
# Poissons Ratio (y) = 0.16785 0.44376
# Poissons Ratio (z) = -0.12033 0.23281
#
# Static dielectric constant tensor:
#      x y z
#    x 2.054440 0.000000 0.111520 
#    y 0.000000 2.149280 0.000000 
#    z 0.111520 0.000000 2.070140 
# 
# From -- ./inp_files/16360.got.cif
#   From: 2010.05.17/outbox.cif.g08.bks.cpg/sg9_9_cif.got.tgz:16360.got - 2010.06.03 20:04:27.
