data_PCOD9139881
_publ_section_title
;
Structure prediction by ZEFSAII (Michael W. Deem and Ramdas Pophale) SiO2 
 PCOD9139881
Probable space group: C C
;
_chemical_formula_sum "Si O2"
_cell_formula_units_Z 32
_cell_length_a 22.233850
_cell_length_b 6.510116
_cell_length_c 10.479246
_cell_angle_alpha 90.000000
_cell_angle_beta 99.550819
_cell_angle_gamma 90.000000
_cell_volume 1495.792980
_symmetry_space_group_name_H-M "C C"
_symmetry_group_IT_number 9
_symmetry_cell_setting 'monoclinic'
loop_
_space_group_symop_operation_xyz
x,y,z
x,-y,1/2+z
1/2+x,1/2+y,z
1/2+x,1/2-y,1/2+z
loop_
_atom_site_type_symbol
_atom_site_label
_atom_site_fract_x
_atom_site_fract_y
_atom_site_fract_z
Si Si1 0.692960 0.088668 0.307640
Si Si2 0.528665 0.911687 0.014957
Si Si3 0.303622 0.516715 0.002140
Si Si4 0.213381 0.832873 0.080088
Si Si5 0.384373 0.862046 0.964768
Si Si6 0.081369 0.670648 0.802827
Si Si7 0.607533 0.424816 0.410160
Si Si8 0.820455 0.620847 0.169300
O O1 0.762110 0.097534 0.382656
O O2 0.694297 0.143439 0.161314
O O3 0.652621 0.264903 0.358734
O O4 0.653074 0.886926 0.318344
O O5 0.550238 0.933767 0.169030
O O6 0.456205 0.898129 0.983946
O O7 0.559442 0.702541 0.974300
O O8 0.553571 0.081685 0.924191
O O9 0.261327 0.718638 0.005999
O O10 0.311143 0.356856 0.120664
O O11 0.367123 0.623593 0.989219
O O12 0.254921 0.008994 0.159382
O O13 0.152826 0.938683 0.010345
O O14 0.354659 0.901860 0.815590
O O15 0.357345 0.991556 0.567347
O O16 0.075892 0.915948 0.802882
#
# Coordination Sequence:
#
# PCOD9139881 Si02
#       8
#     4   4   4   4   4   4   4   4
#     4  11  22  37  63  96 131 166 209 262 334 392
#     4  11  26  45  67  96 131 179 228 268 323 389
#     4  11  23  39  64  98 130 169 210 268 330 389
#     4  11  22  37  63  96 131 166 209 262 334 392
#     4  11  26  45  67  96 131 179 228 268 323 389
#     4  11  24  43  68  97 134 173 218 278 327 386
#     4  11  23  39  64  98 130 169 210 268 330 389
#     4  11  24  43  68  97 134 173 218 278 327 386
#
# _framework density 21.393333999999999
#
# number of rings (size 3 to 8) (size 9 to 14) (size 15 to 20)
#    0.000    1.000    2.500    3.750    3.500    6.000 
#    0.000    0.000    0.000    0.000    0.000    0.000 
#    0.000    0.000    0.000    0.000    0.000    0.000 
#
# Total GULP energy -89341.373488 kJ/mol
# GULP energy per Si atom -5583.835843 kJ/mol
# Density = 2.134464 g / cm^3
# Si number density = 21.393334 Si / 1000 Ang^3
#
#
#
# Elastic Constant Matrix: (Units=GPa)
#
#
# Indices 1 2 3 4 5 6 
#
# 1 90.1519 15.2592 11.2294 0.0000 0.8411 0.0000
# 2 15.2592 77.2185 12.4306 0.0000 -4.8241 0.0000
# 3 11.2294 12.4306 89.9898 0.0000 5.8438 0.0000
# 4 0.0000 0.0000 0.0000 25.6148 0.0000 0.5182
# 5 0.8411 -4.8241 5.8438 0.0000 24.5873 0.0000
# 6 0.0000 0.0000 0.0000 0.5182 0.0000 21.7948
#
#
#
# Elastic Compliance Matrix: (Units=1/GPa)
#
#
# Indices 1 2 3 4 5 6 
#
# 1 0.011600 -0.002147 -0.001115 0.000000 -0.000553 0.000000
# 2 -0.002147 0.013876 -0.001859 0.000000 0.003238 0.000000
# 3 -0.001115 -0.001859 0.011710 0.000000 -0.003110 0.000000
# 4 0.000000 0.000000 0.000000 0.039059 0.000000 -0.000929
# 5 -0.000553 0.003238 -0.003110 0.000000 0.042065 0.000000
# 6 0.000000 0.000000 0.000000 -0.000929 0.000000 0.045905
#
#
# Mechanical properties :
#
#
# Convention : Reuss Voigt Hill
#
# Bulk Modulus (GPa) = 37.11460 37.24429 37.17944
# Shear Modulus (GPa) = 27.25714 28.96212 28.10963
#
# Velocity S-wave (km/s) = 3.57332 3.68338 3.62877
# Velocity P-wave (km/s) = 5.86610 5.96128 5.91388
#
# Compressibility (1/GPa) = 0.02694358
#
# Stress axis : x y z
#
# Youngs Moduli (GPa) = 86.20766 72.06611 85.39525
#
# Poissons Ratio (x) = 0.15475 0.09521
# Poissons Ratio (y) = 0.18512 0.15876
# Poissons Ratio (z) = 0.09612 0.13398
#
# Static dielectric constant tensor:
#      x y z
#    x 1.791140 0.000000 0.002110 
#    y 0.000000 1.870210 0.000000 
#    z 0.002110 0.000000 1.835780 
# 
# From -- ./inp_files/20617.got.cif
#   From: 2010.05.17/outbox.cif.g08.bks.cpg/sg9_11_cif.got.tgz:20617.got - 2010.06.03 20:04:27.
