data_PCOD9139646
_publ_section_title
;
Structure prediction by ZEFSAII (Michael W. Deem and Ramdas Pophale) SiO2 
 PCOD9139646
Probable space group: C C
;
_chemical_formula_sum "Si O2"
_cell_formula_units_Z 28
_cell_length_a 15.247274
_cell_length_b 13.453855
_cell_length_c 10.170339
_cell_angle_alpha 90.000000
_cell_angle_beta 150.891522
_cell_angle_gamma 90.000000
_cell_volume 1014.905668
_symmetry_space_group_name_H-M "C C"
_symmetry_group_IT_number 9
_symmetry_cell_setting 'monoclinic'
loop_
_space_group_symop_operation_xyz
x,y,z
x,-y,1/2+z
1/2+x,1/2+y,z
1/2+x,1/2-y,1/2+z
loop_
_atom_site_type_symbol
_atom_site_label
_atom_site_fract_x
_atom_site_fract_y
_atom_site_fract_z
Si Si1 0.127860 0.864997 0.670610
Si Si2 0.841735 0.627774 0.702130
Si Si3 0.238203 0.708024 0.632037
Si Si4 0.128423 0.779158 0.158271
Si Si5 0.192912 0.461463 0.881725
Si Si6 0.897111 0.585017 0.170826
Si Si7 0.396746 0.449929 0.886819
O O1 0.188698 0.819639 0.610344
O O2 0.931904 0.817372 0.444837
O O3 0.275026 0.836906 0.971300
O O4 0.075015 0.981126 0.609518
O O5 0.694406 0.668954 0.610384
O O6 0.841967 0.508290 0.686453
O O7 0.036955 0.672980 0.999730
O O8 0.290001 0.467473 0.613940
O O9 0.064066 0.645293 0.455465
O O10 0.245552 0.651025 0.499583
O O11 0.268371 0.829298 0.445990
O O12 0.947763 0.836131 0.972083
O O13 0.280237 0.483340 0.858058
O O14 0.985744 0.464905 0.654392
#
# Coordination Sequence:
#
# PCOD9139646 Si02
#       7
#     4   4   4   4   4   4   4
#     4  11  22  49  78 114 160 217 280 345 432 521
#     4  12  28  52  79 124 163 225 281 355 435 521
#     4   9  24  46  76 115 156 218 274 348 423 516
#     4  12  29  48  80 121 170 217 284 355 425 524
#     4   9  24  47  82 107 163 224 282 356 435 514
#     4  10  26  52  79 113 170 223 273 354 437 513
#     4  11  23  50  82 118 164 226 286 357 439 521
#
# _framework density 27.58877
#
# number of rings (size 3 to 8) (size 9 to 14) (size 15 to 20)
#    0.857    0.571    1.429    1.714    4.000    3.429 
#   15.429    0.000    0.000    0.000    0.000    0.000 
#    0.000    0.000    0.000    0.000    0.000    0.000 
#
# Total GULP energy -78210.568377 kJ/mol
# GULP energy per Si atom -5586.469170 kJ/mol
# Density = 2.752598 g / cm^3
# Si number density = 27.588770 Si / 1000 Ang^3
#
#
#
# Elastic Constant Matrix: (Units=GPa)
#
#
# Indices 1 2 3 4 5 6 
#
# 1 96.8084 36.0821 14.9425 0.0000 -19.3283 0.0000
# 2 36.0821 142.0961 43.8037 0.0000 7.7884 0.0000
# 3 14.9425 43.8037 171.2169 0.0000 -1.9850 0.0000
# 4 0.0000 0.0000 0.0000 7.7174 0.0000 13.1919
# 5 -19.3283 7.7884 -1.9850 0.0000 32.8195 0.0000
# 6 0.0000 0.0000 0.0000 13.1919 0.0000 44.5309
#
#
#
# Elastic Compliance Matrix: (Units=1/GPa)
#
#
# Indices 1 2 3 4 5 6 
#
# 1 0.013582 -0.003913 -0.000081 0.000000 0.008923 0.000000
# 2 -0.003913 0.008892 -0.001986 0.000000 -0.004535 0.000000
# 3 -0.000081 -0.001986 0.006365 0.000000 0.000809 0.000000
# 4 0.000000 0.000000 0.000000 0.262508 0.000000 -0.077766
# 5 0.008923 -0.004535 0.000809 0.000000 0.036849 0.000000
# 6 0.000000 0.000000 0.000000 -0.077766 0.000000 0.045494
#
#
# Mechanical properties :
#
#
# Convention : Reuss Voigt Hill
#
# Bulk Modulus (GPa) = 59.24359 66.64198 62.94279
# Shear Modulus (GPa) = 12.77870 38.03309 25.40590
#
# Velocity S-wave (km/s) = 2.15451 3.71694 3.03789
# Velocity P-wave (km/s) = 5.26399 6.52907 5.93036
#
# Compressibility (1/GPa) = 0.01687946
#
# Stress axis : x y z
#
# Youngs Moduli (GPa) = 73.62674 112.46242 157.10793
#
# Poissons Ratio (x) = 0.44006 0.01269
# Poissons Ratio (y) = 0.28810 0.31201
# Poissons Ratio (z) = 0.00595 0.22334
#
# Static dielectric constant tensor:
#      x y z
#    x 2.145960 0.000000 -0.053660 
#    y 0.000000 2.253040 0.000000 
#    z -0.053660 0.000000 2.256310 
# 
# From -- ./inp_files/19369.got.cif
#   From: 2010.05.17/outbox.cif.g08.bks.cpg/sg9_10_cif.got.tgz:19369.got - 2010.06.03 20:04:27.
