data_PCOD9139320
_publ_section_title
;
Structure prediction by ZEFSAII (Michael W. Deem and Ramdas Pophale) SiO2 
 PCOD9139320
Probable space group: C C
;
_chemical_formula_sum "Si O2"
_cell_formula_units_Z 24
_cell_length_a 13.607357
_cell_length_b 10.628662
_cell_length_c 9.973676
_cell_angle_alpha 90.000000
_cell_angle_beta 144.367482
_cell_angle_gamma 90.000000
_cell_volume 840.362074
_symmetry_space_group_name_H-M "C C"
_symmetry_group_IT_number 9
_symmetry_cell_setting 'monoclinic'
loop_
_space_group_symop_operation_xyz
x,y,z
x,-y,1/2+z
1/2+x,1/2+y,z
1/2+x,1/2-y,1/2+z
loop_
_atom_site_type_symbol
_atom_site_label
_atom_site_fract_x
_atom_site_fract_y
_atom_site_fract_z
Si Si1 0.678330 0.633508 0.030640
Si Si2 0.238086 0.864306 0.149446
Si Si3 0.984217 0.710366 0.704635
Si Si4 0.740316 0.891045 0.281445
Si Si5 0.844914 0.853922 0.970040
Si Si6 0.050569 0.378029 0.857213
O O1 0.701948 0.509966 0.145326
O O2 0.852739 0.641002 0.140525
O O3 0.509775 0.642167 0.752524
O O4 0.655611 0.772521 0.073112
O O5 0.347204 0.868480 0.133792
O O6 0.319238 0.767660 0.346056
O O7 0.066920 0.802363 0.905206
O O8 0.124703 0.626800 0.788273
O O9 0.891492 0.788140 0.486875
O O10 0.865046 0.014253 0.419233
O O11 0.603901 0.974732 0.028469
O O12 0.671995 0.867414 0.866097
#
# Coordination Sequence:
#
# PCOD9139320 Si02
#       6
#     4   4   4   4   4   4
#     4  12  27  54  78 124 170 218 287 349 432 516
#     4  11  27  50  80 123 165 218 288 353 428 515
#     4  10  24  49  79 119 158 229 279 347 441 500
#     4  11  25  51  80 116 170 220 287 361 426 522
#     4  12  29  52  85 125 171 224 290 363 429 517
#     4  12  28  52  82 119 164 225 283 353 442 502
#
# _framework density 28.559117000000001
#
# number of rings (size 3 to 8) (size 9 to 14) (size 15 to 20)
#    0.000    0.667    3.333    2.000    9.333    0.000 
#   12.000    0.000    0.000    0.000    0.000    0.000 
#    0.000    0.000    0.000    0.000    0.000    0.000 
#
# Total GULP energy -66945.576788 kJ/mol
# GULP energy per Si atom -5578.798066 kJ/mol
# Density = 2.849412 g / cm^3
# Si number density = 28.559117 Si / 1000 Ang^3
#
#
#
# Elastic Constant Matrix: (Units=GPa)
#
#
# Indices 1 2 3 4 5 6 
#
# 1 147.9003 21.1941 20.6206 0.0000 30.4214 0.0000
# 2 21.1941 194.2386 64.2598 0.0000 -20.4143 0.0000
# 3 20.6206 64.2598 203.2301 0.0000 -5.0626 0.0000
# 4 0.0000 0.0000 0.0000 36.8726 0.0000 -7.4077
# 5 30.4214 -20.4143 -5.0626 0.0000 65.6246 0.0000
# 6 0.0000 0.0000 0.0000 -7.4077 0.0000 0.7122
#
#
#
# Elastic Compliance Matrix: (Units=1/GPa)
#
#
# Indices 1 2 3 4 5 6 
#
# 1 0.007818 -0.001093 -0.000547 0.000000 -0.004007 0.000000
# 2 -0.001093 0.006087 -0.001757 0.000000 0.002265 0.000000
# 3 -0.000547 -0.001757 0.005535 0.000000 0.000134 0.000000
# 4 0.000000 0.000000 0.000000 -0.024889 0.000000 -0.258882
# 5 -0.004007 0.002265 0.000134 0.000000 0.017810 0.000000
# 6 0.000000 0.000000 0.000000 -0.258882 0.000000 -1.288611
#
#
# Mechanical properties :
#
#
# Convention : Reuss Voigt Hill
#
# Bulk Modulus (GPa) = 79.08457 84.16867 81.62662
# Shear Modulus (GPa) = -3.95182 49.92816 22.98817
#
# Velocity S-wave (km/s) = -1.17760 4.18573 2.84021
# Velocity P-wave (km/s) = 5.08947 7.27298 6.27690
#
# Compressibility (1/GPa) = 0.01264469
#
# Stress axis : x y z
#
# Youngs Moduli (GPa) = 127.90355 164.28549 180.66593
#
# Poissons Ratio (x) = 0.17957 0.09891
# Poissons Ratio (y) = 0.13981 0.31749
# Poissons Ratio (z) = 0.07002 0.28870
#
# Static dielectric constant tensor:
#      x y z
#    x 2.164930 0.000000 0.002610 
#    y 0.000000 2.647730 0.000000 
#    z 0.002610 0.000000 2.218080 
# 
# From -- ./inp_files/18310.got.cif
#   From: 2010.05.17/outbox.cif.g08.bks.cpg/sg9_10_cif.got.tgz:18310.got - 2010.06.03 20:04:27.
