data_PCOD9139813
_publ_section_title
;
Structure prediction by ZEFSAII (Michael W. Deem and Ramdas Pophale) SiO2 
 PCOD9139813
Probable space group: C C
;
_chemical_formula_sum "Si O2"
_cell_formula_units_Z 32
_cell_length_a 6.811958
_cell_length_b 22.589398
_cell_length_c 12.564035
_cell_angle_alpha 90.000000
_cell_angle_beta 141.178444
_cell_angle_gamma 90.000000
_cell_volume 1211.998071
_symmetry_space_group_name_H-M "C C"
_symmetry_group_IT_number 9
_symmetry_cell_setting 'monoclinic'
loop_
_space_group_symop_operation_xyz
x,y,z
x,-y,1/2+z
1/2+x,1/2+y,z
1/2+x,1/2-y,1/2+z
loop_
_atom_site_type_symbol
_atom_site_label
_atom_site_fract_x
_atom_site_fract_y
_atom_site_fract_z
Si Si1 0.812390 0.531951 0.673700
Si Si2 0.471094 0.937824 0.589690
Si Si3 0.712121 0.221097 0.554893
Si Si4 0.794117 0.309771 0.448704
Si Si5 0.808999 0.192858 0.952526
Si Si6 0.786072 0.873349 0.917157
Si Si7 0.384142 0.435440 0.561546
Si Si8 0.708660 0.275910 0.055520
O O1 0.571032 0.586360 0.580121
O O2 0.668522 0.479948 0.682807
O O3 0.826486 0.501130 0.562752
O O4 0.145168 0.547695 0.864404
O O5 0.296808 0.880920 0.465852
O O6 0.598085 0.912752 0.755234
O O7 0.728805 0.945595 0.609159
O O8 0.610371 0.293529 0.492515
O O9 0.409329 0.233374 0.521457
O O10 0.614716 0.163546 0.440029
O O11 0.989880 0.206011 0.751446
O O12 0.975165 0.244873 0.564938
O O13 0.506089 0.197272 0.746545
O O14 0.953004 0.131734 0.059625
O O15 0.600991 0.203088 0.983710
O O16 0.953994 0.824833 0.912101
#
# Coordination Sequence:
#
# PCOD9139813 Si02
#       8
#     4   4   4   4   4   4   4   4
#     4  12  27  52  75 109 152 207 262 323 380 459
#     4  12  26  48  82 106 153 207 265 321 386 449
#     4  11  24  42  74 103 153 187 245 306 388 452
#     4  11  21  43  68 106 142 199 236 304 382 452
#     4  12  24  44  69 113 142 191 238 314 374 454
#     4  11  24  49  70 108 148 200 250 317 385 463
#     4  12  28  50  79 110 153 201 269 319 384 461
#     4  11  22  40  71 101 153 178 239 298 383 450
#
# _framework density 26.402681999999999
#
# number of rings (size 3 to 8) (size 9 to 14) (size 15 to 20)
#    0.000    0.500    3.750    6.000    1.750    1.000 
#    2.250    0.000    0.000    0.000    0.000    0.000 
#    0.000    0.000    0.000    0.000    0.000    0.000 
#
# Total GULP energy -89241.443961 kJ/mol
# GULP energy per Si atom -5577.590248 kJ/mol
# Density = 2.634259 g / cm^3
# Si number density = 26.402682 Si / 1000 Ang^3
#
#
#
# Elastic Constant Matrix: (Units=GPa)
#
#
# Indices 1 2 3 4 5 6 
#
# 1 231.7997 67.9041 -12.2488 0.0000 -1.0460 0.0000
# 2 67.9041 106.6192 26.2557 0.0000 -2.2283 0.0000
# 3 -12.2488 26.2557 54.4131 0.0000 9.0020 0.0000
# 4 0.0000 0.0000 0.0000 31.6598 0.0000 -3.1353
# 5 -1.0460 -2.2283 9.0020 0.0000 54.4720 0.0000
# 6 0.0000 0.0000 0.0000 -3.1353 0.0000 52.3385
#
#
#
# Elastic Compliance Matrix: (Units=1/GPa)
#
#
# Indices 1 2 3 4 5 6 
#
# 1 0.005871 -0.004661 0.003684 0.000000 -0.000687 0.000000
# 2 -0.004661 0.014437 -0.008326 0.000000 0.001877 0.000000
# 3 0.003684 -0.008326 0.023923 0.000000 -0.004223 0.000000
# 4 0.000000 0.000000 0.000000 0.031774 0.000000 0.001903
# 5 -0.000687 0.001877 -0.004223 0.000000 0.019120 0.000000
# 6 0.000000 0.000000 0.000000 0.001903 0.000000 0.019220
#
#
# Mechanical properties :
#
#
# Convention : Reuss Voigt Hill
#
# Bulk Modulus (GPa) = 39.02225 61.85045 50.43635
# Shear Modulus (GPa) = 35.33744 48.42214 41.87979
#
# Velocity S-wave (km/s) = 3.66239 4.28715 3.98703
# Velocity P-wave (km/s) = 5.71803 6.92697 6.35133
#
# Compressibility (1/GPa) = 0.02562641
#
# Stress axis : x y z
#
# Youngs Moduli (GPa) = 170.32945 69.26619 41.80003
#
# Poissons Ratio (x) = 0.32283 -0.15400
# Poissons Ratio (y) = 0.79386 0.34802
# Poissons Ratio (z) = -0.62752 0.57671
#
# Static dielectric constant tensor:
#      x y z
#    x 2.346480 0.000000 0.020550 
#    y 0.000000 2.113030 0.000000 
#    z 0.020550 0.000000 1.894590 
# 
# From -- ./inp_files/23806.got.cif
#   From: 2010.05.17/outbox.cif.g08.bks.cpg/sg9_12_cif.got.tgz:23806.got - 2010.06.03 20:04:27.
