data_PCOD9139991
_publ_section_title
;
Structure prediction by ZEFSAII (Michael W. Deem and Ramdas Pophale) SiO2 
 PCOD9139991
Probable space group: C C
;
_chemical_formula_sum "Si O2"
_cell_formula_units_Z 28
_cell_length_a 16.528995
_cell_length_b 9.617179
_cell_length_c 22.691733
_cell_angle_alpha 90.000000
_cell_angle_beta 20.241813
_cell_angle_gamma 90.000000
_cell_volume 1248.005694
_symmetry_space_group_name_H-M "C C"
_symmetry_group_IT_number 9
_symmetry_cell_setting 'monoclinic'
loop_
_space_group_symop_operation_xyz
x,y,z
x,-y,1/2+z
1/2+x,1/2+y,z
1/2+x,1/2-y,1/2+z
loop_
_atom_site_type_symbol
_atom_site_label
_atom_site_fract_x
_atom_site_fract_y
_atom_site_fract_z
Si Si1 0.149210 0.280510 0.096670
Si Si2 0.606659 0.588140 0.230440
Si Si3 0.313471 0.158133 0.202934
Si Si4 0.914090 0.936173 0.066380
Si Si5 0.856468 0.153130 0.831485
Si Si6 0.512124 0.529320 0.125459
Si Si7 0.512197 0.044028 0.258927
O O1 0.225303 0.189164 0.101477
O O2 0.980203 0.180456 0.175283
O O3 0.030977 0.422149 0.198189
O O4 0.375538 0.325382 0.906229
O O5 0.752724 0.557037 0.189263
O O6 0.511208 0.450037 0.265073
O O7 0.131944 0.121926 0.378913
O O8 0.292177 0.305384 0.182715
O O9 0.584797 0.152715 0.036006
O O10 0.986632 0.026893 0.073088
O O11 0.740421 0.020484 0.142816
O O12 0.967803 0.305334 0.761538
O O13 0.863154 0.086337 0.761580
O O14 0.780835 0.487733 0.954707
#
# Coordination Sequence:
#
# PCOD9139991 Si02
#       7
#     4   4   4   4   4   4   4
#     4  11  22  44  74 101 145 194 248 303 373 446
#     4  11  23  45  73 108 142 199 251 308 369 460
#     4  12  23  44  77 113 148 208 254 304 387 461
#     4  12  26  43  78 109 153 200 255 311 378 460
#     4  11  29  45  77 112 153 198 255 323 382 445
#     4  11  26  47  71 110 148 198 257 312 376 457
#     4  12  25  46  74 109 151 197 248 317 381 443
#
# _framework density 22.435794999999999
#
# number of rings (size 3 to 8) (size 9 to 14) (size 15 to 20)
#    0.000    0.571    5.714    0.857    4.000    2.286 
#    2.571    1.429    0.000    0.000    0.000    0.000 
#    0.000    0.000    0.000    0.000    0.000    0.000 
#
# Total GULP energy -78296.806559 kJ/mol
# GULP energy per Si atom -5592.629040 kJ/mol
# Density = 2.238473 g / cm^3
# Si number density = 22.435795 Si / 1000 Ang^3
#
#
#
# Elastic Constant Matrix: (Units=GPa)
#
#
# Indices 1 2 3 4 5 6 
#
# 1 144.6618 80.6874 52.4139 -0.0307 10.0752 0.0100
# 2 80.6874 153.8360 48.3964 -0.0352 4.1488 -0.0163
# 3 52.4139 48.3964 116.1439 -0.0477 8.6553 -0.0024
# 4 -0.0307 -0.0352 -0.0477 29.1758 0.0263 2.5367
# 5 10.0752 4.1488 8.6553 0.0263 40.4032 -0.0113
# 6 0.0100 -0.0163 -0.0024 2.5367 -0.0113 30.3403
#
#
#
# Elastic Compliance Matrix: (Units=1/GPa)
#
#
# Indices 1 2 3 4 5 6 
#
# 1 0.010614 -0.004666 -0.002727 0.000003 -0.001583 -0.000007
# 2 -0.004666 0.009533 -0.001911 0.000002 0.000594 0.000007
# 3 -0.002727 -0.001911 0.010743 0.000014 -0.001425 -0.000001
# 4 0.000003 0.000002 0.000014 0.034526 -0.000027 -0.002887
# 5 -0.001583 0.000594 -0.001425 -0.000027 0.025390 0.000012
# 6 -0.000007 0.000007 -0.000001 -0.002887 0.000012 0.033201
#
#
# Mechanical properties :
#
#
# Convention : Reuss Voigt Hill
#
# Bulk Modulus (GPa) = 81.42588 86.40412 83.91500
# Shear Modulus (GPa) = 34.08100 35.52681 34.80390
#
# Velocity S-wave (km/s) = 3.90172 3.98362 3.94289
# Velocity P-wave (km/s) = 7.52792 7.73009 7.62967
#
# Compressibility (1/GPa) = 0.01228111
#
# Stress axis : x y z
#
# Youngs Moduli (GPa) = 94.21672 104.89881 93.08128
#
# Poissons Ratio (x) = 0.48948 0.25388
# Poissons Ratio (y) = 0.43964 0.17786
# Poissons Ratio (z) = 0.25697 0.20044
#
# Static dielectric constant tensor:
#      x y z
#    x 1.908860 0.000000 0.012270 
#    y 0.000000 1.852290 0.000030 
#    z 0.012270 0.000030 1.859100 
# 
# From -- ./inp_files/35806.got.cif
#   From: 2010.05.17/outbox.cif.g08.bks.cpg/sg9_18_cif.got.tgz:35806.got - 2010.06.03 20:04:27.
