data_PCOD9139261
_publ_section_title
;
Structure prediction by ZEFSAII (Michael W. Deem and Ramdas Pophale) SiO2 
 PCOD9139261
Probable space group: C C
;
_chemical_formula_sum "Si O2"
_cell_formula_units_Z 32
_cell_length_a 14.776600
_cell_length_b 9.406792
_cell_length_c 19.921663
_cell_angle_alpha 90.000000
_cell_angle_beta 152.492700
_cell_angle_gamma 90.000000
_cell_volume 1278.949877
_symmetry_space_group_name_H-M "C C"
_symmetry_group_IT_number 9
_symmetry_cell_setting 'monoclinic'
loop_
_space_group_symop_operation_xyz
x,y,z
x,-y,1/2+z
1/2+x,1/2+y,z
1/2+x,1/2-y,1/2+z
loop_
_atom_site_type_symbol
_atom_site_label
_atom_site_fract_x
_atom_site_fract_y
_atom_site_fract_z
Si Si1 0.569640 0.346607 0.011800
Si Si2 0.350765 0.928965 0.321676
Si Si3 0.740972 0.046985 0.384757
Si Si4 0.630628 0.204743 0.511389
Si Si5 0.104801 0.079192 0.268783
Si Si6 0.887499 0.648912 0.620749
Si Si7 0.936886 0.771030 0.514039
Si Si8 0.074996 0.171250 0.836803
O O1 0.737750 0.373901 0.179946
O O2 0.675045 0.381314 0.011323
O O3 0.482876 0.189444 0.944650
O O4 0.373947 0.431179 0.905971
O O5 0.498882 0.063373 0.411496
O O6 0.174623 0.971097 0.256150
O O7 0.710147 0.197207 0.400431
O O8 0.528570 0.976121 0.239193
O O9 0.863567 0.917601 0.498370
O O10 0.603321 0.270661 0.568289
O O11 0.565365 0.309790 0.409846
O O12 0.862608 0.177577 0.661108
O O13 0.258127 0.206692 0.354870
O O14 0.927154 0.186010 0.171539
O O15 0.148614 0.980554 0.361369
O O16 0.948522 0.665467 0.583369
#
# Coordination Sequence:
#
# PCOD9139261 Si02
#       8
#     4   4   4   4   4   4   4   4
#     4  12  27  46  83 112 160 206 266 325 400 473
#     4  11  26  52  75 117 158 211 258 332 392 468
#     4  11  27  46  77 115 152 205 263 326 395 473
#     4  11  29  49  78 111 160 206 263 317 401 469
#     4  10  24  47  72 107 154 200 256 323 388 461
#     4  11  26  48  77 112 159 212 262 325 405 472
#     4  10  26  48  72 105 155 205 254 321 386 470
#     4  12  27  48  78 115 152 205 258 331 391 468
#
# _framework density 25.020529
#
# number of rings (size 3 to 8) (size 9 to 14) (size 15 to 20)
#    0.000    1.000    1.250    2.250   19.250    2.000 
#    0.000    0.000    0.000    0.000    0.000    0.000 
#    0.000    0.000    0.000    0.000    0.000    0.000 
#
# Total GULP energy -89162.660859 kJ/mol
# GULP energy per Si atom -5572.666304 kJ/mol
# Density = 2.496358 g / cm^3
# Si number density = 25.020529 Si / 1000 Ang^3
#
#
#
# Elastic Constant Matrix: (Units=GPa)
#
#
# Indices 1 2 3 4 5 6 
#
# 1 130.2388 38.8482 33.2833 0.0000 2.2692 0.0000
# 2 38.8482 135.6130 40.8384 0.0004 1.4163 0.0000
# 3 33.2833 40.8384 90.6484 0.0003 5.0815 0.0001
# 4 0.0000 0.0004 0.0003 33.0080 0.0002 0.5370
# 5 2.2692 1.4163 5.0815 0.0002 35.5081 0.0000
# 6 0.0000 0.0000 0.0001 0.5370 0.0000 44.1380
#
#
#
# Elastic Compliance Matrix: (Units=1/GPa)
#
#
# Indices 1 2 3 4 5 6 
#
# 1 0.008837 -0.001800 -0.002426 0.000000 -0.000146 0.000000
# 2 -0.001800 0.008899 -0.003362 0.000000 0.000241 0.000000
# 3 -0.002426 -0.003362 0.013529 0.000000 -0.001647 0.000000
# 4 0.000000 0.000000 0.000000 0.030302 0.000000 -0.000369
# 5 -0.000146 0.000241 -0.001647 0.000000 0.028398 0.000000
# 6 0.000000 0.000000 0.000000 -0.000369 0.000000 0.022661
#
#
# Mechanical properties :
#
#
# Convention : Reuss Voigt Hill
#
# Bulk Modulus (GPa) = 62.14633 64.71557 63.43095
# Shear Modulus (GPa) = 37.54728 38.76617 38.15672
#
# Velocity S-wave (km/s) = 3.87804 3.94048 3.90938
# Velocity P-wave (km/s) = 6.70405 6.82820 6.76641
#
# Compressibility (1/GPa) = 0.01609106
#
# Stress axis : x y z
#
# Youngs Moduli (GPa) = 113.15432 112.36763 73.91334
#
# Poissons Ratio (x) = 0.20221 0.17931
# Poissons Ratio (y) = 0.20363 0.24850
# Poissons Ratio (z) = 0.27451 0.37779
#
# Static dielectric constant tensor:
#      x y z
#    x 2.031910 0.000000 -0.027890 
#    y 0.000000 2.052750 0.000000 
#    z -0.027890 0.000000 2.099910 
# 
# From -- ./inp_files/33721.got.cif
#   From: 2010.05.17/outbox.cif.g08.bks.cpg/sg9_17_cif.got.tgz:33721.got - 2010.06.03 20:04:27.
