data_PCOD9139482
_publ_section_title
;
Structure prediction by ZEFSAII (Michael W. Deem and Ramdas Pophale) SiO2 
 PCOD9139482
Probable space group: C C
;
_chemical_formula_sum "Si O2"
_cell_formula_units_Z 28
_cell_length_a 11.328357
_cell_length_b 9.455948
_cell_length_c 10.727189
_cell_angle_alpha 90.000000
_cell_angle_beta 81.092371
_cell_angle_gamma 90.000000
_cell_volume 1135.241288
_symmetry_space_group_name_H-M "C C"
_symmetry_group_IT_number 9
_symmetry_cell_setting 'monoclinic'
loop_
_space_group_symop_operation_xyz
x,y,z
x,-y,1/2+z
1/2+x,1/2+y,z
1/2+x,1/2-y,1/2+z
loop_
_atom_site_type_symbol
_atom_site_label
_atom_site_fract_x
_atom_site_fract_y
_atom_site_fract_z
Si Si1 0.084630 0.892782 0.432910
Si Si2 0.394203 0.815983 0.033490
Si Si3 0.971867 0.589799 0.143339
Si Si4 0.262615 0.238325 0.083201
Si Si5 0.795964 0.230491 0.308736
Si Si6 0.631815 0.297728 0.970094
Si Si7 0.156881 0.452329 0.271700
O O1 0.145864 0.844699 0.554645
O O2 0.185914 0.842482 0.319571
O O3 0.967610 0.797639 0.441768
O O4 0.069107 0.058875 0.436265
O O5 0.377768 0.754715 0.176767
O O6 0.461974 0.963759 0.043368
O O7 0.263493 0.837528 0.998115
O O8 0.839942 0.654640 0.171410
O O9 0.030354 0.517995 0.253131
O O10 0.059047 0.715352 0.088284
O O11 0.222316 0.390745 0.137725
O O12 0.340833 0.246864 0.942796
O O13 0.737475 0.075848 0.314408
O O14 0.643883 0.182604 0.860171
#
# Coordination Sequence:
#
# PCOD9139482 Si02
#       7
#     4   4   4   4   4   4   4
#     4  10  25  49  74 115 149 195 262 314 377 462
#     4  12  24  51  79 102 161 201 245 328 382 449
#     4  12  26  47  76 107 153 200 250 313 382 453
#     4  10  25  46  73 111 150 194 261 308 380 453
#     4  10  25  48  77 108 155 195 260 311 381 459
#     4  12  28  46  77 115 149 202 261 309 392 458
#     4  12  25  47  76 110 155 201 251 317 382 452
#
# _framework density 24.664362000000001
#
# number of rings (size 3 to 8) (size 9 to 14) (size 15 to 20)
#    0.857    0.000    4.286    1.714    6.000    2.286 
#    0.000    0.000    0.000    0.000    0.000    0.000 
#    0.000    0.000    0.000    0.000    0.000    0.000 
#
# Total GULP energy -78385.038569 kJ/mol
# GULP energy per Si atom -5598.931326 kJ/mol
# Density = 2.460822 g / cm^3
# Si number density = 24.664362 Si / 1000 Ang^3
#
#
#
# Elastic Constant Matrix: (Units=GPa)
#
#
# Indices 1 2 3 4 5 6 
#
# 1 60.9957 22.8422 1.1754 0.0000 -5.4611 0.0000
# 2 22.8422 163.4019 9.3575 0.0000 4.6788 0.0000
# 3 1.1754 9.3575 70.2836 0.0000 -0.0255 0.0000
# 4 0.0000 0.0000 0.0000 38.2849 0.0000 4.1117
# 5 -5.4611 4.6788 -0.0255 0.0000 14.1582 0.0000
# 6 0.0000 0.0000 0.0000 4.1117 0.0000 42.2872
#
#
#
# Elastic Compliance Matrix: (Units=1/GPa)
#
#
# Indices 1 2 3 4 5 6 
#
# 1 0.018137 -0.002766 0.000068 0.000000 0.007910 0.000000
# 2 -0.002766 0.006648 -0.000840 0.000000 -0.003265 0.000000
# 3 0.000068 -0.000840 0.014339 0.000000 0.000330 0.000000
# 4 0.000000 0.000000 0.000000 0.026396 0.000000 -0.002566
# 5 0.007910 -0.003265 0.000330 0.000000 0.074761 0.000000
# 6 0.000000 0.000000 0.000000 -0.002566 0.000000 0.023897
#
#
# Mechanical properties :
#
#
# Convention : Reuss Voigt Hill
#
# Bulk Modulus (GPa) = 31.20307 40.15904 35.68106
# Shear Modulus (GPa) = 27.48203 36.36647 31.92425
#
# Velocity S-wave (km/s) = 3.34165 3.84403 3.60161
# Velocity P-wave (km/s) = 5.25046 6.00164 5.63857
#
# Compressibility (1/GPa) = 0.03204812
#
# Stress axis : x y z
#
# Youngs Moduli (GPa) = 55.13519 150.41845 69.74031
#
# Poissons Ratio (x) = 0.41603 -0.00473
# Poissons Ratio (y) = 0.15249 0.05859
# Poissons Ratio (z) = -0.00374 0.12636
#
# Static dielectric constant tensor:
#      x y z
#    x 1.938550 0.000000 -0.025780 
#    y 0.000000 1.879710 0.000000 
#    z -0.025780 0.000000 2.024360 
# 
# From -- ./inp_files/15935.got.cif
#   From: 2010.05.17/outbox.cif.g08.bks.cpg/sg9_8_cif.got.tgz:15935.got - 2010.06.03 20:04:27.
