data_PCOD9139693
_publ_section_title
;
Structure prediction by ZEFSAII (Michael W. Deem and Ramdas Pophale) SiO2 
 PCOD9139693
Probable space group: C C
;
_chemical_formula_sum "Si O2"
_cell_formula_units_Z 32
_cell_length_a 8.369208
_cell_length_b 17.641325
_cell_length_c 10.477676
_cell_angle_alpha 90.000000
_cell_angle_beta 124.974637
_cell_angle_gamma 90.000000
_cell_volume 1267.592313
_symmetry_space_group_name_H-M "C C"
_symmetry_group_IT_number 9
_symmetry_cell_setting 'monoclinic'
loop_
_space_group_symop_operation_xyz
x,y,z
x,-y,1/2+z
1/2+x,1/2+y,z
1/2+x,1/2-y,1/2+z
loop_
_atom_site_type_symbol
_atom_site_label
_atom_site_fract_x
_atom_site_fract_y
_atom_site_fract_z
Si Si1 0.755470 0.815724 0.928160
Si Si2 0.738193 0.357437 0.818479
Si Si3 0.257847 0.162070 0.842537
Si Si4 0.585355 0.561160 0.588254
Si Si5 0.958355 0.968450 0.767241
Si Si6 0.570361 0.945655 0.139835
Si Si7 0.906490 0.409867 0.653021
Si Si8 0.318613 0.696605 0.747158
O O1 0.566784 0.848949 0.773232
O O2 0.844734 0.745810 0.891937
O O3 0.729097 0.790117 0.063391
O O4 0.891054 0.888233 0.994695
O O5 0.528860 0.381546 0.780243
O O6 0.785311 0.268611 0.823328
O O7 0.906908 0.405951 0.972925
O O8 0.243089 0.125988 0.695697
O O9 0.367016 0.107276 0.988669
O O10 0.042012 0.176984 0.808318
O O11 0.568709 0.513906 0.708707
O O12 0.738489 0.387978 0.673833
O O13 0.735189 0.995973 0.657715
O O14 0.058784 0.986697 0.948662
O O15 0.705991 0.876778 0.248928
O O16 0.468898 0.002452 0.193907
#
# Coordination Sequence:
#
# PCOD9139693 Si02
#       8
#     4   4   4   4   4   4   4   4
#     4  11  19  42  77 108 144 204 266 313 379 474
#     4  12  27  47  79 116 156 209 272 324 402 481
#     4  11  21  40  77 110 145 206 263 314 383 477
#     4  11  25  46  71 109 149 207 250 324 394 471
#     4  12  27  48  77 110 163 199 261 333 404 463
#     4  12  26  47  73 120 155 208 264 339 392 482
#     4  12  23  43  78 114 156 198 272 321 392 473
#     4  11  22  45  76 111 156 201 272 320 390 479
#
# _framework density 25.244710999999999
#
# number of rings (size 3 to 8) (size 9 to 14) (size 15 to 20)
#    0.000    0.500    7.500    1.500    3.500    0.000 
#    0.000    1.250    2.750    0.000    0.000    0.000 
#    0.000    0.000    0.000    0.000    0.000    0.000 
#
# Total GULP energy -89331.719479 kJ/mol
# GULP energy per Si atom -5583.232467 kJ/mol
# Density = 2.518725 g / cm^3
# Si number density = 25.244711 Si / 1000 Ang^3
#
#
#
# Elastic Constant Matrix: (Units=GPa)
#
#
# Indices 1 2 3 4 5 6 
#
# 1 36.4169 43.6246 20.0527 0.0000 -3.7491 0.0000
# 2 43.6246 157.2496 36.2490 0.0000 4.0969 0.0000
# 3 20.0527 36.2490 114.8799 0.0000 -11.2676 0.0000
# 4 0.0000 0.0000 0.0000 52.4573 0.0000 -4.7405
# 5 -3.7491 4.0969 -11.2676 0.0000 39.7625 0.0000
# 6 0.0000 0.0000 0.0000 -4.7405 0.0000 48.8193
#
#
#
# Elastic Compliance Matrix: (Units=1/GPa)
#
#
# Indices 1 2 3 4 5 6 
#
# 1 0.043458 -0.011339 -0.003591 0.000000 0.004248 0.000000
# 2 -0.011339 0.009889 -0.001384 0.000000 -0.002480 0.000000
# 3 -0.003591 -0.001384 0.010028 0.000000 0.002646 0.000000
# 4 0.000000 0.000000 0.000000 0.019232 0.000000 0.001867
# 5 0.004248 -0.002480 0.002646 0.000000 0.026555 0.000000
# 6 0.000000 0.000000 0.000000 0.001867 0.000000 0.020665
#
#
# Mechanical properties :
#
#
# Convention : Reuss Voigt Hill
#
# Bulk Modulus (GPa) = 32.52506 56.48877 44.50691
# Shear Modulus (GPa) = 28.95128 42.11582 35.53355
#
# Velocity S-wave (km/s) = 3.39016 4.08892 3.75582
# Velocity P-wave (km/s) = 5.31376 6.68711 6.03960
#
# Compressibility (1/GPa) = 0.03074553
#
# Stress axis : x y z
#
# Youngs Moduli (GPa) = 23.01081 101.12503 99.72213
#
# Poissons Ratio (x) = 1.14666 0.35812
# Poissons Ratio (y) = 0.26092 0.13804
# Poissons Ratio (z) = 0.08263 0.13999
#
# Static dielectric constant tensor:
#      x y z
#    x 2.075530 0.000000 0.057020 
#    y 0.000000 2.069920 0.000000 
#    z 0.057020 0.000000 2.004720 
# 
# From -- ./inp_files/23622.got.cif
#   From: 2010.05.17/outbox.cif.g08.bks.cpg/sg9_12_cif.got.tgz:23622.got - 2010.06.03 20:04:27.
