data_PCOD9139908
_publ_section_title
;
Structure prediction by ZEFSAII (Michael W. Deem and Ramdas Pophale) SiO2 
 PCOD9139908
Probable space group: C C
;
_chemical_formula_sum "Si O2"
_cell_formula_units_Z 28
_cell_length_a 30.475296
_cell_length_b 7.485625
_cell_length_c 9.498888
_cell_angle_alpha 90.000000
_cell_angle_beta 145.016779
_cell_angle_gamma 90.000000
_cell_volume 1242.391226
_symmetry_space_group_name_H-M "C C"
_symmetry_group_IT_number 9
_symmetry_cell_setting 'monoclinic'
loop_
_space_group_symop_operation_xyz
x,y,z
x,-y,1/2+z
1/2+x,1/2+y,z
1/2+x,1/2-y,1/2+z
loop_
_atom_site_type_symbol
_atom_site_label
_atom_site_fract_x
_atom_site_fract_y
_atom_site_fract_z
Si Si1 0.911700 0.913122 0.346590
Si Si2 0.330182 0.115962 0.297136
Si Si3 0.710266 0.206810 0.661196
Si Si4 0.175205 0.558282 0.848750
Si Si5 0.086807 0.149489 0.247271
Si Si6 0.839694 0.800278 0.864113
Si Si7 0.171955 0.055886 0.732347
O O1 0.893742 0.741536 0.397419
O O2 0.000946 0.912628 0.546260
O O3 0.882054 0.086837 0.352940
O O4 0.867187 0.879664 0.084153
O O5 0.293572 0.221843 0.333614
O O6 0.352802 0.912773 0.390612
O O7 0.259059 0.103151 0.999878
O O8 0.697944 0.053748 0.745371
O O9 0.674683 0.372827 0.648692
O O10 0.674046 0.130117 0.423494
O O11 0.100063 0.668904 0.693053
O O12 0.249023 0.664244 0.106660
O O13 0.129125 0.002486 0.261557
O O14 0.126241 0.177660 0.503026
#
# Coordination Sequence:
#
# PCOD9139908 Si02
#       7
#     4   4   4   4   4   4   4
#     4  12  28  45  70 106 148 181 233 298 365 414
#     4  12  24  44  75 105 138 187 242 290 345 430
#     4  11  22  40  69 107 130 181 241 293 334 412
#     4  11  23  41  72 100 140 178 244 279 344 421
#     4  11  24  45  65 105 141 183 232 296 359 417
#     4  12  25  45  74 100 139 192 235 286 349 429
#     4  11  22  44  73  97 136 188 241 284 348 421
#
# _framework density 22.537185000000001
#
# number of rings (size 3 to 8) (size 9 to 14) (size 15 to 20)
#    0.000    0.571    5.714    3.429    2.000    0.000 
#    7.714    0.000    0.000    0.000    0.000    0.000 
#    0.000    0.000    0.000    0.000    0.000    0.000 
#
# Total GULP energy -78253.155483 kJ/mol
# GULP energy per Si atom -5589.511106 kJ/mol
# Density = 2.248589 g / cm^3
# Si number density = 22.537185 Si / 1000 Ang^3
#
#
#
# Elastic Constant Matrix: (Units=GPa)
#
#
# Indices 1 2 3 4 5 6 
#
# 1 144.5129 36.7803 43.9519 0.0000 -9.2234 0.0000
# 2 36.7803 109.8909 8.7507 0.0000 -4.9606 0.0000
# 3 43.9519 8.7507 41.4358 0.0000 -12.9275 0.0000
# 4 0.0000 0.0000 0.0000 24.2481 0.0000 -5.7311
# 5 -9.2234 -4.9606 -12.9275 0.0000 46.5516 0.0000
# 6 0.0000 0.0000 0.0000 -5.7311 0.0000 30.1797
#
#
#
# Elastic Compliance Matrix: (Units=1/GPa)
#
#
# Indices 1 2 3 4 5 6 
#
# 1 0.011075 -0.002846 -0.011558 0.000000 -0.001319 0.000000
# 2 -0.002846 0.009997 0.001165 0.000000 0.000825 0.000000
# 3 -0.011558 0.001165 0.038837 0.000000 0.008619 0.000000
# 4 0.000000 0.000000 0.000000 0.043178 0.000000 0.008200
# 5 -0.001319 0.000825 0.008619 0.000000 0.023702 0.000000
# 6 0.000000 0.000000 0.000000 0.008200 0.000000 0.034692
#
#
# Mechanical properties :
#
#
# Convention : Reuss Voigt Hill
#
# Bulk Modulus (GPa) = 29.91269 52.75616 41.33443
# Shear Modulus (GPa) = 25.11264 33.95300 29.53282
#
# Velocity S-wave (km/s) = 3.34170 3.88562 3.62388
# Velocity P-wave (km/s) = 5.30949 6.60227 5.99086
#
# Compressibility (1/GPa) = 0.03343063
#
# Stress axis : x y z
#
# Youngs Moduli (GPa) = 90.29132 100.03039 25.74878
#
# Poissons Ratio (x) = 0.28469 0.29761
# Poissons Ratio (y) = 0.25697 -0.03000
# Poissons Ratio (z) = 1.04360 -0.11653
#
# Static dielectric constant tensor:
#      x y z
#    x 1.821460 0.000000 -0.069850 
#    y 0.000000 1.908060 0.000000 
#    z -0.069850 0.000000 1.848880 
# 
# From -- ./inp_files/12431.got.cif
#   From: 2010.05.17/outbox.cif.g08.bks.cpg/sg9_7_cif.got.tgz:12431.got - 2010.06.03 20:04:27.
