data_PCOD9139111
_publ_section_title
;
Structure prediction by ZEFSAII (Michael W. Deem and Ramdas Pophale) SiO2 
 PCOD9139111
Probable space group: C C
;
_chemical_formula_sum "Si O2"
_cell_formula_units_Z 20
_cell_length_a 5.097991
_cell_length_b 18.661174
_cell_length_c 9.617048
_cell_angle_alpha 90.000000
_cell_angle_beta 77.921070
_cell_angle_gamma 90.000000
_cell_volume 894.657085
_symmetry_space_group_name_H-M "C C"
_symmetry_group_IT_number 9
_symmetry_cell_setting 'monoclinic'
loop_
_space_group_symop_operation_xyz
x,y,z
x,-y,1/2+z
1/2+x,1/2+y,z
1/2+x,1/2-y,1/2+z
loop_
_atom_site_type_symbol
_atom_site_label
_atom_site_fract_x
_atom_site_fract_y
_atom_site_fract_z
Si Si1 0.668370 0.698330 0.657740
Si Si2 0.123258 0.637875 0.797414
Si Si3 0.629960 0.028753 0.300403
Si Si4 0.608212 0.394992 0.889494
Si Si5 0.997382 0.353372 0.618531
O O1 0.407605 0.677453 0.777128
O O2 0.613243 0.658690 0.517427
O O3 0.664032 0.783268 0.640235
O O4 0.939931 0.669503 0.695731
O O5 0.182789 0.553922 0.770515
O O6 0.962091 0.645965 0.958796
O O7 0.329038 0.042675 0.389005
O O8 0.641588 0.074129 0.155689
O O9 0.830912 0.068061 0.382795
O O10 0.726873 0.354560 0.740463
#
# Coordination Sequence:
#
# PCOD9139111 Si02
#       5
#     4   4   4   4   4
#     4  12  27  44  72 106 143 183 235 290 352 420
#     4  12  28  45  74 105 138 189 238 284 356 416
#     4  10  25  45  72  97 142 180 238 283 346 410
#     4  10  24  44  72  96 145 180 228 290 347 403
#     4  10  28  44  74 100 146 182 235 287 349 419
#
# _framework density 22.354934
#
# number of rings (size 3 to 8) (size 9 to 14) (size 15 to 20)
#    1.200    0.000    0.000    3.600   14.000    0.000 
#    0.000    0.000    0.000    0.000    0.000    0.000 
#    0.000    0.000    0.000    0.000    0.000    0.000 
#
# Total GULP energy -55903.446771 kJ/mol
# GULP energy per Si atom -5590.344677 kJ/mol
# Density = 2.230405 g / cm^3
# Si number density = 22.354934 Si / 1000 Ang^3
#
#
#
# Elastic Constant Matrix: (Units=GPa)
#
#
# Indices 1 2 3 4 5 6 
#
# 1 59.4874 -14.2098 -1.0063 0.0000 16.6968 0.0000
# 2 -14.2098 120.0189 15.3315 0.0000 11.2147 0.0000
# 3 -1.0063 15.3315 80.7406 0.0000 -3.9343 0.0000
# 4 0.0000 0.0000 0.0000 16.2069 0.0000 2.4480
# 5 16.6968 11.2147 -3.9343 0.0000 25.6559 0.0000
# 6 0.0000 0.0000 0.0000 2.4480 0.0000 16.9585
#
#
#
# Elastic Compliance Matrix: (Units=1/GPa)
#
#
# Indices 1 2 3 4 5 6 
#
# 1 0.022567 0.004420 -0.001378 0.000000 -0.016830 0.000000
# 2 0.004420 0.009835 -0.002178 0.000000 -0.007510 0.000000
# 3 -0.001378 -0.002178 0.012969 0.000000 0.003838 0.000000
# 4 0.000000 0.000000 0.000000 0.063078 0.000000 -0.009105
# 5 -0.016830 -0.007510 0.003838 0.000000 0.053802 0.000000
# 6 0.000000 0.000000 0.000000 -0.009105 0.000000 0.060282
#
#
# Mechanical properties :
#
#
# Convention : Reuss Voigt Hill
#
# Bulk Modulus (GPa) = 21.23205 28.94196 25.08701
# Shear Modulus (GPa) = 21.14129 29.10636 25.12382
#
# Velocity S-wave (km/s) = 3.07858 3.61225 3.35604
# Velocity P-wave (km/s) = 4.70693 5.51112 5.12482
#
# Compressibility (1/GPa) = 0.04709860
#
# Stress axis : x y z
#
# Youngs Moduli (GPa) = 44.31307 101.67317 77.10794
#
# Poissons Ratio (x) = -0.44945 0.10627
# Poissons Ratio (y) = -0.19589 0.16798
# Poissons Ratio (z) = 0.06107 0.22149
#
# Static dielectric constant tensor:
#      x y z
#    x 1.777050 0.000000 -0.025180 
#    y 0.000000 1.795910 0.000000 
#    z -0.025180 0.000000 1.837150 
# 
# From -- ./inp_files/3634.got.cif
#   From: 2010.05.17/outbox.cif.g08.bks.cpg/sg9_2_cif.got.tgz:3634.got - 2010.06.03 20:04:27.
