data_PCOD9139144
_publ_section_title
;
Structure prediction by ZEFSAII (Michael W. Deem and Ramdas Pophale) SiO2 
 PCOD9139144
Probable space group: C C
;
_chemical_formula_sum "Si O2"
_cell_formula_units_Z 32
_cell_length_a 21.542162
_cell_length_b 15.122216
_cell_length_c 8.108700
_cell_angle_alpha 90.000000
_cell_angle_beta 31.854384
_cell_angle_gamma 90.000000
_cell_volume 1394.101157
_symmetry_space_group_name_H-M "C C"
_symmetry_group_IT_number 9
_symmetry_cell_setting 'monoclinic'
loop_
_space_group_symop_operation_xyz
x,y,z
x,-y,1/2+z
1/2+x,1/2+y,z
1/2+x,1/2-y,1/2+z
loop_
_atom_site_type_symbol
_atom_site_label
_atom_site_fract_x
_atom_site_fract_y
_atom_site_fract_z
Si Si1 0.389390 0.547083 0.242420
Si Si2 0.651245 0.669072 0.328472
Si Si3 0.132053 0.118312 0.759180
Si Si4 0.325914 0.983441 0.335942
Si Si5 0.004046 0.478024 0.186848
Si Si6 0.646833 0.807716 0.825442
Si Si7 0.179165 0.362270 0.371254
Si Si8 0.883592 0.868887 0.392730
O O1 0.307354 0.598793 0.552975
O O2 0.352686 0.445987 0.333692
O O3 0.522171 0.552756 0.006373
O O4 0.378112 0.589726 0.088390
O O5 0.651536 0.642493 0.522429
O O6 0.675937 0.773178 0.270229
O O7 0.517735 0.659526 0.565316
O O8 0.747025 0.604913 0.027357
O O9 0.098931 0.207911 0.929610
O O10 0.244181 0.065831 0.572218
O O11 0.460230 0.972202 0.096921
O O12 0.369866 0.011043 0.054578
O O13 0.069796 0.386039 0.082107
O O14 0.089047 0.561885 0.014304
O O15 0.656029 0.835653 0.612166
O O16 0.777214 0.801417 0.608726
#
# Coordination Sequence:
#
# PCOD9139144 Si02
#       8
#     4   4   4   4   4   4   4   4
#     4  11  23  41  68  95 131 172 222 276 334 398
#     4  10  24  45  69  98 134 178 223 280 339 403
#     4  10  24  45  69  98 134 176 226 278 339 403
#     4  12  24  45  68  98 135 179 227 275 341 405
#     4  12  26  42  69  97 138 178 225 279 339 403
#     4  11  25  45  68  98 135 180 224 280 340 404
#     4  11  25  45  68  97 135 179 226 279 339 402
#     4  11  23  42  67  97 130 172 225 273 335 400
#
# _framework density 22.953858
#
# number of rings (size 3 to 8) (size 9 to 14) (size 15 to 20)
#    0.000    1.000    5.000    0.750    5.250    1.000 
#    2.250    0.000    0.000    0.000    0.000    0.000 
#    0.000    0.000    0.000    0.000    0.000    0.000 
#
# Total GULP energy -89308.068676 kJ/mol
# GULP energy per Si atom -5581.754292 kJ/mol
# Density = 2.290161 g / cm^3
# Si number density = 22.953858 Si / 1000 Ang^3
#
#
#
# Elastic Constant Matrix: (Units=GPa)
#
#
# Indices 1 2 3 4 5 6 
#
# 1 44.9909 3.9008 -1.2876 0.0000 -18.9566 0.0000
# 2 3.9008 114.2692 34.5396 0.0000 -3.6891 0.0000
# 3 -1.2876 34.5396 73.2062 0.0000 -8.9898 0.0000
# 4 0.0000 0.0000 0.0000 16.3008 0.0000 -2.2072
# 5 -18.9566 -3.6891 -8.9898 0.0000 18.2779 0.0000
# 6 0.0000 0.0000 0.0000 -2.2072 0.0000 28.2035
#
#
#
# Elastic Compliance Matrix: (Units=1/GPa)
#
#
# Indices 1 2 3 4 5 6 
#
# 1 0.042689 -0.002233 0.007648 0.000000 0.047585 0.000000
# 2 -0.002233 0.010326 -0.005257 0.000000 -0.002817 0.000000
# 3 0.007648 -0.005257 0.018219 0.000000 0.015831 0.000000
# 4 0.000000 0.000000 0.000000 0.062004 0.000000 0.004852
# 5 0.047585 -0.002817 0.015831 0.000000 0.111280 0.000000
# 6 0.000000 0.000000 0.000000 0.004852 0.000000 0.035836
#
#
# Mechanical properties :
#
#
# Convention : Reuss Voigt Hill
#
# Bulk Modulus (GPa) = 13.97638 34.08577 24.03107
# Shear Modulus (GPa) = 16.45348 25.57734 21.01541
#
# Velocity S-wave (km/s) = 2.68023 3.34173 3.02909
# Velocity P-wave (km/s) = 3.95983 5.45632 4.76716
#
# Compressibility (1/GPa) = 0.07154931
#
# Stress axis : x y z
#
# Youngs Moduli (GPa) = 23.42544 96.84755 54.88797
#
# Poissons Ratio (x) = 0.21623 -0.41976
# Poissons Ratio (y) = 0.05230 0.28854
# Poissons Ratio (z) = -0.17915 0.50912
#
# Static dielectric constant tensor:
#      x y z
#    x 1.925410 0.000000 0.086470 
#    y 0.000000 1.844070 0.000000 
#    z 0.086470 0.000000 1.857610 
# 
# From -- ./inp_files/7395.got.cif
#   From: 2010.05.17/outbox.cif.g08.bks.cpg/sg9_4_cif.got.tgz:7395.got - 2010.06.03 20:04:27.
