data_PCOD9139348
_publ_section_title
;
Structure prediction by ZEFSAII (Michael W. Deem and Ramdas Pophale) SiO2 
 PCOD9139348
Probable space group: C C
;
_chemical_formula_sum "Si O2"
_cell_formula_units_Z 28
_cell_length_a 12.940745
_cell_length_b 13.407876
_cell_length_c 9.312520
_cell_angle_alpha 90.000000
_cell_angle_beta 104.792233
_cell_angle_gamma 90.000000
_cell_volume 1562.245136
_symmetry_space_group_name_H-M "C C"
_symmetry_group_IT_number 9
_symmetry_cell_setting 'monoclinic'
loop_
_space_group_symop_operation_xyz
x,y,z
x,-y,1/2+z
1/2+x,1/2+y,z
1/2+x,1/2-y,1/2+z
loop_
_atom_site_type_symbol
_atom_site_label
_atom_site_fract_x
_atom_site_fract_y
_atom_site_fract_z
Si Si1 0.574740 0.088430 0.501480
Si Si2 0.838650 0.630444 0.922413
Si Si3 0.943089 0.031102 0.968497
Si Si4 0.096547 0.804397 0.383552
Si Si5 0.934296 0.489989 0.202129
Si Si6 0.455206 0.318809 0.058410
Si Si7 0.807220 0.968349 0.152843
O O1 0.597993 0.202878 0.473727
O O2 0.499880 0.078403 0.614312
O O3 0.683359 0.027619 0.573609
O O4 0.515404 0.043660 0.341239
O O5 0.874789 0.567085 0.075234
O O6 0.914891 0.727886 0.949383
O O7 0.715979 0.659237 0.898121
O O8 0.857229 0.569902 0.782255
O O9 0.839614 0.026739 0.828834
O O10 0.025375 0.112078 0.940154
O O11 0.887847 0.046099 0.103550
O O12 0.993668 0.919825 0.992498
O O13 0.038951 0.787241 0.209505
O O14 0.351703 0.363233 0.106165
#
# Coordination Sequence:
#
# PCOD9139348 Si02
#       7
#     4   4   4   4   4   4   4
#     4  11  20  40  62  88 117 164 197 246 299 353
#     4  11  22  42  61  85 124 161 195 247 302 358
#     4   9  20  34  58  91 113 146 198 245 289 354
#     4  11  21  37  67  85 121 158 195 248 309 351
#     4  10  25  38  59  88 123 155 209 240 290 367
#     4   9  20  38  59  87 116 153 193 246 295 346
#     4   9  18  35  58  86 114 149 193 242 292 341
#
# _framework density 17.922923999999998
#
# number of rings (size 3 to 8) (size 9 to 14) (size 15 to 20)
#    0.857    1.143    2.857    0.857    2.000    1.143 
#    0.000    0.000    6.286    0.000    0.000    0.000 
#    0.000    0.000    0.000    0.000    0.000    0.000 
#
# Total GULP energy -77934.806214 kJ/mol
# GULP energy per Si atom -5566.771872 kJ/mol
# Density = 1.788213 g / cm^3
# Si number density = 17.922924 Si / 1000 Ang^3
#
#
#
# Elastic Constant Matrix: (Units=GPa)
#
#
# Indices 1 2 3 4 5 6 
#
# 1 106.5018 36.6611 35.3701 0.0000 8.5452 0.0000
# 2 36.6611 68.4555 16.6427 0.0000 -8.0980 0.0000
# 3 35.3701 16.6427 68.7555 0.0000 -4.9331 0.0000
# 4 0.0000 0.0000 0.0000 23.8628 0.0000 -3.3435
# 5 8.5452 -8.0980 -4.9331 0.0000 22.1896 0.0000
# 6 0.0000 0.0000 0.0000 -3.3435 0.0000 24.4407
#
#
#
# Elastic Compliance Matrix: (Units=1/GPa)
#
#
# Indices 1 2 3 4 5 6 
#
# 1 0.015007 -0.007620 -0.006595 0.000000 -0.010026 0.000000
# 2 -0.007620 0.019935 -0.000176 0.000000 0.010170 0.000000
# 3 -0.006595 -0.000176 0.018452 0.000000 0.006578 0.000000
# 4 0.000000 0.000000 0.000000 0.042725 0.000000 0.005845
# 5 -0.010026 0.010170 0.006578 0.000000 0.054101 0.000000
# 6 0.000000 0.000000 0.000000 0.005845 0.000000 0.041715
#
#
# Mechanical properties :
#
#
# Convention : Reuss Voigt Hill
#
# Bulk Modulus (GPa) = 40.63048 46.78450 43.70749
# Shear Modulus (GPa) = 21.84170 24.43455 23.13813
#
# Velocity S-wave (km/s) = 3.49470 3.69631 3.59692
# Velocity P-wave (km/s) = 6.24521 6.66159 6.45676
#
# Compressibility (1/GPa) = 0.02461206
#
# Stress axis : x y z
#
# Youngs Moduli (GPa) = 66.63456 50.16415 54.19593
#
# Poissons Ratio (x) = 0.38224 0.35743
# Poissons Ratio (y) = 0.50774 0.00952
# Poissons Ratio (z) = 0.43947 0.00882
#
# Static dielectric constant tensor:
#      x y z
#    x 1.586010 0.000000 0.004840 
#    y 0.000000 1.627180 0.000000 
#    z 0.004840 0.000000 1.602160 
# 
# From -- ./inp_files/7223.got.cif
#   From: 2010.05.17/outbox.cif.g08.bks.cpg/sg9_4_cif.got.tgz:7223.got - 2010.06.03 20:04:27.
