data_PCOD9139089
_publ_section_title
;
Structure prediction by ZEFSAII (Michael W. Deem and Ramdas Pophale) SiO2 
 PCOD9139089
Probable space group: C C
;
_chemical_formula_sum "Si O2"
_cell_formula_units_Z 20
_cell_length_a 4.861736
_cell_length_b 33.685818
_cell_length_c 4.916209
_cell_angle_alpha 90.000000
_cell_angle_beta 106.487622
_cell_angle_gamma 90.000000
_cell_volume 772.028891
_symmetry_space_group_name_H-M "C C"
_symmetry_group_IT_number 9
_symmetry_cell_setting 'monoclinic'
loop_
_space_group_symop_operation_xyz
x,y,z
x,-y,1/2+z
1/2+x,1/2+y,z
1/2+x,1/2-y,1/2+z
loop_
_atom_site_type_symbol
_atom_site_label
_atom_site_fract_x
_atom_site_fract_y
_atom_site_fract_z
Si Si1 0.476270 0.746108 0.588410
Si Si2 0.042507 0.577525 0.600175
Si Si3 0.134901 0.370788 0.610738
Si Si4 0.541311 0.525673 0.632341
Si Si5 0.611760 0.318428 0.508974
O O1 0.425153 0.704850 0.730626
O O2 0.318492 0.783876 0.686065
O O3 0.311919 0.747022 0.253434
O O4 0.185281 0.593142 0.917144
O O5 0.213984 0.539805 0.533579
O O6 0.727935 0.562951 0.589339
O O7 0.072661 0.612262 0.390096
O O8 0.403733 0.341742 0.650787
O O9 0.842177 0.348362 0.442024
O O10 0.602043 0.488994 0.452007
#
# Coordination Sequence:
#
# PCOD9139089 Si02
#       5
#     4   4   4   4   4
#     4   8  20  44  68 106 140 192 266 328 368 450
#     4  12  26  46  68 108 146 181 242 289 364 456
#     4  12  26  45  70 103 150 197 234 305 382 453
#     4  12  24  45  76 103 138 185 234 293 356 427
#     4  10  24  44  70 104 140 201 250 315 384 426
#
# _framework density 25.905767000000001
#
# number of rings (size 3 to 8) (size 9 to 14) (size 15 to 20)
#    1.200    0.000    0.000    6.000    2.800    1.600 
#    0.000    0.000    0.000    0.000    0.000    0.000 
#    0.000    0.000    0.000    0.000    0.000    0.000 
#
# Total GULP energy -55949.795112 kJ/mol
# GULP energy per Si atom -5594.979511 kJ/mol
# Density = 2.584680 g / cm^3
# Si number density = 25.905767 Si / 1000 Ang^3
#
#
#
# Elastic Constant Matrix: (Units=GPa)
#
#
# Indices 1 2 3 4 5 6 
#
# 1 128.7249 33.3610 30.1229 0.0000 0.9869 0.0000
# 2 33.3610 79.2255 14.6439 0.0000 -10.8810 0.0000
# 3 30.1229 14.6439 115.9197 0.0000 3.9399 0.0000
# 4 0.0000 0.0000 0.0000 45.1528 0.0000 2.7366
# 5 0.9869 -10.8810 3.9399 0.0000 37.6538 0.0000
# 6 0.0000 0.0000 0.0000 2.7366 0.0000 56.2471
#
#
#
# Elastic Compliance Matrix: (Units=1/GPa)
#
#
# Indices 1 2 3 4 5 6 
#
# 1 0.009167 -0.003664 -0.001882 0.000000 -0.001102 0.000000
# 2 -0.003664 0.014991 -0.001096 0.000000 0.004543 0.000000
# 3 -0.001882 -0.001096 0.009296 0.000000 -0.001240 0.000000
# 4 0.000000 0.000000 0.000000 0.022213 0.000000 -0.001081
# 5 -0.001102 0.004543 -0.001240 0.000000 0.028029 0.000000
# 6 0.000000 0.000000 0.000000 -0.001081 0.000000 0.017831
#
#
# Mechanical properties :
#
#
# Convention : Reuss Voigt Hill
#
# Bulk Modulus (GPa) = 49.57532 53.34730 51.46131
# Shear Modulus (GPa) = 41.14058 44.19356 42.66707
#
# Velocity S-wave (km/s) = 3.98940 4.13478 4.06274
# Velocity P-wave (km/s) = 6.35600 6.59035 6.47424
#
# Compressibility (1/GPa) = 0.02017133
#
# Stress axis : x y z
#
# Youngs Moduli (GPa) = 109.08959 66.70474 107.56963
#
# Poissons Ratio (x) = 0.24438 0.20243
# Poissons Ratio (y) = 0.39966 0.11792
# Poissons Ratio (z) = 0.20529 0.07312
#
# Static dielectric constant tensor:
#      x y z
#    x 1.978300 0.000000 -0.018400 
#    y 0.000000 2.059440 0.000000 
#    z -0.018400 0.000000 2.033540 
# 
# From -- ./inp_files/306.got.cif
#   From: 2010.05.17/outbox.cif.g08.bks.cpg/sg9_1_cif.got.tgz:306.got - 2010.06.03 20:04:27.
