data_PCOD9139547
_publ_section_title
;
Structure prediction by ZEFSAII (Michael W. Deem and Ramdas Pophale) SiO2 
 PCOD9139547
Probable space group: C C
;
_chemical_formula_sum "Si O2"
_cell_formula_units_Z 28
_cell_length_a 20.109688
_cell_length_b 7.211526
_cell_length_c 19.734207
_cell_angle_alpha 90.000000
_cell_angle_beta 20.525849
_cell_angle_gamma 90.000000
_cell_volume 1003.462541
_symmetry_space_group_name_H-M "C C"
_symmetry_group_IT_number 9
_symmetry_cell_setting 'monoclinic'
loop_
_space_group_symop_operation_xyz
x,y,z
x,-y,1/2+z
1/2+x,1/2+y,z
1/2+x,1/2-y,1/2+z
loop_
_atom_site_type_symbol
_atom_site_label
_atom_site_fract_x
_atom_site_fract_y
_atom_site_fract_z
Si Si1 0.922990 0.662560 0.059520
Si Si2 0.281494 0.483218 0.947662
Si Si3 0.883256 0.014605 0.493812
Si Si4 0.316204 0.081127 0.547902
Si Si5 0.650923 0.478022 0.417218
Si Si6 0.711794 0.413302 0.005013
Si Si7 0.215389 0.433556 0.864541
O O1 0.955784 0.525277 0.964290
O O2 0.728567 0.603863 0.283266
O O3 0.605736 0.492944 0.263699
O O4 0.069088 0.584446 0.977031
O O5 0.275966 0.407821 0.029116
O O6 0.199190 0.691041 0.021049
O O7 0.505757 0.504335 0.718006
O O8 0.194747 0.387349 0.964520
O O9 0.872489 0.146975 0.568546
O O10 0.818724 0.800366 0.561003
O O11 0.349834 0.043218 0.436048
O O12 0.183611 0.232587 0.862567
O O13 0.759095 0.526879 0.383874
O O14 0.428862 0.501607 0.646215
#
# Coordination Sequence:
#
# PCOD9139547 Si02
#       7
#     4   4   4   4   4   4   4
#     4  12  28  50  81 120 168 224 270 348 428 503
#     4   9  21  44  77 113 155 209 278 343 409 506
#     4  10  25  53  81 118 164 220 276 344 424 494
#     4  10  25  51  78 115 165 209 280 343 413 502
#     4  11  25  48  76 117 169 223 281 350 420 499
#     4   9  21  44  75 110 149 213 276 340 411 492
#     4  11  25  48  76 119 170 216 285 348 419 500
#
# _framework density 27.903382000000001
#
# number of rings (size 3 to 8) (size 9 to 14) (size 15 to 20)
#    0.000    1.714    1.429    0.000    6.000    2.286 
#   12.857    0.000    0.000    0.000    0.000    0.000 
#    0.000    0.000    0.000    0.000    0.000    0.000 
#
# Total GULP energy -78467.729473 kJ/mol
# GULP energy per Si atom -5604.837820 kJ/mol
# Density = 2.783987 g / cm^3
# Si number density = 27.903382 Si / 1000 Ang^3
#
#
#
# Elastic Constant Matrix: (Units=GPa)
#
#
# Indices 1 2 3 4 5 6 
#
# 1 216.6744 64.0890 73.1739 -0.0114 35.8385 -0.0030
# 2 64.0890 126.6282 14.4378 -0.0344 9.9743 -0.0091
# 3 73.1739 14.4378 106.8461 -0.0124 4.3190 -0.0021
# 4 -0.0114 -0.0344 -0.0124-1587.0014 0.0132 -471.3373
# 5 35.8385 9.9743 4.3190 0.0132 45.9000 0.0031
# 6 -0.0030 -0.0091 -0.0021 -471.3373 0.0031 -110.1916
#
#
#
# Elastic Compliance Matrix: (Units=1/GPa)
#
#
# Indices 1 2 3 4 5 6 
#
# 1 0.008027 -0.003103 -0.004871 0.000000 -0.005135 0.000000
# 2 -0.003103 0.009346 0.000850 0.000000 0.000312 0.000000
# 3 -0.004871 0.000850 0.012481 0.000000 0.002444 -0.000001
# 4 0.000000 0.000000 0.000000 0.002330 0.000000 -0.009968
# 5 -0.005135 0.000312 0.002444 0.000000 0.025498 0.000001
# 6 0.000000 0.000000 -0.000001 -0.009968 0.000001 0.033563
#
#
# Mechanical properties :
#
#
# Convention : Reuss Voigt Hill
#
# Bulk Modulus (GPa) = 64.07509 83.72779 73.90144
# Shear Modulus (GPa) = 45.16860 -310.36208 -132.59674
#
# Velocity S-wave (km/s) = 4.02773 -10.55788 -6.90095
# Velocity P-wave (km/s) = 6.68156 10.88824 6.07908
#
# Compressibility (1/GPa) = 0.01560669
#
# Stress axis : x y z
#
# Youngs Moduli (GPa) = 124.57576 106.99574 80.11971
#
# Poissons Ratio (x) = 0.33200 0.39023
# Poissons Ratio (y) = 0.38655 -0.06806
# Poissons Ratio (z) = 0.60676 -0.09090
#
# Static dielectric constant tensor:
#      x y z
#    x 2.212460 0.000000 -0.062220 
#    y 0.000000 2.565370 0.000000 
#    z -0.062220 0.000000 2.260710 
# 
# From -- ./inp_files/10765.got.cif
#   From: 2010.05.17/outbox.cif.g08.bks.cpg/sg9_6_cif.got.tgz:10765.got - 2010.06.03 20:04:27.
