data_PCOD9139263
_publ_section_title
;
Structure prediction by ZEFSAII (Michael W. Deem and Ramdas Pophale) SiO2 
 PCOD9139263
Probable space group: C C
;
_chemical_formula_sum "Si O2"
_cell_formula_units_Z 28
_cell_length_a 14.374722
_cell_length_b 5.090517
_cell_length_c 14.543307
_cell_angle_alpha 90.000000
_cell_angle_beta 86.145263
_cell_angle_gamma 90.000000
_cell_volume 1061.795549
_symmetry_space_group_name_H-M "C C"
_symmetry_group_IT_number 9
_symmetry_cell_setting 'monoclinic'
loop_
_space_group_symop_operation_xyz
x,y,z
x,-y,1/2+z
1/2+x,1/2+y,z
1/2+x,1/2-y,1/2+z
loop_
_atom_site_type_symbol
_atom_site_label
_atom_site_fract_x
_atom_site_fract_y
_atom_site_fract_z
Si Si1 0.253730 0.184830 0.756390
Si Si2 0.995900 0.010600 0.387054
Si Si3 0.935067 0.973627 0.702946
Si Si4 0.416070 0.827475 0.543089
Si Si5 0.732007 0.597410 0.553244
Si Si6 0.178967 0.685421 0.862270
Si Si7 0.574742 0.796341 0.054145
O O1 0.362242 0.254086 0.739790
O O2 0.212633 0.207229 0.655946
O O3 0.205412 0.401403 0.823898
O O4 0.236483 0.901316 0.800778
O O5 0.965143 0.883632 0.294222
O O6 0.916734 0.156665 0.450967
O O7 0.072100 0.230295 0.355114
O O8 0.041425 0.817375 0.457750
O O9 0.020418 0.850610 0.640610
O O10 0.885626 0.161318 0.633056
O O11 0.342867 0.059174 0.537075
O O12 0.521864 0.923153 0.557261
O O13 0.699870 0.767759 0.468616
O O14 0.679770 0.313197 0.553524
#
# Coordination Sequence:
#
# PCOD9139263 Si02
#       7
#     4   4   4   4   4   4   4
#     4  12  26  48  75 117 153 208 262 321 404 473
#     4  10  25  47  69 110 149 200 259 326 386 483
#     4  11  24  45  70 109 154 196 260 322 395 477
#     4  11  24  48  77 111 151 211 259 330 410 474
#     4  11  25  51  76 113 160 202 269 337 396 489
#     4  11  28  48  77 115 152 209 263 321 403 473
#     4  10  24  47  72 109 149 202 260 317 404 459
#
# _framework density 26.370422999999999
#
# number of rings (size 3 to 8) (size 9 to 14) (size 15 to 20)
#    0.000    1.143    1.429    2.571    6.000    3.429 
#   23.143    0.000    0.000    0.000    0.000    0.000 
#    0.000    0.000    0.000    0.000    0.000    0.000 
#
# Total GULP energy -78489.979554 kJ/mol
# GULP energy per Si atom -5606.427111 kJ/mol
# Density = 2.631040 g / cm^3
# Si number density = 26.370423 Si / 1000 Ang^3
#
#
#
# Elastic Constant Matrix: (Units=GPa)
#
#
# Indices 1 2 3 4 5 6 
#
# 1 95.9651 6.2442 41.0715 0.0000 -15.5995 0.0000
# 2 6.2442 67.3429 31.3944 0.0000 -14.7480 0.0000
# 3 41.0715 31.3944 202.5524 0.0000 7.5927 0.0000
# 4 0.0000 0.0000 0.0000 40.8958 0.0000 -9.6764
# 5 -15.5995 -14.7480 7.5927 0.0000 38.6786 0.0000
# 6 0.0000 0.0000 0.0000 -9.6764 0.0000 34.4744
#
#
#
# Elastic Compliance Matrix: (Units=1/GPa)
#
#
# Indices 1 2 3 4 5 6 
#
# 1 0.012650 0.001637 -0.003056 0.000000 0.006326 0.000000
# 2 0.001637 0.018110 -0.003448 0.000000 0.008242 0.000000
# 3 -0.003056 -0.003448 0.006232 0.000000 -0.003771 0.000000
# 4 0.000000 0.000000 0.000000 0.026192 0.000000 0.007352
# 5 0.006326 0.008242 -0.003771 0.000000 0.032288 0.000000
# 6 0.000000 0.000000 0.000000 0.007352 0.000000 0.031070
#
#
# Mechanical properties :
#
#
# Convention : Reuss Voigt Hill
#
# Bulk Modulus (GPa) = 36.68498 58.14229 47.41363
# Shear Modulus (GPa) = 34.39661 41.95310 38.17486
#
# Velocity S-wave (km/s) = 3.61552 3.99295 3.80891
# Velocity P-wave (km/s) = 5.60097 6.58441 6.11250
#
# Compressibility (1/GPa) = 0.02725911
#
# Stress axis : x y z
#
# Youngs Moduli (GPa) = 79.05043 55.21809 160.45221
#
# Poissons Ratio (x) = -0.09040 0.49033
# Poissons Ratio (y) = -0.12941 0.55322
# Poissons Ratio (z) = 0.24157 0.19038
#
# Static dielectric constant tensor:
#      x y z
#    x 2.044290 0.000000 -0.004210 
#    y 0.000000 2.067760 0.000000 
#    z -0.004210 0.000000 2.003380 
# 
# From -- ./inp_files/25264.got.cif
#   From: 2010.05.17/outbox.cif.g08.bks.cpg/sg9_13_cif.got.tgz:25264.got - 2010.06.03 20:04:27.
