data_PCOD9139278
_publ_section_title
;
Structure prediction by ZEFSAII (Michael W. Deem and Ramdas Pophale) SiO2 
 PCOD9139278
Probable space group: C C
;
_chemical_formula_sum "Si O2"
_cell_formula_units_Z 16
_cell_length_a 9.083845
_cell_length_b 10.906579
_cell_length_c 7.388383
_cell_angle_alpha 90.000000
_cell_angle_beta 48.418632
_cell_angle_gamma 90.000000
_cell_volume 547.541907
_symmetry_space_group_name_H-M "C C"
_symmetry_group_IT_number 9
_symmetry_cell_setting 'monoclinic'
loop_
_space_group_symop_operation_xyz
x,y,z
x,-y,1/2+z
1/2+x,1/2+y,z
1/2+x,1/2-y,1/2+z
loop_
_atom_site_type_symbol
_atom_site_label
_atom_site_fract_x
_atom_site_fract_y
_atom_site_fract_z
Si Si1 0.796860 0.133228 0.032960
Si Si2 0.876965 0.719497 0.793359
Si Si3 0.593184 0.577104 0.248027
Si Si4 0.537175 0.939730 0.437152
O O1 0.860074 0.250308 0.095852
O O2 0.678797 0.054527 0.281319
O O3 0.648417 0.146898 0.988237
O O4 0.981122 0.050437 0.817173
O O5 0.919121 0.822947 0.918078
O O6 0.016901 0.611411 0.748475
O O7 0.666716 0.655947 0.014169
O O8 0.801603 0.556809 0.178871
#
# Coordination Sequence:
#
# PCOD9139278 Si02
#       4
#     4   4   4   4
#     4  12  23  52  82 117 172 220 280 353 423 512
#     4  10  24  48  78 120 169 212 283 348 414 509
#     4  10  24  47  76 118 169 211 280 352 411 509
#     4  10  27  45  80 125 158 227 279 339 440 496
#
# _framework density 29.221508
#
# number of rings (size 3 to 8) (size 9 to 14) (size 15 to 20)
#    1.500    0.000    2.500    1.500    3.500    0.000 
#    9.000    0.000    0.000    0.000    0.000    0.000 
#    0.000    0.000    0.000    0.000    0.000    0.000 
#
# Total GULP energy -44583.963881 kJ/mol
# GULP energy per Si atom -5572.995485 kJ/mol
# Density = 2.915500 g / cm^3
# Si number density = 29.221508 Si / 1000 Ang^3
#
#
#
# Elastic Constant Matrix: (Units=GPa)
#
#
# Indices 1 2 3 4 5 6 
#
# 1 234.1078 5.2513 56.0576 -0.0015 -12.5565 0.0010
# 2 5.2513 46.7272 13.7514 -0.0004 -2.7936 0.0001
# 3 56.0576 13.7514 74.1248 -0.0008 -6.0962 0.0008
# 4 -0.0015 -0.0004 -0.0008 40.6439 0.0009 0.6680
# 5 -12.5565 -2.7936 -6.0962 0.0009 54.8574 -0.0008
# 6 0.0010 0.0001 0.0008 0.6680 -0.0008 48.2507
#
#
#
# Elastic Compliance Matrix: (Units=1/GPa)
#
#
# Indices 1 2 3 4 5 6 
#
# 1 0.005266 0.000643 -0.004037 0.000000 0.000790 0.000000
# 2 0.000643 0.022741 -0.004641 0.000000 0.000790 0.000000
# 3 -0.004037 -0.004641 0.017469 0.000000 0.000781 0.000000
# 4 0.000000 0.000000 0.000000 0.024610 0.000000 -0.000341
# 5 0.000790 0.000790 0.000781 0.000000 0.018537 0.000000
# 6 0.000000 0.000000 0.000000 -0.000341 0.000000 0.020730
#
#
# Mechanical properties :
#
#
# Convention : Reuss Voigt Hill
#
# Bulk Modulus (GPa) = 34.00415 56.12003 45.06209
# Shear Modulus (GPa) = 36.97582 47.41037 42.19309
#
# Velocity S-wave (km/s) = 3.56105 4.03233 3.80400
# Velocity P-wave (km/s) = 5.34510 6.39737 5.89476
#
# Compressibility (1/GPa) = 0.02940817
#
# Stress axis : x y z
#
# Youngs Moduli (GPa) = 189.89333 43.97266 57.24456
#
# Poissons Ratio (x) = -0.02829 0.23110
# Poissons Ratio (y) = -0.12218 0.26565
# Poissons Ratio (z) = 0.76660 0.20406
#
# Static dielectric constant tensor:
#      x y z
#    x 2.214950 0.000000 -0.194770 
#    y 0.000000 2.840250 0.000000 
#    z -0.194770 0.000000 2.696140 
# 
# From -- ./inp_files/4733.got.cif
#   From: 2010.05.17/outbox.cif.g08.bks.cpg/sg9_3_cif.got.tgz:4733.got - 2010.06.03 20:04:27.
