data_PCOD9139384
_publ_section_title
;
Structure prediction by ZEFSAII (Michael W. Deem and Ramdas Pophale) SiO2 
 PCOD9139384
Probable space group: C C
;
_chemical_formula_sum "Si O2"
_cell_formula_units_Z 28
_cell_length_a 11.367700
_cell_length_b 7.334363
_cell_length_c 15.796748
_cell_angle_alpha 90.000000
_cell_angle_beta 109.387443
_cell_angle_gamma 90.000000
_cell_volume 1242.368484
_symmetry_space_group_name_H-M "C C"
_symmetry_group_IT_number 9
_symmetry_cell_setting 'monoclinic'
loop_
_space_group_symop_operation_xyz
x,y,z
x,-y,1/2+z
1/2+x,1/2+y,z
1/2+x,1/2-y,1/2+z
loop_
_atom_site_type_symbol
_atom_site_label
_atom_site_fract_x
_atom_site_fract_y
_atom_site_fract_z
Si Si1 0.680770 0.593048 0.088470
Si Si2 0.768341 0.875776 0.901912
Si Si3 0.766601 0.325025 0.235327
Si Si4 0.949126 0.800754 0.411419
Si Si5 0.026589 0.472808 0.806616
Si Si6 0.156496 0.483735 0.156047
Si Si7 0.893839 0.459249 0.515249
O O1 0.669944 0.461670 0.167253
O O2 0.703525 0.792413 0.132824
O O3 0.799999 0.503733 0.070350
O O4 0.568881 0.625869 0.994349
O O5 0.725259 0.733982 0.819113
O O6 0.642194 0.977589 0.901845
O O7 0.856104 0.031216 0.886912
O O8 0.846302 0.742135 0.979216
O O9 0.905456 0.401251 0.280098
O O10 0.761170 0.137735 0.181656
O O11 0.889708 0.626445 0.447396
O O12 0.974179 0.724700 0.323174
O O13 0.095085 0.523244 0.735425
O O14 0.037678 0.548444 0.074035
#
# Coordination Sequence:
#
# PCOD9139384 Si02
#       7
#     4   4   4   4   4   4   4
#     4  11  24  47  71 100 139 181 230 286 342 411
#     4  11  25  42  67 100 134 182 226 284 347 403
#     4  11  24  44  66  98 138 176 227 283 341 407
#     4  11  25  45  69  99 138 180 232 286 343 406
#     4  11  23  44  63 101 135 173 233 280 331 414
#     4  10  25  43  66  97 138 179 226 282 344 409
#     4  11  22  45  68  99 136 177 234 281 340 414
#
# _framework density 22.537597999999999
#
# number of rings (size 3 to 8) (size 9 to 14) (size 15 to 20)
#    0.000    1.143    4.286    0.857    4.000    2.286 
#    7.714    0.000    0.000    0.000    0.000    0.000 
#    0.000    0.000    0.000    0.000    0.000    0.000 
#
# Total GULP energy -77980.066441 kJ/mol
# GULP energy per Si atom -5570.004746 kJ/mol
# Density = 2.248630 g / cm^3
# Si number density = 22.537598 Si / 1000 Ang^3
#
#
#
# Elastic Constant Matrix: (Units=GPa)
#
#
# Indices 1 2 3 4 5 6 
#
# 1 88.6519 38.5913 29.1928 0.0000 3.4472 0.0000
# 2 38.5913 102.5782 37.7945 0.0000 9.4695 0.0000
# 3 29.1928 37.7945 70.9248 0.0000 2.7861 0.0000
# 4 0.0000 0.0000 0.0000 55.0632 0.0000 4.1176
# 5 3.4472 9.4695 2.7861 0.0000 29.5770 0.0000
# 6 0.0000 0.0000 0.0000 4.1176 0.0000 32.0082
#
#
#
# Elastic Compliance Matrix: (Units=1/GPa)
#
#
# Indices 1 2 3 4 5 6 
#
# 1 0.014245 -0.003977 -0.003743 0.000000 -0.000034 0.000000
# 2 -0.003977 0.013568 -0.005461 0.000000 -0.003366 0.000000
# 3 -0.003743 -0.005461 0.018533 0.000000 0.000439 0.000000
# 4 0.000000 0.000000 0.000000 0.018337 0.000000 -0.002359
# 5 -0.000034 -0.003366 0.000439 0.000000 0.034850 0.000000
# 6 0.000000 0.000000 0.000000 -0.002359 0.000000 0.031545
#
#
# Mechanical properties :
#
#
# Convention : Reuss Voigt Hill
#
# Bulk Modulus (GPa) = 50.03900 52.59024 51.31462
# Shear Modulus (GPa) = 30.46907 33.76811 32.11859
#
# Velocity S-wave (km/s) = 3.68084 3.87499 3.77916
# Velocity P-wave (km/s) = 6.34944 6.58831 6.46998
#
# Compressibility (1/GPa) = 0.01998441
#
# Stress axis : x y z
#
# Youngs Moduli (GPa) = 70.19951 73.70508 53.95892
#
# Poissons Ratio (x) = 0.29313 0.20195
# Poissons Ratio (y) = 0.27919 0.29466
# Poissons Ratio (z) = 0.26273 0.40248
#
# Static dielectric constant tensor:
#      x y z
#    x 1.906160 0.000000 -0.039700 
#    y 0.000000 1.824040 0.000000 
#    z -0.039700 0.000000 1.971310 
# 
# From -- ./inp_files/33004.got.cif
#   From: 2010.05.17/outbox.cif.g08.bks.cpg/sg9_17_cif.got.tgz:33004.got - 2010.06.03 20:04:27.
