data_PCOD9139995
_publ_section_title
;
Structure prediction by ZEFSAII (Michael W. Deem and Ramdas Pophale) SiO2 
 PCOD9139995
Probable space group: C C
;
_chemical_formula_sum "Si O2"
_cell_formula_units_Z 32
_cell_length_a 11.937079
_cell_length_b 14.119793
_cell_length_c 9.143500
_cell_angle_alpha 90.000000
_cell_angle_beta 108.626372
_cell_angle_gamma 90.000000
_cell_volume 1460.406552
_symmetry_space_group_name_H-M "C C"
_symmetry_group_IT_number 9
_symmetry_cell_setting 'monoclinic'
loop_
_space_group_symop_operation_xyz
x,y,z
x,-y,1/2+z
1/2+x,1/2+y,z
1/2+x,1/2-y,1/2+z
loop_
_atom_site_type_symbol
_atom_site_label
_atom_site_fract_x
_atom_site_fract_y
_atom_site_fract_z
Si Si1 0.050650 0.202548 0.334010
Si Si2 0.746795 0.295791 0.683612
Si Si3 0.366893 0.458052 0.788065
Si Si4 0.454828 0.920009 0.880457
Si Si5 0.652691 0.617884 0.630806
Si Si6 0.591083 0.434412 0.430724
Si Si7 0.910522 0.615240 0.700078
Si Si8 0.234574 0.402722 0.023556
O O1 0.177523 0.194655 0.308654
O O2 0.068226 0.191561 0.515066
O O3 0.957907 0.118701 0.255595
O O4 0.003823 0.303255 0.267318
O O5 0.871176 0.349140 0.753874
O O6 0.653281 0.347664 0.537175
O O7 0.764503 0.190697 0.629953
O O8 0.452987 0.540411 0.889448
O O9 0.277853 0.507022 0.637494
O O10 0.300652 0.409522 0.895892
O O11 0.432822 0.023766 0.807415
O O12 0.416272 0.912827 0.033104
O O13 0.594512 0.900810 0.935596
O O14 0.654494 0.527151 0.523344
O O15 0.609982 0.580806 0.767360
O O16 0.783939 0.656428 0.693341
#
# Coordination Sequence:
#
# PCOD9139995 Si02
#       8
#     4   4   4   4   4   4   4   4
#     4  11  25  47  75 109 144 197 249 303 374 440
#     4  12  26  47  75 110 144 196 253 301 371 444
#     4  11  26  49  74 106 150 193 247 304 371 444
#     4  12  27  48  73 105 154 192 242 310 371 436
#     4  11  22  44  75 111 140 191 247 307 364 437
#     4  11  23  46  76 105 145 190 250 307 361 440
#     4  12  25  45  71 108 148 192 241 305 371 437
#     4  12  28  48  73 110 149 199 241 305 379 440
#
# _framework density 21.911705999999999
#
# number of rings (size 3 to 8) (size 9 to 14) (size 15 to 20)
#    0.000    0.500    3.750    5.250    3.500    2.000 
#    2.250    0.000    0.000    0.000    0.000    0.000 
#    0.000    0.000    0.000    0.000    0.000    0.000 
#
# Total GULP energy -89502.870213 kJ/mol
# GULP energy per Si atom -5593.929388 kJ/mol
# Density = 2.186183 g / cm^3
# Si number density = 21.911706 Si / 1000 Ang^3
#
#
#
# Elastic Constant Matrix: (Units=GPa)
#
#
# Indices 1 2 3 4 5 6 
#
# 1 123.6735 20.8283 24.6061 0.0000 13.7583 0.0000
# 2 20.8283 83.0619 38.7157 0.0000 5.8068 0.0000
# 3 24.6061 38.7157 93.7696 0.0000 -3.1843 0.0000
# 4 0.0000 0.0000 0.0000 17.8408 0.0000 -5.4370
# 5 13.7583 5.8068 -3.1843 0.0000 42.1088 0.0000
# 6 0.0000 0.0000 0.0000 -5.4370 0.0000 18.3974
#
#
#
# Elastic Compliance Matrix: (Units=1/GPa)
#
#
# Indices 1 2 3 4 5 6 
#
# 1 0.008999 -0.001119 -0.001999 0.000000 -0.002937 0.000000
# 2 -0.001119 0.015321 -0.006107 0.000000 -0.002209 0.000000
# 3 -0.001999 -0.006107 0.013797 0.000000 0.002539 0.000000
# 4 0.000000 0.000000 0.000000 0.061599 0.000000 0.018204
# 5 -0.002937 -0.002209 0.002539 0.000000 0.025204 0.000000
# 6 0.000000 0.000000 0.000000 0.018204 0.000000 0.059735
#
#
# Mechanical properties :
#
#
# Convention : Reuss Voigt Hill
#
# Bulk Modulus (GPa) = 50.85019 52.08946 51.46983
# Shear Modulus (GPa) = 23.84805 30.09305 26.97055
#
# Velocity S-wave (km/s) = 3.30263 3.70993 3.51219
# Velocity P-wave (km/s) = 6.14820 6.49427 6.32360
#
# Compressibility (1/GPa) = 0.01966561
#
# Stress axis : x y z
#
# Youngs Moduli (GPa) = 111.12627 65.27058 72.48150
#
# Poissons Ratio (x) = 0.07307 0.14488
# Poissons Ratio (y) = 0.12440 0.44264
# Poissons Ratio (z) = 0.22213 0.39860
#
# Static dielectric constant tensor:
#      x y z
#    x 1.796440 0.000000 0.014920 
#    y 0.000000 1.789620 0.000000 
#    z 0.014920 0.000000 1.804870 
# 
# From -- ./inp_files/7388.got.cif
#   From: 2010.05.17/outbox.cif.g08.bks.cpg/sg9_4_cif.got.tgz:7388.got - 2010.06.03 20:04:27.
