data_PCOD9139704
_publ_section_title
;
Structure prediction by ZEFSAII (Michael W. Deem and Ramdas Pophale) SiO2 
 PCOD9139704
Probable space group: C C
;
_chemical_formula_sum "Si O2"
_cell_formula_units_Z 32
_cell_length_a 8.070705
_cell_length_b 21.747515
_cell_length_c 12.791575
_cell_angle_alpha 90.000000
_cell_angle_beta 51.547612
_cell_angle_gamma 90.000000
_cell_volume 1758.232592
_symmetry_space_group_name_H-M "C C"
_symmetry_group_IT_number 9
_symmetry_cell_setting 'monoclinic'
loop_
_space_group_symop_operation_xyz
x,y,z
x,-y,1/2+z
1/2+x,1/2+y,z
1/2+x,1/2-y,1/2+z
loop_
_atom_site_type_symbol
_atom_site_label
_atom_site_fract_x
_atom_site_fract_y
_atom_site_fract_z
Si Si1 0.805710 0.886100 0.172710
Si Si2 0.286033 0.811924 0.564344
Si Si3 0.913337 0.383944 0.195945
Si Si4 0.361114 0.751519 0.311190
Si Si5 0.938193 0.303550 0.901445
Si Si6 0.889175 0.565461 0.922492
Si Si7 0.777018 0.572347 0.520226
Si Si8 0.001263 0.755993 0.153232
O O1 0.667912 0.887735 0.119220
O O2 0.636765 0.914695 0.320016
O O3 0.859743 0.815505 0.178927
O O4 0.028226 0.920691 0.091266
O O5 0.358309 0.775427 0.431547
O O6 0.276628 0.883237 0.537212
O O7 0.453557 0.796880 0.588299
O O8 0.065343 0.786059 0.694642
O O9 0.851444 0.313627 0.245188
O O10 0.819284 0.423706 0.329251
O O11 0.831873 0.407294 0.117496
O O12 0.154845 0.710629 0.374854
O O13 0.947767 0.268795 0.787799
O O14 0.896190 0.375958 0.904802
O O15 0.741938 0.277369 0.044704
O O16 0.852420 0.496479 0.971286
#
# Coordination Sequence:
#
# PCOD9139704 Si02
#       8
#     4   4   4   4   4   4   4   4
#     4   9  20  41  61  81 123 158 197 250 319 353
#     4  11  20  36  63  84 121 154 201 245 309 363
#     4   9  20  41  61  82 121 160 197 248 322 351
#     4  11  20  37  60  91 115 154 198 258 305 368
#     4  11  24  34  61  90 124 149 202 251 314 358
#     4   9  22  39  57  88 114 163 211 242 293 375
#     4  11  22  41  60  84 125 163 202 252 298 370
#     4  11  20  39  59  92 117 157 196 260 310 364
#
# _framework density 18.200094
#
# number of rings (size 3 to 8) (size 9 to 14) (size 15 to 20)
#    0.750    1.000    1.250    4.500    0.000    2.000 
#    2.250    0.000    0.000    0.000    0.000    0.000 
#    0.000    0.000    0.000    0.000    0.000    0.000 
#
# Total GULP energy -89222.386128 kJ/mol
# GULP energy per Si atom -5576.399133 kJ/mol
# Density = 1.815867 g / cm^3
# Si number density = 18.200094 Si / 1000 Ang^3
#
#
#
# Elastic Constant Matrix: (Units=GPa)
#
#
# Indices 1 2 3 4 5 6 
#
# 1 72.4258 24.1545 36.2444 0.0000 -13.6553 0.0000
# 2 24.1545 103.9731 41.6373 0.0000 -14.7736 0.0000
# 3 36.2444 41.6373 72.3406 0.0000 -9.5763 0.0000
# 4 0.0000 0.0000 0.0000 25.8532 0.0000 -0.4450
# 5 -13.6553 -14.7736 -9.5763 0.0000 31.8827 0.0000
# 6 0.0000 0.0000 0.0000 -0.4450 0.0000 17.0892
#
#
#
# Elastic Compliance Matrix: (Units=1/GPa)
#
#
# Indices 1 2 3 4 5 6 
#
# 1 0.019343 -0.000154 -0.008868 0.000000 0.005550 0.000000
# 2 -0.000154 0.012954 -0.006866 0.000000 0.003874 0.000000
# 3 -0.008868 -0.006866 0.022176 0.000000 -0.000319 0.000000
# 4 0.000000 0.000000 0.000000 0.038697 0.000000 0.001008
# 5 0.005550 0.003874 -0.000319 0.000000 0.035441 0.000000
# 6 0.000000 0.000000 0.000000 0.001008 0.000000 0.058543
#
#
# Mechanical properties :
#
#
# Convention : Reuss Voigt Hill
#
# Bulk Modulus (GPa) = 44.05820 50.31245 47.18532
# Shear Modulus (GPa) = 22.07554 24.74522 23.41038
#
# Velocity S-wave (km/s) = 3.48650 3.69130 3.59036
# Velocity P-wave (km/s) = 6.36143 6.77287 6.57037
#
# Compressibility (1/GPa) = 0.02269725
#
# Stress axis : x y z
#
# Youngs Moduli (GPa) = 51.69904 77.19856 45.09338
#
# Poissons Ratio (x) = 0.01187 0.39989
# Poissons Ratio (y) = 0.00795 0.30960
# Poissons Ratio (z) = 0.45847 0.53003
#
# Static dielectric constant tensor:
#      x y z
#    x 1.649960 0.000000 -0.000610 
#    y 0.000000 1.612210 0.000000 
#    z -0.000610 0.000000 1.626660 
# 
# From -- ./inp_files/15411.got.cif
#   From: 2010.05.17/outbox.cif.g08.bks.cpg/sg9_8_cif.got.tgz:15411.got - 2010.06.03 20:04:27.
