data_PCOD9139671
_publ_section_title
;
Structure prediction by ZEFSAII (Michael W. Deem and Ramdas Pophale) SiO2 
 PCOD9139671
Probable space group: C C
;
_chemical_formula_sum "Si O2"
_cell_formula_units_Z 32
_cell_length_a 21.228059
_cell_length_b 9.074223
_cell_length_c 7.380985
_cell_angle_alpha 90.000000
_cell_angle_beta 72.079621
_cell_angle_gamma 90.000000
_cell_volume 1352.807534
_symmetry_space_group_name_H-M "C C"
_symmetry_group_IT_number 9
_symmetry_cell_setting 'monoclinic'
loop_
_space_group_symop_operation_xyz
x,y,z
x,-y,1/2+z
1/2+x,1/2+y,z
1/2+x,1/2-y,1/2+z
loop_
_atom_site_type_symbol
_atom_site_label
_atom_site_fract_x
_atom_site_fract_y
_atom_site_fract_z
Si Si1 0.379670 0.645602 0.598390
Si Si2 0.860902 0.199436 0.039107
Si Si3 0.742499 0.221779 0.660038
Si Si4 0.217167 0.277024 0.580173
Si Si5 0.019118 0.117971 0.557016
Si Si6 0.001584 0.780312 0.491696
Si Si7 0.637167 0.802937 0.963588
Si Si8 0.661219 0.455562 0.885653
O O1 0.371493 0.697856 0.812548
O O2 0.366766 0.470728 0.595338
O O3 0.318981 0.711073 0.537199
O O4 0.456966 0.677765 0.496009
O O5 0.925928 0.275687 0.064549
O O6 0.785500 0.251009 0.127069
O O7 0.687498 0.157297 0.577379
O O8 0.721314 0.390561 0.715239
O O9 0.734967 0.153721 0.869365
O O10 0.167654 0.364083 0.751003
O O11 0.179118 0.128350 0.556984
O O12 0.018844 0.186051 0.761191
O O13 0.090866 0.122264 0.399157
O O14 0.004644 0.942326 0.581449
O O15 0.058428 0.679785 0.529612
O O16 0.648687 0.625085 0.934051
#
# Coordination Sequence:
#
# PCOD9139671 Si02
#       8
#     4   4   4   4   4   4   4   4
#     4   9  18  32  46  70  95 123 155 192 234 278
#     4   9  18  32  47  67  99 121 154 195 231 277
#     4   9  20  30  45  70  97 123 157 184 231 282
#     4   9  19  31  45  69  97 125 153 186 234 278
#     4   9  16  27  46  66  95 120 146 191 244 277
#     4   9  17  27  44  70  91 122 148 188 244 279
#     4  11  18  30  49  70  97 122 154 189 234 282
#     4   9  18  31  44  72  97 120 151 191 232 277
#
# _framework density 23.654512
#
# number of rings (size 3 to 8) (size 9 to 14) (size 15 to 20)
#    0.750    2.000    1.250    0.750    7.000    0.000 
#    0.000    0.000    0.000    0.000    0.000   10.500 
#    0.000    0.000    0.000    0.000    0.000    0.000 
#
# Total GULP energy -89082.088972 kJ/mol
# GULP energy per Si atom -5567.630561 kJ/mol
# Density = 2.360067 g / cm^3
# Si number density = 23.654512 Si / 1000 Ang^3
#
#
#
# Elastic Constant Matrix: (Units=GPa)
#
#
# Indices 1 2 3 4 5 6 
#
# 1 245.0886 23.5722 22.3464 0.0000 -15.1618 0.0000
# 2 23.5722 40.6863 -3.2979 0.0000 -7.4776 0.0000
# 3 22.3464 -3.2979 31.8655 0.0000 6.8902 0.0000
# 4 0.0000 0.0000 0.0000 13.5492 0.0000 6.6512
# 5 -15.1618 -7.4776 6.8902 0.0000 42.4045 0.0000
# 6 0.0000 0.0000 0.0000 6.6512 0.0000 27.9295
#
#
#
# Elastic Compliance Matrix: (Units=1/GPa)
#
#
# Indices 1 2 3 4 5 6 
#
# 1 0.004839 -0.002785 -0.004094 0.000000 0.001904 0.000000
# 2 -0.002785 0.027096 0.004083 0.000000 0.003119 0.000000
# 3 -0.004094 0.004083 0.036105 0.000000 -0.006610 0.000000
# 4 0.000000 0.000000 0.000000 0.083575 0.000000 -0.019903
# 5 0.001904 0.003119 -0.006610 0.000000 0.025887 0.000000
# 6 0.000000 0.000000 0.000000 -0.019903 0.000000 0.040544
#
#
# Mechanical properties :
#
#
# Convention : Reuss Voigt Hill
#
# Bulk Modulus (GPa) = 16.01320 44.76466 30.38893
# Shear Modulus (GPa) = 20.45376 35.11127 27.78252
#
# Velocity S-wave (km/s) = 2.94375 3.85689 3.43083
# Velocity P-wave (km/s) = 4.28235 6.22893 5.34500
#
# Compressibility (1/GPa) = 0.06244846
#
# Stress axis : x y z
#
# Youngs Moduli (GPa) = 206.65039 36.90545 27.69737
#
# Poissons Ratio (x) = 0.10280 0.11338
# Poissons Ratio (y) = 0.57561 -0.11310
# Poissons Ratio (z) = 0.84593 -0.15070
#
# Static dielectric constant tensor:
#      x y z
#    x 1.988480 0.000000 0.019990 
#    y 0.000000 1.893640 0.000000 
#    z 0.019990 0.000000 2.025400 
# 
# From -- ./inp_files/10655.got.cif
#   From: 2010.05.17/outbox.cif.g08.bks.cpg/sg9_6_cif.got.tgz:10655.got - 2010.06.03 20:04:27.
