data_PCOD9139774
_publ_section_title
;
Structure prediction by ZEFSAII (Michael W. Deem and Ramdas Pophale) SiO2 
 PCOD9139774
Probable space group: C C
;
_chemical_formula_sum "Si O2"
_cell_formula_units_Z 32
_cell_length_a 13.121602
_cell_length_b 15.789129
_cell_length_c 18.783874
_cell_angle_alpha 90.000000
_cell_angle_beta 23.065701
_cell_angle_gamma 90.000000
_cell_volume 1524.683046
_symmetry_space_group_name_H-M "C C"
_symmetry_group_IT_number 9
_symmetry_cell_setting 'monoclinic'
loop_
_space_group_symop_operation_xyz
x,y,z
x,-y,1/2+z
1/2+x,1/2+y,z
1/2+x,1/2-y,1/2+z
loop_
_atom_site_type_symbol
_atom_site_label
_atom_site_fract_x
_atom_site_fract_y
_atom_site_fract_z
Si Si1 0.337430 0.975453 0.818560
Si Si2 0.521416 0.039659 0.552568
Si Si3 0.122975 0.985347 0.689619
Si Si4 0.972175 0.868871 0.599764
Si Si5 0.252362 0.284692 0.883750
Si Si6 0.580701 0.001669 0.294186
Si Si7 0.595047 0.307080 0.788514
Si Si8 0.933851 0.159519 0.552812
O O1 0.590223 0.975100 0.704988
O O2 0.192170 0.885832 0.915927
O O3 0.390885 0.995012 0.703075
O O4 0.177031 0.055986 0.951619
O O5 0.306929 0.035538 0.627639
O O6 0.583819 0.138125 0.523112
O O7 0.819819 0.000136 0.361320
O O8 0.293157 0.991763 0.509591
O O9 0.136197 0.892969 0.718148
O O10 0.916388 0.824045 0.712516
O O11 0.711192 0.920624 0.751186
O O12 0.063876 0.793379 0.488874
O O13 0.428410 0.254117 0.837370
O O14 0.723085 0.911922 0.209505
O O15 0.848614 0.249847 0.638462
O O16 0.462846 0.327953 0.948737
#
# Coordination Sequence:
#
# PCOD9139774 Si02
#       8
#     4   4   4   4   4   4   4   4
#     4  11  23  41  63  93 131 172 214 263 328 391
#     4  11  23  42  69  97 131 167 218 268 324 387
#     4  11  23  42  69  97 131 167 218 268 324 387
#     4  11  23  39  64  94 129 164 217 266 329 382
#     4  11  21  39  64  95 127 167 213 274 324 373
#     4  11  23  41  63  93 131 172 214 263 328 391
#     4  11  21  39  64  95 127 167 213 274 324 373
#     4  11  23  39  64  94 129 164 217 266 329 382
#
# _framework density 20.987969
#
# number of rings (size 3 to 8) (size 9 to 14) (size 15 to 20)
#    0.000    1.000    2.500    6.000    3.500    0.000 
#    0.000    2.500    0.000    0.000    0.000    0.000 
#    0.000    0.000    0.000    0.000    0.000    0.000 
#
# Total GULP energy -89093.774298 kJ/mol
# GULP energy per Si atom -5568.360894 kJ/mol
# Density = 2.094020 g / cm^3
# Si number density = 20.987969 Si / 1000 Ang^3
#
#
#
# Elastic Constant Matrix: (Units=GPa)
#
#
# Indices 1 2 3 4 5 6 
#
# 1 34.0787 -8.4645 3.3795 -0.0593 6.6944 0.0023
# 2 -8.4645 75.7099 24.4734 -0.1219 -4.4296 0.0060
# 3 3.3795 24.4734 67.1395 -0.1328 0.7020 0.0033
# 4 -0.0593 -0.1219 -0.1328 24.9327 0.0400 -1.6968
# 5 6.6944 -4.4296 0.7020 0.0400 22.6165 -0.0011
# 6 0.0023 0.0060 0.0033 -1.6968 -0.0011 19.0510
#
#
#
# Elastic Compliance Matrix: (Units=1/GPa)
#
#
# Indices 1 2 3 4 5 6 
#
# 1 0.032366 0.004090 -0.003029 0.000095 -0.008685 0.000003
# 2 0.004090 0.015710 -0.005954 0.000052 0.002051 0.000000
# 3 -0.003029 -0.005954 0.017226 0.000057 -0.000804 0.000004
# 4 0.000095 0.000052 0.000057 0.040354 -0.000091 0.003594
# 5 -0.008685 0.002051 -0.000804 -0.000091 0.047213 -0.000005
# 6 0.000003 0.000000 0.000004 0.003594 -0.000005 0.052811
#
#
# Mechanical properties :
#
#
# Convention : Reuss Voigt Hill
#
# Bulk Modulus (GPa) = 18.01280 23.96721 20.99000
# Shear Modulus (GPa) = 21.37015 23.82268 22.59642
#
# Velocity S-wave (km/s) = 3.19440 3.37273 3.28477
# Velocity P-wave (km/s) = 4.71240 5.15862 4.94055
#
# Compressibility (1/GPa) = 0.05551608
#
# Stress axis : x y z
#
# Youngs Moduli (GPa) = 30.89631 63.65276 58.05303
#
# Poissons Ratio (x) = -0.26032 0.17584
# Poissons Ratio (y) = -0.12636 0.34564
# Poissons Ratio (z) = 0.09358 0.37898
#
# Static dielectric constant tensor:
#      x y z
#    x 1.888660 0.000020 -0.068020 
#    y 0.000020 1.728340 0.000030 
#    z -0.068020 0.000030 1.831380 
# 
# From -- ./inp_files/9683.got.cif
#   From: 2010.05.17/outbox.cif.g08.bks.cpg/sg9_5_cif.got.tgz:9683.got - 2010.06.03 20:04:27.
