data_PCOD9139160
_publ_section_title
;
Structure prediction by ZEFSAII (Michael W. Deem and Ramdas Pophale) SiO2 
 PCOD9139160
Probable space group: C C
;
_chemical_formula_sum "Si O2"
_cell_formula_units_Z 24
_cell_length_a 26.506257
_cell_length_b 5.078942
_cell_length_c 14.060088
_cell_angle_alpha 90.000000
_cell_angle_beta 150.645106
_cell_angle_gamma 90.000000
_cell_volume 927.894756
_symmetry_space_group_name_H-M "C C"
_symmetry_group_IT_number 9
_symmetry_cell_setting 'monoclinic'
loop_
_space_group_symop_operation_xyz
x,y,z
x,-y,1/2+z
1/2+x,1/2+y,z
1/2+x,1/2-y,1/2+z
loop_
_atom_site_type_symbol
_atom_site_label
_atom_site_fract_x
_atom_site_fract_y
_atom_site_fract_z
Si Si1 0.064520 0.331266 0.653990
Si Si2 0.906931 0.738498 0.318195
Si Si3 0.923105 0.039239 0.021280
Si Si4 0.613645 0.159380 0.903688
Si Si5 0.729340 0.091808 0.288544
Si Si6 0.794143 0.254200 0.053553
O O1 0.087516 0.398846 0.801022
O O2 0.165752 0.252436 0.763860
O O3 0.016564 0.591249 0.524804
O O4 0.983331 0.101159 0.533205
O O5 0.860375 0.510995 0.175190
O O6 0.860866 0.755644 0.351410
O O7 0.864966 0.999007 0.195233
O O8 0.008539 0.171445 0.227775
O O9 0.843843 0.845059 0.940530
O O10 0.703000 0.275032 0.982107
O O11 0.657243 0.101682 0.078192
O O12 0.750037 0.815068 0.377193
#
# Coordination Sequence:
#
# PCOD9139160 Si02
#       6
#     4   4   4   4   4   4
#     4  10  24  46  76 112 158 207 264 335 395 470
#     4  11  22  48  76 105 157 197 256 331 385 463
#     4  11  24  47  77 112 160 215 262 334 399 471
#     4  10  24  45  72 106 154 201 265 328 387 478
#     4  11  25  48  74 119 152 219 266 323 408 482
#     4  11  25  46  75 114 151 203 259 329 390 466
#
# _framework density 25.865002
#
# number of rings (size 3 to 8) (size 9 to 14) (size 15 to 20)
#    0.000    1.333    3.333    0.000    7.000    1.333 
#    9.000    0.000    0.000    0.000    0.000    0.000 
#    0.000    0.000    0.000    0.000    0.000    0.000 
#
# Total GULP energy -66954.423733 kJ/mol
# GULP energy per Si atom -5579.535311 kJ/mol
# Density = 2.580613 g / cm^3
# Si number density = 25.865002 Si / 1000 Ang^3
#
#
#
# Elastic Constant Matrix: (Units=GPa)
#
#
# Indices 1 2 3 4 5 6 
#
# 1 116.1820 16.1784 60.5515 0.0000 -10.5390 0.0000
# 2 16.1784 84.5541 35.5541 0.0003 -5.8699 0.0004
# 3 60.5515 35.5541 129.1795 0.0000 -30.2289 0.0000
# 4 0.0000 0.0003 0.0000 22.5856 0.0000 -4.1795
# 5 -10.5390 -5.8699 -30.2289 0.0000 49.3393 0.0000
# 6 0.0000 0.0004 0.0000 -4.1795 0.0000 16.1132
#
#
#
# Elastic Compliance Matrix: (Units=1/GPa)
#
#
# Indices 1 2 3 4 5 6 
#
# 1 0.011431 0.000107 -0.005619 0.000000 -0.000988 0.000000
# 2 0.000107 0.013401 -0.003922 0.000000 -0.000786 0.000000
# 3 -0.005619 -0.003922 0.012916 0.000000 0.006247 0.000000
# 4 0.000000 0.000000 0.000000 0.046509 0.000000 0.012064
# 5 -0.000988 -0.000786 0.006247 0.000000 0.023790 0.000000
# 6 0.000000 0.000000 0.000000 0.012064 0.000000 0.065190
#
#
# Mechanical properties :
#
#
# Convention : Reuss Voigt Hill
#
# Bulk Modulus (GPa) = 52.96707 61.60930 57.28818
# Shear Modulus (GPa) = 25.20170 32.11639 28.65905
#
# Velocity S-wave (km/s) = 3.12485 3.52759 3.33231
# Velocity P-wave (km/s) = 5.79157 6.36106 6.08299
#
# Compressibility (1/GPa) = 0.01887966
#
# Stress axis : x y z
#
# Youngs Moduli (GPa) = 87.48079 74.62099 77.42194
#
# Poissons Ratio (x) = -0.00797 0.43502
# Poissons Ratio (y) = -0.00935 0.30368
# Poissons Ratio (z) = 0.49154 0.29269
#
# Static dielectric constant tensor:
#      x y z
#    x 2.051010 0.000000 0.012910 
#    y 0.000000 2.279930 0.000000 
#    z 0.012910 0.000000 2.233830 
# 
# From -- ./inp_files/31647.got.cif
#   From: 2010.05.17/outbox.cif.g08.bks.cpg/sg9_16_cif.got.tgz:31647.got - 2010.06.03 20:04:27.
