data_PCOD9139689
_publ_section_title
;
Structure prediction by ZEFSAII (Michael W. Deem and Ramdas Pophale) SiO2 
 PCOD9139689
Probable space group: C C
;
_chemical_formula_sum "Si O2"
_cell_formula_units_Z 32
_cell_length_a 12.374234
_cell_length_b 12.045352
_cell_length_c 9.241275
_cell_angle_alpha 90.000000
_cell_angle_beta 72.428231
_cell_angle_gamma 90.000000
_cell_volume 1313.159013
_symmetry_space_group_name_H-M "C C"
_symmetry_group_IT_number 9
_symmetry_cell_setting 'monoclinic'
loop_
_space_group_symop_operation_xyz
x,y,z
x,-y,1/2+z
1/2+x,1/2+y,z
1/2+x,1/2-y,1/2+z
loop_
_atom_site_type_symbol
_atom_site_label
_atom_site_fract_x
_atom_site_fract_y
_atom_site_fract_z
Si Si1 0.030860 0.286651 0.246840
Si Si2 0.509742 0.379465 0.972101
Si Si3 0.942486 0.105394 0.834421
Si Si4 0.885533 0.580504 0.162690
Si Si5 0.307774 0.140680 0.682197
Si Si6 0.615457 0.235797 0.425994
Si Si7 0.258183 0.764263 0.892531
Si Si8 0.042593 0.493864 0.852842
O O1 0.957198 0.212199 0.385454
O O2 0.101182 0.390934 0.282652
O O3 0.935445 0.339138 0.180647
O O4 0.108056 0.226462 0.096243
O O5 0.485749 0.494757 0.898317
O O6 0.631216 0.311767 0.924245
O O7 0.474814 0.398444 0.151683
O O8 0.013029 0.204883 0.881065
O O9 0.809514 0.141335 0.903984
O O10 0.788139 0.488119 0.225869
O O11 0.829265 0.695934 0.224146
O O12 0.988106 0.564297 0.234844
O O13 0.940238 0.546795 0.988909
O O14 0.225380 0.218499 0.803310
O O15 0.295146 0.166203 0.519315
O O16 0.609251 0.102362 0.408113
#
# Coordination Sequence:
#
# PCOD9139689 Si02
#       8
#     4   4   4   4   4   4   4   4
#     4  11  25  46  69 107 146 196 253 320 384 458
#     4  12  29  47  76 112 154 212 260 318 402 473
#     4  12  25  49  76 109 158 199 256 332 383 468
#     4  11  19  39  68 102 132 179 240 310 367 440
#     4  11  23  41  71 106 144 197 247 312 387 457
#     4  12  22  44  71 101 147 192 245 316 388 458
#     4  12  24  45  76 111 148 200 262 314 395 469
#     4  11  21  39  71  98 137 179 235 312 376 433
#
# _framework density 24.368718000000001
#
# number of rings (size 3 to 8) (size 9 to 14) (size 15 to 20)
#    0.000    0.500    7.500    2.250    0.000    3.000 
#    2.250    0.000    0.000    0.000    0.000    0.000 
#    0.000    0.000    0.000    0.000    0.000    0.000 
#
# Total GULP energy -89243.037831 kJ/mol
# GULP energy per Si atom -5577.689864 kJ/mol
# Density = 2.431325 g / cm^3
# Si number density = 24.368718 Si / 1000 Ang^3
#
#
#
# Elastic Constant Matrix: (Units=GPa)
#
#
# Indices 1 2 3 4 5 6 
#
# 1 68.9665 17.6270 -2.0996 0.0000 0.2063 0.0000
# 2 17.6270 146.2695 31.9905 0.0000 4.6787 0.0000
# 3 -2.0996 31.9905 116.9189 0.0000 11.4299 0.0000
# 4 0.0000 0.0000 0.0000 36.2096 0.0000 6.6839
# 5 0.2063 4.6787 11.4299 0.0000 24.3242 0.0000
# 6 0.0000 0.0000 0.0000 6.6839 0.0000 27.1273
#
#
#
# Elastic Compliance Matrix: (Units=1/GPa)
#
#
# Indices 1 2 3 4 5 6 
#
# 1 0.015034 -0.001988 0.000827 0.000000 -0.000134 0.000000
# 2 -0.001988 0.007540 -0.002053 0.000000 -0.000469 0.000000
# 3 0.000827 -0.002053 0.009529 0.000000 -0.004090 0.000000
# 4 0.000000 0.000000 0.000000 0.028933 0.000000 -0.007129
# 5 -0.000134 -0.000469 -0.004090 0.000000 0.043125 0.000000
# 6 0.000000 0.000000 0.000000 -0.007129 0.000000 0.038620
#
#
# Mechanical properties :
#
#
# Convention : Reuss Voigt Hill
#
# Bulk Modulus (GPa) = 38.94881 47.46562 43.20721
# Shear Modulus (GPa) = 31.69230 36.50802 34.10016
#
# Velocity S-wave (km/s) = 3.61020 3.87479 3.74484
# Velocity P-wave (km/s) = 5.77892 6.28801 6.03883
#
# Compressibility (1/GPa) = 0.02567473
#
# Stress axis : x y z
#
# Youngs Moduli (GPa) = 66.51786 132.62052 104.93896
#
# Poissons Ratio (x) = 0.26369 -0.08679
# Poissons Ratio (y) = 0.13226 0.21544
# Poissons Ratio (z) = -0.05501 0.27227
#
# Static dielectric constant tensor:
#      x y z
#    x 2.026910 0.000000 0.012750 
#    y 0.000000 2.107690 0.000000 
#    z 0.012750 0.000000 1.998240 
# 
# From -- ./inp_files/9074.got.cif
#   From: 2010.05.17/outbox.cif.g08.bks.cpg/sg9_5_cif.got.tgz:9074.got - 2010.06.03 20:04:27.
