data_PCOD9139001
_publ_section_title
;
Structure prediction by ZEFSAII (Michael W. Deem and Ramdas Pophale) SiO2 
 PCOD9139001
Probable space group: C C
;
_chemical_formula_sum "Si O2"
_cell_formula_units_Z 24
_cell_length_a 13.162966
_cell_length_b 11.557835
_cell_length_c 15.417703
_cell_angle_alpha 90.000000
_cell_angle_beta 157.673914
_cell_angle_gamma 90.000000
_cell_volume 891.032062
_symmetry_space_group_name_H-M "C C"
_symmetry_group_IT_number 9
_symmetry_cell_setting 'monoclinic'
loop_
_space_group_symop_operation_xyz
x,y,z
x,-y,1/2+z
1/2+x,1/2+y,z
1/2+x,1/2-y,1/2+z
loop_
_atom_site_type_symbol
_atom_site_label
_atom_site_fract_x
_atom_site_fract_y
_atom_site_fract_z
Si Si1 0.968620 0.297672 0.464640
Si Si2 0.795297 0.453887 0.840054
Si Si3 0.091206 0.234870 0.314790
Si Si4 0.710684 0.115331 0.550320
Si Si5 0.763592 0.657203 0.984938
Si Si6 0.712851 0.013752 0.874987
O O1 0.996091 0.437466 0.480977
O O2 0.781209 0.285596 0.403329
O O3 0.262524 0.248487 0.726351
O O4 0.693352 0.378231 0.842571
O O5 0.516609 0.510834 0.589782
O O6 0.954596 0.364711 0.906511
O O7 0.267717 0.252976 0.543018
O O8 0.181445 0.350793 0.335672
O O9 0.788051 0.240810 0.572532
O O10 0.660628 0.026663 0.432494
O O11 0.007113 0.084266 0.816663
O O12 0.994489 0.562476 0.156295
#
# Coordination Sequence:
#
# PCOD9139001 Si02
#       6
#     4   4   4   4   4   4
#     4  12  23  46  78 104 146 203 250 305 385 465
#     4  11  26  47  74 112 151 198 259 319 381 456
#     4  10  24  43  70 102 147 194 244 303 380 448
#     4  12  25  44  73 116 147 199 262 323 373 457
#     4  12  22  42  76 108 149 197 257 318 377 447
#     4  11  24  46  69 106 156 199 242 318 394 447
#
# _framework density 26.935058999999999
#
# number of rings (size 3 to 8) (size 9 to 14) (size 15 to 20)
#    0.000    0.667    5.000    2.000    7.000    1.333 
#    6.000    3.333    0.000    0.000    0.000    0.000 
#    0.000    0.000    0.000    0.000    0.000    0.000 
#
# Total GULP energy -66819.231602 kJ/mol
# GULP energy per Si atom -5568.269300 kJ/mol
# Density = 2.687375 g / cm^3
# Si number density = 26.935059 Si / 1000 Ang^3
#
#
#
# Elastic Constant Matrix: (Units=GPa)
#
#
# Indices 1 2 3 4 5 6 
#
# 1 63.9431 -3.0752 69.9072 0.0164 18.0261 0.0109
# 2 -3.0752 136.1369 26.5026 0.2653 -2.7722 -0.0105
# 3 69.9072 26.5026 188.4242 0.0603 -4.8034 -0.0246
# 4 0.0164 0.2653 0.0603 37.4168 -0.0605 3.7925
# 5 18.0261 -2.7722 -4.8034 -0.0605 32.9130 -0.0346
# 6 0.0109 -0.0105 -0.0246 3.7925 -0.0346 10.1596
#
#
#
# Elastic Compliance Matrix: (Units=1/GPa)
#
#
# Indices 1 2 3 4 5 6 
#
# 1 0.039974 0.003518 -0.015935 -0.000041 -0.023923 -0.000144
# 2 0.003518 0.007870 -0.002453 -0.000057 -0.001622 0.000014
# 3 -0.015935 -0.002453 0.011826 0.000015 0.010247 0.000073
# 4 -0.000041 -0.000057 0.000015 0.027777 0.000060 -0.010369
# 5 -0.023923 -0.001622 0.010247 0.000060 0.044844 0.000179
# 6 -0.000144 0.000014 0.000073 -0.010369 0.000179 0.102301
#
#
# Mechanical properties :
#
#
# Convention : Reuss Voigt Hill
#
# Bulk Modulus (GPa) = 33.41382 63.90816 48.66099
# Shear Modulus (GPa) = 18.22758 35.77585 27.00172
#
# Velocity S-wave (km/s) = 2.60421 3.64844 3.16962
# Velocity P-wave (km/s) = 4.63409 6.44410 5.61254
#
# Compressibility (1/GPa) = 0.02992773
#
# Stress axis : x y z
#
# Youngs Moduli (GPa) = 25.01636 127.06906 84.56178
#
# Poissons Ratio (x) = -0.44704 1.34752
# Poissons Ratio (y) = -0.08801 0.20747
# Poissons Ratio (z) = 0.39865 0.31176
#
# Static dielectric constant tensor:
#      x y z
#    x 2.090030 0.000010 -0.184260 
#    y 0.000010 2.117960 -0.000020 
#    z -0.184260 -0.000020 2.586130 
# 
# From -- ./inp_files/30702.got.cif
#   From: 2010.05.17/outbox.cif.g08.bks.cpg/sg9_16_cif.got.tgz:30702.got - 2010.06.03 20:04:27.
