data_PCOD9139205
_publ_section_title
;
Structure prediction by ZEFSAII (Michael W. Deem and Ramdas Pophale) SiO2 
 PCOD9139205
Probable space group: C C
;
_chemical_formula_sum "Si O2"
_cell_formula_units_Z 24
_cell_length_a 25.556934
_cell_length_b 5.214985
_cell_length_c 10.451330
_cell_angle_alpha 90.000000
_cell_angle_beta 42.918738
_cell_angle_gamma 90.000000
_cell_volume 948.539094
_symmetry_space_group_name_H-M "C C"
_symmetry_group_IT_number 9
_symmetry_cell_setting 'monoclinic'
loop_
_space_group_symop_operation_xyz
x,y,z
x,-y,1/2+z
1/2+x,1/2+y,z
1/2+x,1/2-y,1/2+z
loop_
_atom_site_type_symbol
_atom_site_label
_atom_site_fract_x
_atom_site_fract_y
_atom_site_fract_z
Si Si1 0.341680 0.385836 0.876330
Si Si2 0.192175 0.525024 0.250274
Si Si3 0.269858 0.887056 0.934189
Si Si4 0.120841 0.147999 0.555542
Si Si5 0.544872 0.992981 0.867884
Si Si6 0.000365 0.771086 0.694899
O O1 0.316462 0.621819 0.831778
O O2 0.422398 0.417763 0.800217
O O3 0.330437 0.114390 0.828962
O O4 0.272292 0.375610 0.103124
O O5 0.146272 0.426429 0.454668
O O6 0.132502 0.429174 0.247601
O O7 0.222453 0.803312 0.149462
O O8 0.200702 0.958514 0.964445
O O9 0.059686 0.216068 0.775645
O O10 0.074416 0.956094 0.548518
O O11 0.503910 0.158180 0.832138
O O12 0.505301 0.946342 0.075278
#
# Coordination Sequence:
#
# PCOD9139205 Si02
#       6
#     4   4   4   4   4   4
#     4  10  24  46  70 109 149 197 254 317 394 450
#     4   9  22  43  72 104 140 199 257 306 373 459
#     4   9  23  45  72 106 146 197 251 315 378 461
#     4  11  24  44  78 108 150 202 267 317 384 472
#     4  11  25  45  72 107 153 198 261 311 391 469
#     4  12  28  45  76 112 160 203 260 328 400 459
#
# _framework density 25.302068999999999
#
# number of rings (size 3 to 8) (size 9 to 14) (size 15 to 20)
#    1.000    0.667    1.667    1.000    9.333    1.333 
#    6.000    0.000    0.000    0.000    0.000    0.000 
#    0.000    0.000    0.000    0.000    0.000    0.000 
#
# Total GULP energy -66874.776270 kJ/mol
# GULP energy per Si atom -5572.898022 kJ/mol
# Density = 2.524448 g / cm^3
# Si number density = 25.302069 Si / 1000 Ang^3
#
#
#
# Elastic Constant Matrix: (Units=GPa)
#
#
# Indices 1 2 3 4 5 6 
#
# 1 165.6924 56.3653 43.3511 0.0002 -31.8294 0.0000
# 2 56.3653 121.3144 14.8627 0.0000 -14.0649 0.0013
# 3 43.3511 14.8627 45.5914 0.0000 -2.4642 0.0000
# 4 0.0002 0.0000 0.0000 22.7921 -0.0002 -2.1669
# 5 -31.8294 -14.0649 -2.4642 -0.0002 52.8962 -0.0002
# 6 0.0000 0.0013 0.0000 -2.1669 -0.0002 36.2913
#
#
#
# Elastic Compliance Matrix: (Units=1/GPa)
#
#
# Indices 1 2 3 4 5 6 
#
# 1 0.010280 -0.003164 -0.008476 0.000000 0.004950 0.000000
# 2 -0.003164 0.009813 -0.000153 0.000000 0.000698 0.000000
# 3 -0.008476 -0.000153 0.029840 0.000000 -0.003751 0.000000
# 4 0.000000 0.000000 0.000000 0.044125 0.000000 0.002635
# 5 0.004950 0.000698 -0.003751 0.000000 0.021894 0.000000
# 6 0.000000 0.000000 0.000000 0.002635 0.000000 0.027712
#
#
# Mechanical properties :
#
#
# Convention : Reuss Voigt Hill
#
# Bulk Modulus (GPa) = 37.95344 62.41737 50.18540
# Shear Modulus (GPa) = 28.40377 36.93053 32.66715
#
# Velocity S-wave (km/s) = 3.35414 3.82460 3.59707
# Velocity P-wave (km/s) = 5.48024 6.65025 6.09339
#
# Compressibility (1/GPa) = 0.02634808
#
# Stress axis : x y z
#
# Youngs Moduli (GPa) = 97.27544 101.90789 33.51156
#
# Poissons Ratio (x) = 0.32244 0.28404
# Poissons Ratio (y) = 0.30779 0.00511
# Poissons Ratio (z) = 0.82450 0.01555
#
# Static dielectric constant tensor:
#      x y z
#    x 2.009500 0.000000 0.083470 
#    y 0.000000 2.078060 0.000000 
#    z 0.083470 0.000000 2.075080 
# 
# From -- ./inp_files/20428.got.cif
#   From: 2010.05.17/outbox.cif.g08.bks.cpg/sg9_11_cif.got.tgz:20428.got - 2010.06.03 20:04:27.
