data_PCOD9139629
_publ_section_title
;
Structure prediction by ZEFSAII (Michael W. Deem and Ramdas Pophale) SiO2 
 PCOD9139629
Probable space group: C C
;
_chemical_formula_sum "Si O2"
_cell_formula_units_Z 28
_cell_length_a 5.197439
_cell_length_b 23.865016
_cell_length_c 8.789891
_cell_angle_alpha 90.000000
_cell_angle_beta 85.831472
_cell_angle_gamma 90.000000
_cell_volume 1087.387149
_symmetry_space_group_name_H-M "C C"
_symmetry_group_IT_number 9
_symmetry_cell_setting 'monoclinic'
loop_
_space_group_symop_operation_xyz
x,y,z
x,-y,1/2+z
1/2+x,1/2+y,z
1/2+x,1/2-y,1/2+z
loop_
_atom_site_type_symbol
_atom_site_label
_atom_site_fract_x
_atom_site_fract_y
_atom_site_fract_z
Si Si1 0.570170 0.475520 0.878650
Si Si2 0.409047 0.974253 0.595039
Si Si3 0.397129 0.737313 0.400157
Si Si4 0.657500 0.080447 0.604123
Si Si5 0.910994 0.670376 0.426658
Si Si6 0.202731 0.311629 0.618427
Si Si7 0.323227 0.596892 0.913097
O O1 0.670522 0.457768 0.710387
O O2 0.493409 0.541174 0.889617
O O3 0.815719 0.480406 0.976389
O O4 0.360199 0.435728 0.963256
O O5 0.563542 0.926206 0.505488
O O6 0.590959 0.018501 0.677806
O O7 0.118158 0.717464 0.469714
O O8 0.333758 0.735723 0.221647
O O9 0.515910 0.787475 0.494322
O O10 0.622146 0.691083 0.415144
O O11 0.443472 0.121489 0.545834
O O12 0.776885 0.114088 0.741566
O O13 0.033699 0.656042 0.255164
O O14 0.398955 0.352304 0.520205
#
# Coordination Sequence:
#
# PCOD9139629 Si02
#       7
#     4   4   4   4   4   4   4
#     4  11  24  42  66  99 151 200 244 304 368 445
#     4  11  24  42  66 101 150 199 246 302 372 442
#     4  10  26  49  74 110 144 197 248 322 381 453
#     4  11  25  42  68 107 148 196 255 305 372 452
#     4  10  27  45  75 109 142 198 243 318 376 456
#     4  10  27  46  78 105 149 196 254 318 385 455
#     4  11  25  44  67 111 142 198 254 307 372 457
#
# _framework density 25.749798999999999
#
# number of rings (size 3 to 8) (size 9 to 14) (size 15 to 20)
#    0.857    0.571    2.857    0.000   10.000    1.143 
#    0.000    0.000    0.000    0.000    0.000    0.000 
#    0.000    0.000    0.000    0.000    0.000    0.000 
#
# Total GULP energy -78104.492753 kJ/mol
# GULP energy per Si atom -5578.892339 kJ/mol
# Density = 2.569119 g / cm^3
# Si number density = 25.749799 Si / 1000 Ang^3
#
#
#
# Elastic Constant Matrix: (Units=GPa)
#
#
# Indices 1 2 3 4 5 6 
#
# 1 77.6415 10.6490 23.2018 0.0000 -5.9963 0.0000
# 2 10.6490 56.9620 33.7260 0.0000 3.3026 0.0000
# 3 23.2018 33.7260 125.5501 0.0000 -14.6806 0.0000
# 4 0.0000 0.0000 0.0000 40.2728 0.0000 7.0518
# 5 -5.9963 3.3026 -14.6806 0.0000 40.4841 0.0000
# 6 0.0000 0.0000 0.0000 7.0518 0.0000 46.6698
#
#
#
# Elastic Compliance Matrix: (Units=1/GPa)
#
#
# Indices 1 2 3 4 5 6 
#
# 1 0.013787 -0.001490 -0.001979 0.000000 0.001446 0.000000
# 2 -0.001490 0.021644 -0.006027 0.000000 -0.004172 0.000000
# 3 -0.001979 -0.006027 0.010414 0.000000 0.003975 0.000000
# 4 0.000000 0.000000 0.000000 0.025505 0.000000 -0.003854
# 5 0.001446 -0.004172 0.003975 0.000000 0.026697 0.000000
# 6 0.000000 0.000000 0.000000 -0.003854 0.000000 0.022009
#
#
# Mechanical properties :
#
#
# Convention : Reuss Voigt Hill
#
# Bulk Modulus (GPa) = 37.23649 43.92302 40.57976
# Shear Modulus (GPa) = 33.78391 38.32379 36.05385
#
# Velocity S-wave (km/s) = 3.62609 3.86205 3.74593
# Velocity P-wave (km/s) = 5.65895 6.08128 5.87391
#
# Compressibility (1/GPa) = 0.02685537
#
# Stress axis : x y z
#
# Youngs Moduli (GPa) = 72.53211 46.20172 96.02169
#
# Poissons Ratio (x) = 0.06883 0.18998
# Poissons Ratio (y) = 0.10806 0.57869
# Poissons Ratio (z) = 0.14351 0.27844
#
# Static dielectric constant tensor:
#      x y z
#    x 2.115630 0.000000 0.134310 
#    y 0.000000 2.060920 0.000000 
#    z 0.134310 0.000000 2.082260 
# 
# From -- ./inp_files/4087.got.cif
#   From: 2010.05.17/outbox.cif.g08.bks.cpg/sg9_3_cif.got.tgz:4087.got - 2010.06.03 20:04:27.
