data_PCOD9139624
_publ_section_title
;
Structure prediction by ZEFSAII (Michael W. Deem and Ramdas Pophale) SiO2 
 PCOD9139624
Probable space group: C C
;
_chemical_formula_sum "Si O2"
_cell_formula_units_Z 32
_cell_length_a 29.805804
_cell_length_b 6.022995
_cell_length_c 19.431149
_cell_angle_alpha 90.000000
_cell_angle_beta 157.416026
_cell_angle_gamma 90.000000
_cell_volume 1339.630370
_symmetry_space_group_name_H-M "C C"
_symmetry_group_IT_number 9
_symmetry_cell_setting 'monoclinic'
loop_
_space_group_symop_operation_xyz
x,y,z
x,-y,1/2+z
1/2+x,1/2+y,z
1/2+x,1/2-y,1/2+z
loop_
_atom_site_type_symbol
_atom_site_label
_atom_site_fract_x
_atom_site_fract_y
_atom_site_fract_z
Si Si1 0.646240 0.395534 0.296160
Si Si2 0.675265 0.284960 0.178522
Si Si3 0.244361 0.158868 0.165670
Si Si4 0.389651 0.456532 0.459473
Si Si5 0.716569 0.686599 0.513904
Si Si6 0.341427 0.583096 0.636505
Si Si7 0.021401 0.568748 0.383883
Si Si8 0.952701 0.244432 0.185392
O O1 0.657038 0.374698 0.229640
O O2 0.692208 0.616763 0.400370
O O3 0.724467 0.203452 0.442307
O O4 0.508556 0.404514 0.119504
O O5 0.785121 0.119378 0.331219
O O6 0.707027 0.483321 0.171798
O O7 0.568150 0.132466 0.997741
O O8 0.352157 0.309844 0.341441
O O9 0.265191 0.017627 0.126847
O O10 0.299050 0.601947 0.130080
O O11 0.132275 0.319735 0.004020
O O12 0.401357 0.279019 0.537562
O O13 0.591834 0.727564 0.372231
O O14 0.402805 0.455361 0.659976
O O15 0.443730 0.742497 0.808643
O O16 0.937121 0.468563 0.205754
#
# Coordination Sequence:
#
# PCOD9139624 Si02
#       8
#     4   4   4   4   4   4   4   4
#     4  11  27  49  77 113 150 201 260 309 384 454
#     4  11  24  51  78 109 154 202 248 316 388 451
#     4  11  25  50  76 106 155 199 250 315 384 452
#     4  10  26  48  79 110 154 199 250 319 379 456
#     4  11  26  47  76 113 147 201 260 312 381 456
#     4  12  25  45  79 108 152 198 257 317 373 459
#     4  11  24  47  78 108 145 202 252 313 376 449
#     4  11  23  49  75 109 147 200 251 311 379 451
#
# _framework density 23.887186
#
# number of rings (size 3 to 8) (size 9 to 14) (size 15 to 20)
#    0.000    1.000    3.750    0.750    5.250    2.000 
#   13.500    0.000    0.000    0.000    0.000    0.000 
#    0.000    0.000    0.000    0.000    0.000    0.000 
#
# Total GULP energy -89577.324782 kJ/mol
# GULP energy per Si atom -5598.582799 kJ/mol
# Density = 2.383282 g / cm^3
# Si number density = 23.887186 Si / 1000 Ang^3
#
#
#
# Elastic Constant Matrix: (Units=GPa)
#
#
# Indices 1 2 3 4 5 6 
#
# 1 116.0509 41.8433 52.2891 0.0000 -9.0920 0.0000
# 2 41.8433 96.5018 48.8731 -0.0001 0.0786 0.0000
# 3 52.2891 48.8731 108.6970 0.0000 12.6655 0.0000
# 4 0.0000 -0.0001 0.0000 39.4056 0.0000 11.7174
# 5 -9.0920 0.0786 12.6655 0.0000 45.8781 0.0000
# 6 0.0000 0.0000 0.0000 11.7174 0.0000 54.6062
#
#
#
# Elastic Compliance Matrix: (Units=1/GPa)
#
#
# Indices 1 2 3 4 5 6 
#
# 1 0.012187 -0.002710 -0.005090 0.000000 0.003825 0.000000
# 2 -0.002710 0.014149 -0.005159 0.000000 0.000863 0.000000
# 3 -0.005090 -0.005159 0.014553 0.000000 -0.005017 0.000000
# 4 0.000000 0.000000 0.000000 0.027107 0.000000 -0.005817
# 5 0.003825 0.000863 -0.005017 0.000000 0.023939 0.000000
# 6 0.000000 0.000000 0.000000 -0.005817 0.000000 0.019561
#
#
# Mechanical properties :
#
#
# Convention : Reuss Voigt Hill
#
# Bulk Modulus (GPa) = 66.79194 67.47343 67.13269
# Shear Modulus (GPa) = 35.11152 39.86093 37.48623
#
# Velocity S-wave (km/s) = 3.83807 4.08942 3.96574
# Velocity P-wave (km/s) = 6.90385 7.11378 7.00960
#
# Compressibility (1/GPa) = 0.01497187
#
# Stress axis : x y z
#
# Youngs Moduli (GPa) = 82.05513 70.67390 68.71557
#
# Poissons Ratio (x) = 0.19150 0.34976
# Poissons Ratio (y) = 0.22234 0.35451
# Poissons Ratio (z) = 0.41766 0.36461
#
# Static dielectric constant tensor:
#      x y z
#    x 1.909640 0.000000 0.004180 
#    y 0.000000 1.912230 0.000000 
#    z 0.004180 0.000000 1.901220 
# 
# From -- ./inp_files/27740.got.cif
#   From: 2010.05.17/outbox.cif.g08.bks.cpg/sg9_14_cif.got.tgz:27740.got - 2010.06.03 20:04:27.
