data_PCOD9139793
_publ_section_title
;
Structure prediction by ZEFSAII (Michael W. Deem and Ramdas Pophale) SiO2 
 PCOD9139793
Probable space group: C C
;
_chemical_formula_sum "Si O2"
_cell_formula_units_Z 32
_cell_length_a 20.165572
_cell_length_b 15.852661
_cell_length_c 14.498734
_cell_angle_alpha 90.000000
_cell_angle_beta 18.120036
_cell_angle_gamma 90.000000
_cell_volume 1441.502760
_symmetry_space_group_name_H-M "C C"
_symmetry_group_IT_number 9
_symmetry_cell_setting 'monoclinic'
loop_
_space_group_symop_operation_xyz
x,y,z
x,-y,1/2+z
1/2+x,1/2+y,z
1/2+x,1/2-y,1/2+z
loop_
_atom_site_type_symbol
_atom_site_label
_atom_site_fract_x
_atom_site_fract_y
_atom_site_fract_z
Si Si1 0.139060 0.676158 0.052100
Si Si2 0.507871 0.985407 0.242167
Si Si3 0.595062 0.866461 0.285122
Si Si4 0.895017 0.160495 0.898825
Si Si5 0.625429 0.067820 0.405462
Si Si6 0.543444 0.469257 0.922050
Si Si7 0.902243 0.804362 0.028881
Si Si8 0.226477 0.954616 0.874507
O O1 0.074592 0.578808 0.122123
O O2 0.977466 0.744862 0.307395
O O3 0.309505 0.666570 0.907866
O O4 0.218431 0.711195 0.848708
O O5 0.613183 0.947290 0.195246
O O6 0.261204 0.998965 0.589421
O O7 0.556790 0.913785 0.101436
O O8 0.797962 0.851084 0.080341
O O9 0.531812 0.776834 0.325498
O O10 0.388681 0.884862 0.620716
O O11 0.083757 0.090342 0.641274
O O12 0.717608 0.131467 0.207395
O O13 0.403372 0.025083 0.665786
O O14 0.834416 0.009469 0.152098
O O15 0.574686 0.483863 0.990326
O O16 0.544335 0.369759 0.898772
#
# Coordination Sequence:
#
# PCOD9139793 Si02
#       8
#     4   4   4   4   4   4   4   4
#     4  12  25  43  71 107 143 183 243 300 357 428
#     4  11  25  46  68 102 147 188 243 294 355 440
#     4  11  22  38  71 103 140 174 237 303 352 419
#     4  12  26  42  70 108 144 189 236 299 368 422
#     4  12  25  45  68 101 148 190 233 290 362 434
#     4  11  23  41  72 103 135 188 239 296 360 417
#     4  12  21  42  72 107 133 182 238 304 353 413
#     4  11  21  41  68 107 140 180 241 298 353 421
#
# _framework density 22.199055999999999
#
# number of rings (size 3 to 8) (size 9 to 14) (size 15 to 20)
#    0.000    0.500    5.000    4.500    3.500    0.000 
#    2.250    2.500    0.000    0.000    0.000    0.000 
#    0.000    0.000    0.000    0.000    0.000    0.000 
#
# Total GULP energy -89201.705914 kJ/mol
# GULP energy per Si atom -5575.106620 kJ/mol
# Density = 2.214853 g / cm^3
# Si number density = 22.199056 Si / 1000 Ang^3
#
#
#
# Elastic Constant Matrix: (Units=GPa)
#
#
# Indices 1 2 3 4 5 6 
#
# 1 84.4467 32.2308 33.2522 0.0107 -2.5082 -0.0026
# 2 32.2308 68.9197 20.5061 0.0011 4.8310 0.0101
# 3 33.2522 20.5061 56.7308 -0.0119 6.4084 0.0153
# 4 0.0107 0.0011 -0.0119 28.4676 -0.0074 4.5164
# 5 -2.5082 4.8310 6.4084 -0.0074 35.2859 0.0003
# 6 -0.0026 0.0101 0.0153 4.5164 0.0003 9.2466
#
#
#
# Elastic Compliance Matrix: (Units=1/GPa)
#
#
# Indices 1 2 3 4 5 6 
#
# 1 0.017588 -0.005927 -0.008576 -0.000014 0.003619 0.000032
# 2 -0.005927 0.018304 -0.002870 0.000003 -0.002406 -0.000018
# 3 -0.008576 -0.002870 0.024212 0.000020 -0.004614 -0.000049
# 4 -0.000014 0.000003 0.000020 0.038078 0.000003 -0.018599
# 5 0.003619 -0.002406 -0.004614 0.000003 0.029765 0.000009
# 6 0.000032 -0.000018 -0.000049 -0.018599 0.000009 0.117233
#
#
# Mechanical properties :
#
#
# Convention : Reuss Voigt Hill
#
# Bulk Modulus (GPa) = 39.43446 42.45281 40.94363
# Shear Modulus (GPa) = 17.33825 22.87391 20.10608
#
# Velocity S-wave (km/s) = 2.79773 3.21347 3.01278
# Velocity P-wave (km/s) = 5.31404 5.73879 5.53049
#
# Compressibility (1/GPa) = 0.02535853
#
# Stress axis : x y z
#
# Youngs Moduli (GPa) = 56.85580 54.63192 41.30142
#
# Poissons Ratio (x) = 0.32383 0.35418
# Poissons Ratio (y) = 0.33701 0.11854
# Poissons Ratio (z) = 0.48757 0.15680
#
# Static dielectric constant tensor:
#      x y z
#    x 1.881300 0.000000 -0.011520 
#    y 0.000000 1.848040 0.000000 
#    z -0.011520 0.000000 1.894800 
# 
# From -- ./inp_files/27450.got.cif
#   From: 2010.05.17/outbox.cif.g08.bks.cpg/sg9_14_cif.got.tgz:27450.got - 2010.06.03 20:04:27.
