data_PCOD9139709
_publ_section_title
;
Structure prediction by ZEFSAII (Michael W. Deem and Ramdas Pophale) SiO2 
 PCOD9139709
Probable space group: C C
;
_chemical_formula_sum "Si O2"
_cell_formula_units_Z 32
_cell_length_a 21.957690
_cell_length_b 10.914346
_cell_length_c 9.004030
_cell_angle_alpha 90.000000
_cell_angle_beta 130.959546
_cell_angle_gamma 90.000000
_cell_volume 1629.549389
_symmetry_space_group_name_H-M "C C"
_symmetry_group_IT_number 9
_symmetry_cell_setting 'monoclinic'
loop_
_space_group_symop_operation_xyz
x,y,z
x,-y,1/2+z
1/2+x,1/2+y,z
1/2+x,1/2-y,1/2+z
loop_
_atom_site_type_symbol
_atom_site_label
_atom_site_fract_x
_atom_site_fract_y
_atom_site_fract_z
Si Si1 0.750000 0.869425 0.043380
Si Si2 0.529604 0.326297 0.497296
Si Si3 0.069773 0.623644 0.356249
Si Si4 0.508250 0.561114 0.278161
Si Si5 0.925973 0.455370 0.162275
Si Si6 0.457378 0.744541 0.436591
Si Si7 0.842796 0.050825 0.408154
Si Si8 0.870089 0.330489 0.767643
O O1 0.784173 0.735076 0.139773
O O2 0.795942 0.965812 0.220029
O O3 0.656042 0.887508 0.920007
O O4 0.780459 0.896593 0.926971
O O5 0.576270 0.205292 0.516791
O O6 0.542282 0.434052 0.397510
O O7 0.543871 0.383770 0.682878
O O8 0.436754 0.277237 0.350204
O O9 0.019498 0.499595 0.304231
O O10 0.011927 0.697725 0.151594
O O11 0.510184 0.660129 0.411688
O O12 0.414066 0.529982 0.096161
O O13 0.919942 0.350489 0.275741
O O14 0.878437 0.574363 0.145546
O O15 0.896056 0.402096 0.958254
O O16 0.389705 0.659574 0.400950
#
# Coordination Sequence:
#
# PCOD9139709 Si02
#       8
#     4   4   4   4   4   4   4   4
#     4  12  26  41  65  98 135 163 203 275 328 366
#     4  11  20  37  64  95 122 167 216 261 308 376
#     4  11  26  43  60  97 138 161 206 267 327 375
#     4  12  18  36  70  95 117 158 230 262 296 362
#     4  11  23  39  67  91 121 175 216 255 303 388
#     4  12  21  39  67  95 122 171 219 256 308 383
#     4  12  21  41  68  96 122 167 222 261 308 380
#     4  11  21  40  63  91 125 168 220 251 306 382
#
# _framework density 19.637329999999999
#
# number of rings (size 3 to 8) (size 9 to 14) (size 15 to 20)
#    0.000    0.500    8.750    0.750    1.750    0.000 
#    0.000    2.500    0.000    0.000    0.000    0.000 
#    0.000    0.000    0.000    0.000    0.000    0.000 
#
# Total GULP energy -89410.340159 kJ/mol
# GULP energy per Si atom -5588.146260 kJ/mol
# Density = 1.959263 g / cm^3
# Si number density = 19.637330 Si / 1000 Ang^3
#
#
#
# Elastic Constant Matrix: (Units=GPa)
#
#
# Indices 1 2 3 4 5 6 
#
# 1 84.6825 5.1056 37.3391 0.0000 -9.9598 0.0000
# 2 5.1056 61.4569 23.6548 0.0000 -9.4343 0.0000
# 3 37.3391 23.6548 42.0470 0.0000 -13.4909 0.0000
# 4 0.0000 0.0000 0.0000 26.1962 0.0000 -12.7184
# 5 -9.9598 -9.4343 -13.4909 0.0000 32.7468 0.0000
# 6 0.0000 0.0000 0.0000 -12.7184 0.0000 21.8607
#
#
#
# Elastic Compliance Matrix: (Units=1/GPa)
#
#
# Indices 1 2 3 4 5 6 
#
# 1 0.021644 0.007106 -0.023564 0.000000 -0.001078 0.000000
# 2 0.007106 0.023154 -0.019016 0.000000 0.000998 0.000000
# 3 -0.023564 -0.019016 0.059171 0.000000 0.011732 0.000000
# 4 0.000000 0.000000 0.000000 0.053201 0.000000 0.030952
# 5 -0.001078 0.000998 0.011732 0.000000 0.035330 0.000000
# 6 0.000000 0.000000 0.000000 0.030952 0.000000 0.063752
#
#
# Mechanical properties :
#
#
# Convention : Reuss Voigt Hill
#
# Bulk Modulus (GPa) = 30.28448 35.59837 32.94143
# Shear Modulus (GPa) = 14.78388 24.29985 19.54187
#
# Velocity S-wave (km/s) = 2.74678 3.52153 3.15800
# Velocity P-wave (km/s) = 5.05125 5.89085 5.48713
#
# Compressibility (1/GPa) = 0.03302021
#
# Stress axis : x y z
#
# Youngs Moduli (GPa) = 46.20290 43.18946 16.90022
#
# Poissons Ratio (x) = -0.30692 0.39824
# Poissons Ratio (y) = -0.32833 0.32138
# Poissons Ratio (z) = 1.08872 0.82131
#
# Static dielectric constant tensor:
#      x y z
#    x 1.689490 0.000000 -0.034880 
#    y 0.000000 1.726860 0.000000 
#    z -0.034880 0.000000 1.681900 
# 
# From -- ./inp_files/10645.got.cif
#   From: 2010.05.17/outbox.cif.g08.bks.cpg/sg9_6_cif.got.tgz:10645.got - 2010.06.03 20:04:27.
