data_PCOD9139109
_publ_section_title
;
Structure prediction by ZEFSAII (Michael W. Deem and Ramdas Pophale) SiO2 
 PCOD9139109
Probable space group: C C
;
_chemical_formula_sum "Si O2"
_cell_formula_units_Z 20
_cell_length_a 4.843254
_cell_length_b 30.529282
_cell_length_c 5.759125
_cell_angle_alpha 90.000000
_cell_angle_beta 97.021224
_cell_angle_gamma 90.000000
_cell_volume 845.164541
_symmetry_space_group_name_H-M "C C"
_symmetry_group_IT_number 9
_symmetry_cell_setting 'monoclinic'
loop_
_space_group_symop_operation_xyz
x,y,z
x,-y,1/2+z
1/2+x,1/2+y,z
1/2+x,1/2-y,1/2+z
loop_
_atom_site_type_symbol
_atom_site_label
_atom_site_fract_x
_atom_site_fract_y
_atom_site_fract_z
Si Si1 0.991870 0.132360 0.902080
Si Si2 0.878482 0.798509 0.014043
Si Si3 0.265335 0.507069 0.614347
Si Si4 0.839299 0.703391 0.221630
Si Si5 0.005621 0.572896 0.888343
O O1 0.855269 0.161684 0.687553
O O2 0.740367 0.106905 0.997301
O O3 0.209920 0.095523 0.839853
O O4 0.179316 0.166327 0.064633
O O5 0.800724 0.751513 0.112007
O O6 0.665062 0.804932 0.781468
O O7 0.194196 0.796524 0.958302
O O8 0.411606 0.504854 0.376689
O O9 0.118526 0.553144 0.655959
O O10 0.031151 0.469296 0.556792
#
# Coordination Sequence:
#
# PCOD9139109 Si02
#       5
#     4   4   4   4   4
#     4  12  26  44  72 109 138 183 254 290 354 442
#     4  12  26  44  71 100 144 194 237 296 361 425
#     4   8  20  46  72 102 144 190 234 304 378 434
#     4  12  26  44  71 100 144 194 237 296 361 425
#     4  10  24  44  72 105 140 187 240 308 366 442
#
# _framework density 23.664031000000001
#
# number of rings (size 3 to 8) (size 9 to 14) (size 15 to 20)
#    1.200    0.000    2.000    3.600    2.800    6.400 
#    0.000    0.000    0.000    0.000    0.000    0.000 
#    0.000    0.000    0.000    0.000    0.000    0.000 
#
# Total GULP energy -55832.642945 kJ/mol
# GULP energy per Si atom -5583.264294 kJ/mol
# Density = 2.361017 g / cm^3
# Si number density = 23.664031 Si / 1000 Ang^3
#
#
#
# Elastic Constant Matrix: (Units=GPa)
#
#
# Indices 1 2 3 4 5 6 
#
# 1 97.2882 30.2880 2.6328 0.0000 22.6970 0.0000
# 2 30.2880 127.5444 13.4439 0.0000 19.6443 0.0000
# 3 2.6328 13.4439 78.4355 0.0000 11.1215 0.0000
# 4 0.0000 0.0000 0.0000 41.8780 0.0000 -0.6225
# 5 22.6970 19.6443 11.1215 0.0000 32.9339 0.0000
# 6 0.0000 0.0000 0.0000 -0.6225 0.0000 20.5340
#
#
#
# Elastic Compliance Matrix: (Units=1/GPa)
#
#
# Indices 1 2 3 4 5 6 
#
# 1 0.012701 -0.001897 0.001029 0.000000 -0.007969 0.000000
# 2 -0.001897 0.008963 -0.000945 0.000000 -0.003720 0.000000
# 3 0.001029 -0.000945 0.013546 0.000000 -0.004720 0.000000
# 4 0.000000 0.000000 0.000000 0.023890 0.000000 0.000724
# 5 -0.007969 -0.003720 -0.004720 0.000000 0.039668 0.000000
# 6 0.000000 0.000000 0.000000 0.000724 0.000000 0.048722
#
#
# Mechanical properties :
#
#
# Convention : Reuss Voigt Hill
#
# Bulk Modulus (GPa) = 31.66277 43.99975 37.83126
# Shear Modulus (GPa) = 30.93209 36.19607 33.56408
#
# Velocity S-wave (km/s) = 3.61935 3.91523 3.77020
# Velocity P-wave (km/s) = 5.55657 6.25081 5.91388
#
# Compressibility (1/GPa) = 0.03158283
#
# Stress axis : x y z
#
# Youngs Moduli (GPa) = 78.73666 111.56379 73.82259
#
# Poissons Ratio (x) = 0.21165 -0.07594
# Poissons Ratio (y) = 0.14937 0.06978
# Poissons Ratio (z) = -0.08100 0.10545
#
# Static dielectric constant tensor:
#      x y z
#    x 1.820100 0.000000 -0.018840 
#    y 0.000000 1.874610 0.000000 
#    z -0.018840 0.000000 1.920140 
# 
# From -- ./inp_files/323.got.cif
#   From: 2010.05.17/outbox.cif.g08.bks.cpg/sg9_1_cif.got.tgz:323.got - 2010.06.03 20:04:27.
