data_PCOD9139337
_publ_section_title
;
Structure prediction by ZEFSAII (Michael W. Deem and Ramdas Pophale) SiO2 
 PCOD9139337
Probable space group: C C
;
_chemical_formula_sum "Si O2"
_cell_formula_units_Z 32
_cell_length_a 18.088725
_cell_length_b 4.825579
_cell_length_c 18.077084
_cell_angle_alpha 90.000000
_cell_angle_beta 130.089169
_cell_angle_gamma 90.000000
_cell_volume 1207.179060
_symmetry_space_group_name_H-M "C C"
_symmetry_group_IT_number 9
_symmetry_cell_setting 'monoclinic'
loop_
_space_group_symop_operation_xyz
x,y,z
x,-y,1/2+z
1/2+x,1/2+y,z
1/2+x,1/2-y,1/2+z
loop_
_atom_site_type_symbol
_atom_site_label
_atom_site_fract_x
_atom_site_fract_y
_atom_site_fract_z
Si Si1 0.766840 0.768447 0.621430
Si Si2 0.809489 0.726963 0.236998
Si Si3 0.015250 0.506717 0.337608
Si Si4 0.503105 0.957427 0.031007
Si Si5 0.427356 0.371753 0.607056
Si Si6 0.089425 0.982937 0.301173
Si Si7 0.798162 0.294810 0.894455
Si Si8 0.068120 0.916776 0.989043
O O1 0.774296 0.582693 0.699521
O O2 0.859542 0.749647 0.628519
O O3 0.672409 0.650173 0.522032
O O4 0.758584 0.080429 0.643699
O O5 0.793236 0.831036 0.309013
O O6 0.920179 0.695993 0.283900
O O7 0.090926 0.753860 0.367598
O O8 0.002111 0.281278 0.395762
O O9 0.046870 0.280945 0.297700
O O10 0.388793 0.005636 0.945908
O O11 0.538850 0.722286 0.994923
O O12 0.562511 0.235147 0.060739
O O13 0.503038 0.819294 0.111089
O O14 0.500121 0.602112 0.687985
O O15 0.343632 0.405679 0.488229
O O16 0.197819 0.052235 0.345801
#
# Coordination Sequence:
#
# PCOD9139337 Si02
#       8
#     4   4   4   4   4   4   4   4
#     4  12  27  45  76 107 148 192 257 308 380 451
#     4  12  25  48  69 107 149 194 243 320 373 445
#     4  12  24  47  73 105 149 193 247 311 378 444
#     4  10  26  45  72 104 147 194 247 305 369 450
#     4  10  24  51  69 111 144 201 243 316 365 459
#     4  12  26  46  75 109 148 199 249 310 376 453
#     4  10  27  49  72 110 149 200 246 311 382 450
#     4  12  25  47  74 109 144 199 248 311 377 454
#
# _framework density 26.508082999999999
#
# number of rings (size 3 to 8) (size 9 to 14) (size 15 to 20)
#    0.750    0.000    3.750    2.250    5.250    5.000 
#    0.000    0.000    0.000    0.000    0.000    0.000 
#    0.000    0.000    0.000    0.000    0.000    0.000 
#
# Total GULP energy -89143.022552 kJ/mol
# GULP energy per Si atom -5571.438910 kJ/mol
# Density = 2.644775 g / cm^3
# Si number density = 26.508083 Si / 1000 Ang^3
#
#
#
# Elastic Constant Matrix: (Units=GPa)
#
#
# Indices 1 2 3 4 5 6 
#
# 1 156.2204 41.2599 42.5988 0.0010 22.5495 0.0010
# 2 41.2599 127.3700 22.9662 0.0014 10.0078 0.0034
# 3 42.5988 22.9662 88.7313 0.0009 -11.5401 0.0009
# 4 0.0010 0.0014 0.0009 25.7217 0.0001 -3.9387
# 5 22.5495 10.0078 -11.5401 0.0001 35.2126 -0.0004
# 6 0.0010 0.0034 0.0009 -3.9387 -0.0004 29.6464
#
#
#
# Elastic Compliance Matrix: (Units=1/GPa)
#
#
# Indices 1 2 3 4 5 6 
#
# 1 0.009163 -0.001528 -0.004920 0.000000 -0.007047 0.000000
# 2 -0.001528 0.008844 -0.001834 -0.000001 -0.002136 -0.000001
# 3 -0.004920 -0.001834 0.015234 0.000000 0.008665 0.000000
# 4 0.000000 -0.000001 0.000000 0.039685 0.000000 0.005272
# 5 -0.007047 -0.002136 0.008665 0.000000 0.036358 0.000001
# 6 0.000000 -0.000001 0.000000 0.005272 0.000001 0.034431
#
#
# Mechanical properties :
#
#
# Convention : Reuss Voigt Hill
#
# Bulk Modulus (GPa) = 59.95765 65.10794 62.53279
# Shear Modulus (GPa) = 30.14974 35.81594 32.98284
#
# Velocity S-wave (km/s) = 3.37616 3.67976 3.53123
# Velocity P-wave (km/s) = 6.15351 6.53216 6.34566
#
# Compressibility (1/GPa) = 0.01667844
#
# Stress axis : x y z
#
# Youngs Moduli (GPa) = 109.12884 113.06502 65.64399
#
# Poissons Ratio (x) = 0.17271 0.32299
# Poissons Ratio (y) = 0.16670 0.12037
# Poissons Ratio (z) = 0.53695 0.20733
#
# Static dielectric constant tensor:
#      x y z
#    x 2.042310 0.000000 0.004190 
#    y 0.000000 2.013490 0.000000 
#    z 0.004190 0.000000 2.449330 
# 
# From -- ./inp_files/30907.got.cif
#   From: 2010.05.17/outbox.cif.g08.bks.cpg/sg9_16_cif.got.tgz:30907.got - 2010.06.03 20:04:27.
