data_PCOD9139565
_publ_section_title
;
Structure prediction by ZEFSAII (Michael W. Deem and Ramdas Pophale) SiO2 
 PCOD9139565
Probable space group: C C
;
_chemical_formula_sum "Si O2"
_cell_formula_units_Z 24
_cell_length_a 17.896688
_cell_length_b 5.614460
_cell_length_c 17.387535
_cell_angle_alpha 90.000000
_cell_angle_beta 30.456379
_cell_angle_gamma 90.000000
_cell_volume 885.575808
_symmetry_space_group_name_H-M "C C"
_symmetry_group_IT_number 9
_symmetry_cell_setting 'monoclinic'
loop_
_space_group_symop_operation_xyz
x,y,z
x,-y,1/2+z
1/2+x,1/2+y,z
1/2+x,1/2-y,1/2+z
loop_
_atom_site_type_symbol
_atom_site_label
_atom_site_fract_x
_atom_site_fract_y
_atom_site_fract_z
Si Si1 0.608190 0.459686 0.398160
Si Si2 0.881385 0.323897 0.591676
Si Si3 0.523269 0.988717 0.618652
Si Si4 0.762160 0.835424 0.505529
Si Si5 0.036449 0.622395 0.333563
Si Si6 0.569338 0.479619 0.608821
O O1 0.622494 0.244584 0.327436
O O2 0.714187 0.656393 0.266080
O O3 0.638291 0.439123 0.461844
O O4 0.443318 0.559891 0.542061
O O5 0.967377 0.482115 0.581072
O O6 0.928676 0.431726 0.468393
O O7 0.483527 0.233572 0.696303
O O8 0.696795 0.960715 0.486619
O O9 0.473431 0.724402 0.690192
O O10 0.927146 0.814503 0.389360
O O11 0.700515 0.563780 0.547723
O O12 0.658205 0.950666 0.663737
#
# Coordination Sequence:
#
# PCOD9139565 Si02
#       6
#     4   4   4   4   4   4
#     4  11  25  44  74 106 144 195 250 307 371 448
#     4  11  25  44  74 106 145 195 250 306 368 452
#     4   9  21  45  72 104 140 195 243 301 364 444
#     4  10  26  40  72 106 148 188 242 312 371 431
#     4  12  24  48  66 112 142 190 244 309 378 428
#     4   9  21  45  70 106 139 197 241 301 360 445
#
# _framework density 27.101012000000001
#
# number of rings (size 3 to 8) (size 9 to 14) (size 15 to 20)
#    1.000    0.667    3.333    0.000    4.667    2.667 
#    3.000    0.000    0.000    0.000    0.000    0.000 
#    0.000    0.000    0.000    0.000    0.000    0.000 
#
# Total GULP energy -66945.524167 kJ/mol
# GULP energy per Si atom -5578.793681 kJ/mol
# Density = 2.703933 g / cm^3
# Si number density = 27.101012 Si / 1000 Ang^3
#
#
#
# Elastic Constant Matrix: (Units=GPa)
#
#
# Indices 1 2 3 4 5 6 
#
# 1 96.9894 15.0564 24.7311 -0.0018 9.9610 0.0014
# 2 15.0564 124.4124 -5.7413 -0.0088 -4.9193 0.0070
# 3 24.7311 -5.7413 100.4789 -0.0013 -10.6623 0.0029
# 4 -0.0018 -0.0088 -0.0013 32.5795 0.0014 1.5891
# 5 9.9610 -4.9193 -10.6623 0.0014 36.7884 -0.0012
# 6 0.0014 0.0070 0.0029 1.5891 -0.0012 40.7114
#
#
#
# Elastic Compliance Matrix: (Units=1/GPa)
#
#
# Indices 1 2 3 4 5 6 
#
# 1 0.011947 -0.001786 -0.003519 0.000000 -0.004493 0.000000
# 2 -0.001786 0.008382 0.001123 0.000002 0.001930 -0.000001
# 3 -0.003519 0.001123 0.011349 0.000000 0.004392 -0.000001
# 4 0.000000 0.000002 0.000000 0.030753 -0.000001 -0.001200
# 5 -0.004493 0.001930 0.004392 -0.000001 0.029930 0.000000
# 6 0.000000 -0.000001 -0.000001 -0.001200 0.000000 0.024610
#
#
# Mechanical properties :
#
#
# Convention : Reuss Voigt Hill
#
# Bulk Modulus (GPa) = 42.89323 43.33034 43.11179
# Shear Modulus (GPa) = 37.56429 41.20484 39.38456
#
# Velocity S-wave (km/s) = 3.72705 3.90348 3.81629
# Velocity P-wave (km/s) = 5.86368 6.02822 5.94652
#
# Compressibility (1/GPa) = 0.02331370
#
# Stress axis : x y z
#
# Youngs Moduli (GPa) = 83.70647 119.30248 88.11485
#
# Poissons Ratio (x) = 0.21306 0.31010
# Poissons Ratio (y) = 0.14949 -0.09898
# Poissons Ratio (z) = 0.29459 -0.13401
#
# Static dielectric constant tensor:
#      x y z
#    x 2.121090 0.000000 0.059450 
#    y 0.000000 2.247230 0.000000 
#    z 0.059450 0.000000 2.111730 
# 
# From -- ./inp_files/34390.got.cif
#   From: 2010.05.17/outbox.cif.g08.bks.cpg/sg9_18_cif.got.tgz:34390.got - 2010.06.03 20:04:27.
