data_PCOD9139240
_publ_section_title
;
Structure prediction by ZEFSAII (Michael W. Deem and Ramdas Pophale) SiO2 
 PCOD9139240
Probable space group: C C
;
_chemical_formula_sum "Si O2"
_cell_formula_units_Z 20
_cell_length_a 14.651125
_cell_length_b 9.362369
_cell_length_c 9.631409
_cell_angle_alpha 90.000000
_cell_angle_beta 143.679405
_cell_angle_gamma 90.000000
_cell_volume 782.510840
_symmetry_space_group_name_H-M "C C"
_symmetry_group_IT_number 9
_symmetry_cell_setting 'monoclinic'
loop_
_space_group_symop_operation_xyz
x,y,z
x,-y,1/2+z
1/2+x,1/2+y,z
1/2+x,1/2-y,1/2+z
loop_
_atom_site_type_symbol
_atom_site_label
_atom_site_fract_x
_atom_site_fract_y
_atom_site_fract_z
Si Si1 0.094500 0.727712 0.444400
Si Si2 0.959183 0.431781 0.261341
Si Si3 0.905194 0.924871 0.415491
Si Si4 0.140029 0.813608 0.903504
Si Si5 0.546551 0.711480 0.579650
O O1 0.243654 0.651382 0.692151
O O2 0.972051 0.599230 0.279331
O O3 0.022418 0.850368 0.450384
O O4 0.121381 0.780924 0.321007
O O5 0.994156 0.364561 0.456463
O O6 0.090798 0.353157 0.329968
O O7 0.791849 0.371397 0.017203
O O8 0.987451 0.892339 0.662197
O O9 0.907721 0.096116 0.408362
O O10 0.153836 0.840938 0.084965
#
# Coordination Sequence:
#
# PCOD9139240 Si02
#       5
#     4   4   4   4   4
#     4  12  29  46  81 115 154 203 272 306 402 454
#     4  10  25  45  78 109 145 206 255 316 381 467
#     4  12  27  48  74 118 155 203 255 334 376 472
#     4  10  24  46  76 103 159 198 254 313 393 445
#     4  10  27  47  77 107 161 196 254 325 380 456
#
# _framework density 25.558752999999999
#
# number of rings (size 3 to 8) (size 9 to 14) (size 15 to 20)
#    1.200    0.000    0.000    3.600   11.200    1.600 
#    0.000    0.000    0.000    0.000    0.000    0.000 
#    0.000    0.000    0.000    0.000    0.000    0.000 
#
# Total GULP energy -55920.622702 kJ/mol
# GULP energy per Si atom -5592.062270 kJ/mol
# Density = 2.550058 g / cm^3
# Si number density = 25.558753 Si / 1000 Ang^3
#
#
#
# Elastic Constant Matrix: (Units=GPa)
#
#
# Indices 1 2 3 4 5 6 
#
# 1 80.8647 27.3284 57.4170 0.0000 -11.9275 0.0000
# 2 27.3284 128.4179 25.1192 0.0000 -4.0243 0.0000
# 3 57.4170 25.1192 136.9732 0.0000 14.9493 0.0000
# 4 0.0000 0.0000 0.0000 33.3161 0.0000 7.9956
# 5 -11.9275 -4.0243 14.9493 0.0000 37.2290 0.0000
# 6 0.0000 0.0000 0.0000 7.9956 0.0000 29.9037
#
#
#
# Elastic Compliance Matrix: (Units=1/GPa)
#
#
# Indices 1 2 3 4 5 6 
#
# 1 0.021718 -0.002365 -0.009833 0.000000 0.010651 0.000000
# 2 -0.002365 0.008419 -0.000595 0.000000 0.000392 0.000000
# 3 -0.009833 -0.000595 0.012427 0.000000 -0.008205 0.000000
# 4 0.000000 0.000000 0.000000 0.032074 0.000000 -0.008576
# 5 0.010651 0.000392 -0.008205 0.000000 0.033610 0.000000
# 6 0.000000 0.000000 0.000000 -0.008576 0.000000 0.035734
#
#
# Mechanical properties :
#
#
# Convention : Reuss Voigt Hill
#
# Bulk Modulus (GPa) = 58.89777 62.88723 60.89250
# Shear Modulus (GPa) = 28.53451 35.84917 32.19184
#
# Velocity S-wave (km/s) = 3.34492 3.74922 3.55283
# Velocity P-wave (km/s) = 6.16540 6.58791 6.38015
#
# Compressibility (1/GPa) = 0.01697857
#
# Stress axis : x y z
#
# Youngs Moduli (GPa) = 46.04475 118.77831 80.46973
#
# Poissons Ratio (x) = 0.28087 0.79123
# Poissons Ratio (y) = 0.10888 0.04791
# Poissons Ratio (z) = 0.45274 0.07073
#
# Static dielectric constant tensor:
#      x y z
#    x 2.057630 0.000000 -0.011450 
#    y 0.000000 1.988150 0.000000 
#    z -0.011450 0.000000 1.990360 
# 
# From -- ./inp_files/15880.got.cif
#   From: 2010.05.17/outbox.cif.g08.bks.cpg/sg9_8_cif.got.tgz:15880.got - 2010.06.03 20:04:27.
