data_PCOD9139839
_publ_section_title
;
Structure prediction by ZEFSAII (Michael W. Deem and Ramdas Pophale) SiO2 
 PCOD9139839
Probable space group: C C
;
_chemical_formula_sum "Si O2"
_cell_formula_units_Z 28
_cell_length_a 22.925804
_cell_length_b 8.655661
_cell_length_c 8.475839
_cell_angle_alpha 90.000000
_cell_angle_beta 139.122479
_cell_angle_gamma 90.000000
_cell_volume 1100.728338
_symmetry_space_group_name_H-M "C C"
_symmetry_group_IT_number 9
_symmetry_cell_setting 'monoclinic'
loop_
_space_group_symop_operation_xyz
x,y,z
x,-y,1/2+z
1/2+x,1/2+y,z
1/2+x,1/2-y,1/2+z
loop_
_atom_site_type_symbol
_atom_site_label
_atom_site_fract_x
_atom_site_fract_y
_atom_site_fract_z
Si Si1 0.331180 0.050860 0.031180
Si Si2 0.542032 0.674128 0.641599
Si Si3 0.245426 0.268679 0.070828
Si Si4 0.035200 0.149293 0.251112
Si Si5 0.231312 0.180346 0.527142
Si Si6 0.208341 0.535263 0.776183
Si Si7 0.009859 0.501102 0.729614
O O1 0.319269 0.148344 0.168135
O O2 0.429988 0.003647 0.190816
O O3 0.267455 0.907833 0.945923
O O4 0.293885 0.138661 0.801424
O O5 0.536199 0.655598 0.442052
O O6 0.496411 0.519700 0.622071
O O7 0.502831 0.839703 0.617275
O O8 0.648064 0.692555 0.899573
O O9 0.263912 0.381838 0.252893
O O10 0.235452 0.370203 0.893132
O O11 0.132851 0.132911 0.375727
O O12 0.008209 0.326128 0.149861
O O13 0.220390 0.356089 0.452681
O O14 0.106438 0.517915 0.510776
#
# Coordination Sequence:
#
# PCOD9139839 Si02
#       7
#     4   4   4   4   4   4   4
#     4  12  26  45  72 113 155 190 252 330 397 436
#     4  11  25  44  74 108 147 207 260 306 375 477
#     4  11  21  44  72 109 144 199 258 310 378 468
#     4  12  24  47  77 109 149 205 260 310 371 481
#     4  12  24  44  74 106 146 202 252 309 379 469
#     4  11  24  45  77 107 144 205 261 306 373 480
#     4  11  28  47  78 114 155 196 263 325 391 445
#
# _framework density 25.437701000000001
#
# number of rings (size 3 to 8) (size 9 to 14) (size 15 to 20)
#    0.000    0.571    4.286    3.429    8.000    0.000 
#    2.571    1.429    0.000    0.000    0.000    0.000 
#    0.000    0.000    0.000    0.000    0.000    0.000 
#
# Total GULP energy -78304.289825 kJ/mol
# GULP energy per Si atom -5593.163559 kJ/mol
# Density = 2.537980 g / cm^3
# Si number density = 25.437701 Si / 1000 Ang^3
#
#
#
# Elastic Constant Matrix: (Units=GPa)
#
#
# Indices 1 2 3 4 5 6 
#
# 1 129.8422 66.2953 11.1460 0.0000 4.7029 0.0000
# 2 66.2953 225.6431 35.3024 0.0000 -9.1138 0.0000
# 3 11.1460 35.3024 55.6250 0.0000 -8.4038 0.0000
# 4 0.0000 0.0000 0.0000 27.5561 0.0000 -24.9476
# 5 4.7029 -9.1138 -8.4038 0.0000 32.4620 0.0000
# 6 0.0000 0.0000 0.0000 -24.9476 0.0000 42.2275
#
#
#
# Elastic Compliance Matrix: (Units=1/GPa)
#
#
# Indices 1 2 3 4 5 6 
#
# 1 0.009212 -0.002726 -0.000451 0.000000 -0.002217 0.000000
# 2 -0.002726 0.005738 -0.002906 0.000000 0.001253 0.000000
# 3 -0.000451 -0.002906 0.020605 0.000000 0.004584 0.000000
# 4 0.000000 0.000000 0.000000 0.078020 0.000000 0.046093
# 5 -0.002217 0.001253 0.004584 0.000000 0.032665 0.000000
# 6 0.000000 0.000000 0.000000 0.046093 0.000000 0.050913
#
#
# Mechanical properties :
#
#
# Convention : Reuss Voigt Hill
#
# Bulk Modulus (GPa) = 42.75406 70.73310 56.74358
# Shear Modulus (GPa) = 23.02939 40.34022 31.68481
#
# Velocity S-wave (km/s) = 3.01213 3.98659 3.53311
# Velocity P-wave (km/s) = 5.37969 7.00409 6.24493
#
# Compressibility (1/GPa) = 0.02338959
#
# Stress axis : x y z
#
# Youngs Moduli (GPa) = 108.55049 174.28111 48.53266
#
# Poissons Ratio (x) = 0.47502 0.02189
# Poissons Ratio (y) = 0.29587 0.14104
# Poissons Ratio (z) = 0.04896 0.50646
#
# Static dielectric constant tensor:
#      x y z
#    x 1.964690 0.000000 -0.030390 
#    y 0.000000 2.179630 0.000000 
#    z -0.030390 0.000000 1.997600 
# 
# From -- ./inp_files/10421.got.cif
#   From: 2010.05.17/outbox.cif.g08.bks.cpg/sg9_6_cif.got.tgz:10421.got - 2010.06.03 20:04:27.
