data_PCOD9139787
_publ_section_title
;
Structure prediction by ZEFSAII (Michael W. Deem and Ramdas Pophale) SiO2 
 PCOD9139787
Probable space group: C C
;
_chemical_formula_sum "Si O2"
_cell_formula_units_Z 32
_cell_length_a 19.076147
_cell_length_b 5.559724
_cell_length_c 13.618588
_cell_angle_alpha 90.000000
_cell_angle_beta 106.721509
_cell_angle_gamma 90.000000
_cell_volume 1383.286252
_symmetry_space_group_name_H-M "C C"
_symmetry_group_IT_number 9
_symmetry_cell_setting 'monoclinic'
loop_
_space_group_symop_operation_xyz
x,y,z
x,-y,1/2+z
1/2+x,1/2+y,z
1/2+x,1/2-y,1/2+z
loop_
_atom_site_type_symbol
_atom_site_label
_atom_site_fract_x
_atom_site_fract_y
_atom_site_fract_z
Si Si1 0.359740 0.031406 0.156130
Si Si2 0.519498 0.959091 0.968825
Si Si3 0.908534 0.853555 0.009703
Si Si4 0.208309 0.143911 0.578149
Si Si5 0.119398 0.271366 0.355511
Si Si6 0.153183 0.360215 0.152929
Si Si7 0.472713 0.344571 0.705776
Si Si8 0.891534 0.143172 0.833288
O O1 0.295846 0.846519 0.109959
O O2 0.442136 0.926642 0.187575
O O3 0.357656 0.210919 0.064037
O O4 0.347733 0.155952 0.256549
O O5 0.575133 0.036960 0.904849
O O6 0.465216 0.759796 0.906120
O O7 0.465703 0.178546 0.977160
O O8 0.569043 0.877055 0.080360
O O9 0.956642 0.024685 0.098090
O O10 0.860332 0.000403 0.912418
O O11 0.171403 0.143610 0.455369
O O12 0.185317 0.390387 0.623193
O O13 0.184644 0.892506 0.622141
O O14 0.158491 0.364944 0.273098
O O15 0.053109 0.118640 0.280681
O O16 0.416838 0.458503 0.761233
#
# Coordination Sequence:
#
# PCOD9139787 Si02
#       8
#     4   4   4   4   4   4   4   4
#     4  11  25  47  69 105 149 188 246 308 368 445
#     4  11  23  43  71 113 142 181 249 310 368 447
#     4  11  23  40  71 107 139 185 233 314 371 440
#     4  11  29  52  72 106 154 198 255 305 363 456
#     4  11  23  47  73 106 145 196 244 309 376 438
#     4  11  27  47  76 106 148 202 248 304 369 444
#     4  11  23  40  74 102 141 183 240 310 370 435
#     4  11  21  40  70 105 142 181 235 302 379 433
#
# _framework density 23.133313999999999
#
# number of rings (size 3 to 8) (size 9 to 14) (size 15 to 20)
#    0.000    1.000    2.500    3.000   10.500    2.000 
#    6.750    0.000    0.000    0.000    0.000    0.000 
#    0.000    0.000    0.000    0.000    0.000    0.000 
#
# Total GULP energy -89422.204477 kJ/mol
# GULP energy per Si atom -5588.887780 kJ/mol
# Density = 2.308066 g / cm^3
# Si number density = 23.133314 Si / 1000 Ang^3
#
#
#
# Elastic Constant Matrix: (Units=GPa)
#
#
# Indices 1 2 3 4 5 6 
#
# 1 74.9805 21.7432 44.1677 0.0000 19.7199 0.0000
# 2 21.7432 90.6853 53.1125 0.0000 -7.6684 0.0000
# 3 44.1677 53.1125 175.5914 0.0000 -5.3728 0.0000
# 4 0.0000 0.0000 0.0000 30.0387 0.0000 3.6300
# 5 19.7199 -7.6684 -5.3728 0.0000 20.5950 0.0000
# 6 0.0000 0.0000 0.0000 3.6300 0.0000 26.9571
#
#
#
# Elastic Compliance Matrix: (Units=1/GPa)
#
#
# Indices 1 2 3 4 5 6 
#
# 1 0.025507 -0.005119 -0.005719 0.000000 -0.027821 0.000000
# 2 -0.005119 0.014757 -0.002881 0.000000 0.009644 0.000000
# 3 -0.005719 -0.002881 0.008205 0.000000 0.006544 0.000000
# 4 0.000000 0.000000 0.000000 0.033841 0.000000 -0.004557
# 5 -0.027821 0.009644 0.006544 0.000000 0.080492 0.000000
# 6 0.000000 0.000000 0.000000 -0.004557 0.000000 0.037710
#
#
# Mechanical properties :
#
#
# Convention : Reuss Voigt Hill
#
# Bulk Modulus (GPa) = 47.54678 64.36712 55.95695
# Shear Modulus (GPa) = 21.28022 30.33374 25.80698
#
# Velocity S-wave (km/s) = 3.03627 3.62506 3.34365
# Velocity P-wave (km/s) = 5.73497 6.73841 6.25684
#
# Compressibility (1/GPa) = 0.02103192
#
# Stress axis : x y z
#
# Youngs Moduli (GPa) = 39.20539 67.76264 121.87338
#
# Poissons Ratio (x) = 0.34686 0.69697
# Poissons Ratio (y) = 0.20068 0.35113
# Poissons Ratio (z) = 0.22421 0.19523
#
# Static dielectric constant tensor:
#      x y z
#    x 1.876890 0.000000 -0.031640 
#    y 0.000000 1.928090 0.000000 
#    z -0.031640 0.000000 1.862380 
# 
# From -- ./inp_files/19815.got.cif
#   From: 2010.05.17/outbox.cif.g08.bks.cpg/sg9_10_cif.got.tgz:19815.got - 2010.06.03 20:04:27.
