data_PCOD9139715
_publ_section_title
;
Structure prediction by ZEFSAII (Michael W. Deem and Ramdas Pophale) SiO2 
 PCOD9139715
Probable space group: C C
;
_chemical_formula_sum "Si O2"
_cell_formula_units_Z 28
_cell_length_a 11.997728
_cell_length_b 7.307270
_cell_length_c 15.680409
_cell_angle_alpha 90.000000
_cell_angle_beta 59.242907
_cell_angle_gamma 90.000000
_cell_volume 1181.348819
_symmetry_space_group_name_H-M "C C"
_symmetry_group_IT_number 9
_symmetry_cell_setting 'monoclinic'
loop_
_space_group_symop_operation_xyz
x,y,z
x,-y,1/2+z
1/2+x,1/2+y,z
1/2+x,1/2-y,1/2+z
loop_
_atom_site_type_symbol
_atom_site_label
_atom_site_fract_x
_atom_site_fract_y
_atom_site_fract_z
Si Si1 0.405290 0.815003 0.242690
Si Si2 0.821347 0.369797 0.873096
Si Si3 0.212792 0.132414 0.596820
Si Si4 0.038531 0.613320 0.846729
Si Si5 0.922139 0.077527 0.717904
Si Si6 0.186349 0.559235 0.632498
Si Si7 0.902950 0.673978 0.061099
O O1 0.447308 0.756754 0.323921
O O2 0.374336 0.624882 0.211999
O O3 0.541082 0.898672 0.154685
O O4 0.305729 0.977646 0.304091
O O5 0.963794 0.421950 0.856802
O O6 0.838380 0.173633 0.824269
O O7 0.727890 0.398323 0.989034
O O8 0.074694 0.060131 0.683259
O O9 0.294720 0.697057 0.557709
O O10 0.329603 0.020777 0.595950
O O11 0.167780 0.606835 0.741032
O O12 0.025132 0.657023 0.950094
O O13 0.932554 0.220865 0.635786
O O14 0.219060 0.349479 0.606443
#
# Coordination Sequence:
#
# PCOD9139715 Si02
#       7
#     4   4   4   4   4   4   4
#     4   8  18  37  61  78 128 159 206 253 321 377
#     4   8  20  35  60  88 119 166 211 252 323 387
#     4  11  20  40  63  89 126 174 209 257 328 388
#     4   7  17  39  56  81 129 159 203 258 314 389
#     4  12  21  37  64  92 123 169 211 272 314 380
#     4   9  19  37  62  81 125 170 204 254 326 372
#     4  11  23  35  62  97 124 161 222 262 316 391
#
# _framework density 23.701720999999999
#
# number of rings (size 3 to 8) (size 9 to 14) (size 15 to 20)
#    1.714    0.571    4.286    0.000    2.000    2.286 
#    0.000    0.000    0.000    3.429    0.000    0.000 
#    0.000    0.000    0.000    0.000    0.000    0.000 
#
# Total GULP energy -77966.537279 kJ/mol
# GULP energy per Si atom -5569.038377 kJ/mol
# Density = 2.364777 g / cm^3
# Si number density = 23.701721 Si / 1000 Ang^3
#
#
#
# Elastic Constant Matrix: (Units=GPa)
#
#
# Indices 1 2 3 4 5 6 
#
# 1 51.2295 7.1890 7.7560 0.0000 -2.7054 0.0000
# 2 7.1890 149.4531 30.4360 0.0000 -9.3772 0.0000
# 3 7.7560 30.4360 93.5654 0.0000 -14.1418 0.0000
# 4 0.0000 0.0000 0.0000 22.6053 0.0000 -0.8055
# 5 -2.7054 -9.3772 -14.1418 0.0000 27.2990 0.0000
# 6 0.0000 0.0000 0.0000 -0.8055 0.0000 26.0017
#
#
#
# Elastic Compliance Matrix: (Units=1/GPa)
#
#
# Indices 1 2 3 4 5 6 
#
# 1 0.019859 -0.000627 -0.001277 0.000000 0.001091 0.000000
# 2 -0.000627 0.007232 -0.002099 0.000000 0.001335 0.000000
# 3 -0.001277 -0.002099 0.012312 0.000000 0.005531 0.000000
# 4 0.000000 0.000000 0.000000 0.044286 0.000000 0.001372
# 5 0.001091 0.001335 0.005531 0.000000 0.040063 0.000000
# 6 0.000000 0.000000 0.000000 0.001372 0.000000 0.038501
#
#
# Mechanical properties :
#
#
# Convention : Reuss Voigt Hill
#
# Bulk Modulus (GPa) = 31.84958 42.77890 37.31424
# Shear Modulus (GPa) = 27.66611 31.77233 29.71922
#
# Velocity S-wave (km/s) = 3.42023 3.66527 3.54486
# Velocity P-wave (km/s) = 5.39111 6.00002 5.70370
#
# Compressibility (1/GPa) = 0.03139759
#
# Stress axis : x y z
#
# Youngs Moduli (GPa) = 50.35510 138.26657 81.21977
#
# Poissons Ratio (x) = 0.08665 0.10375
# Poissons Ratio (y) = 0.03156 0.17047
# Poissons Ratio (z) = 0.06433 0.29021
#
# Static dielectric constant tensor:
#      x y z
#    x 1.996800 0.000000 0.039970 
#    y 0.000000 1.916540 0.000000 
#    z 0.039970 0.000000 1.888340 
# 
# From -- ./inp_files/30500.got.cif
#   From: 2010.05.17/outbox.cif.g08.bks.cpg/sg9_16_cif.got.tgz:30500.got - 2010.06.03 20:04:27.
