data_PCOD9139487
_publ_section_title
;
Structure prediction by ZEFSAII (Michael W. Deem and Ramdas Pophale) SiO2 
 PCOD9139487
Probable space group: C C
;
_chemical_formula_sum "Si O2"
_cell_formula_units_Z 32
_cell_length_a 5.297288
_cell_length_b 23.357844
_cell_length_c 13.186969
_cell_angle_alpha 90.000000
_cell_angle_beta 122.310739
_cell_angle_gamma 90.000000
_cell_volume 1379.021742
_symmetry_space_group_name_H-M "C C"
_symmetry_group_IT_number 9
_symmetry_cell_setting 'monoclinic'
loop_
_space_group_symop_operation_xyz
x,y,z
x,-y,1/2+z
1/2+x,1/2+y,z
1/2+x,1/2-y,1/2+z
loop_
_atom_site_type_symbol
_atom_site_label
_atom_site_fract_x
_atom_site_fract_y
_atom_site_fract_z
Si Si1 0.703110 0.032054 0.346770
Si Si2 0.396245 0.916082 0.258417
Si Si3 0.381484 0.670700 0.840630
Si Si4 0.770753 0.848107 0.744472
Si Si5 0.906645 0.528682 0.504135
Si Si6 0.446216 0.801841 0.863850
Si Si7 0.792935 0.129645 0.606930
Si Si8 0.418513 0.096950 0.004825
O O1 0.706262 0.091218 0.286152
O O2 0.519709 0.039032 0.412383
O O3 0.053269 0.021146 0.436007
O O4 0.564136 0.974892 0.267996
O O5 0.554501 0.855647 0.274607
O O6 0.404503 0.915666 0.382794
O O7 0.063140 0.914092 0.144245
O O8 0.416909 0.734986 0.883687
O O9 0.423737 0.666405 0.727988
O O10 0.593046 0.626668 0.948354
O O11 0.580566 0.807250 0.778757
O O12 0.640891 0.857567 0.603564
O O13 0.118499 0.830570 0.809578
O O14 0.013386 0.466170 0.563317
O O15 0.023722 0.586972 0.580546
O O16 0.678855 0.832263 0.990230
#
# Coordination Sequence:
#
# PCOD9139487 Si02
#       8
#     4   4   4   4   4   4   4   4
#     4  11  22  45  71 109 152 180 247 302 378 441
#     4  10  25  46  76 112 145 201 247 317 382 457
#     4  11  27  48  74 105 150 202 254 311 371 448
#     4  12  27  48  73 109 147 201 244 315 371 445
#     4  11  23  44  73 110 147 190 237 311 370 453
#     4  12  30  48  74 108 150 200 258 306 368 450
#     4  11  26  47  75 111 148 200 253 312 379 452
#     4  10  26  44  74 106 153 188 250 304 387 438
#
# _framework density 23.204857000000001
#
# number of rings (size 3 to 8) (size 9 to 14) (size 15 to 20)
#    0.000    1.000    3.750    0.000   12.250    1.000 
#    0.000    0.000    0.000    0.000    0.000    0.000 
#    0.000    0.000    0.000    0.000    0.000    0.000 
#
# Total GULP energy -89258.773122 kJ/mol
# GULP energy per Si atom -5578.673320 kJ/mol
# Density = 2.315204 g / cm^3
# Si number density = 23.204857 Si / 1000 Ang^3
#
#
#
# Elastic Constant Matrix: (Units=GPa)
#
#
# Indices 1 2 3 4 5 6 
#
# 1 98.7058 17.3427 24.5693 0.0000 12.9172 0.0000
# 2 17.3427 136.3364 37.5285 0.0000 5.6073 0.0000
# 3 24.5693 37.5285 81.5065 0.0000 9.2934 0.0000
# 4 0.0000 0.0000 0.0000 25.0812 0.0000 1.7201
# 5 12.9172 5.6073 9.2934 0.0000 28.7349 0.0000
# 6 0.0000 0.0000 0.0000 1.7201 0.0000 25.4740
#
#
#
# Elastic Compliance Matrix: (Units=1/GPa)
#
#
# Indices 1 2 3 4 5 6 
#
# 1 0.011449 -0.000533 -0.002731 0.000000 -0.004159 0.000000
# 2 -0.000533 0.008429 -0.003696 0.000000 -0.000210 0.000000
# 3 -0.002731 -0.003696 0.015130 0.000000 -0.002944 0.000000
# 4 0.000000 0.000000 0.000000 0.040056 0.000000 -0.002705
# 5 -0.004159 -0.000210 -0.002944 0.000000 0.037664 0.000000
# 6 0.000000 0.000000 0.000000 -0.002705 0.000000 0.039438
#
#
# Mechanical properties :
#
#
# Convention : Reuss Voigt Hill
#
# Bulk Modulus (GPa) = 47.42572 52.82553 50.12563
# Shear Modulus (GPa) = 28.88235 31.66523 30.27379
#
# Velocity S-wave (km/s) = 3.53181 3.69805 3.61589
# Velocity P-wave (km/s) = 6.09211 6.40690 6.25149
#
# Compressibility (1/GPa) = 0.02108560
#
# Stress axis : x y z
#
# Youngs Moduli (GPa) = 87.34376 118.64223 66.09458
#
# Poissons Ratio (x) = 0.06329 0.18053
# Poissons Ratio (y) = 0.04660 0.24430
# Poissons Ratio (z) = 0.23856 0.43852
#
# Static dielectric constant tensor:
#      x y z
#    x 2.012190 0.000000 -0.118470 
#    y 0.000000 1.958170 0.000000 
#    z -0.118470 0.000000 1.951320 
# 
# From -- ./inp_files/13780.got.cif
#   From: 2010.05.17/outbox.cif.g08.bks.cpg/sg9_7_cif.got.tgz:13780.got - 2010.06.03 20:04:27.
