data_PCOD9139427
_publ_section_title
;
Structure prediction by ZEFSAII (Michael W. Deem and Ramdas Pophale) SiO2 
 PCOD9139427
Probable space group: C C
;
_chemical_formula_sum "Si O2"
_cell_formula_units_Z 20
_cell_length_a 18.774648
_cell_length_b 4.812478
_cell_length_c 9.154062
_cell_angle_alpha 90.000000
_cell_angle_beta 67.314239
_cell_angle_gamma 90.000000
_cell_volume 763.104208
_symmetry_space_group_name_H-M "C C"
_symmetry_group_IT_number 9
_symmetry_cell_setting 'monoclinic'
loop_
_space_group_symop_operation_xyz
x,y,z
x,-y,1/2+z
1/2+x,1/2+y,z
1/2+x,1/2-y,1/2+z
loop_
_atom_site_type_symbol
_atom_site_label
_atom_site_fract_x
_atom_site_fract_y
_atom_site_fract_z
Si Si1 0.034920 0.903785 0.260740
Si Si2 0.329321 0.130622 0.732851
Si Si3 0.102455 0.395791 0.071152
Si Si4 0.879531 0.149047 0.509361
Si Si5 0.173828 0.189502 0.281550
O O1 0.053758 0.111446 0.111731
O O2 0.110194 0.955115 0.299941
O O3 0.958082 0.000130 0.398959
O O4 0.041173 0.592271 0.203924
O O5 0.331354 0.406615 0.630192
O O6 0.346040 0.221338 0.885430
O O7 0.388352 0.903564 0.616706
O O8 0.249153 0.962534 0.779889
O O9 0.175140 0.329726 0.120611
O O10 0.137855 0.582976 0.917124
#
# Coordination Sequence:
#
# PCOD9139427 Si02
#       5
#     4   4   4   4   4
#     4  10  26  45  81 111 159 201 270 324 396 476
#     4  12  30  52  78 118 165 214 261 337 400 493
#     4  10  25  44  79 110 153 203 265 328 379 472
#     4  12  29  50  83 117 165 210 270 326 419 468
#     4  10  28  47  79 114 158 206 268 321 402 465
#
# _framework density 26.208739999999999
#
# number of rings (size 3 to 8) (size 9 to 14) (size 15 to 20)
#    1.200    0.000    0.000    2.400   14.000    1.600 
#    0.000    2.000    0.000    0.000    0.000    0.000 
#    0.000    0.000    0.000    0.000    0.000    0.000 
#
# Total GULP energy -55951.135931 kJ/mol
# GULP energy per Si atom -5595.113593 kJ/mol
# Density = 2.614909 g / cm^3
# Si number density = 26.208740 Si / 1000 Ang^3
#
#
#
# Elastic Constant Matrix: (Units=GPa)
#
#
# Indices 1 2 3 4 5 6 
#
# 1 104.1171 9.5821 19.2344 0.0000 0.0118 0.0000
# 2 9.5821 155.0664 36.8251 0.0000 8.0345 0.0000
# 3 19.2344 36.8251 101.5221 0.0000 3.8555 0.0000
# 4 0.0000 0.0000 0.0000 41.6191 0.0000 3.1149
# 5 0.0118 8.0345 3.8555 0.0000 29.0998 0.0000
# 6 0.0000 0.0000 0.0000 3.1149 0.0000 37.0840
#
#
#
# Elastic Compliance Matrix: (Units=1/GPa)
#
#
# Indices 1 2 3 4 5 6 
#
# 1 0.009960 -0.000197 -0.001827 0.000000 0.000292 0.000000
# 2 -0.000197 0.007137 -0.002489 0.000000 -0.001641 0.000000
# 3 -0.001827 -0.002489 0.011129 0.000000 -0.000786 0.000000
# 4 0.000000 0.000000 0.000000 0.024179 0.000000 -0.002031
# 5 0.000292 -0.001641 -0.000786 0.000000 0.034922 0.000000
# 6 0.000000 0.000000 0.000000 -0.002031 0.000000 0.027136
#
#
# Mechanical properties :
#
#
# Convention : Reuss Voigt Hill
#
# Bulk Modulus (GPa) = 52.08170 54.66542 53.37356
# Shear Modulus (GPa) = 38.49424 41.23151 39.86288
#
# Velocity S-wave (km/s) = 3.83659 3.97066 3.90420
# Velocity P-wave (km/s) = 6.28816 6.47491 6.38222
#
# Compressibility (1/GPa) = 0.01920060
#
# Stress axis : x y z
#
# Youngs Moduli (GPa) = 100.40035 140.11147 89.85556
#
# Poissons Ratio (x) = 0.02757 0.16414
# Poissons Ratio (y) = 0.01976 0.22368
# Poissons Ratio (z) = 0.18341 0.34878
#
# Static dielectric constant tensor:
#      x y z
#    x 2.082090 0.000000 0.029200 
#    y 0.000000 2.054160 0.000000 
#    z 0.029200 0.000000 2.179550 
# 
# From -- ./inp_files/11087.got.cif
#   From: 2010.05.17/outbox.cif.g08.bks.cpg/sg9_6_cif.got.tgz:11087.got - 2010.06.03 20:04:27.
