data_PCOD9139520
_publ_section_title
;
Structure prediction by ZEFSAII (Michael W. Deem and Ramdas Pophale) SiO2 
 PCOD9139520
Probable space group: C C
;
_chemical_formula_sum "Si O2"
_cell_formula_units_Z 20
_cell_length_a 12.018380
_cell_length_b 12.010826
_cell_length_c 7.857573
_cell_angle_alpha 90.000000
_cell_angle_beta 41.598247
_cell_angle_gamma 90.000000
_cell_volume 753.029657
_symmetry_space_group_name_H-M "C C"
_symmetry_group_IT_number 9
_symmetry_cell_setting 'monoclinic'
loop_
_space_group_symop_operation_xyz
x,y,z
x,-y,1/2+z
1/2+x,1/2+y,z
1/2+x,1/2-y,1/2+z
loop_
_atom_site_type_symbol
_atom_site_label
_atom_site_fract_x
_atom_site_fract_y
_atom_site_fract_z
Si Si1 0.076720 0.857910 0.851410
Si Si2 0.221098 0.632298 0.584653
Si Si3 0.575592 0.889491 0.711144
Si Si4 0.727933 0.553520 0.511906
Si Si5 0.279138 0.240983 0.667303
O O1 0.117091 0.728225 0.797929
O O2 0.208362 0.925669 0.582969
O O3 0.108612 0.906070 0.000463
O O4 0.896198 0.880748 0.980999
O O5 0.132837 0.513589 0.685637
O O6 0.249997 0.681952 0.362846
O O7 0.745063 0.816014 0.535430
O O8 0.421666 0.912831 0.755344
O O9 0.464668 0.813416 0.967681
O O10 0.681658 0.626086 0.733003
#
# Coordination Sequence:
#
# PCOD9139520 Si02
#       5
#     4   4   4   4   4
#     4  12  27  46  75 118 156 204 264 324 400 471
#     4  12  27  47  80 115 156 205 266 330 394 477
#     4  10  26  44  83 107 155 201 270 314 406 459
#     4  10  27  47  75 111 158 206 259 327 394 478
#     4  10  25  48  79 109 155 210 257 335 392 469
#
# _framework density 26.559377999999999
#
# number of rings (size 3 to 8) (size 9 to 14) (size 15 to 20)
#    1.200    0.000    0.000    3.600   11.200    1.600 
#    0.000    0.000    0.000    0.000    0.000    0.000 
#    0.000    0.000    0.000    0.000    0.000    0.000 
#
# Total GULP energy -55848.883695 kJ/mol
# GULP energy per Si atom -5584.888369 kJ/mol
# Density = 2.649893 g / cm^3
# Si number density = 26.559378 Si / 1000 Ang^3
#
#
#
# Elastic Constant Matrix: (Units=GPa)
#
#
# Indices 1 2 3 4 5 6 
#
# 1 205.7150 37.2625 42.6877 0.0000 -26.7020 0.0000
# 2 37.2625 204.3421 46.6804 0.0000 -25.0757 0.0000
# 3 42.6877 46.6804 74.6600 0.0000 -2.7782 0.0000
# 4 0.0000 0.0000 0.0000 46.9451 0.0000 -20.5556
# 5 -26.7020 -25.0757 -2.7782 0.0000 34.3587 0.0000
# 6 0.0000 0.0000 0.0000 -20.5556 0.0000 32.5648
#
#
#
# Elastic Compliance Matrix: (Units=1/GPa)
#
#
# Indices 1 2 3 4 5 6 
#
# 1 0.006149 0.000252 -0.003499 0.000000 0.004680 0.000000
# 2 0.000252 0.006290 -0.003911 0.000000 0.004470 0.000000
# 3 -0.003499 -0.003911 0.017686 0.000000 -0.004144 0.000000
# 4 0.000000 0.000000 0.000000 0.029438 0.000000 0.018582
# 5 0.004680 0.004470 -0.004144 0.000000 0.035669 0.000000
# 6 0.000000 0.000000 0.000000 0.018582 0.000000 0.042437
#
#
# Mechanical properties :
#
#
# Convention : Reuss Voigt Hill
#
# Bulk Modulus (GPa) = 63.25388 81.99758 72.62573
# Shear Modulus (GPa) = 31.79580 46.64615 39.22097
#
# Velocity S-wave (km/s) = 3.46375 4.19537 3.84699
# Velocity P-wave (km/s) = 6.31383 7.37621 6.86560
#
# Compressibility (1/GPa) = 0.01580931
#
# Stress axis : x y z
#
# Youngs Moduli (GPa) = 162.62797 158.99227 56.54277
#
# Poissons Ratio (x) = -0.04013 0.19787
# Poissons Ratio (y) = -0.04105 0.22111
# Poissons Ratio (z) = 0.56911 0.62174
#
# Static dielectric constant tensor:
#      x y z
#    x 2.115150 0.000000 0.011490 
#    y 0.000000 2.025290 0.000000 
#    z 0.011490 0.000000 2.235390 
# 
# From -- ./inp_files/6906.got.cif
#   From: 2010.05.17/outbox.cif.g08.bks.cpg/sg9_4_cif.got.tgz:6906.got - 2010.06.03 20:04:27.
