data_PCOD9139632
_publ_section_title
;
Structure prediction by ZEFSAII (Michael W. Deem and Ramdas Pophale) SiO2 
 PCOD9139632
Probable space group: C C
;
_chemical_formula_sum "Si O2"
_cell_formula_units_Z 24
_cell_length_a 5.160546
_cell_length_b 14.351785
_cell_length_c 12.898785
_cell_angle_alpha 90.000000
_cell_angle_beta 97.496285
_cell_angle_gamma 90.000000
_cell_volume 947.158475
_symmetry_space_group_name_H-M "C C"
_symmetry_group_IT_number 9
_symmetry_cell_setting 'monoclinic'
loop_
_space_group_symop_operation_xyz
x,y,z
x,-y,1/2+z
1/2+x,1/2+y,z
1/2+x,1/2-y,1/2+z
loop_
_atom_site_type_symbol
_atom_site_label
_atom_site_fract_x
_atom_site_fract_y
_atom_site_fract_z
Si Si1 0.360380 0.666155 0.023940
Si Si2 0.932395 0.962377 0.007181
Si Si3 0.937560 0.666726 0.820066
Si Si4 0.697460 0.182286 0.630976
Si Si5 0.578478 0.172905 0.231183
Si Si6 0.865151 0.471902 0.877048
O O1 0.537716 0.758731 0.037943
O O2 0.193652 0.662067 0.121784
O O3 0.516320 0.568067 0.037198
O O4 0.176673 0.671749 0.913651
O O5 0.626742 0.972860 0.960666
O O6 0.123937 0.927986 0.926608
O O7 0.911750 0.886486 0.095941
O O8 0.017394 0.636115 0.707745
O O9 0.775261 0.577188 0.849068
O O10 0.784342 0.763680 0.805318
O O11 0.830687 0.261661 0.705725
O O12 0.472933 0.082170 0.282839
#
# Coordination Sequence:
#
# PCOD9139632 Si02
#       6
#     4   4   4   4   4   4
#     4  10  26  50  74 110 152 202 252 316 379 452
#     4  11  28  48  76 111 155 202 251 313 381 458
#     4  10  26  50  74 110 152 202 252 316 379 452
#     4  11  27  44  79 110 151 196 256 315 377 458
#     4  11  27  44  79 110 151 196 256 315 377 458
#     4  11  28  48  76 111 155 202 251 313 381 458
#
# _framework density 25.338947999999998
#
# number of rings (size 3 to 8) (size 9 to 14) (size 15 to 20)
#    0.000    1.333    0.000    1.000   23.333    1.333 
#    0.000    0.000    0.000    0.000    0.000    0.000 
#    0.000    0.000    0.000    0.000    0.000    0.000 
#
# Total GULP energy -67167.255543 kJ/mol
# GULP energy per Si atom -5597.271295 kJ/mol
# Density = 2.528128 g / cm^3
# Si number density = 25.338948 Si / 1000 Ang^3
#
#
#
# Elastic Constant Matrix: (Units=GPa)
#
#
# Indices 1 2 3 4 5 6 
#
# 1 81.0143 27.2669 25.0921 0.0000 -15.2501 0.0000
# 2 27.2669 121.7201 50.6710 0.0000 -7.2106 0.0000
# 3 25.0921 50.6710 92.2088 0.0000 -11.7907 0.0000
# 4 0.0000 0.0000 0.0000 34.7463 0.0000 -11.0894
# 5 -15.2501 -7.2106 -11.7907 0.0000 53.5849 0.0000
# 6 0.0000 0.0000 0.0000 -11.0894 0.0000 -9.3723
#
#
#
# Elastic Compliance Matrix: (Units=1/GPa)
#
#
# Indices 1 2 3 4 5 6 
#
# 1 0.014385 -0.002040 -0.002372 0.000000 0.003298 0.000000
# 2 -0.002040 0.010943 -0.005499 0.000000 -0.000318 0.000000
# 3 -0.002372 -0.005499 0.014746 0.000000 0.001830 0.000000
# 4 0.000000 0.000000 0.000000 0.020891 0.000000 -0.024719
# 5 0.003298 -0.000318 0.001830 0.000000 0.019960 0.000000
# 6 0.000000 0.000000 0.000000 -0.024719 0.000000 -0.077450
#
#
# Mechanical properties :
#
#
# Convention : Reuss Voigt Hill
#
# Bulk Modulus (GPa) = 49.37537 55.66702 52.52120
# Shear Modulus (GPa) = 166.40115 28.58599 97.49357
#
# Velocity S-wave (km/s) = 8.11250 3.36243 6.20961
# Velocity P-wave (km/s) = 10.35753 6.09026 8.49617
#
# Compressibility (1/GPa) = 0.02025301
#
# Stress axis : x y z
#
# Youngs Moduli (GPa) = 69.51477 91.38403 67.81399
#
# Poissons Ratio (x) = 0.18640 0.16086
# Poissons Ratio (y) = 0.14179 0.37291
# Poissons Ratio (z) = 0.16489 0.50252
#
# Static dielectric constant tensor:
#      x y z
#    x 2.006910 0.000000 -0.000640 
#    y 0.000000 2.033150 0.000000 
#    z -0.000640 0.000000 2.017840 
# 
# From -- ./inp_files/12947.got.cif
#   From: 2010.05.17/outbox.cif.g08.bks.cpg/sg9_7_cif.got.tgz:12947.got - 2010.06.03 20:04:27.
