data_PCOD9139592
_publ_section_title
;
Structure prediction by ZEFSAII (Michael W. Deem and Ramdas Pophale) SiO2 
 PCOD9139592
Probable space group: C C
;
_chemical_formula_sum "Si O2"
_cell_formula_units_Z 32
_cell_length_a 15.102184
_cell_length_b 9.712471
_cell_length_c 17.214286
_cell_angle_alpha 90.000000
_cell_angle_beta 30.243266
_cell_angle_gamma 90.000000
_cell_volume 1271.764506
_symmetry_space_group_name_H-M "C C"
_symmetry_group_IT_number 9
_symmetry_cell_setting 'monoclinic'
loop_
_space_group_symop_operation_xyz
x,y,z
x,-y,1/2+z
1/2+x,1/2+y,z
1/2+x,1/2-y,1/2+z
loop_
_atom_site_type_symbol
_atom_site_label
_atom_site_fract_x
_atom_site_fract_y
_atom_site_fract_z
Si Si1 0.533920 0.302180 0.038860
Si Si2 0.660711 0.846450 0.661836
Si Si3 0.805434 0.554139 0.215380
Si Si4 0.975387 0.710483 0.666350
Si Si5 0.963634 0.977174 0.912847
Si Si6 0.835893 0.714577 0.931752
Si Si7 0.779325 0.395830 0.986652
Si Si8 0.331279 0.444956 0.670333
O O1 0.474111 0.147754 0.070040
O O2 0.357382 0.395830 0.167918
O O3 0.679725 0.357664 0.868432
O O4 0.616921 0.341501 0.058195
O O5 0.747731 0.697859 0.586195
O O6 0.453982 0.856559 0.804675
O O7 0.660889 0.899681 0.752000
O O8 0.792503 0.940710 0.508939
O O9 0.672587 0.528919 0.243947
O O10 0.876587 0.418005 0.203637
O O11 0.181937 0.722331 0.494071
O O12 0.984522 0.702596 0.753107
O O13 0.890212 0.846663 0.693473
O O14 0.899613 0.819731 0.949461
O O15 0.961446 0.062686 0.996379
O O16 0.781594 0.559898 0.994550
#
# Coordination Sequence:
#
# PCOD9139592 Si02
#       8
#     4   4   4   4   4   4   4   4
#     4  11  23  46  70 104 147 190 247 309 356 452
#     4  10  26  45  76 100 157 189 248 304 374 444
#     4  11  25  45  72 103 152 192 250 299 377 440
#     4  12  25  50  74 107 146 201 243 313 367 457
#     4   9  24  47  70 107 143 198 240 313 364 447
#     4  12  26  44  78 109 150 191 254 306 381 439
#     4  12  24  46  71 114 144 196 245 311 373 448
#     4   9  23  49  69 102 147 193 247 301 366 443
#
# _framework density 25.161892000000002
#
# number of rings (size 3 to 8) (size 9 to 14) (size 15 to 20)
#    0.750    0.500    2.500    2.250    5.250    3.000 
#    4.500    0.000    0.000    0.000    0.000    0.000 
#    0.000    0.000    0.000    0.000    0.000    0.000 
#
# Total GULP energy -89070.484332 kJ/mol
# GULP energy per Si atom -5566.905271 kJ/mol
# Density = 2.510462 g / cm^3
# Si number density = 25.161892 Si / 1000 Ang^3
#
#
#
# Elastic Constant Matrix: (Units=GPa)
#
#
# Indices 1 2 3 4 5 6 
#
# 1 55.0087 37.6176 29.0508 0.0000 -13.3785 0.0000
# 2 37.6176 156.1687 43.1592 -0.0003 -12.7165 0.0001
# 3 29.0508 43.1592 56.3668 -0.0004 -7.1907 0.0002
# 4 0.0000 -0.0003 -0.0004 35.5781 0.0001 -3.5281
# 5 -13.3785 -12.7165 -7.1907 0.0001 21.8869 0.0000
# 6 0.0000 0.0001 0.0002 -3.5281 0.0000 36.2037
#
#
#
# Elastic Compliance Matrix: (Units=1/GPa)
#
#
# Indices 1 2 3 4 5 6 
#
# 1 0.029094 -0.002905 -0.011185 0.000000 0.012421 0.000000
# 2 -0.002905 0.008579 -0.004866 0.000000 0.001610 0.000000
# 3 -0.011185 -0.004866 0.027136 0.000000 -0.000749 0.000000
# 4 0.000000 0.000000 0.000000 0.028381 0.000000 0.002766
# 5 0.012421 0.001610 -0.000749 0.000000 0.053971 0.000000
# 6 0.000000 0.000000 0.000000 0.002766 0.000000 0.027891
#
#
# Mechanical properties :
#
#
# Convention : Reuss Voigt Hill
#
# Bulk Modulus (GPa) = 37.18150 54.13329 45.65739
# Shear Modulus (GPa) = 22.52948 29.24819 25.88883
#
# Velocity S-wave (km/s) = 2.99554 3.41310 3.21111
# Velocity P-wave (km/s) = 5.17429 6.09040 5.65094
#
# Compressibility (1/GPa) = 0.02689510
#
# Stress axis : x y z
#
# Youngs Moduli (GPa) = 34.37150 116.56271 36.85125
#
# Poissons Ratio (x) = 0.33866 0.41220
# Poissons Ratio (y) = 0.09986 0.17932
# Poissons Ratio (z) = 0.38446 0.56720
#
# Static dielectric constant tensor:
#      x y z
#    x 2.146470 0.000000 -0.048680 
#    y 0.000000 2.033240 0.000000 
#    z -0.048680 0.000000 2.067850 
# 
# From -- ./inp_files/34063.got.cif
#   From: 2010.05.17/outbox.cif.g08.bks.cpg/sg9_18_cif.got.tgz:34063.got - 2010.06.03 20:04:27.
