data_PCOD9139789
_publ_section_title
;
Structure prediction by ZEFSAII (Michael W. Deem and Ramdas Pophale) SiO2 
 PCOD9139789
Probable space group: C C
;
_chemical_formula_sum "Si O2"
_cell_formula_units_Z 32
_cell_length_a 14.735390
_cell_length_b 7.462499
_cell_length_c 18.330499
_cell_angle_alpha 90.000000
_cell_angle_beta 141.888352
_cell_angle_gamma 90.000000
_cell_volume 1244.065369
_symmetry_space_group_name_H-M "C C"
_symmetry_group_IT_number 9
_symmetry_cell_setting 'monoclinic'
loop_
_space_group_symop_operation_xyz
x,y,z
x,-y,1/2+z
1/2+x,1/2+y,z
1/2+x,1/2-y,1/2+z
loop_
_atom_site_type_symbol
_atom_site_label
_atom_site_fract_x
_atom_site_fract_y
_atom_site_fract_z
Si Si1 0.295080 0.319939 0.375000
Si Si2 0.564514 0.889115 0.110675
Si Si3 0.831517 0.433666 0.248637
Si Si4 0.789057 0.955005 0.644723
Si Si5 0.059416 0.004474 0.989212
Si Si6 0.148214 0.583305 0.898538
Si Si7 0.880239 0.330142 0.442080
Si Si8 0.118771 0.998526 0.361865
O O1 0.414153 0.215028 0.500782
O O2 0.153154 0.307977 0.233047
O O3 0.420816 0.366370 0.393725
O O4 0.251526 0.491913 0.400077
O O5 0.672707 0.918427 0.110822
O O6 0.498583 0.090439 0.075389
O O7 0.810532 0.226615 0.206699
O O8 0.686729 0.532943 0.128880
O O9 0.849264 0.444469 0.346905
O O10 0.985307 0.488723 0.307902
O O11 0.725515 0.910452 0.525087
O O12 0.949463 0.039018 0.737652
O O13 0.137373 0.003794 0.960666
O O14 0.973944 0.826846 0.962212
O O15 0.141933 0.787345 0.860299
O O16 0.727927 0.370481 0.388029
#
# Coordination Sequence:
#
# PCOD9139789 Si02
#       8
#     4   4   4   4   4   4   4   4
#     4  12  30  44  71 107 153 185 251 313 374 443
#     4  12  25  48  68 102 145 199 239 310 371 443
#     4  11  21  40  74 105 135 191 243 302 373 446
#     4  11  21  46  73  98 147 189 250 308 376 445
#     4  12  25  48  69 107 147 193 241 311 373 444
#     4  11  23  40  70 107 138 194 246 302 371 454
#     4  12  24  44  77 103 139 195 251 299 372 448
#     4  11  23  42  72 101 140 192 247 297 364 443
#
# _framework density 25.722118999999999
#
# number of rings (size 3 to 8) (size 9 to 14) (size 15 to 20)
#    0.000    0.500    8.750    0.000    8.750    0.000 
#    2.250    1.250    0.000    0.000    0.000    0.000 
#    0.000    0.000    0.000    0.000    0.000    0.000 
#
# Total GULP energy -89209.878860 kJ/mol
# GULP energy per Si atom -5575.617429 kJ/mol
# Density = 2.566357 g / cm^3
# Si number density = 25.722119 Si / 1000 Ang^3
#
#
#
# Elastic Constant Matrix: (Units=GPa)
#
#
# Indices 1 2 3 4 5 6 
#
# 1 184.3351 12.2603 76.3314 0.0000 6.9838 0.0000
# 2 12.2603 47.9617 16.3884 0.0000 -4.8251 0.0000
# 3 76.3314 16.3884 194.5957 0.0000 4.8092 0.0000
# 4 0.0000 0.0000 0.0000 4.6160 0.0000 -5.3988
# 5 6.9838 -4.8251 4.8092 0.0000 59.8663 0.0000
# 6 0.0000 0.0000 0.0000 -5.3988 0.0000 11.4123
#
#
#
# Elastic Compliance Matrix: (Units=1/GPa)
#
#
# Indices 1 2 3 4 5 6 
#
# 1 0.006531 -0.000889 -0.002471 0.000000 -0.000635 0.000000
# 2 -0.000889 0.021802 -0.001536 0.000000 0.001984 0.000000
# 3 -0.002471 -0.001536 0.006246 0.000000 -0.000337 0.000000
# 4 0.000000 0.000000 0.000000 0.484970 0.000000 0.229424
# 5 -0.000635 0.001984 -0.000337 0.000000 0.016965 0.000000
# 6 0.000000 0.000000 0.000000 0.229424 0.000000 0.196158
#
#
# Mechanical properties :
#
#
# Convention : Reuss Voigt Hill
#
# Bulk Modulus (GPa) = 40.34604 70.76142 55.55373
# Shear Modulus (GPa) = 6.66020 36.63974 21.64997
#
# Velocity S-wave (km/s) = 1.61087 3.77828 2.90433
# Velocity P-wave (km/s) = 4.37942 6.82668 5.73510
#
# Compressibility (1/GPa) = 0.02478558
#
# Stress axis : x y z
#
# Youngs Moduli (GPa) = 153.10424 45.86768 160.10163
#
# Poissons Ratio (x) = 0.04078 0.39568
# Poissons Ratio (y) = 0.13611 0.24598
# Poissons Ratio (z) = 0.37839 0.07047
#
# Static dielectric constant tensor:
#      x y z
#    x 2.281820 0.000000 0.019050 
#    y 0.000000 2.611530 0.000000 
#    z 0.019050 0.000000 1.901150 
# 
# From -- ./inp_files/30638.got.cif
#   From: 2010.05.17/outbox.cif.g08.bks.cpg/sg9_16_cif.got.tgz:30638.got - 2010.06.03 20:04:27.
