data_PCOD9139770
_publ_section_title
;
Structure prediction by ZEFSAII (Michael W. Deem and Ramdas Pophale) SiO2 
 PCOD9139770
Probable space group: C C
;
_chemical_formula_sum "Si O2"
_cell_formula_units_Z 20
_cell_length_a 9.911872
_cell_length_b 12.047722
_cell_length_c 9.502530
_cell_angle_alpha 90.000000
_cell_angle_beta 121.872530
_cell_angle_gamma 90.000000
_cell_volume 963.657298
_symmetry_space_group_name_H-M "C C"
_symmetry_group_IT_number 9
_symmetry_cell_setting 'monoclinic'
loop_
_space_group_symop_operation_xyz
x,y,z
x,-y,1/2+z
1/2+x,1/2+y,z
1/2+x,1/2-y,1/2+z
loop_
_atom_site_type_symbol
_atom_site_label
_atom_site_fract_x
_atom_site_fract_y
_atom_site_fract_z
Si Si1 0.794520 0.504897 0.807780
Si Si2 0.755049 0.005680 0.650405
Si Si3 0.586057 0.434193 0.940658
Si Si4 0.088979 0.594983 0.312606
Si Si5 0.546131 0.190279 0.013529
O O1 0.731063 0.448549 0.913238
O O2 0.646905 0.524345 0.624224
O O3 0.924020 0.432907 0.795428
O O4 0.889001 0.617835 0.897199
O O5 0.714137 0.096033 0.509536
O O6 0.643979 0.000416 0.729667
O O7 0.694758 0.888079 0.549710
O O8 0.934033 0.999631 0.799371
O O9 0.540178 0.306239 0.934323
O O10 0.071597 0.697917 0.196850
#
# Coordination Sequence:
#
# PCOD9139770 Si02
#       5
#     4   4   4   4   4
#     4  11  21  38  68  94 124 176 212 272 323 393
#     4   9  19  35  63  89 124 173 207 266 322 386
#     4  12  21  37  67  95 132 160 226 275 321 372
#     4   9  18  40  60  88 130 172 208 260 337 380
#     4   9  21  38  64  88 132 175 207 259 337 391
#
# _framework density 20.754266000000001
#
# number of rings (size 3 to 8) (size 9 to 14) (size 15 to 20)
#    1.200    0.800    2.000    2.400    0.000    0.000 
#    0.000    0.000   44.000    0.000    0.000    0.000 
#    0.000    0.000    0.000    0.000    0.000    0.000 
#
# Total GULP energy -55712.935978 kJ/mol
# GULP energy per Si atom -5571.293598 kJ/mol
# Density = 2.070703 g / cm^3
# Si number density = 20.754266 Si / 1000 Ang^3
#
#
#
# Elastic Constant Matrix: (Units=GPa)
#
#
# Indices 1 2 3 4 5 6 
#
# 1 78.7641 22.1268 8.0782 0.0000 -12.7894 0.0000
# 2 22.1268 43.5176 19.1741 0.0000 -2.5283 0.0000
# 3 8.0782 19.1741 141.1742 0.0000 8.3908 0.0000
# 4 0.0000 0.0000 0.0000 13.6730 0.0000 2.0520
# 5 -12.7894 -2.5283 8.3908 0.0000 38.7022 0.0000
# 6 0.0000 0.0000 0.0000 2.0520 0.0000 17.6832
#
#
#
# Elastic Compliance Matrix: (Units=1/GPa)
#
#
# Indices 1 2 3 4 5 6 
#
# 1 0.015608 -0.007602 -0.000139 0.000000 0.004691 0.000000
# 2 -0.007602 0.028357 -0.003421 0.000000 0.000082 0.000000
# 3 -0.000139 -0.003421 0.007671 0.000000 -0.001933 0.000000
# 4 0.000000 0.000000 0.000000 0.074433 0.000000 -0.008637
# 5 0.004691 0.000082 -0.001933 0.000000 0.027813 0.000000
# 6 0.000000 0.000000 0.000000 -0.008637 0.000000 0.057553
#
#
# Mechanical properties :
#
#
# Convention : Reuss Voigt Hill
#
# Bulk Modulus (GPa) = 34.11779 40.24600 37.18190
# Shear Modulus (GPa) = 20.53138 28.28347 24.40742
#
# Velocity S-wave (km/s) = 3.14866 3.69559 3.43303
# Velocity P-wave (km/s) = 5.44916 6.13544 5.80246
#
# Compressibility (1/GPa) = 0.02931022
#
# Stress axis : x y z
#
# Youngs Moduli (GPa) = 64.07074 35.26516 130.36170
#
# Poissons Ratio (x) = 0.26808 0.01818
# Poissons Ratio (y) = 0.48706 0.44600
# Poissons Ratio (z) = 0.00894 0.12065
#
# Static dielectric constant tensor:
#      x y z
#    x 1.750800 0.000000 -0.004610 
#    y 0.000000 1.758160 0.000000 
#    z -0.004610 0.000000 1.798350 
# 
# From -- ./inp_files/4745.got.cif
#   From: 2010.05.17/outbox.cif.g08.bks.cpg/sg9_3_cif.got.tgz:4745.got - 2010.06.03 20:04:27.
