data_PCOD9139324
_publ_section_title
;
Structure prediction by ZEFSAII (Michael W. Deem and Ramdas Pophale) SiO2 
 PCOD9139324
Probable space group: C C
;
_chemical_formula_sum "Si O2"
_cell_formula_units_Z 28
_cell_length_a 8.968688
_cell_length_b 10.953498
_cell_length_c 13.826013
_cell_angle_alpha 90.000000
_cell_angle_beta 121.469923
_cell_angle_gamma 90.000000
_cell_volume 1158.468210
_symmetry_space_group_name_H-M "C C"
_symmetry_group_IT_number 9
_symmetry_cell_setting 'monoclinic'
loop_
_space_group_symop_operation_xyz
x,y,z
x,-y,1/2+z
1/2+x,1/2+y,z
1/2+x,1/2-y,1/2+z
loop_
_atom_site_type_symbol
_atom_site_label
_atom_site_fract_x
_atom_site_fract_y
_atom_site_fract_z
Si Si1 0.578560 0.280361 0.599810
Si Si2 0.719086 0.052292 0.544711
Si Si3 0.241876 0.832676 0.968309
Si Si4 0.475518 0.605256 0.245455
Si Si5 0.935359 0.633097 0.901032
Si Si6 0.352077 0.988822 0.675808
Si Si7 0.703987 0.152797 0.326135
O O1 0.696921 0.171136 0.602470
O O2 0.396463 0.254754 0.483045
O O3 0.527813 0.279973 0.696062
O O4 0.680415 0.404966 0.620034
O O5 0.543956 0.969349 0.496485
O O6 0.738114 0.081788 0.437886
O O7 0.888885 0.985250 0.641003
O O8 0.317146 0.917578 0.077362
O O9 0.155698 0.921508 0.860242
O O10 0.086239 0.739853 0.945839
O O11 0.760757 0.292179 0.371604
O O12 0.329067 0.622231 0.277845
O O13 0.887530 0.568833 0.783616
O O14 0.513028 0.891926 0.727568
#
# Coordination Sequence:
#
# PCOD9139324 Si02
#       7
#     4   4   4   4   4   4   4
#     4  12  28  49  75 117 158 204 260 326 388 471
#     4  11  26  51  80 120 162 201 271 330 394 476
#     4  11  24  47  82 111 156 208 256 323 400 465
#     4  11  26  47  81 113 158 212 260 329 396 467
#     4  10  24  49  82 114 155 207 265 326 395 472
#     4  11  27  50  78 116 159 203 266 325 398 475
#     4  10  25  51  80 119 156 211 262 323 397 478
#
# _framework density 24.169847000000001
#
# number of rings (size 3 to 8) (size 9 to 14) (size 15 to 20)
#    0.000    1.143    1.429    2.571    8.000    6.857 
#    0.000    0.000    0.000    0.000    0.000    0.000 
#    0.000    0.000    0.000    0.000    0.000    0.000 
#
# Total GULP energy -78188.894763 kJ/mol
# GULP energy per Si atom -5584.921054 kJ/mol
# Density = 2.411484 g / cm^3
# Si number density = 24.169847 Si / 1000 Ang^3
#
#
#
# Elastic Constant Matrix: (Units=GPa)
#
#
# Indices 1 2 3 4 5 6 
#
# 1 107.2975 51.0223 53.7826 0.0000 0.4695 0.0000
# 2 51.0223 132.8043 71.7546 0.0000 4.6878 0.0000
# 3 53.7826 71.7546 149.5947 0.0000 10.5214 0.0000
# 4 0.0000 0.0000 0.0000 23.5452 0.0000 1.8339
# 5 0.4695 4.6878 10.5214 0.0000 38.3551 0.0000
# 6 0.0000 0.0000 0.0000 1.8339 0.0000 40.8617
#
#
#
# Elastic Compliance Matrix: (Units=1/GPa)
#
#
# Indices 1 2 3 4 5 6 
#
# 1 0.012312 -0.003153 -0.002988 0.000000 0.001054 0.000000
# 2 -0.003153 0.010972 -0.004117 0.000000 -0.000173 0.000000
# 3 -0.002988 -0.004117 0.009887 0.000000 -0.002172 0.000000
# 4 0.000000 0.000000 0.000000 0.042620 0.000000 -0.001913
# 5 0.001054 -0.000173 -0.002172 0.000000 0.026676 0.000000
# 6 0.000000 0.000000 0.000000 -0.001913 0.000000 0.024559
#
#
# Mechanical properties :
#
#
# Convention : Reuss Voigt Hill
#
# Bulk Modulus (GPa) = 79.02508 82.53505 80.78007
# Shear Modulus (GPa) = 32.94653 34.76154 33.85403
#
# Velocity S-wave (km/s) = 3.69606 3.79650 3.74662
# Velocity P-wave (km/s) = 7.14011 7.31026 7.22569
#
# Compressibility (1/GPa) = 0.01265421
#
# Stress axis : x y z
#
# Youngs Moduli (GPa) = 81.21830 91.14331 101.14622
#
# Poissons Ratio (x) = 0.28737 0.30227
# Poissons Ratio (y) = 0.25607 0.41642
# Poissons Ratio (z) = 0.24272 0.37524
#
# Static dielectric constant tensor:
#      x y z
#    x 1.986130 0.000000 -0.010420 
#    y 0.000000 1.987620 0.000000 
#    z -0.010420 0.000000 1.966280 
# 
# From -- ./inp_files/22934.got.cif
#   From: 2010.05.17/outbox.cif.g08.bks.cpg/sg9_12_cif.got.tgz:22934.got - 2010.06.03 20:04:27.
