data_PCOD9139009
_publ_section_title
;
Structure prediction by ZEFSAII (Michael W. Deem and Ramdas Pophale) SiO2 
 PCOD9139009
Probable space group: C C
;
_chemical_formula_sum "Si O2"
_cell_formula_units_Z 28
_cell_length_a 16.827007
_cell_length_b 8.415424
_cell_length_c 8.690265
_cell_angle_alpha 90.000000
_cell_angle_beta 118.627536
_cell_angle_gamma 90.000000
_cell_volume 1080.160098
_symmetry_space_group_name_H-M "C C"
_symmetry_group_IT_number 9
_symmetry_cell_setting 'monoclinic'
loop_
_space_group_symop_operation_xyz
x,y,z
x,-y,1/2+z
1/2+x,1/2+y,z
1/2+x,1/2-y,1/2+z
loop_
_atom_site_type_symbol
_atom_site_label
_atom_site_fract_x
_atom_site_fract_y
_atom_site_fract_z
Si Si1 0.322780 0.035277 0.012840
Si Si2 0.526577 0.704453 0.903314
Si Si3 0.232801 0.279142 0.107724
Si Si4 0.019540 0.125755 0.543302
Si Si5 0.226348 0.168848 0.638841
Si Si6 0.203110 0.573150 0.900499
Si Si7 0.999555 0.571977 0.811971
O O1 0.315865 0.169614 0.138308
O O2 0.240422 0.922955 0.990205
O O3 0.415506 0.943992 0.119345
O O4 0.299086 0.106521 0.827177
O O5 0.501345 0.660907 0.704262
O O6 0.490216 0.554119 0.969755
O O7 0.509814 0.896241 0.900139
O O8 0.635660 0.693354 0.026701
O O9 0.243125 0.362215 0.280831
O O10 0.221488 0.390581 0.948500
O O11 0.127750 0.142553 0.616297
O O12 0.985221 0.275364 0.408673
O O13 0.239559 0.345420 0.589928
O O14 0.094627 0.598601 0.811168
#
# Coordination Sequence:
#
# PCOD9139009 Si02
#       7
#     4   4   4   4   4   4   4
#     4  12  24  43  69 105 147 182 239 316 382 434
#     4  11  25  42  73 100 141 199 253 299 372 460
#     4  11  22  42  73 104 141 194 259 309 372 456
#     4  11  23  47  71 105 139 197 250 310 354 476
#     4  11  22  41  68 100 138 187 242 296 371 449
#     4  10  24  43  72 105 141 201 253 303 367 471
#     4  10  28  44  74 107 153 190 250 313 394 442
#
# _framework density 25.922083000000001
#
# number of rings (size 3 to 8) (size 9 to 14) (size 15 to 20)
#    0.000    1.143    2.857    1.714   16.000    0.000 
#    2.571    1.429    0.000    0.000    0.000    0.000 
#    0.000    0.000    0.000    0.000    0.000    0.000 
#
# Total GULP energy -78320.708406 kJ/mol
# GULP energy per Si atom -5594.336315 kJ/mol
# Density = 2.586308 g / cm^3
# Si number density = 25.922083 Si / 1000 Ang^3
#
#
#
# Elastic Constant Matrix: (Units=GPa)
#
#
# Indices 1 2 3 4 5 6 
#
# 1 61.3649 2.0357 29.0250 0.0000 -7.5938 0.0000
# 2 2.0357 106.7662 41.0701 0.0000 -21.4328 0.0000
# 3 29.0250 41.0701 135.3261 0.0000 -12.8555 0.0000
# 4 0.0000 0.0000 0.0000 46.2112 0.0000 -7.8229
# 5 -7.5938 -21.4328 -12.8555 0.0000 43.0875 0.0000
# 6 0.0000 0.0000 0.0000 -7.8229 0.0000 26.9090
#
#
#
# Elastic Compliance Matrix: (Units=1/GPa)
#
#
# Indices 1 2 3 4 5 6 
#
# 1 0.018625 0.001884 -0.004287 0.000000 0.002941 0.000000
# 2 0.001884 0.011690 -0.003466 0.000000 0.005113 0.000000
# 3 -0.004287 -0.003466 0.009392 0.000000 0.000322 0.000000
# 4 0.000000 0.000000 0.000000 0.022760 0.000000 0.006617
# 5 0.002941 0.005113 0.000322 0.000000 0.026366 0.000000
# 6 0.000000 0.000000 0.000000 0.006617 0.000000 0.039086
#
#
# Mechanical properties :
#
#
# Convention : Reuss Voigt Hill
#
# Bulk Modulus (GPa) = 35.75431 49.74653 42.75042
# Shear Modulus (GPa) = 33.56148 38.66331 36.11240
#
# Velocity S-wave (km/s) = 3.60211 3.86621 3.73649
# Velocity P-wave (km/s) = 5.57881 6.25800 5.92814
#
# Compressibility (1/GPa) = 0.02796865
#
# Stress axis : x y z
#
# Youngs Moduli (GPa) = 53.69064 85.54244 106.47688
#
# Poissons Ratio (x) = -0.16120 0.45650
# Poissons Ratio (y) = -0.10118 0.36908
# Poissons Ratio (z) = 0.23019 0.29652
#
# Static dielectric constant tensor:
#      x y z
#    x 1.982290 0.000000 0.004880 
#    y 0.000000 2.192330 0.000000 
#    z 0.004880 0.000000 1.996200 
# 
# From -- ./inp_files/11206.got.cif
#   From: 2010.05.17/outbox.cif.g08.bks.cpg/sg9_6_cif.got.tgz:11206.got - 2010.06.03 20:04:27.
