data_PCOD9139474
_publ_section_title
;
Structure prediction by ZEFSAII (Michael W. Deem and Ramdas Pophale) SiO2 
 PCOD9139474
Probable space group: C C
;
_chemical_formula_sum "Si O2"
_cell_formula_units_Z 32
_cell_length_a 17.517631
_cell_length_b 11.732340
_cell_length_c 9.420687
_cell_angle_alpha 90.000000
_cell_angle_beta 141.986680
_cell_angle_gamma 90.000000
_cell_volume 1192.377478
_symmetry_space_group_name_H-M "C C"
_symmetry_group_IT_number 9
_symmetry_cell_setting 'monoclinic'
loop_
_space_group_symop_operation_xyz
x,y,z
x,-y,1/2+z
1/2+x,1/2+y,z
1/2+x,1/2-y,1/2+z
loop_
_atom_site_type_symbol
_atom_site_label
_atom_site_fract_x
_atom_site_fract_y
_atom_site_fract_z
Si Si1 0.920460 0.775416 0.638380
Si Si2 0.887802 0.385808 0.533442
Si Si3 0.045611 0.081901 0.714484
Si Si4 0.661811 0.759387 0.668770
Si Si5 0.530497 0.782654 0.013985
Si Si6 0.132696 0.479792 0.758839
Si Si7 0.725213 0.403499 0.888692
Si Si8 0.383203 0.511804 0.718258
O O1 0.835818 0.681498 0.590104
O O2 0.929391 0.753910 0.484185
O O3 0.873189 0.899476 0.606040
O O4 0.059980 0.766745 0.901777
O O5 0.797349 0.289498 0.341926
O O6 0.797601 0.494738 0.416467
O O7 0.000819 0.428752 0.607052
O O8 0.953538 0.337031 0.771353
O O9 0.962882 0.095752 0.733854
O O10 0.110884 0.192853 0.738006
O O11 0.958757 0.029076 0.464317
O O12 0.146387 0.980279 0.884347
O O13 0.672214 0.894979 0.691632
O O14 0.631935 0.679208 0.164455
O O15 0.607704 0.890209 0.187651
O O16 0.241455 0.453582 0.031533
#
# Coordination Sequence:
#
# PCOD9139474 Si02
#       8
#     4   4   4   4   4   4   4   4
#     4  11  23  48  74 110 145 204 253 319 403 476
#     4  11  28  50  72 119 153 204 269 331 401 474
#     4  10  25  46  71 107 145 204 250 320 393 472
#     4  10  27  48  72 104 155 204 256 327 399 472
#     4  12  26  44  81 111 153 207 258 328 394 471
#     4  12  27  45  73 107 151 199 259 328 387 479
#     4  11  23  47  76 112 150 197 257 329 394 477
#     4  11  25  44  73 106 150 197 256 312 393 475
#
# _framework density 26.837136999999998
#
# number of rings (size 3 to 8) (size 9 to 14) (size 15 to 20)
#    0.000    1.000    3.750    0.750    5.250    5.000 
#    2.250    0.000    0.000    0.000    0.000    0.000 
#    0.000    0.000    0.000    0.000    0.000    0.000 
#
# Total GULP energy -89603.652885 kJ/mol
# GULP energy per Si atom -5600.228305 kJ/mol
# Density = 2.677605 g / cm^3
# Si number density = 26.837137 Si / 1000 Ang^3
#
#
#
# Elastic Constant Matrix: (Units=GPa)
#
#
# Indices 1 2 3 4 5 6 
#
# 1 73.6881 24.0704 52.0762 0.0000 13.0242 0.0000
# 2 24.0704 155.6352 19.8260 0.0000 14.2243 0.0000
# 3 52.0762 19.8260 137.5670 0.0000 23.4843 0.0000
# 4 0.0000 0.0000 0.0000 42.3668 0.0000 13.5437
# 5 13.0242 14.2243 23.4843 0.0000 43.2453 0.0000
# 6 0.0000 0.0000 0.0000 13.5437 0.0000 40.5745
#
#
#
# Elastic Compliance Matrix: (Units=1/GPa)
#
#
# Indices 1 2 3 4 5 6 
#
# 1 0.019249 -0.001982 -0.006748 0.000000 -0.001481 0.000000
# 2 -0.001982 0.006880 0.000048 0.000000 -0.001692 0.000000
# 3 -0.006748 0.000048 0.010441 0.000000 -0.003653 0.000000
# 4 0.000000 0.000000 0.000000 0.026423 0.000000 -0.008820
# 5 -0.001481 -0.001692 -0.003653 0.000000 0.026110 0.000000
# 6 0.000000 0.000000 0.000000 -0.008820 0.000000 0.027590
#
#
# Mechanical properties :
#
#
# Convention : Reuss Voigt Hill
#
# Bulk Modulus (GPa) = 52.07179 62.09284 57.08232
# Shear Modulus (GPa) = 35.59731 43.29850 39.44791
#
# Velocity S-wave (km/s) = 3.64596 4.02105 3.83809
# Velocity P-wave (km/s) = 6.09664 6.68921 6.39979
#
# Compressibility (1/GPa) = 0.01920426
#
# Stress axis : x y z
#
# Youngs Moduli (GPa) = 51.95090 145.34030 95.78068
#
# Poissons Ratio (x) = 0.28807 0.64636
# Poissons Ratio (y) = 0.10297 -0.00455
# Poissons Ratio (z) = 0.35058 -0.00691
#
# Static dielectric constant tensor:
#      x y z
#    x 2.146050 0.000000 0.012950 
#    y 0.000000 2.082670 0.000000 
#    z 0.012950 0.000000 2.072390 
# 
# From -- ./inp_files/20299.got.cif
#   From: 2010.05.17/outbox.cif.g08.bks.cpg/sg9_11_cif.got.tgz:20299.got - 2010.06.03 20:04:27.
