data_PCOD9139133
_publ_section_title
;
Structure prediction by ZEFSAII (Michael W. Deem and Ramdas Pophale) SiO2 
 PCOD9139133
Probable space group: C C
;
_chemical_formula_sum "Si O2"
_cell_formula_units_Z 32
_cell_length_a 8.454179
_cell_length_b 16.447906
_cell_length_c 20.605207
_cell_angle_alpha 90.000000
_cell_angle_beta 150.473567
_cell_angle_gamma 90.000000
_cell_volume 1412.055614
_symmetry_space_group_name_H-M "C C"
_symmetry_group_IT_number 9
_symmetry_cell_setting 'monoclinic'
loop_
_space_group_symop_operation_xyz
x,y,z
x,-y,1/2+z
1/2+x,1/2+y,z
1/2+x,1/2-y,1/2+z
loop_
_atom_site_type_symbol
_atom_site_label
_atom_site_fract_x
_atom_site_fract_y
_atom_site_fract_z
Si Si1 0.306570 0.913101 0.277700
Si Si2 0.055260 0.579876 0.530717
Si Si3 0.160836 0.661129 0.026097
Si Si4 0.768226 0.584997 0.295468
Si Si5 0.622383 0.902635 0.264755
Si Si6 0.153148 0.972456 0.001640
Si Si7 0.261782 0.310093 0.898215
Si Si8 0.179349 0.721153 0.661005
O O1 0.432890 0.882589 0.392588
O O2 0.448743 0.865809 0.266701
O O3 0.924187 0.922523 0.141517
O O4 0.406480 0.007481 0.306669
O O5 0.035674 0.669841 0.551893
O O6 0.818764 0.565263 0.387890
O O7 0.928240 0.527672 0.545027
O O8 0.988007 0.735653 0.001543
O O9 0.394148 0.602439 0.149564
O O10 0.431889 0.707491 0.082671
O O11 0.014108 0.656813 0.363839
O O12 0.697466 0.837967 0.232630
O O13 0.360544 0.966450 0.141671
O O14 0.925983 0.952703 0.400676
O O15 0.954382 0.885949 0.935920
O O16 0.017685 0.261965 0.764027
#
# Coordination Sequence:
#
# PCOD9139133 Si02
#       8
#     4   4   4   4   4   4   4   4
#     4  12  25  44  77 103 137 190 241 293 358 427
#     4  11  24  42  66 104 140 177 234 292 356 413
#     4  11  24  44  73  98 146 183 237 293 353 412
#     4  11  26  42  71 105 142 184 244 288 357 427
#     4  11  25  46  73 103 142 191 237 288 359 429
#     4  11  25  46  72 102 145 182 236 294 354 426
#     4  11  21  49  69  99 147 185 226 304 348 417
#     4  10  24  45  67 102 143 184 237 294 351 427
#
# _framework density 22.661998000000001
#
# number of rings (size 3 to 8) (size 9 to 14) (size 15 to 20)
#    0.000    1.000    5.000    1.500    5.250    3.000 
#    2.250    0.000    0.000    0.000    0.000    0.000 
#    0.000    0.000    0.000    0.000    0.000    0.000 
#
# Total GULP energy -89153.329769 kJ/mol
# GULP energy per Si atom -5572.083111 kJ/mol
# Density = 2.261042 g / cm^3
# Si number density = 22.661998 Si / 1000 Ang^3
#
#
#
# Elastic Constant Matrix: (Units=GPa)
#
#
# Indices 1 2 3 4 5 6 
#
# 1 67.6181 4.3059 1.0897 0.0035 -6.6705 0.0052
# 2 4.3059 62.9511 6.7871 0.0008 1.5042 0.0014
# 3 1.0897 6.7871 47.8279 -0.0048 -13.2668 0.0156
# 4 0.0035 0.0008 -0.0048 40.2169 0.0005 7.1011
# 5 -6.6705 1.5042 -13.2668 0.0005 37.0593 0.0056
# 6 0.0052 0.0014 0.0156 7.1011 0.0056 39.2542
#
#
#
# Elastic Compliance Matrix: (Units=1/GPa)
#
#
# Indices 1 2 3 4 5 6 
#
# 1 0.015150 -0.001179 0.000657 -0.000001 0.003010 -0.000003
# 2 -0.001179 0.016314 -0.002810 -0.000001 -0.001880 0.000001
# 3 0.000657 -0.002810 0.023711 0.000005 0.008721 -0.000011
# 4 -0.000001 -0.000001 0.000005 0.025686 0.000002 -0.004647
# 5 0.003010 -0.001880 0.008721 0.000002 0.030724 -0.000009
# 6 -0.000003 0.000001 -0.000011 -0.004647 -0.000009 0.026316
#
#
# Mechanical properties :
#
#
# Convention : Reuss Voigt Hill
#
# Bulk Modulus (GPa) = 20.61354 22.52917 21.57136
# Shear Modulus (GPa) = 31.10728 34.38705 32.74716
#
# Velocity S-wave (km/s) = 3.70897 3.89959 3.80547
# Velocity P-wave (km/s) = 5.24001 5.49898 5.37106
#
# Compressibility (1/GPa) = 0.04851180
#
# Stress axis : x y z
#
# Youngs Moduli (GPa) = 66.00498 61.29757 42.17455
#
# Poissons Ratio (x) = 0.07227 -0.02771
# Poissons Ratio (y) = 0.07783 0.11850
# Poissons Ratio (z) = -0.04337 0.17223
#
# Static dielectric constant tensor:
#      x y z
#    x 1.870190 -0.000010 0.037760 
#    y -0.000010 1.899620 -0.000010 
#    z 0.037760 -0.000010 1.880480 
# 
# From -- ./inp_files/32859.got.cif
#   From: 2010.05.17/outbox.cif.g08.bks.cpg/sg9_17_cif.got.tgz:32859.got - 2010.06.03 20:04:27.
