data_PCOD9139248
_publ_section_title
;
Structure prediction by ZEFSAII (Michael W. Deem and Ramdas Pophale) SiO2 
 PCOD9139248
Probable space group: C C
;
_chemical_formula_sum "Si O2"
_cell_formula_units_Z 32
_cell_length_a 9.762923
_cell_length_b 15.109525
_cell_length_c 14.833671
_cell_angle_alpha 90.000000
_cell_angle_beta 37.904166
_cell_angle_gamma 90.000000
_cell_volume 1344.280598
_symmetry_space_group_name_H-M "C C"
_symmetry_group_IT_number 9
_symmetry_cell_setting 'monoclinic'
loop_
_space_group_symop_operation_xyz
x,y,z
x,-y,1/2+z
1/2+x,1/2+y,z
1/2+x,1/2-y,1/2+z
loop_
_atom_site_type_symbol
_atom_site_label
_atom_site_fract_x
_atom_site_fract_y
_atom_site_fract_z
Si Si1 0.992080 0.447787 0.700010
Si Si2 0.784631 0.408883 0.632614
Si Si3 0.862008 0.106763 0.242679
Si Si4 0.873978 0.796144 0.089755
Si Si5 0.242932 0.208289 0.729803
Si Si6 0.230521 0.260254 0.544355
Si Si7 0.175800 0.613504 0.532557
Si Si8 0.090003 0.544781 0.815383
O O1 0.799695 0.446783 0.724472
O O2 0.088411 0.347632 0.648217
O O3 0.183792 0.512225 0.559757
O O4 0.928848 0.496876 0.825914
O O5 0.578971 0.431076 0.677436
O O6 0.783708 0.303031 0.637740
O O7 0.993161 0.440042 0.464645
O O8 0.862470 0.196977 0.186651
O O9 0.710464 0.126087 0.408982
O O10 0.774195 0.030477 0.225293
O O11 0.854702 0.830337 0.996892
O O12 0.703499 0.863984 0.226108
O O13 0.108180 0.785477 0.021707
O O14 0.227722 0.194487 0.630520
O O15 0.420218 0.143378 0.684039
O O16 0.987034 0.212985 0.894296
#
# Coordination Sequence:
#
# PCOD9139248 Si02
#       8
#     4   4   4   4   4   4   4   4
#     4  10  24  47  67 106 141 189 242 302 371 439
#     4  11  25  45  74 105 146 191 249 308 364 455
#     4  12  25  45  71 106 146 191 245 300 376 439
#     4  10  26  44  72 104 142 191 244 304 368 441
#     4  12  25  45  74 105 148 193 245 299 379 441
#     4  11  26  45  73 106 146 192 245 306 366 451
#     4  11  24  46  71 102 145 191 241 301 371 440
#     4  11  25  49  70 104 150 190 247 314 375 438
#
# _framework density 23.804552999999999
#
# number of rings (size 3 to 8) (size 9 to 14) (size 15 to 20)
#    0.000    1.000    5.000    0.000    5.250    6.000 
#    4.500    0.000    0.000    0.000    0.000    0.000 
#    0.000    0.000    0.000    0.000    0.000    0.000 
#
# Total GULP energy -89356.185094 kJ/mol
# GULP energy per Si atom -5584.761568 kJ/mol
# Density = 2.375037 g / cm^3
# Si number density = 23.804553 Si / 1000 Ang^3
#
#
#
# Elastic Constant Matrix: (Units=GPa)
#
#
# Indices 1 2 3 4 5 6 
#
# 1 130.4274 36.4612 18.3616 -0.0011 16.9375 0.0002
# 2 36.4612 96.5974 -14.9210 -0.0026 7.6749 0.0010
# 3 18.3616 -14.9210 49.0926 -0.0016 -6.7435 0.0015
# 4 -0.0011 -0.0026 -0.0016 7.9416 0.0006 0.8561
# 5 16.9375 7.6749 -6.7435 0.0006 28.3224 -0.0001
# 6 0.0002 0.0010 0.0015 0.8561 -0.0001 41.3061
#
#
#
# Elastic Compliance Matrix: (Units=1/GPa)
#
#
# Indices 1 2 3 4 5 6 
#
# 1 0.010659 -0.004461 -0.006257 -0.000001 -0.006655 0.000000
# 2 -0.004461 0.012867 0.005652 0.000005 0.000527 -0.000001
# 3 -0.006257 0.005652 0.025567 0.000006 0.008298 -0.000001
# 4 -0.000001 0.000005 0.000006 0.126201 -0.000002 -0.002616
# 5 -0.006655 0.000527 0.008298 -0.000002 0.041121 0.000000
# 6 0.000000 -0.000001 -0.000001 -0.002616 0.000000 0.024264
#
#
# Mechanical properties :
#
#
# Convention : Reuss Voigt Hill
#
# Bulk Modulus (GPa) = 25.66638 39.54679 32.60658
# Shear Modulus (GPa) = 18.95377 31.26172 25.10774
#
# Velocity S-wave (km/s) = 2.82481 3.62783 3.25121
# Velocity P-wave (km/s) = 4.63086 5.84786 5.27458
#
# Compressibility (1/GPa) = 0.03896147
#
# Stress axis : x y z
#
# Youngs Moduli (GPa) = 93.81436 77.71659 39.11218
#
# Poissons Ratio (x) = 0.34670 0.24472
# Poissons Ratio (y) = 0.41852 -0.22105
# Poissons Ratio (z) = 0.58699 -0.43923
#
# Static dielectric constant tensor:
#      x y z
#    x 1.939860 0.000000 -0.024870 
#    y 0.000000 1.881980 0.000000 
#    z -0.024870 0.000000 1.986970 
# 
# From -- ./inp_files/23363.got.cif
#   From: 2010.05.17/outbox.cif.g08.bks.cpg/sg9_12_cif.got.tgz:23363.got - 2010.06.03 20:04:27.
