data_PCOD9139425
_publ_section_title
;
Structure prediction by ZEFSAII (Michael W. Deem and Ramdas Pophale) SiO2 
 PCOD9139425
Probable space group: C C
;
_chemical_formula_sum "Si O2"
_cell_formula_units_Z 24
_cell_length_a 21.419866
_cell_length_b 4.951797
_cell_length_c 19.280952
_cell_angle_alpha 90.000000
_cell_angle_beta 26.783610
_cell_angle_gamma 90.000000
_cell_volume 921.553661
_symmetry_space_group_name_H-M "C C"
_symmetry_group_IT_number 9
_symmetry_cell_setting 'monoclinic'
loop_
_space_group_symop_operation_xyz
x,y,z
x,-y,1/2+z
1/2+x,1/2+y,z
1/2+x,1/2-y,1/2+z
loop_
_atom_site_type_symbol
_atom_site_label
_atom_site_fract_x
_atom_site_fract_y
_atom_site_fract_z
Si Si1 0.744430 0.090771 0.776770
Si Si2 0.921698 0.156278 0.922276
Si Si3 0.513262 0.763909 0.682433
Si Si4 0.284771 0.063714 0.829987
Si Si5 0.276507 0.428555 0.950934
Si Si6 0.982096 0.337153 0.446491
O O1 0.702886 0.340419 0.867675
O O2 0.878970 0.192951 0.602355
O O3 0.619812 0.054090 0.846579
O O4 0.780066 0.826810 0.785912
O O5 0.972757 0.323047 0.803785
O O6 0.904725 0.396874 0.993267
O O7 0.794516 0.984947 0.014404
O O8 0.013148 0.909044 0.861526
O O9 0.432372 0.932390 0.703798
O O10 0.429699 0.480098 0.765851
O O11 0.670289 0.852968 0.528374
O O12 0.228079 0.159834 0.961616
#
# Coordination Sequence:
#
# PCOD9139425 Si02
#       6
#     4   4   4   4   4   4
#     4  12  29  44  72 102 141 200 231 295 348 434
#     4  10  25  48  70 108 137 183 241 294 362 423
#     4  10  25  44  77 108 141 188 232 315 361 421
#     4  12  25  48  68 108 143 179 249 285 365 423
#     4  10  25  44  77 108 141 188 232 315 362 419
#     4  12  27  46  72  98 147 188 241 286 354 428
#
# _framework density 26.042975999999999
#
# number of rings (size 3 to 8) (size 9 to 14) (size 15 to 20)
#    1.000    0.000    1.667    3.000    9.333    1.333 
#    0.000    0.000    0.000    0.000    0.000    0.000 
#    0.000    0.000    0.000    0.000    0.000    0.000 
#
# Total GULP energy -66910.671944 kJ/mol
# GULP energy per Si atom -5575.889329 kJ/mol
# Density = 2.598370 g / cm^3
# Si number density = 26.042976 Si / 1000 Ang^3
#
#
#
# Elastic Constant Matrix: (Units=GPa)
#
#
# Indices 1 2 3 4 5 6 
#
# 1 158.4557 55.3193 21.6431 0.0654 -6.0858 -0.0039
# 2 55.3193 152.6546 -8.9145 0.3489 14.9334 -0.1476
# 3 21.6431 -8.9145 61.3251 0.1702 -16.2631 -0.0934
# 4 0.0654 0.3489 0.1702 12.3286 -0.0929 5.9847
# 5 -6.0858 14.9334 -16.2631 -0.0929 30.1702 0.0211
# 6 -0.0039 -0.1476 -0.0934 5.9847 0.0211 46.9302
#
#
#
# Elastic Compliance Matrix: (Units=1/GPa)
#
#
# Indices 1 2 3 4 5 6 
#
# 1 0.007865 -0.003175 -0.002800 0.000114 0.001649 -0.000030
# 2 -0.003175 0.008167 0.001245 -0.000294 -0.004013 0.000067
# 3 -0.002800 0.001245 0.020026 -0.000259 0.009613 0.000072
# 4 0.000114 -0.000294 -0.000259 0.086480 0.000303 -0.011030
# 5 0.001649 -0.004013 0.009613 0.000303 0.040647 -0.000050
# 6 -0.000030 0.000067 0.000072 -0.011030 -0.000050 0.022715
#
#
# Mechanical properties :
#
#
# Convention : Reuss Voigt Hill
#
# Bulk Modulus (GPa) = 37.59948 56.50348 47.05148
# Shear Modulus (GPa) = 24.48234 38.17831 31.33032
#
# Velocity S-wave (km/s) = 3.06939 3.83296 3.47223
# Velocity P-wave (km/s) = 5.19907 6.42900 5.84647
#
# Compressibility (1/GPa) = 0.02659611
#
# Stress axis : x y z
#
# Youngs Moduli (GPa) = 127.14094 122.43715 49.93508
#
# Poissons Ratio (x) = 0.38879 0.13984
# Poissons Ratio (y) = 0.40372 -0.06215
# Poissons Ratio (z) = 0.35606 -0.15238
#
# Static dielectric constant tensor:
#      x y z
#    x 2.107220 0.000000 0.056580 
#    y 0.000000 2.079130 0.000120 
#    z 0.056580 0.000120 2.229130 
# 
# From -- ./inp_files/19533.got.cif
#   From: 2010.05.17/outbox.cif.g08.bks.cpg/sg9_10_cif.got.tgz:19533.got - 2010.06.03 20:04:27.
