data_PCOD9139353
_publ_section_title
;
Structure prediction by ZEFSAII (Michael W. Deem and Ramdas Pophale) SiO2 
 PCOD9139353
Probable space group: C C
;
_chemical_formula_sum "Si O2"
_cell_formula_units_Z 24
_cell_length_a 13.223981
_cell_length_b 4.989364
_cell_length_c 20.378710
_cell_angle_alpha 90.000000
_cell_angle_beta 44.383506
_cell_angle_gamma 90.000000
_cell_volume 940.471217
_symmetry_space_group_name_H-M "C C"
_symmetry_group_IT_number 9
_symmetry_cell_setting 'monoclinic'
loop_
_space_group_symop_operation_xyz
x,y,z
x,-y,1/2+z
1/2+x,1/2+y,z
1/2+x,1/2-y,1/2+z
loop_
_atom_site_type_symbol
_atom_site_label
_atom_site_fract_x
_atom_site_fract_y
_atom_site_fract_z
Si Si1 0.979820 0.248490 0.865010
Si Si2 0.787396 0.311640 0.632575
Si Si3 0.214251 0.002749 0.953696
Si Si4 0.907964 0.817646 0.646170
Si Si5 0.544582 0.749036 0.415089
Si Si6 0.966203 0.361089 0.262391
O O1 0.808673 0.306636 0.955894
O O2 0.041142 0.969673 0.859460
O O3 0.995653 0.345038 0.781957
O O4 0.058541 0.463406 0.875642
O O5 0.832525 0.104216 0.669636
O O6 0.890780 0.233407 0.523894
O O7 0.620857 0.278019 0.692960
O O8 0.833603 0.608089 0.631846
O O9 0.159769 0.832901 0.916403
O O10 0.332610 0.216371 0.872461
O O11 0.075349 0.136119 0.049387
O O12 0.906296 0.684347 0.718052
#
# Coordination Sequence:
#
# PCOD9139353 Si02
#       6
#     4   4   4   4   4   4
#     4  10  25  39  70  98 135 173 231 273 342 397
#     4  11  26  44  72  99 139 183 228 288 343 401
#     4   9  24  44  70 100 132 187 224 283 342 399
#     4  11  25  48  66 103 140 180 234 282 343 413
#     4  11  22  45  67  98 135 179 223 282 340 406
#     4  10  26  44  71 104 137 186 228 288 338 412
#
# _framework density 25.519123
#
# number of rings (size 3 to 8) (size 9 to 14) (size 15 to 20)
#    1.000    0.667    0.000    3.000    4.667    9.333 
#    0.000    0.000    0.000    0.000    0.000    0.000 
#    0.000    0.000    0.000    0.000    0.000    0.000 
#
# Total GULP energy -67162.524816 kJ/mol
# GULP energy per Si atom -5596.877068 kJ/mol
# Density = 2.546104 g / cm^3
# Si number density = 25.519123 Si / 1000 Ang^3
#
#
#
# Elastic Constant Matrix: (Units=GPa)
#
#
# Indices 1 2 3 4 5 6 
#
# 1 96.4200 28.8347 21.0279 0.0003 -4.5409 0.0051
# 2 28.8347 98.0361 -0.8690 0.0042 -2.8299 0.0211
# 3 21.0279 -0.8690 87.6852 -0.0010 -26.3536 0.0006
# 4 0.0003 0.0042 -0.0010 23.0334 -0.0013 -2.1320
# 5 -4.5409 -2.8299 -26.3536 -0.0013 57.1145 -0.0001
# 6 0.0051 0.0211 0.0006 -2.1320 -0.0001 17.4975
#
#
#
# Elastic Compliance Matrix: (Units=1/GPa)
#
#
# Indices 1 2 3 4 5 6 
#
# 1 0.012103 -0.003607 -0.003138 0.000000 -0.000664 0.000001
# 2 -0.003607 0.011296 0.001229 -0.000003 0.000840 -0.000013
# 3 -0.003138 0.001229 0.014063 0.000001 0.006300 -0.000001
# 4 0.000000 -0.000003 0.000001 0.043910 0.000001 0.005350
# 5 -0.000664 0.000840 0.006300 0.000001 0.020405 -0.000001
# 6 0.000001 -0.000013 -0.000001 0.005350 -0.000001 0.057803
#
#
# Mechanical properties :
#
#
# Convention : Reuss Voigt Hill
#
# Bulk Modulus (GPa) = 37.83357 42.23651 40.03504
# Shear Modulus (GPa) = 27.86749 35.07225 31.46987
#
# Velocity S-wave (km/s) = 3.30816 3.71125 3.51549
# Velocity P-wave (km/s) = 5.42676 5.91196 5.67455
#
# Compressibility (1/GPa) = 0.02643155
#
# Stress axis : x y z
#
# Youngs Moduli (GPa) = 82.62460 88.52451 71.11054
#
# Poissons Ratio (x) = 0.31929 0.22313
# Poissons Ratio (y) = 0.29801 -0.08743
# Poissons Ratio (z) = 0.25926 -0.10883
#
# Static dielectric constant tensor:
#      x y z
#    x 1.987040 0.000000 0.009920 
#    y 0.000000 2.021550 0.000000 
#    z 0.009920 0.000000 2.064350 
# 
# From -- ./inp_files/35481.got.cif
#   From: 2010.05.17/outbox.cif.g08.bks.cpg/sg9_18_cif.got.tgz:35481.got - 2010.06.03 20:04:27.
