data_PCOD9139238
_publ_section_title
;
Structure prediction by ZEFSAII (Michael W. Deem and Ramdas Pophale) SiO2 
 PCOD9139238
Probable space group: C C
;
_chemical_formula_sum "Si O2"
_cell_formula_units_Z 28
_cell_length_a 5.089129
_cell_length_b 25.362099
_cell_length_c 8.899576
_cell_angle_alpha 90.000000
_cell_angle_beta 62.687861
_cell_angle_gamma 90.000000
_cell_volume 1020.622638
_symmetry_space_group_name_H-M "C C"
_symmetry_group_IT_number 9
_symmetry_cell_setting 'monoclinic'
loop_
_space_group_symop_operation_xyz
x,y,z
x,-y,1/2+z
1/2+x,1/2+y,z
1/2+x,1/2-y,1/2+z
loop_
_atom_site_type_symbol
_atom_site_label
_atom_site_fract_x
_atom_site_fract_y
_atom_site_fract_z
Si Si1 0.301060 0.715743 0.147480
Si Si2 0.356055 0.017099 0.780385
Si Si3 0.089547 0.569786 0.448197
Si Si4 0.608958 0.709351 0.373608
Si Si5 0.142216 0.072025 0.117216
Si Si6 0.554871 0.167339 0.962558
Si Si7 0.506905 0.166519 0.626286
O O1 0.525715 0.703910 0.220239
O O2 0.345238 0.778987 0.121965
O O3 0.462131 0.795071 0.783534
O O4 0.345068 0.677168 0.993380
O O5 0.614190 0.043819 0.609792
O O6 0.473401 0.975561 0.870476
O O7 0.185681 0.981473 0.704036
O O8 0.156227 0.055319 0.937618
O O9 0.893252 0.619857 0.549220
O O10 0.349793 0.592629 0.276155
O O11 0.519698 0.768221 0.449697
O O12 0.360542 0.673375 0.511271
O O13 0.395500 0.115972 0.076517
O O14 0.508937 0.153667 0.800663
#
# Coordination Sequence:
#
# PCOD9139238 Si02
#       7
#     4   4   4   4   4   4   4
#     4  11  25  47  73 106 157 208 264 328 391 482
#     4  10  24  46  74 115 148 201 272 331 395 486
#     4  11  23  47  76 110 156 207 259 332 406 480
#     4  11  25  46  72 105 154 210 264 323 396 478
#     4  11  23  46  77 108 156 207 260 331 405 482
#     4  11  23  45  70 107 151 204 260 328 397 479
#     4  11  25  47  74 111 160 209 273 333 408 491
#
# _framework density 27.434237
#
# number of rings (size 3 to 8) (size 9 to 14) (size 15 to 20)
#    0.000    1.143    1.429    4.286    2.000    1.143 
#   12.857    1.429    0.000    0.000    0.000    0.000 
#    0.000    0.000    0.000    0.000    0.000    0.000 
#
# Total GULP energy -78063.472255 kJ/mol
# GULP energy per Si atom -5575.962304 kJ/mol
# Density = 2.737180 g / cm^3
# Si number density = 27.434237 Si / 1000 Ang^3
#
#
#
# Elastic Constant Matrix: (Units=GPa)
#
#
# Indices 1 2 3 4 5 6 
#
# 1 85.7045 8.3913 37.1624 0.0000 -3.3627 0.0000
# 2 8.3913 108.1356 39.2675 0.0000 3.5795 0.0000
# 3 37.1624 39.2675 167.3217 0.0000 15.7903 0.0000
# 4 0.0000 0.0000 0.0000 57.9882 0.0000 -6.8450
# 5 -3.3627 3.5795 15.7903 0.0000 31.1919 0.0000
# 6 0.0000 0.0000 0.0000 -6.8450 0.0000 32.0219
#
#
#
# Elastic Compliance Matrix: (Units=1/GPa)
#
#
# Indices 1 2 3 4 5 6 
#
# 1 0.013182 0.000048 -0.003227 0.000000 0.003049 0.000000
# 2 0.000048 0.010109 -0.002388 0.000000 0.000054 0.000000
# 3 -0.003227 -0.002388 0.007625 0.000000 -0.003934 0.000000
# 4 0.000000 0.000000 0.000000 0.017691 0.000000 0.003782
# 5 0.003049 0.000054 -0.003934 0.000000 0.034373 0.000000
# 6 0.000000 0.000000 0.000000 0.003782 0.000000 0.032037
#
#
# Mechanical properties :
#
#
# Convention : Reuss Voigt Hill
#
# Bulk Modulus (GPa) = 50.55057 58.97824 54.76441
# Shear Modulus (GPa) = 37.66580 42.66311 40.16446
#
# Velocity S-wave (km/s) = 3.70935 3.94776 3.83041
# Velocity P-wave (km/s) = 6.06727 6.50572 6.29032
#
# Compressibility (1/GPa) = 0.01978217
#
# Stress axis : x y z
#
# Youngs Moduli (GPa) = 75.86052 98.91797 131.14953
#
# Poissons Ratio (x) = -0.00474 0.42319
# Poissons Ratio (y) = -0.00363 0.31322
# Poissons Ratio (z) = 0.24478 0.23624
#
# Static dielectric constant tensor:
#      x y z
#    x 2.225420 0.000000 -0.029140 
#    y 0.000000 2.179340 0.000000 
#    z -0.029140 0.000000 2.475960 
# 
# From -- ./inp_files/4293.got.cif
#   From: 2010.05.17/outbox.cif.g08.bks.cpg/sg9_3_cif.got.tgz:4293.got - 2010.06.03 20:04:27.
