data_PCOD9139372
_publ_section_title
;
Structure prediction by ZEFSAII (Michael W. Deem and Ramdas Pophale) SiO2 
 PCOD9139372
Probable space group: C C
;
_chemical_formula_sum "Si O2"
_cell_formula_units_Z 20
_cell_length_a 5.172387
_cell_length_b 22.481315
_cell_length_c 7.954560
_cell_angle_alpha 90.000000
_cell_angle_beta 124.282022
_cell_angle_gamma 90.000000
_cell_volume 764.281833
_symmetry_space_group_name_H-M "C C"
_symmetry_group_IT_number 9
_symmetry_cell_setting 'monoclinic'
loop_
_space_group_symop_operation_xyz
x,y,z
x,-y,1/2+z
1/2+x,1/2+y,z
1/2+x,1/2-y,1/2+z
loop_
_atom_site_type_symbol
_atom_site_label
_atom_site_fract_x
_atom_site_fract_y
_atom_site_fract_z
Si Si1 0.671570 0.585974 0.061920
Si Si2 0.645453 0.989375 0.884426
Si Si3 0.560366 0.768541 0.848142
Si Si4 0.122366 0.087791 0.707689
Si Si5 0.076907 0.841799 0.864452
O O1 0.576432 0.616663 0.199529
O O2 0.010026 0.555772 0.198091
O O3 0.433873 0.531271 0.949112
O O4 0.639243 0.625996 0.883956
O O5 0.361985 0.033268 0.817672
O O6 0.781869 0.941789 0.065053
O O7 0.790121 0.712094 0.378669
O O8 0.844468 0.754596 0.100534
O O9 0.749349 0.818773 0.814350
O O10 0.212101 0.122065 0.572768
#
# Coordination Sequence:
#
# PCOD9139372 Si02
#       5
#     4   4   4   4   4
#     4  11  26  44  72 108 165 210 272 314 381 460
#     4  10  25  42  67 110 160 232 255 310 375 454
#     4  12  31  62  90 119 160 203 262 350 445 510
#     4  11  26  44  72 108 165 210 272 314 381 460
#     4  12  30  50  85 123 150 209 273 338 408 492
#
# _framework density 26.168354999999998
#
# number of rings (size 3 to 8) (size 9 to 14) (size 15 to 20)
#    0.000    0.800    0.000    3.600   25.200    0.000 
#    0.000    0.000    0.000    0.000    0.000    0.000 
#    0.000    0.000    0.000    0.000    0.000    0.000 
#
# Total GULP energy -55676.052047 kJ/mol
# GULP energy per Si atom -5567.605205 kJ/mol
# Density = 2.610879 g / cm^3
# Si number density = 26.168355 Si / 1000 Ang^3
#
#
#
# Elastic Constant Matrix: (Units=GPa)
#
#
# Indices 1 2 3 4 5 6 
#
# 1 34.3332 1.9940 35.3852 0.0000 -16.9448 0.0000
# 2 1.9940 22.5870 53.6648 0.0000 -5.2037 0.0000
# 3 35.3852 53.6648 238.2673 0.0000 -40.8034 0.0000
# 4 0.0000 0.0000 0.0000 -3.8712 0.0000 30.6368
# 5 -16.9448 -5.2037 -40.8034 0.0000 71.0253 0.0000
# 6 0.0000 0.0000 0.0000 30.6368 0.0000 23.1876
#
#
#
# Elastic Compliance Matrix: (Units=1/GPa)
#
#
# Indices 1 2 3 4 5 6 
#
# 1 0.040833 0.021102 -0.009853 0.000000 0.005627 0.000000
# 2 0.021102 0.108448 -0.028101 0.000000 -0.003164 0.000000
# 3 -0.009853 -0.028101 0.012460 0.000000 0.002749 0.000000
# 4 0.000000 0.000000 0.000000 -0.022548 0.000000 0.029791
# 5 0.005627 -0.003164 0.002749 0.000000 0.016769 0.000000
# 6 0.000000 0.000000 0.000000 0.029791 0.000000 0.003764
#
#
# Mechanical properties :
#
#
# Convention : Reuss Voigt Hill
#
# Bulk Modulus (GPa) = 7.81028 53.03060 30.42044
# Shear Modulus (GPa) = 21.17653 31.67793 26.42723
#
# Velocity S-wave (km/s) = 2.84780 3.48306 3.18133
# Velocity P-wave (km/s) = 3.71543 6.04026 5.01444
#
# Compressibility (1/GPa) = 0.12803643
#
# Stress axis : x y z
#
# Youngs Moduli (GPa) = 24.48983 9.22104 80.25524
#
# Poissons Ratio (x) = -0.19459 0.79078
# Poissons Ratio (y) = -0.51679 2.25528
# Poissons Ratio (z) = 0.24131 0.25912
#
# Static dielectric constant tensor:
#      x y z
#    x 1.954090 0.000000 -0.056000 
#    y 0.000000 2.104550 0.000000 
#    z -0.056000 0.000000 2.314630 
# 
# From -- ./inp_files/252.got.cif
#   From: 2010.05.17/outbox.cif.g08.bks.cpg/sg9_1_cif.got.tgz:252.got - 2010.06.03 20:04:27.
