data_PCOD9139501
_publ_section_title
;
Structure prediction by ZEFSAII (Michael W. Deem and Ramdas Pophale) SiO2 
 PCOD9139501
Probable space group: C C
;
_chemical_formula_sum "Si O2"
_cell_formula_units_Z 32
_cell_length_a 18.892337
_cell_length_b 14.724541
_cell_length_c 11.252436
_cell_angle_alpha 90.000000
_cell_angle_beta 153.346720
_cell_angle_gamma 90.000000
_cell_volume 1404.183791
_symmetry_space_group_name_H-M "C C"
_symmetry_group_IT_number 9
_symmetry_cell_setting 'monoclinic'
loop_
_space_group_symop_operation_xyz
x,y,z
x,-y,1/2+z
1/2+x,1/2+y,z
1/2+x,1/2-y,1/2+z
loop_
_atom_site_type_symbol
_atom_site_label
_atom_site_fract_x
_atom_site_fract_y
_atom_site_fract_z
Si Si1 0.152420 0.634501 0.689000
Si Si2 0.014720 0.295538 0.380889
Si Si3 0.681914 0.663009 0.260774
Si Si4 0.525123 0.633029 0.255917
Si Si5 0.491308 0.965359 0.498198
Si Si6 0.957121 0.655733 0.172568
Si Si7 0.103283 0.810057 0.234429
Si Si8 0.160093 0.043299 0.993720
O O1 0.099338 0.737649 0.633777
O O2 0.101160 0.550788 0.693814
O O3 0.068876 0.611967 0.439456
O O4 0.339099 0.641239 0.967974
O O5 0.100692 0.228260 0.415646
O O6 0.068139 0.388561 0.526905
O O7 0.999838 0.223211 0.467243
O O8 0.856704 0.324386 0.075894
O O9 0.588357 0.609945 0.220844
O O10 0.683071 0.613382 0.136621
O O11 0.570323 0.546426 0.401974
O O12 0.434745 0.914116 0.531584
O O13 0.331001 0.008916 0.207122
O O14 0.059369 0.736970 0.269206
O O15 0.787537 0.688906 0.968894
O O16 0.075621 0.905029 0.258678
#
# Coordination Sequence:
#
# PCOD9139501 Si02
#       8
#     4   4   4   4   4   4   4   4
#     4  11  26  45  68 106 143 198 244 309 377 439
#     4  10  25  47  72 105 142 194 243 315 371 449
#     4  11  26  47  73 105 150 193 247 313 377 453
#     4  11  27  45  72 108 147 193 251 310 384 443
#     4  11  25  44  72 104 143 193 251 296 375 446
#     4  11  25  45  74 108 149 194 249 312 373 447
#     4  11  25  46  76 110 149 191 254 308 379 450
#     4  12  25  45  77 106 143 202 249 303 376 459
#
# _framework density 22.78904
#
# number of rings (size 3 to 8) (size 9 to 14) (size 15 to 20)
#    0.000    1.000    3.750    0.750   12.250    3.000 
#    2.250    0.000    0.000    0.000    0.000    0.000 
#    0.000    0.000    0.000    0.000    0.000    0.000 
#
# Total GULP energy -89254.628917 kJ/mol
# GULP energy per Si atom -5578.414307 kJ/mol
# Density = 2.273717 g / cm^3
# Si number density = 22.789040 Si / 1000 Ang^3
#
#
#
# Elastic Constant Matrix: (Units=GPa)
#
#
# Indices 1 2 3 4 5 6 
#
# 1 71.8665 40.5258 12.1633 0.0000 1.1492 0.0000
# 2 40.5258 149.8572 23.2179 0.0000 1.0418 0.0000
# 3 12.1633 23.2179 56.2500 0.0000 -5.0990 0.0000
# 4 0.0000 0.0000 0.0000 34.3383 0.0000 2.6272
# 5 1.1492 1.0418 -5.0990 0.0000 30.3171 0.0000
# 6 0.0000 0.0000 0.0000 2.6272 0.0000 34.7696
#
#
#
# Elastic Compliance Matrix: (Units=1/GPa)
#
#
# Indices 1 2 3 4 5 6 
#
# 1 0.016617 -0.004188 -0.001938 0.000000 -0.000812 0.000000
# 2 -0.004188 0.008201 -0.002529 0.000000 -0.000548 0.000000
# 3 -0.001938 -0.002529 0.019554 0.000000 0.003449 0.000000
# 4 0.000000 0.000000 0.000000 0.029291 0.000000 -0.002213
# 5 -0.000812 -0.000548 0.003449 0.000000 0.033614 0.000000
# 6 0.000000 0.000000 0.000000 -0.002213 0.000000 0.028928
#
#
# Mechanical properties :
#
#
# Convention : Reuss Voigt Hill
#
# Bulk Modulus (GPa) = 36.95329 47.75418 42.35374
# Shear Modulus (GPa) = 30.76223 33.35613 32.05918
#
# Velocity S-wave (km/s) = 3.67804 3.82997 3.75478
# Velocity P-wave (km/s) = 5.85559 6.36857 6.11746
#
# Compressibility (1/GPa) = 0.02706119
#
# Stress axis : x y z
#
# Youngs Moduli (GPa) = 60.17843 121.93303 51.14159
#
# Poissons Ratio (x) = 0.51064 0.09913
# Poissons Ratio (y) = 0.25202 0.12935
# Poissons Ratio (z) = 0.11664 0.30841
#
# Static dielectric constant tensor:
#      x y z
#    x 1.893690 0.000000 -0.020430 
#    y 0.000000 1.946220 0.000000 
#    z -0.020430 0.000000 1.844100 
# 
# From -- ./inp_files/19422.got.cif
#   From: 2010.05.17/outbox.cif.g08.bks.cpg/sg9_10_cif.got.tgz:19422.got - 2010.06.03 20:04:27.
