data_PCOD9139721
_publ_section_title
;
Structure prediction by ZEFSAII (Michael W. Deem and Ramdas Pophale) SiO2 
 PCOD9139721
Probable space group: C C
;
_chemical_formula_sum "Si O2"
_cell_formula_units_Z 32
_cell_length_a 16.004357
_cell_length_b 20.262231
_cell_length_c 15.094584
_cell_angle_alpha 90.000000
_cell_angle_beta 160.587017
_cell_angle_gamma 90.000000
_cell_volume 1626.952227
_symmetry_space_group_name_H-M "C C"
_symmetry_group_IT_number 9
_symmetry_cell_setting 'monoclinic'
loop_
_space_group_symop_operation_xyz
x,y,z
x,-y,1/2+z
1/2+x,1/2+y,z
1/2+x,1/2-y,1/2+z
loop_
_atom_site_type_symbol
_atom_site_label
_atom_site_fract_x
_atom_site_fract_y
_atom_site_fract_z
Si Si1 0.764030 0.292685 0.641140
Si Si2 0.764232 0.397625 0.798680
Si Si3 0.264230 0.558092 0.401310
Si Si4 0.264227 0.097354 0.998590
Si Si5 0.764231 0.489772 0.154877
Si Si6 0.264222 0.587423 0.192244
Si Si7 0.264225 0.597713 0.914626
Si Si8 0.764195 0.794867 0.572478
O O1 0.513983 0.250019 0.395651
O O2 0.764083 0.342720 0.723088
O O3 0.764084 0.334903 0.551827
O O4 0.764205 0.467164 0.745644
O O5 0.515692 0.390725 0.608905
O O6 0.012914 0.390706 0.106048
O O7 0.515148 0.589522 0.692007
O O8 0.264154 0.569745 0.296060
O O9 0.264152 0.481110 0.430419
O O10 0.013463 0.589561 0.190390
O O11 0.264186 0.039891 0.072934
O O12 0.013600 0.445921 0.402469
O O13 0.514923 0.445896 0.903814
O O14 0.264186 0.663955 0.164451
O O15 0.264156 0.647687 0.997160
O O16 0.014216 0.750008 0.814565
#
# Coordination Sequence:
#
# PCOD9139721 Si02
#       8
#     4   4   4   4   4   4   4   4
#     4  11  24  42  62  89 132 178 216 254 322 406
#     4  11  22  38  65 101 132 161 212 274 336 400
#     4  12  23  42  68 104 125 161 226 289 348 369
#     4  11  24  39  65  96 131 164 215 278 333 395
#     4  11  20  41  65 100 130 166 207 277 359 391
#     4  12  24  44  69  92 133 172 225 282 324 399
#     4  12  23  41  68 100 134 164 219 279 327 396
#     4  12  28  47  64  94 137 190 228 259 325 408
#
# _framework density 19.668679000000001
#
# number of rings (size 3 to 8) (size 9 to 14) (size 15 to 20)
#    0.000    0.500    2.500    6.750    0.000    7.000 
#    0.000    3.750    0.000    0.000    0.000    0.000 
#    0.000    0.000    0.000    0.000    0.000    0.000 
#
# Total GULP energy -89545.303931 kJ/mol
# GULP energy per Si atom -5596.581496 kJ/mol
# Density = 1.962391 g / cm^3
# Si number density = 19.668679 Si / 1000 Ang^3
#
#
#
# Elastic Constant Matrix: (Units=GPa)
#
#
# Indices 1 2 3 4 5 6 
#
# 1 51.0534 23.6102 36.8042 -0.0134 8.4394 -0.0035
# 2 23.6102 114.3592 56.1773 -0.0130 9.4178 -0.0033
# 3 36.8042 56.1773 184.7614 -0.0422 30.1870 -0.0108
# 4 -0.0134 -0.0130 -0.0422 -206.3832 0.0020 -64.3467
# 5 8.4394 9.4178 30.1870 0.0020 27.9287 0.0007
# 6 -0.0035 -0.0033 -0.0108 -64.3467 0.0007 15.4458
#
#
#
# Elastic Compliance Matrix: (Units=1/GPa)
#
#
# Indices 1 2 3 4 5 6 
#
# 1 0.023874 -0.003042 -0.003424 -0.000001 -0.002487 0.000000
# 2 -0.003042 0.010668 -0.002672 0.000000 0.000210 0.000000
# 3 -0.003424 -0.002672 0.008004 -0.000001 -0.006716 0.000000
# 4 -0.000001 0.000000 -0.000001 -0.002108 0.000002 -0.008781
# 5 -0.002487 0.000210 -0.006716 0.000002 0.043745 0.000000
# 6 0.000000 0.000000 0.000000 -0.008781 0.000000 0.028163
#
#
# Mechanical properties :
#
#
# Convention : Reuss Voigt Hill
#
# Bulk Modulus (GPa) = 41.20436 64.81748 53.01092
# Shear Modulus (GPa) = 36.04601 -17.02960 9.50820
#
# Velocity S-wave (km/s) = 4.28560 -2.94568 2.20106
# Velocity P-wave (km/s) = 6.74413 4.63215 5.78533
#
# Compressibility (1/GPa) = 0.02426927
#
# Stress axis : x y z
#
# Youngs Moduli (GPa) = 41.88682 93.74148 124.93546
#
# Poissons Ratio (x) = 0.28515 0.42783
# Poissons Ratio (y) = 0.12742 0.33381
# Poissons Ratio (z) = 0.14344 0.25047
#
# Static dielectric constant tensor:
#      x y z
#    x 1.683950 0.000000 -0.012910 
#    y 0.000000 1.675660 0.000000 
#    z -0.012910 0.000000 1.639510 
# 
# From -- ./inp_files/2555.got.cif
#   From: 2010.05.17/outbox.cif.g08.bks.cpg/sg9_2_cif.got.tgz:2555.got - 2010.06.03 20:04:27.
