data_PCOD9139101
_publ_section_title
;
Structure prediction by ZEFSAII (Michael W. Deem and Ramdas Pophale) SiO2 
 PCOD9139101
Probable space group: C C
;
_chemical_formula_sum "Si O2"
_cell_formula_units_Z 32
_cell_length_a 12.324429
_cell_length_b 14.554835
_cell_length_c 8.582158
_cell_angle_alpha 90.000000
_cell_angle_beta 67.045694
_cell_angle_gamma 90.000000
_cell_volume 1417.566815
_symmetry_space_group_name_H-M "C C"
_symmetry_group_IT_number 9
_symmetry_cell_setting 'monoclinic'
loop_
_space_group_symop_operation_xyz
x,y,z
x,-y,1/2+z
1/2+x,1/2+y,z
1/2+x,1/2-y,1/2+z
loop_
_atom_site_type_symbol
_atom_site_label
_atom_site_fract_x
_atom_site_fract_y
_atom_site_fract_z
Si Si1 0.774910 0.312087 0.728600
Si Si2 0.396080 0.270394 0.707134
Si Si3 0.773903 0.817515 0.464081
Si Si4 0.499262 0.090302 0.525383
Si Si5 0.929625 0.067591 0.640741
Si Si6 0.562595 0.404269 0.748606
Si Si7 0.512255 0.890915 0.644182
Si Si8 0.239951 0.639766 0.557182
O O1 0.759030 0.289461 0.920287
O O2 0.702493 0.395141 0.694106
O O3 0.717174 0.217394 0.698486
O O4 0.914793 0.321210 0.629855
O O5 0.326797 0.316882 0.605532
O O6 0.415779 0.164445 0.656953
O O7 0.521427 0.318712 0.665749
O O8 0.324295 0.301704 0.897461
O O9 0.876516 0.864205 0.300783
O O10 0.647056 0.866181 0.531689
O O11 0.500108 0.104194 0.338848
O O12 0.628879 0.107990 0.523994
O O13 0.474828 0.986834 0.588693
O O14 0.809407 0.055545 0.602436
O O15 0.014867 0.100963 0.453615
O O16 0.998762 0.988844 0.696446
#
# Coordination Sequence:
#
# PCOD9139101 Si02
#       8
#     4   4   4   4   4   4   4   4
#     4  11  26  47  69 103 144 189 227 286 365 426
#     4  11  23  45  72 100 137 182 241 291 344 420
#     4  11  25  46  74 102 140 187 247 291 348 424
#     4  12  27  46  67 108 143 186 235 294 362 420
#     4  10  25  41  71 103 137 179 237 298 351 405
#     4  11  24  44  72 104 138 181 239 293 354 418
#     4  12  30  45  71 106 150 188 233 297 363 425
#     4  10  24  44  72 100 135 184 233 288 351 418
#
# _framework density 22.573892000000001
#
# number of rings (size 3 to 8) (size 9 to 14) (size 15 to 20)
#    0.000    1.000    3.750    0.750   15.750    1.000 
#    0.000    0.000    0.000    0.000    0.000    0.000 
#    0.000    0.000    0.000    0.000    0.000    0.000 
#
# Total GULP energy -89191.279960 kJ/mol
# GULP energy per Si atom -5574.454998 kJ/mol
# Density = 2.252251 g / cm^3
# Si number density = 22.573892 Si / 1000 Ang^3
#
#
#
# Elastic Constant Matrix: (Units=GPa)
#
#
# Indices 1 2 3 4 5 6 
#
# 1 124.4636 35.0703 32.9317 0.0000 12.8000 0.0000
# 2 35.0703 99.2247 25.7796 0.0000 2.4478 0.0000
# 3 32.9317 25.7796 80.2274 0.0000 19.9988 0.0000
# 4 0.0000 0.0000 0.0000 27.4718 0.0000 6.1598
# 5 12.8000 2.4478 19.9988 0.0000 26.4856 0.0000
# 6 0.0000 0.0000 0.0000 6.1598 0.0000 48.6722
#
#
#
# Elastic Compliance Matrix: (Units=1/GPa)
#
#
# Indices 1 2 3 4 5 6 
#
# 1 0.009723 -0.002731 -0.002470 0.000000 -0.002582 0.000000
# 2 -0.002731 0.011853 -0.003380 0.000000 0.002776 0.000000
# 3 -0.002470 -0.003380 0.017479 0.000000 -0.011692 0.000000
# 4 0.000000 0.000000 0.000000 0.037464 0.000000 -0.004741
# 5 -0.002582 0.002776 -0.011692 0.000000 0.047576 0.000000
# 6 0.000000 0.000000 0.000000 -0.004741 0.000000 0.021146
#
#
# Mechanical properties :
#
#
# Convention : Reuss Voigt Hill
#
# Bulk Modulus (GPa) = 45.67611 54.60875 50.14243
# Shear Modulus (GPa) = 29.46373 34.53487 31.99930
#
# Velocity S-wave (km/s) = 3.61669 3.91558 3.76910
# Velocity P-wave (km/s) = 6.14155 6.68476 6.41890
#
# Compressibility (1/GPa) = 0.02189328
#
# Stress axis : x y z
#
# Youngs Moduli (GPa) = 102.84837 84.36653 57.21143
#
# Poissons Ratio (x) = 0.23042 0.14131
# Poissons Ratio (y) = 0.28089 0.19336
# Poissons Ratio (z) = 0.25404 0.28514
#
# Static dielectric constant tensor:
#      x y z
#    x 1.858850 0.000000 0.005840 
#    y 0.000000 1.917320 0.000000 
#    z 0.005840 0.000000 1.872380 
# 
# From -- ./inp_files/7376.got.cif
#   From: 2010.05.17/outbox.cif.g08.bks.cpg/sg9_4_cif.got.tgz:7376.got - 2010.06.03 20:04:27.
