data_PCOD9139210
_publ_section_title
;
Structure prediction by ZEFSAII (Michael W. Deem and Ramdas Pophale) SiO2 
 PCOD9139210
Probable space group: C C
;
_chemical_formula_sum "Si O2"
_cell_formula_units_Z 28
_cell_length_a 8.079080
_cell_length_b 25.537246
_cell_length_c 7.211068
_cell_angle_alpha 90.000000
_cell_angle_beta 127.425696
_cell_angle_gamma 90.000000
_cell_volume 1181.500213
_symmetry_space_group_name_H-M "C C"
_symmetry_group_IT_number 9
_symmetry_cell_setting 'monoclinic'
loop_
_space_group_symop_operation_xyz
x,y,z
x,-y,1/2+z
1/2+x,1/2+y,z
1/2+x,1/2-y,1/2+z
loop_
_atom_site_type_symbol
_atom_site_label
_atom_site_fract_x
_atom_site_fract_y
_atom_site_fract_z
Si Si1 0.672270 0.697591 0.641310
Si Si2 0.257855 0.494981 0.273172
Si Si3 0.580529 0.415352 0.996246
Si Si4 0.027033 0.802412 0.438234
Si Si5 0.618752 0.415354 0.583292
Si Si6 0.599650 0.787082 0.289769
Si Si7 0.941429 0.494979 0.306370
O O1 0.545966 0.643820 0.537312
O O2 0.599663 0.718300 0.789784
O O3 0.641641 0.746455 0.484748
O O4 0.905872 0.680544 0.737621
O O5 0.385560 0.547659 0.397290
O O6 0.416207 0.445842 0.364636
O O7 0.198612 0.489859 0.486848
O O8 0.000672 0.489861 0.092696
O O9 0.783077 0.445839 0.214903
O O10 0.599637 0.411800 0.789766
O O11 0.793421 0.819456 0.341897
O O12 0.153323 0.856184 0.542224
O O13 0.057663 0.753552 0.594813
O O14 0.813720 0.452344 0.682255
#
# Coordination Sequence:
#
# PCOD9139210 Si02
#       7
#     4   4   4   4   4   4   4
#     4  11  24  44  70  99 136 176 228 285 346 415
#     4  11  24  41  64  93 135 181 224 273 340 406
#     4  11  24  42  64  99 136 175 228 286 337 410
#     4  11  24  44  70  99 136 176 228 285 346 415
#     4  11  24  42  64  99 136 175 228 286 337 410
#     4  10  24  46  70  98 134 178 224 290 346 402
#     4  11  24  41  64  93 135 181 224 273 340 406
#
# _framework density 23.698682000000002
#
# number of rings (size 3 to 8) (size 9 to 14) (size 15 to 20)
#    0.000    1.143    4.286    0.857    6.000    0.000 
#    0.000    1.429    0.000    0.000    0.000    0.000 
#    0.000    0.000    0.000    0.000    0.000    0.000 
#
# Total GULP energy -77980.438853 kJ/mol
# GULP energy per Si atom -5570.031347 kJ/mol
# Density = 2.364474 g / cm^3
# Si number density = 23.698682 Si / 1000 Ang^3
#
#
#
# Elastic Constant Matrix: (Units=GPa)
#
#
# Indices 1 2 3 4 5 6 
#
# 1 134.1584 11.3696 41.5925 0.0000 -34.2908 0.0000
# 2 11.3696 90.2161 16.2464 0.0000 0.5471 0.0000
# 3 41.5925 16.2464 119.7078 0.0000 -19.5541 0.0000
# 4 0.0000 0.0000 0.0000 -0.9983 0.0000 10.6343
# 5 -34.2908 0.5471 -19.5541 0.0000 42.1931 0.0000
# 6 0.0000 0.0000 0.0000 10.6343 0.0000 -1.6826
#
#
#
# Elastic Compliance Matrix: (Units=1/GPa)
#
#
# Indices 1 2 3 4 5 6 
#
# 1 0.010041 -0.000913 -0.002196 0.000000 0.007154 0.000000
# 2 -0.000913 0.011479 -0.001500 0.000000 -0.001586 0.000000
# 3 -0.002196 -0.001500 0.009772 0.000000 0.002763 0.000000
# 4 0.000000 0.000000 0.000000 0.015103 0.000000 0.095453
# 5 0.007154 -0.001586 0.002763 0.000000 0.030816 0.000000
# 6 0.000000 0.000000 0.000000 0.095453 0.000000 0.008961
#
#
# Mechanical properties :
#
#
# Convention : Reuss Voigt Hill
#
# Bulk Modulus (GPa) = 45.30318 53.61104 49.45711
# Shear Modulus (GPa) = 48.66301 26.22736 37.44518
#
# Velocity S-wave (km/s) = 4.53637 3.33032 3.97930
# Velocity P-wave (km/s) = 6.82613 6.12038 6.48287
#
# Compressibility (1/GPa) = 0.02207351
#
# Stress axis : x y z
#
# Youngs Moduli (GPa) = 99.59422 87.11343 102.33727
#
# Poissons Ratio (x) = 0.07956 0.22474
# Poissons Ratio (y) = 0.09096 0.15348
# Poissons Ratio (z) = 0.21871 0.13064
#
# Static dielectric constant tensor:
#      x y z
#    x 3.892950 0.000000 -2.023970 
#    y 0.000000 1.786420 0.000000 
#    z -2.023970 0.000000 4.140530 
# 
# From -- ./inp_files/6115.got.cif
#   From: 2010.05.17/outbox.cif.g08.bks.cpg/sg9_4_cif.got.tgz:6115.got - 2010.06.03 20:04:27.
