data_PCOD9139495
_publ_section_title
;
Structure prediction by ZEFSAII (Michael W. Deem and Ramdas Pophale) SiO2 
 PCOD9139495
Probable space group: C C
;
_chemical_formula_sum "Si O2"
_cell_formula_units_Z 32
_cell_length_a 19.303300
_cell_length_b 5.053469
_cell_length_c 14.497736
_cell_angle_alpha 90.000000
_cell_angle_beta 64.455298
_cell_angle_gamma 90.000000
_cell_volume 1275.991624
_symmetry_space_group_name_H-M "C C"
_symmetry_group_IT_number 9
_symmetry_cell_setting 'monoclinic'
loop_
_space_group_symop_operation_xyz
x,y,z
x,-y,1/2+z
1/2+x,1/2+y,z
1/2+x,1/2-y,1/2+z
loop_
_atom_site_type_symbol
_atom_site_label
_atom_site_fract_x
_atom_site_fract_y
_atom_site_fract_z
Si Si1 0.369230 0.058466 0.970010
Si Si2 0.710732 0.449337 0.095732
Si Si3 0.672230 0.733013 0.944446
Si Si4 0.902194 0.267521 0.643319
Si Si5 0.031348 0.375710 0.824805
Si Si6 0.336877 0.721238 0.286309
Si Si7 0.566162 0.881938 0.600542
Si Si8 0.124913 0.871914 0.817988
O O1 0.360243 0.199401 0.876647
O O2 0.450812 0.915111 0.919817
O O3 0.372146 0.251416 0.056287
O O4 0.297619 0.860113 0.029721
O O5 0.641388 0.266783 0.098664
O O6 0.692228 0.556292 0.207471
O O7 0.705323 0.690234 0.027403
O O8 0.744519 0.827960 0.842778
O O9 0.648439 0.462961 0.906220
O O10 0.597222 0.897905 0.013151
O O11 0.868048 0.543419 0.702952
O O12 0.994854 0.245210 0.590835
O O13 0.873379 0.044800 0.728669
O O14 0.026613 0.463762 0.720338
O O15 0.096579 0.574085 0.825593
O O16 0.058334 0.074593 0.822882
#
# Coordination Sequence:
#
# PCOD9139495 Si02
#       8
#     4   4   4   4   4   4   4   4
#     4  11  26  50  76 110 152 206 247 316 388 453
#     4  10  25  47  69 105 146 191 241 311 369 446
#     4  11  25  45  75 106 149 195 248 307 383 445
#     4  12  28  50  79 113 154 202 260 314 385 466
#     4  11  25  46  70 105 146 189 245 302 367 445
#     4  11  29  49  76 114 155 197 256 320 380 466
#     4  11  25  46  77 108 153 198 252 317 379 455
#     4  11  25  45  72 105 143 188 245 303 363 446
#
# _framework density 25.078534000000001
#
# number of rings (size 3 to 8) (size 9 to 14) (size 15 to 20)
#    0.000    1.000    2.500    1.500   12.250    3.000 
#    6.750    0.000    0.000    0.000    0.000    0.000 
#    0.000    0.000    0.000    0.000    0.000    0.000 
#
# Total GULP energy -89500.080988 kJ/mol
# GULP energy per Si atom -5593.755062 kJ/mol
# Density = 2.502145 g / cm^3
# Si number density = 25.078534 Si / 1000 Ang^3
#
#
#
# Elastic Constant Matrix: (Units=GPa)
#
#
# Indices 1 2 3 4 5 6 
#
# 1 108.1355 6.8965 45.2606 -0.0002 -17.6562 0.0027
# 2 6.8965 28.8412 -6.3751 -0.0065 -16.2874 0.0288
# 3 45.2606 -6.3751 116.3519 -0.0033 -4.8725 0.0060
# 4 -0.0002 -0.0065 -0.0033 29.4465 -0.0005 -4.5980
# 5 -17.6562 -16.2874 -4.8725 -0.0005 68.6962 -0.0003
# 6 0.0027 0.0288 0.0060 -4.5980 -0.0003 24.0759
#
#
#
# Elastic Compliance Matrix: (Units=1/GPa)
#
#
# Indices 1 2 3 4 5 6 
#
# 1 0.011677 -0.002654 -0.004602 -0.000001 0.002045 0.000003
# 2 -0.002654 0.041435 0.003697 0.000002 0.009404 -0.000050
# 3 -0.004602 0.003697 0.010606 0.000001 0.000446 -0.000006
# 4 -0.000001 0.000002 0.000001 0.035004 0.000001 0.006685
# 5 0.002045 0.009404 0.000446 0.000001 0.017344 -0.000011
# 6 0.000003 -0.000050 -0.000006 0.006685 -0.000011 0.042812
#
#
# Mechanical properties :
#
#
# Convention : Reuss Voigt Hill
#
# Bulk Modulus (GPa) = 17.66824 38.32141 27.99482
# Shear Modulus (GPa) = 27.04687 38.28015 32.66351
#
# Velocity S-wave (km/s) = 3.28760 3.91117 3.61286
# Velocity P-wave (km/s) = 4.63374 5.97579 5.34703
#
# Compressibility (1/GPa) = 0.05659874
#
# Stress axis : x y z
#
# Youngs Moduli (GPa) = 85.63697 24.13402 94.28566
#
# Poissons Ratio (x) = 0.06406 0.43392
# Poissons Ratio (y) = 0.22731 -0.34854
# Poissons Ratio (z) = 0.39412 -0.08922
#
# Static dielectric constant tensor:
#      x y z
#    x 2.133250 0.000000 -0.040120 
#    y 0.000000 1.992330 0.000000 
#    z -0.040120 0.000000 1.979110 
# 
# From -- ./inp_files/26343.got.cif
#   From: 2010.05.17/outbox.cif.g08.bks.cpg/sg9_14_cif.got.tgz:26343.got - 2010.06.03 20:04:27.
