data_PCOD9139167
_publ_section_title
;
Structure prediction by ZEFSAII (Michael W. Deem and Ramdas Pophale) SiO2 
 PCOD9139167
Probable space group: C C
;
_chemical_formula_sum "Si O2"
_cell_formula_units_Z 32
_cell_length_a 23.007770
_cell_length_b 8.553444
_cell_length_c 14.705533
_cell_angle_alpha 90.000000
_cell_angle_beta 154.103089
_cell_angle_gamma 90.000000
_cell_volume 1263.957579
_symmetry_space_group_name_H-M "C C"
_symmetry_group_IT_number 9
_symmetry_cell_setting 'monoclinic'
loop_
_space_group_symop_operation_xyz
x,y,z
x,-y,1/2+z
1/2+x,1/2+y,z
1/2+x,1/2-y,1/2+z
loop_
_atom_site_type_symbol
_atom_site_label
_atom_site_fract_x
_atom_site_fract_y
_atom_site_fract_z
Si Si1 0.758230 0.291449 0.998730
Si Si2 0.335348 0.919604 0.388290
Si Si3 0.566653 0.953528 0.974841
Si Si4 0.524293 0.483256 0.177025
Si Si5 0.859909 0.771605 0.089334
Si Si6 0.636518 0.016976 0.366507
Si Si7 0.454804 0.745279 0.417357
Si Si8 0.307443 0.250282 0.370121
O O1 0.670315 0.443432 0.901840
O O2 0.820258 0.325212 0.988017
O O3 0.880511 0.200404 0.220517
O O4 0.652962 0.152688 0.847642
O O5 0.285202 0.830039 0.406370
O O6 0.323955 0.805734 0.287717
O O7 0.295555 0.090281 0.298233
O O8 0.493788 0.923750 0.631871
O O9 0.630140 0.996793 0.966408
O O10 0.672746 0.845442 0.173257
O O11 0.440846 0.846176 0.768789
O O12 0.534879 0.102728 0.993130
O O13 0.460750 0.384134 0.172189
O O14 0.515274 0.381777 0.070652
O O15 0.424297 0.628158 0.018628
O O16 0.752457 0.870001 0.994268
#
# Coordination Sequence:
#
# PCOD9139167 Si02
#       8
#     4   4   4   4   4   4   4   4
#     4  12  25  46  77 106 154 201 252 324 383 475
#     4  10  24  45  73 106 150 197 254 313 386 459
#     4  11  27  42  75 111 151 200 250 318 390 469
#     4  11  26  50  76 113 154 202 258 318 400 465
#     4  10  24  45  75 113 150 204 253 325 387 464
#     4  11  22  47  74 106 155 195 256 317 382 466
#     4  11  27  48  72 113 147 201 258 320 387 474
#     4  12  25  47  72 110 147 198 249 315 391 466
#
# _framework density 25.317305000000001
#
# number of rings (size 3 to 8) (size 9 to 14) (size 15 to 20)
#    0.000    1.000    2.500    3.000    3.500    6.000 
#    4.500    0.000    0.000    0.000    0.000    0.000 
#    0.000    0.000    0.000    0.000    0.000    0.000 
#
# Total GULP energy -89376.939020 kJ/mol
# GULP energy per Si atom -5586.058689 kJ/mol
# Density = 2.525968 g / cm^3
# Si number density = 25.317305 Si / 1000 Ang^3
#
#
#
# Elastic Constant Matrix: (Units=GPa)
#
#
# Indices 1 2 3 4 5 6 
#
# 1 123.0805 49.5852 39.7962 0.0000 8.9357 0.0000
# 2 49.5852 148.5559 42.5515 0.0000 24.6687 0.0000
# 3 39.7962 42.5515 67.7751 0.0000 23.1046 0.0000
# 4 0.0000 0.0000 0.0000 45.8565 0.0000 8.6839
# 5 8.9357 24.6687 23.1046 0.0000 30.8595 0.0000
# 6 0.0000 0.0000 0.0000 8.6839 0.0000 47.3114
#
#
#
# Elastic Compliance Matrix: (Units=1/GPa)
#
#
# Indices 1 2 3 4 5 6 
#
# 1 0.010784 -0.002449 -0.005905 0.000000 0.003256 0.000000
# 2 -0.002449 0.009078 -0.002725 0.000000 -0.004508 0.000000
# 3 -0.005905 -0.002725 0.024984 0.000000 -0.014817 0.000000
# 4 0.000000 0.000000 0.000000 0.022592 0.000000 -0.004147
# 5 0.003256 -0.004508 -0.014817 0.000000 0.046159 0.000000
# 6 0.000000 0.000000 0.000000 -0.004147 0.000000 0.021898
#
#
# Mechanical properties :
#
#
# Convention : Reuss Voigt Hill
#
# Bulk Modulus (GPa) = 44.07403 67.03081 55.55242
# Shear Modulus (GPa) = 30.26359 38.63739 34.45049
#
# Velocity S-wave (km/s) = 3.46117 3.91080 3.69283
# Velocity P-wave (km/s) = 5.78095 6.85028 6.33820
#
# Compressibility (1/GPa) = 0.02268910
#
# Stress axis : x y z
#
# Youngs Moduli (GPa) = 92.72863 110.15812 40.02594
#
# Poissons Ratio (x) = 0.26977 0.23634
# Poissons Ratio (y) = 0.22708 0.10906
# Poissons Ratio (z) = 0.54753 0.30016
#
# Static dielectric constant tensor:
#      x y z
#    x 2.083490 0.000000 -0.015890 
#    y 0.000000 2.150390 0.000000 
#    z -0.015890 0.000000 2.045150 
# 
# From -- ./inp_files/27367.got.cif
#   From: 2010.05.17/outbox.cif.g08.bks.cpg/sg9_14_cif.got.tgz:27367.got - 2010.06.03 20:04:27.
