data_PCOD9139714
_publ_section_title
;
Structure prediction by ZEFSAII (Michael W. Deem and Ramdas Pophale) SiO2 
 PCOD9139714
Probable space group: C C
;
_chemical_formula_sum "Si O2"
_cell_formula_units_Z 32
_cell_length_a 23.676447
_cell_length_b 8.048454
_cell_length_c 8.107603
_cell_angle_alpha 90.000000
_cell_angle_beta 47.999555
_cell_angle_gamma 90.000000
_cell_volume 1148.132188
_symmetry_space_group_name_H-M "C C"
_symmetry_group_IT_number 9
_symmetry_cell_setting 'monoclinic'
loop_
_space_group_symop_operation_xyz
x,y,z
x,-y,1/2+z
1/2+x,1/2+y,z
1/2+x,1/2-y,1/2+z
loop_
_atom_site_type_symbol
_atom_site_label
_atom_site_fract_x
_atom_site_fract_y
_atom_site_fract_z
Si Si1 0.992330 0.702479 0.973180
Si Si2 0.916849 0.411255 0.928971
Si Si3 0.699757 0.582399 0.653889
Si Si4 0.282714 0.829566 0.665572
Si Si5 0.225994 0.613101 0.342743
Si Si6 0.536723 0.348257 0.551285
Si Si7 0.876606 0.126294 0.253668
Si Si8 0.616864 0.013576 0.827149
O O1 0.977928 0.544158 0.877933
O O2 0.017701 0.830445 0.782846
O O3 0.057340 0.657986 0.980448
O O4 0.922572 0.684617 0.240871
O O5 0.842430 0.522968 0.074576
O O6 0.908034 0.282274 0.091457
O O7 0.736180 0.400436 0.600929
O O8 0.728132 0.672168 0.431133
O O9 0.724221 0.708805 0.753875
O O10 0.610994 0.551976 0.854477
O O11 0.338618 0.684775 0.498343
O O12 0.304760 0.573988 0.280666
O O13 0.147290 0.578960 0.592521
O O14 0.199751 0.489648 0.248851
O O15 0.460033 0.443748 0.637013
O O16 0.570893 0.163250 0.423417
#
# Coordination Sequence:
#
# PCOD9139714 Si02
#       8
#     4   4   4   4   4   4   4   4
#     4  12  18  35  64  96 132 162 211 290 341 377
#     4  12  19  32  64 100 128 162 213 281 351 368
#     4  11  23  41  64 101 130 175 223 275 343 400
#     4  12  21  40  68  94 142 169 218 286 336 401
#     4  11  25  39  63  95 135 173 225 269 340 402
#     4  11  24  40  66  99 131 170 227 279 341 401
#     4  12  24  41  64 100 131 174 221 281 337 407
#     4  11  20  40  61  93 131 171 214 283 329 390
#
# _framework density 27.871355999999999
#
# number of rings (size 3 to 8) (size 9 to 14) (size 15 to 20)
#    0.000    0.500   10.000    0.000    0.000    2.000 
#    0.000    1.250    0.000    0.000    0.000    0.000 
#    0.000    0.000    0.000    0.000    0.000    0.000 
#
# Total GULP energy -89106.249702 kJ/mol
# GULP energy per Si atom -5569.140606 kJ/mol
# Density = 2.780792 g / cm^3
# Si number density = 27.871356 Si / 1000 Ang^3
#
#
#
# Elastic Constant Matrix: (Units=GPa)
#
#
# Indices 1 2 3 4 5 6 
#
# 1 114.6918 24.9571 34.8434 0.0000 -60.0932 0.0000
# 2 24.9571 -24.6467 73.9799 0.0000 49.9525 0.0000
# 3 34.8434 73.9799 165.8541 0.0000 -19.6601 0.0000
# 4 0.0000 0.0000 0.0000 25.9099 0.0000 -2.0850
# 5 -60.0932 49.9525 -19.6601 0.0000 23.8616 0.0000
# 6 0.0000 0.0000 0.0000 -2.0850 0.0000 33.7610
#
#
#
# Elastic Compliance Matrix: (Units=1/GPa)
#
#
# Indices 1 2 3 4 5 6 
#
# 1 0.012125 0.009021 -0.005752 0.000000 0.006912 0.000000
# 2 0.009021 0.002120 -0.000747 0.000000 0.017664 0.000000
# 3 -0.005752 -0.000747 0.006693 0.000000 -0.007407 0.000000
# 4 0.000000 0.000000 0.000000 0.038788 0.000000 0.002395
# 5 0.006912 0.017664 -0.007407 0.000000 0.016232 0.000000
# 6 0.000000 0.000000 0.000000 0.002395 0.000000 0.029768
#
#
# Mechanical properties :
#
#
# Convention : Reuss Voigt Hill
#
# Bulk Modulus (GPa) = 38.48786 58.16223 48.32505
# Shear Modulus (GPa) = 45.72779 24.84775 35.28777
#
# Velocity S-wave (km/s) = 4.05492 2.98907 3.56208
# Velocity P-wave (km/s) = 5.98015 5.72941 5.85612
#
# Compressibility (1/GPa) = 0.02598222
#
# Stress axis : x y z
#
# Youngs Moduli (GPa) = 82.47583 471.65871 149.41203
#
# Poissons Ratio (x) = -4.25478 0.85938
# Poissons Ratio (y) = -0.74400 0.11160
# Poissons Ratio (z) = 0.47438 0.35231
#
# Static dielectric constant tensor:
#      x y z
#    x 2.460890 0.000000 -0.016730 
#    y 0.000000 2.582840 0.000000 
#    z -0.016730 0.000000 2.395780 
# 
# From -- ./inp_files/12192.got.cif
#   From: 2010.05.17/outbox.cif.g08.bks.cpg/sg9_7_cif.got.tgz:12192.got - 2010.06.03 20:04:27.
