data_PCOD9139499
_publ_section_title
;
Structure prediction by ZEFSAII (Michael W. Deem and Ramdas Pophale) SiO2 
 PCOD9139499
Probable space group: C C
;
_chemical_formula_sum "Si O2"
_cell_formula_units_Z 32
_cell_length_a 21.424990
_cell_length_b 8.348854
_cell_length_c 15.145346
_cell_angle_alpha 90.000000
_cell_angle_beta 27.653621
_cell_angle_gamma 90.000000
_cell_volume 1257.366370
_symmetry_space_group_name_H-M "C C"
_symmetry_group_IT_number 9
_symmetry_cell_setting 'monoclinic'
loop_
_space_group_symop_operation_xyz
x,y,z
x,-y,1/2+z
1/2+x,1/2+y,z
1/2+x,1/2-y,1/2+z
loop_
_atom_site_type_symbol
_atom_site_label
_atom_site_fract_x
_atom_site_fract_y
_atom_site_fract_z
Si Si1 0.547750 0.610092 0.112640
Si Si2 0.742124 0.413922 0.744117
Si Si3 0.888594 0.152061 0.862908
Si Si4 0.537357 0.980251 0.890537
Si Si5 0.432019 0.357263 0.498946
Si Si6 0.158678 0.578685 0.422360
Si Si7 0.688930 0.221936 0.972877
Si Si8 0.111357 0.167755 0.231105
O O1 0.403898 0.532281 0.314171
O O2 0.628052 0.624981 0.106277
O O3 0.620709 0.514565 0.941039
O O4 0.548059 0.787068 0.076407
O O5 0.876897 0.508818 0.591872
O O6 0.723267 0.368263 0.665922
O O7 0.750729 0.265378 0.800773
O O8 0.848418 0.169172 0.013157
O O9 0.046003 0.195934 0.663027
O O10 0.797982 0.251657 0.910802
O O11 0.575997 0.142822 0.787418
O O12 0.543015 0.786831 0.862382
O O13 0.608934 0.004158 0.894523
O O14 0.312839 0.361963 0.719718
O O15 0.499611 0.533454 0.402401
O O16 0.154822 0.462698 0.510045
#
# Coordination Sequence:
#
# PCOD9139499 Si02
#       8
#     4   4   4   4   4   4   4   4
#     4  10  25  47  70 108 145 192 242 311 361 442
#     4  11  23  48  72 104 146 192 243 307 373 438
#     4  10  26  46  71 104 146 189 246 303 376 430
#     4  12  26  45  75 108 142 196 243 299 379 435
#     4  11  27  46  75 105 146 194 244 307 367 448
#     4  12  25  44  72 106 144 189 249 300 370 445
#     4  11  24  44  75 102 145 194 241 306 369 448
#     4  11  26  50  74 105 150 192 248 307 369 438
#
# _framework density 25.450022000000001
#
# number of rings (size 3 to 8) (size 9 to 14) (size 15 to 20)
#    0.000    1.000    2.500    2.250   10.500    2.000 
#    4.500    0.000    0.000    0.000    0.000    0.000 
#    0.000    0.000    0.000    0.000    0.000    0.000 
#
# Total GULP energy -89294.458574 kJ/mol
# GULP energy per Si atom -5580.903661 kJ/mol
# Density = 2.539210 g / cm^3
# Si number density = 25.450022 Si / 1000 Ang^3
#
#
#
# Elastic Constant Matrix: (Units=GPa)
#
#
# Indices 1 2 3 4 5 6 
#
# 1 145.2442 7.4676 12.6261 0.0000 6.7945 0.0000
# 2 7.4676 113.2007 7.8357 0.0004 8.4769 0.0000
# 3 12.6261 7.8357 39.0117 0.0003 1.9415 0.0000
# 4 0.0000 0.0004 0.0003 10.4025 0.0000 8.9690
# 5 6.7945 8.4769 1.9415 0.0000 29.7877 0.0000
# 6 0.0000 0.0000 0.0000 8.9690 0.0000 39.8376
#
#
#
# Elastic Compliance Matrix: (Units=1/GPa)
#
#
# Indices 1 2 3 4 5 6 
#
# 1 0.007154 -0.000213 -0.002202 0.000000 -0.001428 0.000000
# 2 -0.000213 0.009145 -0.001646 0.000000 -0.002447 0.000000
# 3 -0.002202 -0.001646 0.026715 -0.000001 -0.000771 0.000000
# 4 0.000000 0.000000 -0.000001 0.119286 0.000000 -0.026856
# 5 -0.001428 -0.002447 -0.000771 0.000000 0.034643 0.000000
# 6 0.000000 0.000000 0.000000 -0.026856 0.000000 0.031148
#
#
# Mechanical properties :
#
#
# Convention : Reuss Voigt Hill
#
# Bulk Modulus (GPa) = 28.65907 39.25729 33.95818
# Shear Modulus (GPa) = 20.17401 33.97404 27.07402
#
# Velocity S-wave (km/s) = 2.81853 3.65764 3.26515
# Velocity P-wave (km/s) = 4.67734 5.77031 5.25233
#
# Compressibility (1/GPa) = 0.03489297
#
# Stress axis : x y z
#
# Youngs Moduli (GPa) = 139.78058 109.34861 37.43231
#
# Poissons Ratio (x) = 0.02325 0.08241
# Poissons Ratio (y) = 0.02972 0.06162
# Poissons Ratio (z) = 0.30775 0.18002
#
# Static dielectric constant tensor:
#      x y z
#    x 2.047850 0.000000 -0.005820 
#    y 0.000000 2.209750 0.000000 
#    z -0.005820 0.000000 2.002990 
# 
# From -- ./inp_files/27336.got.cif
#   From: 2010.05.17/outbox.cif.g08.bks.cpg/sg9_14_cif.got.tgz:27336.got - 2010.06.03 20:04:27.
