data_PCOD9139868
_publ_section_title
;
Structure prediction by ZEFSAII (Michael W. Deem and Ramdas Pophale) SiO2 
 PCOD9139868
Probable space group: C C
;
_chemical_formula_sum "Si O2"
_cell_formula_units_Z 32
_cell_length_a 14.414757
_cell_length_b 9.490386
_cell_length_c 11.050958
_cell_angle_alpha 90.000000
_cell_angle_beta 64.041469
_cell_angle_gamma 90.000000
_cell_volume 1359.266099
_symmetry_space_group_name_H-M "C C"
_symmetry_group_IT_number 9
_symmetry_cell_setting 'monoclinic'
loop_
_space_group_symop_operation_xyz
x,y,z
x,-y,1/2+z
1/2+x,1/2+y,z
1/2+x,1/2-y,1/2+z
loop_
_atom_site_type_symbol
_atom_site_label
_atom_site_fract_x
_atom_site_fract_y
_atom_site_fract_z
Si Si1 0.810020 0.567345 0.044020
Si Si2 0.445405 0.046456 0.175537
Si Si3 0.609365 0.584950 0.310857
Si Si4 0.075508 0.776952 0.428982
Si Si5 0.260218 0.170533 0.406395
Si Si6 0.443103 0.273024 0.728145
Si Si7 0.759847 0.151133 0.478742
Si Si8 0.663492 0.877792 0.639346
O O1 0.910073 0.516797 0.058220
O O2 0.715165 0.540565 0.186770
O O3 0.768644 0.487960 0.950719
O O4 0.819472 0.733066 0.022415
O O5 0.368904 0.168846 0.272329
O O6 0.561522 0.096544 0.117320
O O7 0.437201 0.896950 0.252508
O O8 0.571887 0.438008 0.386387
O O9 0.657760 0.687300 0.384580
O O10 0.530860 0.658558 0.264032
O O11 0.159987 0.727921 0.480286
O O12 0.112468 0.680046 0.293537
O O13 0.972583 0.774164 0.570007
O O14 0.241475 0.266702 0.533347
O O15 0.339868 0.361657 0.820580
O O16 0.725019 0.024571 0.584874
#
# Coordination Sequence:
#
# PCOD9139868 Si02
#       8
#     4   4   4   4   4   4   4   4
#     4  11  21  47  77 104 150 207 259 310 397 482
#     4  11  26  46  79 108 152 213 256 319 406 476
#     4  11  22  45  76 110 147 202 259 320 397 479
#     4  12  26  48  76 108 165 201 259 330 402 474
#     4  11  24  44  77 111 151 199 266 319 395 481
#     4  12  26  46  79 112 155 208 259 325 401 468
#     4  12  26  49  76 115 153 209 261 329 393 471
#     4  12  29  47  76 120 159 203 263 338 395 475
#
# _framework density 23.542116
#
# number of rings (size 3 to 8) (size 9 to 14) (size 15 to 20)
#    0.000    0.500    6.250    0.750    3.500    5.000 
#    0.000    0.000    0.000    0.000    0.000    0.000 
#    0.000    0.000    0.000    0.000    0.000    0.000 
#
# Total GULP energy -89133.691018 kJ/mol
# GULP energy per Si atom -5570.855689 kJ/mol
# Density = 2.348853 g / cm^3
# Si number density = 23.542116 Si / 1000 Ang^3
#
#
#
# Elastic Constant Matrix: (Units=GPa)
#
#
# Indices 1 2 3 4 5 6 
#
# 1 61.5808 19.4673 5.7396 0.0000 -1.1099 0.0000
# 2 19.4673 99.3069 28.0635 0.0000 -2.9317 0.0000
# 3 5.7396 28.0635 100.5274 0.0000 -13.0041 0.0000
# 4 0.0000 0.0000 0.0000 34.8042 0.0000 -2.6982
# 5 -1.1099 -2.9317 -13.0041 0.0000 24.4588 0.0000
# 6 0.0000 0.0000 0.0000 -2.6982 0.0000 11.1366
#
#
#
# Elastic Compliance Matrix: (Units=1/GPa)
#
#
# Indices 1 2 3 4 5 6 
#
# 1 0.017315 -0.003385 0.000006 0.000000 0.000383 0.000000
# 2 -0.003385 0.011596 -0.003097 0.000000 -0.000410 0.000000
# 3 0.000006 -0.003097 0.011559 0.000000 0.005775 0.000000
# 4 0.000000 0.000000 0.000000 0.029282 0.000000 0.007095
# 5 0.000383 -0.000410 0.005775 0.000000 0.043923 0.000000
# 6 0.000000 0.000000 0.000000 0.007095 0.000000 0.091513
#
#
# Mechanical properties :
#
#
# Convention : Reuss Voigt Hill
#
# Bulk Modulus (GPa) = 36.33922 40.88400 38.61161
# Shear Modulus (GPa) = 21.99607 27.95625 24.97616
#
# Velocity S-wave (km/s) = 3.05999 3.44975 3.26070
# Velocity P-wave (km/s) = 5.28716 5.76816 5.53289
#
# Compressibility (1/GPa) = 0.02751848
#
# Stress axis : x y z
#
# Youngs Moduli (GPa) = 57.75281 86.23360 86.51419
#
# Poissons Ratio (x) = 0.29187 -0.00050
# Poissons Ratio (y) = 0.19547 0.26794
# Poissons Ratio (z) = -0.00034 0.26708
#
# Static dielectric constant tensor:
#      x y z
#    x 1.906010 0.000000 0.011440 
#    y 0.000000 1.937470 0.000000 
#    z 0.011440 0.000000 2.105670 
# 
# From -- ./inp_files/17900.got.cif
#   From: 2010.05.17/outbox.cif.g08.bks.cpg/sg9_9_cif.got.tgz:17900.got - 2010.06.03 20:04:27.
