data_PCOD9139387
_publ_section_title
;
Structure prediction by ZEFSAII (Michael W. Deem and Ramdas Pophale) SiO2 
 PCOD9139387
Probable space group: C C
;
_chemical_formula_sum "Si O2"
_cell_formula_units_Z 20
_cell_length_a 8.284518
_cell_length_b 9.944191
_cell_length_c 11.371194
_cell_angle_alpha 90.000000
_cell_angle_beta 83.357420
_cell_angle_gamma 90.000000
_cell_volume 930.502526
_symmetry_space_group_name_H-M "C C"
_symmetry_group_IT_number 9
_symmetry_cell_setting 'monoclinic'
loop_
_space_group_symop_operation_xyz
x,y,z
x,-y,1/2+z
1/2+x,1/2+y,z
1/2+x,1/2-y,1/2+z
loop_
_atom_site_type_symbol
_atom_site_label
_atom_site_fract_x
_atom_site_fract_y
_atom_site_fract_z
Si Si1 0.799630 0.921315 0.316260
Si Si2 0.443138 0.777910 0.973878
Si Si3 0.730052 0.735887 0.111963
Si Si4 0.931721 0.574901 0.916969
Si Si5 0.888580 0.790207 0.729177
O O1 0.929199 0.848800 0.389361
O O2 0.806702 0.846879 0.189548
O O3 0.624341 0.900095 0.391369
O O4 0.812718 0.078056 0.289838
O O5 0.622199 0.797758 0.014806
O O6 0.338703 0.745386 0.100060
O O7 0.395219 0.916351 0.915610
O O8 0.581932 0.674246 0.200651
O O9 0.855480 0.634608 0.042676
O O10 0.865929 0.660542 0.812479
#
# Coordination Sequence:
#
# PCOD9139387 Si02
#       5
#     4   4   4   4   4
#     4  11  24  44  71  94 137 180 213 279 330 388
#     4  10  25  43  68  96 133 180 215 276 330 387
#     4   9  24  43  65 101 133 170 229 266 327 399
#     4  11  23  44  69  97 135 169 228 269 328 393
#     4   9  24  44  65  98 136 169 223 266 331 393
#
# _framework density 21.493760999999999
#
# number of rings (size 3 to 8) (size 9 to 14) (size 15 to 20)
#    1.200    0.800    0.000    1.200    8.400    4.800 
#    7.200    0.000    0.000    0.000    0.000    0.000 
#    0.000    0.000    0.000    0.000    0.000    0.000 
#
# Total GULP energy -55740.054778 kJ/mol
# GULP energy per Si atom -5574.005478 kJ/mol
# Density = 2.144484 g / cm^3
# Si number density = 21.493761 Si / 1000 Ang^3
#
#
#
# Elastic Constant Matrix: (Units=GPa)
#
#
# Indices 1 2 3 4 5 6 
#
# 1 23.0939 3.5297 27.5314 0.0000 -12.6909 0.0000
# 2 3.5297 68.1053 42.2979 0.0000 -2.6412 0.0000
# 3 27.5314 42.2979 97.0318 0.0000 3.3643 0.0000
# 4 0.0000 0.0000 0.0000 43.7322 0.0000 -6.9779
# 5 -12.6909 -2.6412 3.3643 0.0000 41.7744 0.0000
# 6 0.0000 0.0000 0.0000 -6.9779 0.0000 20.9136
#
#
#
# Elastic Compliance Matrix: (Units=1/GPa)
#
#
# Indices 1 2 3 4 5 6 
#
# 1 0.112917 0.022503 -0.043207 0.000000 0.039206 0.000000
# 2 0.022503 0.024784 -0.017529 0.000000 0.009815 0.000000
# 3 -0.043207 -0.017529 0.030786 0.000000 -0.016714 0.000000
# 4 0.000000 0.000000 0.000000 0.024152 0.000000 0.008059
# 5 0.039206 0.009815 -0.016714 0.000000 0.037815 0.000000
# 6 0.000000 0.000000 0.000000 0.008059 0.000000 0.050505
#
#
# Mechanical properties :
#
#
# Convention : Reuss Voigt Hill
#
# Bulk Modulus (GPa) = 10.86721 37.21657 24.04189
# Shear Modulus (GPa) = 12.88329 28.94218 20.91274
#
# Velocity S-wave (km/s) = 2.45091 3.67350 3.12263
# Velocity P-wave (km/s) = 3.61611 5.94521 4.92045
#
# Compressibility (1/GPa) = 0.09201992
#
# Stress axis : x y z
#
# Youngs Moduli (GPa) = 8.85609 40.34826 32.48215
#
# Poissons Ratio (x) = -0.90795 1.40347
# Poissons Ratio (y) = -0.19929 0.56938
# Poissons Ratio (z) = 0.38265 0.70727
#
# Static dielectric constant tensor:
#      x y z
#    x 1.827690 0.000000 -0.002440 
#    y 0.000000 1.753590 0.000000 
#    z -0.002440 0.000000 1.787540 
# 
# From -- ./inp_files/13957.got.cif
#   From: 2010.05.17/outbox.cif.g08.bks.cpg/sg9_7_cif.got.tgz:13957.got - 2010.06.03 20:04:27.
