data_PCOD9139266
_publ_section_title
;
Structure prediction by ZEFSAII (Michael W. Deem and Ramdas Pophale) SiO2 
 PCOD9139266
Probable space group: C C
;
_chemical_formula_sum "Si O2"
_cell_formula_units_Z 28
_cell_length_a 15.649475
_cell_length_b 9.670031
_cell_length_c 20.642608
_cell_angle_alpha 90.000000
_cell_angle_beta 159.847849
_cell_angle_gamma 90.000000
_cell_volume 1076.216101
_symmetry_space_group_name_H-M "C C"
_symmetry_group_IT_number 9
_symmetry_cell_setting 'monoclinic'
loop_
_space_group_symop_operation_xyz
x,y,z
x,-y,1/2+z
1/2+x,1/2+y,z
1/2+x,1/2-y,1/2+z
loop_
_atom_site_type_symbol
_atom_site_label
_atom_site_fract_x
_atom_site_fract_y
_atom_site_fract_z
Si Si1 0.281660 0.028570 0.750000
Si Si2 0.528766 0.929259 0.750389
Si Si3 0.486695 0.976993 0.035981
Si Si4 0.767714 0.143258 0.064074
Si Si5 0.020169 0.063277 0.380264
Si Si6 0.426812 0.755270 0.558551
Si Si7 0.893767 0.168809 0.009257
O O1 0.509277 0.061310 0.865632
O O2 0.111723 0.161798 0.646278
O O3 0.095154 0.903573 0.606233
O O4 0.419501 0.981590 0.913212
O O5 0.572046 0.824658 0.721157
O O6 0.235365 0.950389 0.543547
O O7 0.647423 0.079387 0.820113
O O8 0.707730 0.845663 0.926740
O O9 0.339523 0.104182 0.962023
O O10 0.419592 0.830401 0.017524
O O11 0.777045 0.017139 0.246238
O O12 0.649103 0.294018 0.994982
O O13 0.920111 0.144448 0.105687
O O14 0.923464 0.092048 0.237323
#
# Coordination Sequence:
#
# PCOD9139266 Si02
#       7
#     4   4   4   4   4   4   4
#     4  10  24  47  73 111 143 203 250 320 365 472
#     4  11  26  46  74 108 145 198 255 311 383 456
#     4  11  24  46  73 110 154 191 256 315 388 443
#     4  11  24  46  78 108 154 205 257 303 397 466
#     4  11  25  46  75 111 149 201 252 318 376 465
#     4  11  22  46  74 101 147 198 252 304 377 465
#     4  11  27  47  77 113 154 202 256 323 384 461
#
# _framework density 26.017078999999999
#
# number of rings (size 3 to 8) (size 9 to 14) (size 15 to 20)
#    0.000    1.143    2.857    1.714    8.000    0.000 
#   15.429    0.000    0.000    0.000    0.000    0.000 
#    0.000    0.000    0.000    0.000    0.000    0.000 
#
# Total GULP energy -78290.557468 kJ/mol
# GULP energy per Si atom -5592.182676 kJ/mol
# Density = 2.595786 g / cm^3
# Si number density = 26.017079 Si / 1000 Ang^3
#
#
#
# Elastic Constant Matrix: (Units=GPa)
#
#
# Indices 1 2 3 4 5 6 
#
# 1 54.7162 73.5400 40.1320 -0.0300 14.9932 -0.0036
# 2 73.5400 173.1806 59.5670 0.1096 18.4049 -0.0075
# 3 40.1320 59.5670 146.3535 0.1158 24.4253 -0.0087
# 4 -0.0300 0.1096 0.1158 46.7177 0.0125 0.4131
# 5 14.9932 18.4049 24.4253 0.0125 43.1632 -0.0071
# 6 -0.0036 -0.0075 -0.0087 0.4131 -0.0071 26.8648
#
#
#
# Elastic Compliance Matrix: (Units=1/GPa)
#
#
# Indices 1 2 3 4 5 6 
#
# 1 0.047440 -0.017869 -0.004701 0.000086 -0.006199 -0.000003
# 2 -0.017869 0.013529 -0.000750 -0.000042 0.000863 0.000002
# 3 -0.004701 -0.000750 0.008946 -0.000023 -0.003110 0.000002
# 4 0.000086 -0.000042 -0.000023 0.021408 -0.000006 -0.000329
# 5 -0.006199 0.000863 -0.003110 -0.000006 0.026713 0.000005
# 6 -0.000003 0.000002 0.000002 -0.000329 0.000005 0.037228
#
#
# Mechanical properties :
#
#
# Convention : Reuss Voigt Hill
#
# Bulk Modulus (GPa) = 42.96783 80.08094 61.52438
# Shear Modulus (GPa) = 23.84778 36.74991 30.29884
#
# Velocity S-wave (km/s) = 3.03086 3.76244 3.41629
# Velocity P-wave (km/s) = 5.36649 7.05135 6.26581
#
# Compressibility (1/GPa) = 0.02327323
#
# Stress axis : x y z
#
# Youngs Moduli (GPa) = 21.07946 73.91674 111.77841
#
# Poissons Ratio (x) = 1.32083 0.52549
# Poissons Ratio (y) = 0.37667 0.08387
# Poissons Ratio (z) = 0.09910 0.05546
#
# Static dielectric constant tensor:
#      x y z
#    x 2.155680 0.000010 -0.164320 
#    y 0.000010 2.024470 -0.000020 
#    z -0.164320 -0.000020 2.316230 
# 
# From -- ./inp_files/35818.got.cif
#   From: 2010.05.17/outbox.cif.g08.bks.cpg/sg9_18_cif.got.tgz:35818.got - 2010.06.03 20:04:27.
