data_PCOD9139843
_publ_section_title
;
Structure prediction by ZEFSAII (Michael W. Deem and Ramdas Pophale) SiO2 
 PCOD9139843
Probable space group: C C
;
_chemical_formula_sum "Si O2"
_cell_formula_units_Z 24
_cell_length_a 9.457581
_cell_length_b 11.451578
_cell_length_c 16.175492
_cell_angle_alpha 90.000000
_cell_angle_beta 31.863774
_cell_angle_gamma 90.000000
_cell_volume 924.816914
_symmetry_space_group_name_H-M "C C"
_symmetry_group_IT_number 9
_symmetry_cell_setting 'monoclinic'
loop_
_space_group_symop_operation_xyz
x,y,z
x,-y,1/2+z
1/2+x,1/2+y,z
1/2+x,1/2-y,1/2+z
loop_
_atom_site_type_symbol
_atom_site_label
_atom_site_fract_x
_atom_site_fract_y
_atom_site_fract_z
Si Si1 0.107150 0.149649 0.793260
Si Si2 0.891283 0.105066 0.428754
Si Si3 0.003976 0.984597 0.574094
Si Si4 0.985641 0.540318 0.215222
Si Si5 0.587147 0.720207 0.618681
Si Si6 0.047900 0.781433 0.680872
O O1 0.182438 0.171920 0.660556
O O2 0.306422 0.213318 0.756619
O O3 0.076457 0.011250 0.827591
O O4 0.829102 0.219742 0.948257
O O5 0.954678 0.181751 0.317537
O O6 0.810684 0.199681 0.540371
O O7 0.612442 0.030463 0.575460
O O8 0.750697 0.946703 0.643969
O O9 0.072139 0.896825 0.613604
O O10 0.264009 0.991814 0.387124
O O11 0.958579 0.111615 0.636141
O O12 0.896633 0.669067 0.230527
#
# Coordination Sequence:
#
# PCOD9139843 Si02
#       6
#     4   4   4   4   4   4
#     4  11  23  45  73 113 148 208 251 323 394 466
#     4  11  27  44  73 111 147 207 264 321 386 475
#     4  12  24  50  79 115 158 211 262 330 395 470
#     4  11  27  48  76 111 165 207 266 329 390 469
#     4  11  21  44  74 108 153 203 254 314 394 459
#     4  12  24  47  77 106 159 204 261 325 397 467
#
# _framework density 25.951080999999999
#
# number of rings (size 3 to 8) (size 9 to 14) (size 15 to 20)
#    0.000    0.667    5.000    2.000    7.000    0.000 
#    6.000    0.000    0.000    0.000    0.000    0.000 
#    0.000    0.000    0.000    0.000    0.000    0.000 
#
# Total GULP energy -67112.534177 kJ/mol
# GULP energy per Si atom -5592.711181 kJ/mol
# Density = 2.589201 g / cm^3
# Si number density = 25.951081 Si / 1000 Ang^3
#
#
#
# Elastic Constant Matrix: (Units=GPa)
#
#
# Indices 1 2 3 4 5 6 
#
# 1 90.6429 37.6865 37.3780 -0.0042 29.5477 0.0023
# 2 37.6865 210.5114 43.5954 -0.0040 35.2769 0.0020
# 3 37.3780 43.5954 149.6121 -0.0155 20.7668 0.0076
# 4 -0.0042 -0.0040 -0.0155 49.5818 0.0068 18.3038
# 5 29.5477 35.2769 20.7668 0.0068 45.7098 -0.0037
# 6 0.0023 0.0020 0.0076 18.3038 -0.0037 43.0036
#
#
#
# Elastic Compliance Matrix: (Units=1/GPa)
#
#
# Indices 1 2 3 4 5 6 
#
# 1 0.014955 -0.000855 -0.002387 0.000002 -0.007922 -0.000002
# 2 -0.000855 0.005671 -0.000969 0.000001 -0.003384 -0.000001
# 3 -0.002387 -0.000969 0.007732 0.000003 -0.001222 -0.000003
# 4 0.000002 0.000001 0.000003 0.023929 -0.000008 -0.010185
# 5 -0.007922 -0.003384 -0.001222 -0.000008 0.030165 0.000007
# 6 -0.000002 -0.000001 -0.000003 -0.010185 0.000007 0.027589
#
#
# Mechanical properties :
#
#
# Convention : Reuss Voigt Hill
#
# Bulk Modulus (GPa) = 50.16328 76.45402 63.30865
# Shear Modulus (GPa) = 39.96505 49.79947 44.88226
#
# Velocity S-wave (km/s) = 3.92856 4.38536 4.16323
# Velocity P-wave (km/s) = 6.32060 7.42743 6.89625
#
# Compressibility (1/GPa) = 0.01993490
#
# Stress axis : x y z
#
# Youngs Moduli (GPa) = 66.86765 176.33031 129.32625
#
# Poissons Ratio (x) = 0.15081 0.30875
# Poissons Ratio (y) = 0.05719 0.12534
# Poissons Ratio (z) = 0.15964 0.17090
#
# Static dielectric constant tensor:
#      x y z
#    x 2.245690 0.000000 -0.152560 
#    y 0.000000 2.121240 0.000000 
#    z -0.152560 0.000000 2.037060 
# 
# From -- ./inp_files/30033.got.cif
#   From: 2010.05.17/outbox.cif.g08.bks.cpg/sg9_16_cif.got.tgz:30033.got - 2010.06.03 20:04:27.
