data_PCOD9139131
_publ_section_title
;
Structure prediction by ZEFSAII (Michael W. Deem and Ramdas Pophale) SiO2 
 PCOD9139131
Probable space group: C C
;
_chemical_formula_sum "Si O2"
_cell_formula_units_Z 28
_cell_length_a 22.623002
_cell_length_b 8.245194
_cell_length_c 10.994555
_cell_angle_alpha 90.000000
_cell_angle_beta 30.223789
_cell_angle_gamma 90.000000
_cell_volume 1032.342113
_symmetry_space_group_name_H-M "C C"
_symmetry_group_IT_number 9
_symmetry_cell_setting 'monoclinic'
loop_
_space_group_symop_operation_xyz
x,y,z
x,-y,1/2+z
1/2+x,1/2+y,z
1/2+x,1/2-y,1/2+z
loop_
_atom_site_type_symbol
_atom_site_label
_atom_site_fract_x
_atom_site_fract_y
_atom_site_fract_z
Si Si1 0.445470 0.815668 0.100500
Si Si2 0.763833 0.579514 0.736288
Si Si3 0.127107 0.579515 0.464712
Si Si4 0.288745 0.597059 0.537744
Si Si5 0.602195 0.597059 0.663256
Si Si6 0.832437 0.725040 0.385096
Si Si7 0.558503 0.225040 0.815903
O O1 0.340830 0.913180 0.221691
O O2 0.397067 0.705338 0.299189
O O3 0.550110 0.913180 0.979309
O O4 0.493872 0.705338 0.901812
O O5 0.695470 0.750000 0.850500
O O6 0.842267 0.594336 0.477263
O O7 0.665323 0.438139 0.919898
O O8 0.225617 0.438139 0.281102
O O9 0.048673 0.594336 0.723737
O O10 0.322907 0.413554 0.441307
O O11 0.182141 0.677689 0.654661
O O12 0.708799 0.677690 0.546339
O O13 0.568034 0.413554 0.759692
O O14 0.945470 0.718111 0.100500
#
# Coordination Sequence:
#
# PCOD9139131 Si02
#       7
#     4   4   4   4   4   4   4
#     4  12  22  44  74  98 138 182 218 276 346 398
#     4  10  24  45  67 101 139 175 224 282 332 402
#     4  10  24  45  67 101 139 175 224 282 332 402
#     4  11  23  42  69 100 134 177 223 269 340 398
#     4  11  23  42  69 100 134 177 223 269 340 398
#     4  11  25  45  68  98 138 175 227 279 331 402
#     4  11  25  45  68  98 138 175 227 279 331 402
#
# _framework density 27.122793000000001
#
# number of rings (size 3 to 8) (size 9 to 14) (size 15 to 20)
#    0.000    1.143    7.143    0.000    2.000    8.000 
#    0.000    2.857    0.000    0.000    0.000    0.000 
#    0.000    0.000    0.000    0.000    0.000    0.000 
#
# Total GULP energy -78273.144285 kJ/mol
# GULP energy per Si atom -5590.938878 kJ/mol
# Density = 2.706106 g / cm^3
# Si number density = 27.122793 Si / 1000 Ang^3
#
#
#
# Elastic Constant Matrix: (Units=GPa)
#
#
# Indices 1 2 3 4 5 6 
#
# 1 57.3151 -8.0351 14.9143 0.0000 -3.0390 0.0000
# 2 -8.0351 109.0987 46.8594 0.0000 -5.0626 0.0000
# 3 14.9143 46.8594 201.7896 0.0000 15.7417 0.0000
# 4 0.0000 0.0000 0.0000 16.1185 0.0000 -0.0040
# 5 -3.0390 -5.0626 15.7417 0.0000 40.2743 0.0000
# 6 0.0000 0.0000 0.0000 -0.0040 0.0000 31.7712
#
#
#
# Elastic Compliance Matrix: (Units=1/GPa)
#
#
# Indices 1 2 3 4 5 6 
#
# 1 0.018466 0.002386 -0.002115 0.000000 0.002520 0.000000
# 2 0.002386 0.010696 -0.002866 0.000000 0.002645 0.000000
# 3 -0.002115 -0.002866 0.006001 0.000000 -0.002866 0.000000
# 4 0.000000 0.000000 0.000000 0.062040 0.000000 0.000008
# 5 0.002520 0.002645 -0.002866 0.000000 0.026472 0.000000
# 6 0.000000 0.000000 0.000000 0.000008 0.000000 0.031475
#
#
# Mechanical properties :
#
#
# Convention : Reuss Voigt Hill
#
# Bulk Modulus (GPa) = 33.36638 52.85340 43.10989
# Shear Modulus (GPa) = 29.35427 38.59714 33.97570
#
# Velocity S-wave (km/s) = 3.29336 3.77643 3.54314
# Velocity P-wave (km/s) = 5.17594 6.20840 5.71553
#
# Compressibility (1/GPa) = 0.02997029
#
# Stress axis : x y z
#
# Youngs Moduli (GPa) = 54.15377 93.49659 166.63417
#
# Poissons Ratio (x) = -0.22304 0.35250
# Poissons Ratio (y) = -0.12919 0.47763
# Poissons Ratio (z) = 0.11456 0.26799
#
# Static dielectric constant tensor:
#      x y z
#    x 2.134830 0.000000 0.168420 
#    y 0.000000 2.084210 0.000000 
#    z 0.168420 0.000000 2.308930 
# 
# From -- ./inp_files/21205.got.cif
#   From: 2010.05.17/outbox.cif.g08.bks.cpg/sg9_11_cif.got.tgz:21205.got - 2010.06.03 20:04:27.
