data_PCOD9139202
_publ_section_title
;
Structure prediction by ZEFSAII (Michael W. Deem and Ramdas Pophale) SiO2 
 PCOD9139202
Probable space group: C C
;
_chemical_formula_sum "Si O2"
_cell_formula_units_Z 24
_cell_length_a 22.000037
_cell_length_b 5.485573
_cell_length_c 18.273712
_cell_angle_alpha 90.000000
_cell_angle_beta 24.496688
_cell_angle_gamma 90.000000
_cell_volume 914.416499
_symmetry_space_group_name_H-M "C C"
_symmetry_group_IT_number 9
_symmetry_cell_setting 'monoclinic'
loop_
_space_group_symop_operation_xyz
x,y,z
x,-y,1/2+z
1/2+x,1/2+y,z
1/2+x,1/2-y,1/2+z
loop_
_atom_site_type_symbol
_atom_site_label
_atom_site_fract_x
_atom_site_fract_y
_atom_site_fract_z
Si Si1 0.837020 0.208013 0.866240
Si Si2 0.087225 0.922123 0.850944
Si Si3 0.616758 0.418554 0.574849
Si Si4 0.862530 0.263603 0.064615
Si Si5 0.942268 0.888923 0.633395
Si Si6 0.611342 0.049532 0.712450
O O1 0.006297 0.155130 0.700448
O O2 0.819770 0.015438 0.818020
O O3 0.779282 0.469825 0.903540
O O4 0.736438 0.128228 0.044469
O O5 0.197399 0.151689 0.733885
O O6 0.160473 0.702624 0.729543
O O7 0.941006 0.002968 0.967838
O O8 0.027251 0.888677 0.998114
O O9 0.562408 0.296713 0.559297
O O10 0.586659 0.241738 0.674682
O O11 0.892529 0.280272 0.120588
O O12 0.962027 0.429782 0.903637
#
# Coordination Sequence:
#
# PCOD9139202 Si02
#       6
#     4   4   4   4   4   4
#     4  10  24  46  72 105 144 188 241 304 353 435
#     4  10  24  46  70 107 140 193 237 301 358 429
#     4  10  24  46  73 109 140 190 241 303 357 429
#     4  10  24  47  71 104 146 186 243 303 346 448
#     4   8  24  48  69 100 141 189 239 292 363 411
#     4  12  24  41  77 107 147 190 243 291 375 424
#
# _framework density 26.246244999999998
#
# number of rings (size 3 to 8) (size 9 to 14) (size 15 to 20)
#    2.000    0.000    0.000    2.000    2.333    9.333 
#    6.000    0.000    0.000    0.000    0.000    0.000 
#    0.000    0.000    0.000    0.000    0.000    0.000 
#
# Total GULP energy -66954.412112 kJ/mol
# GULP energy per Si atom -5579.534343 kJ/mol
# Density = 2.618651 g / cm^3
# Si number density = 26.246245 Si / 1000 Ang^3
#
#
#
# Elastic Constant Matrix: (Units=GPa)
#
#
# Indices 1 2 3 4 5 6 
#
# 1 85.0195 21.2406 45.5207 -0.0024 -4.6405 0.0018
# 2 21.2406 43.3908 17.8778 -0.0120 -4.9954 0.0080
# 3 45.5207 17.8778 130.5640 -0.0006 11.2483 0.0015
# 4 -0.0024 -0.0120 -0.0006 40.2157 0.0028 -13.2409
# 5 -4.6405 -4.9954 11.2483 0.0028 50.6852 -0.0008
# 6 0.0018 0.0080 0.0015 -13.2409 -0.0008 23.8106
#
#
#
# Elastic Compliance Matrix: (Units=1/GPa)
#
#
# Indices 1 2 3 4 5 6 
#
# 1 0.015907 -0.005509 -0.004965 -0.000001 0.002015 0.000001
# 2 -0.005509 0.026856 -0.001979 0.000006 0.002582 -0.000005
# 3 -0.004965 -0.001979 0.009907 -0.000001 -0.002848 0.000000
# 4 -0.000001 0.000006 -0.000001 0.030439 -0.000001 0.016927
# 5 0.002015 0.002582 -0.002848 -0.000001 0.020801 -0.000001
# 6 0.000001 -0.000005 0.000000 0.016927 -0.000001 0.051411
#
#
# Mechanical properties :
#
#
# Convention : Reuss Voigt Hill
#
# Bulk Modulus (GPa) = 36.01946 47.58363 41.80155
# Shear Modulus (GPa) = 26.38802 34.56466 30.47634
#
# Velocity S-wave (km/s) = 3.17425 3.63290 3.41129
# Velocity P-wave (km/s) = 5.21420 5.98050 5.61045
#
# Compressibility (1/GPa) = 0.02776277
#
# Stress axis : x y z
#
# Youngs Moduli (GPa) = 62.86653 37.23610 100.94374
#
# Poissons Ratio (x) = 0.20513 0.50120
# Poissons Ratio (y) = 0.34632 0.19977
# Poissons Ratio (z) = 0.31214 0.07369
#
# Static dielectric constant tensor:
#      x y z
#    x 2.085710 0.000000 0.019010 
#    y 0.000000 2.098750 0.000000 
#    z 0.019010 0.000000 2.011320 
# 
# From -- ./inp_files/31496.got.cif
#   From: 2010.05.17/outbox.cif.g08.bks.cpg/sg9_16_cif.got.tgz:31496.got - 2010.06.03 20:04:27.
