data_PCOD9139606
_publ_section_title
;
Structure prediction by ZEFSAII (Michael W. Deem and Ramdas Pophale) SiO2 
 PCOD9139606
Probable space group: C C
;
_chemical_formula_sum "Si O2"
_cell_formula_units_Z 32
_cell_length_a 25.472716
_cell_length_b 6.902409
_cell_length_c 23.259379
_cell_angle_alpha 90.000000
_cell_angle_beta 16.955903
_cell_angle_gamma 90.000000
_cell_volume 1192.654389
_symmetry_space_group_name_H-M "C C"
_symmetry_group_IT_number 9
_symmetry_cell_setting 'monoclinic'
loop_
_space_group_symop_operation_xyz
x,y,z
x,-y,1/2+z
1/2+x,1/2+y,z
1/2+x,1/2-y,1/2+z
loop_
_atom_site_type_symbol
_atom_site_label
_atom_site_fract_x
_atom_site_fract_y
_atom_site_fract_z
Si Si1 0.443080 0.553772 0.025590
Si Si2 0.406987 0.073640 0.932517
Si Si3 0.717084 0.580972 0.428921
Si Si4 0.397424 0.136501 0.658565
Si Si5 0.329859 0.518877 0.304875
Si Si6 0.786705 0.308110 0.682992
Si Si7 0.543304 0.678768 0.798441
Si Si8 0.465751 0.581304 0.282651
O O1 0.504319 0.723238 0.003789
O O2 0.273980 0.415935 0.215931
O O3 0.589001 0.385907 0.876944
O O4 0.434605 0.642314 0.971389
O O5 0.221977 0.953627 0.115465
O O6 0.383071 0.171474 0.019868
O O7 0.557629 0.908554 0.778226
O O8 0.452760 0.230556 0.836159
O O9 0.901173 0.485057 0.213641
O O10 0.544584 0.525247 0.569484
O O11 0.738708 0.810123 0.403804
O O12 0.652223 0.487087 0.556345
O O13 0.276847 0.317250 0.814265
O O14 0.349380 0.960495 0.665515
O O15 0.332444 0.594380 0.367916
O O16 0.437239 0.598779 0.854782
#
# Coordination Sequence:
#
# PCOD9139606 Si02
#       8
#     4   4   4   4   4   4   4   4
#     4  11  25  45  69 111 145 200 251 316 382 452
#     4  11  25  48  73 111 151 200 251 317 387 456
#     4  10  26  47  73 110 142 205 250 316 384 458
#     4  12  24  44  71 110 149 197 249 314 379 455
#     4  10  26  46  75 109 150 196 261 312 383 454
#     4  11  25  45  73 106 154 196 255 311 382 459
#     4  11  25  43  75 108 148 197 254 314 384 460
#     4  10  26  46  75 109 151 197 253 324 381 468
#
# _framework density 26.830907
#
# number of rings (size 3 to 8) (size 9 to 14) (size 15 to 20)
#    0.750    0.500    2.500    1.500    3.500    7.000 
#    0.000    0.000    0.000    0.000    0.000    0.000 
#    0.000    0.000    0.000    0.000    0.000    0.000 
#
# Total GULP energy -89287.680181 kJ/mol
# GULP energy per Si atom -5580.480011 kJ/mol
# Density = 2.676984 g / cm^3
# Si number density = 26.830907 Si / 1000 Ang^3
#
#
#
# Elastic Constant Matrix: (Units=GPa)
#
#
# Indices 1 2 3 4 5 6 
#
# 1 123.6279 67.8571 27.7605 -0.0031 46.6552 -0.0005
# 2 67.8571 186.4948 34.0988 -0.0073 26.6700 0.0030
# 3 27.7605 34.0988 70.4179 -0.0111 13.0765 0.0020
# 4 -0.0031 -0.0073 -0.0111 36.7605 0.0025 10.2910
# 5 46.6552 26.6700 13.0765 0.0025 34.0663 0.0001
# 6 -0.0005 0.0030 0.0020 10.2910 0.0001 52.3589
#
#
#
# Elastic Compliance Matrix: (Units=1/GPa)
#
#
# Indices 1 2 3 4 5 6 
#
# 1 0.018746 -0.003314 -0.001615 0.000002 -0.022459 0.000000
# 2 -0.003314 0.006959 -0.002040 0.000001 -0.000127 0.000000
# 3 -0.001615 -0.002040 0.016278 0.000005 -0.002440 -0.000001
# 4 0.000002 0.000001 0.000005 0.028787 -0.000007 -0.005658
# 5 -0.022459 -0.000127 -0.002440 -0.000007 0.061149 0.000001
# 6 0.000000 0.000000 -0.000001 -0.005658 0.000001 0.020211
#
#
# Mechanical properties :
#
#
# Convention : Reuss Voigt Hill
#
# Bulk Modulus (GPa) = 35.65524 71.10815 53.38170
# Shear Modulus (GPa) = 28.50363 41.35875 34.93119
#
# Velocity S-wave (km/s) = 3.26290 3.93040 3.61210
# Velocity P-wave (km/s) = 5.24529 6.86712 6.11025
#
# Compressibility (1/GPa) = 0.02804637
#
# Stress axis : x y z
#
# Youngs Moduli (GPa) = 53.34465 143.70107 61.43102
#
# Poissons Ratio (x) = 0.47619 0.09920
# Poissons Ratio (y) = 0.17677 0.12531
# Poissons Ratio (z) = 0.08615 0.29313
#
# Static dielectric constant tensor:
#      x y z
#    x 2.076640 0.000000 -0.094220 
#    y 0.000000 2.230240 0.000020 
#    z -0.094220 0.000020 2.320010 
# 
# From -- ./inp_files/37061.got.cif
#   From: 2010.05.17/outbox.cif.g08.bks.cpg/sg9_19_cif.got.tgz:37061.got - 2010.06.03 20:04:27.
