data_PCOD9139308
_publ_section_title
;
Structure prediction by ZEFSAII (Michael W. Deem and Ramdas Pophale) SiO2 
 PCOD9139308
Probable space group: C C
;
_chemical_formula_sum "Si O2"
_cell_formula_units_Z 32
_cell_length_a 15.990369
_cell_length_b 10.399798
_cell_length_c 12.991623
_cell_angle_alpha 90.000000
_cell_angle_beta 144.427279
_cell_angle_gamma 90.000000
_cell_volume 1256.818531
_symmetry_space_group_name_H-M "C C"
_symmetry_group_IT_number 9
_symmetry_cell_setting 'monoclinic'
loop_
_space_group_symop_operation_xyz
x,y,z
x,-y,1/2+z
1/2+x,1/2+y,z
1/2+x,1/2-y,1/2+z
loop_
_atom_site_type_symbol
_atom_site_label
_atom_site_fract_x
_atom_site_fract_y
_atom_site_fract_z
Si Si1 0.576490 0.199029 0.892340
Si Si2 0.604412 0.730227 0.031515
Si Si3 0.141384 0.055126 0.582850
Si Si4 0.320507 0.731898 0.570795
Si Si5 0.200260 0.524870 0.847221
Si Si6 0.976388 0.158019 0.113657
Si Si7 0.466878 0.008428 0.439293
Si Si8 0.090200 0.888090 0.256401
O O1 0.677980 0.106441 0.928163
O O2 0.460683 0.241759 0.690054
O O3 0.514319 0.113200 0.920295
O O4 0.647525 0.326445 0.011025
O O5 0.570906 0.578393 0.971479
O O6 0.560608 0.991155 0.137062
O O7 0.583842 0.712266 0.135033
O O8 0.508181 0.859017 0.922215
O O9 0.067621 0.115224 0.610764
O O10 0.296400 0.004503 0.776470
O O11 0.255808 0.613242 0.439810
O O12 0.249250 0.733129 0.613338
O O13 0.252628 0.857488 0.450449
O O14 0.488621 0.712203 0.715908
O O15 0.328517 0.603419 0.918771
O O16 0.047157 0.033161 0.235364
#
# Coordination Sequence:
#
# PCOD9139308 Si02
#       8
#     4   4   4   4   4   4   4   4
#     4  12  24  50  78 116 152 214 266 338 396 493
#     4  11  25  47  74 112 158 206 270 327 400 478
#     4  11  28  49  75 118 159 213 263 338 408 484
#     4  11  24  45  72 112 150 207 256 337 396 475
#     4  11  25  46  74 111 157 203 266 328 405 475
#     4  10  24  48  75 111 153 215 257 334 400 485
#     4  12  27  47  80 116 155 210 273 333 400 490
#     4  10  25  46  74 108 156 204 265 327 409 476
#
# _framework density 25.461113000000001
#
# number of rings (size 3 to 8) (size 9 to 14) (size 15 to 20)
#    0.000    1.000    2.500    2.250    7.000    0.000 
#   13.500    0.000    0.000    0.000    0.000    0.000 
#    0.000    0.000    0.000    0.000    0.000    0.000 
#
# Total GULP energy -89386.213878 kJ/mol
# GULP energy per Si atom -5586.638367 kJ/mol
# Density = 2.540316 g / cm^3
# Si number density = 25.461113 Si / 1000 Ang^3
#
#
#
# Elastic Constant Matrix: (Units=GPa)
#
#
# Indices 1 2 3 4 5 6 
#
# 1 122.5156 40.0093 35.6038 0.0000 -1.6643 0.0000
# 2 40.0093 126.8986 38.7295 0.0000 -1.7740 0.0000
# 3 35.6038 38.7295 92.9392 0.0000 3.7756 0.0000
# 4 0.0000 0.0000 0.0000 47.8146 0.0000 -11.0661
# 5 -1.6643 -1.7740 3.7756 0.0000 33.8582 0.0000
# 6 0.0000 0.0000 0.0000 -11.0661 0.0000 55.9900
#
#
#
# Elastic Compliance Matrix: (Units=1/GPa)
#
#
# Indices 1 2 3 4 5 6 
#
# 1 0.009710 -0.002186 -0.002836 0.000000 0.000679 0.000000
# 2 -0.002186 0.009548 -0.003172 0.000000 0.000746 0.000000
# 3 -0.002836 -0.003172 0.013240 0.000000 -0.001782 0.000000
# 4 0.000000 0.000000 0.000000 0.021917 0.000000 0.004332
# 5 0.000679 0.000746 -0.001782 0.000000 0.029806 0.000000
# 6 0.000000 0.000000 0.000000 0.004332 0.000000 0.018716
#
#
# Mechanical properties :
#
#
# Convention : Reuss Voigt Hill
#
# Bulk Modulus (GPa) = 62.07381 63.44874 62.76127
# Shear Modulus (GPa) = 40.09778 42.73327 41.41552
#
# Velocity S-wave (km/s) = 3.97276 4.10124 4.03751
# Velocity P-wave (km/s) = 6.74363 6.88483 6.81459
#
# Compressibility (1/GPa) = 0.01610985
#
# Stress axis : x y z
#
# Youngs Moduli (GPa) = 102.99093 104.73383 75.52701
#
# Poissons Ratio (x) = 0.22897 0.21421
# Poissons Ratio (y) = 0.22516 0.23955
# Poissons Ratio (z) = 0.29210 0.33218
#
# Static dielectric constant tensor:
#      x y z
#    x 2.079700 0.000000 -0.004530 
#    y 0.000000 1.972620 0.000000 
#    z -0.004530 0.000000 2.111100 
# 
# From -- ./inp_files/26748.got.cif
#   From: 2010.05.17/outbox.cif.g08.bks.cpg/sg9_14_cif.got.tgz:26748.got - 2010.06.03 20:04:27.
