data_PCOD9139456
_publ_section_title
;
Structure prediction by ZEFSAII (Michael W. Deem and Ramdas Pophale) SiO2 
 PCOD9139456
Probable space group: C C
;
_chemical_formula_sum "Si O2"
_cell_formula_units_Z 24
_cell_length_a 19.950997
_cell_length_b 4.872351
_cell_length_c 20.397004
_cell_angle_alpha 90.000000
_cell_angle_beta 154.032906
_cell_angle_gamma 90.000000
_cell_volume 868.159949
_symmetry_space_group_name_H-M "C C"
_symmetry_group_IT_number 9
_symmetry_cell_setting 'monoclinic'
loop_
_space_group_symop_operation_xyz
x,y,z
x,-y,1/2+z
1/2+x,1/2+y,z
1/2+x,1/2-y,1/2+z
loop_
_atom_site_type_symbol
_atom_site_label
_atom_site_fract_x
_atom_site_fract_y
_atom_site_fract_z
Si Si1 0.436220 0.507094 0.646680
Si Si2 0.154514 0.409991 0.538511
Si Si3 0.489553 0.611548 0.498142
Si Si4 0.735911 0.238884 0.740154
Si Si5 0.421368 0.008332 0.722727
Si Si6 0.715964 0.861824 0.839543
O O1 0.469612 0.210977 0.705945
O O2 0.589013 0.649389 0.752032
O O3 0.298954 0.490701 0.473947
O O4 0.384056 0.713750 0.659053
O O5 0.219008 0.609965 0.652260
O O6 0.277543 0.176249 0.626379
O O7 0.063076 0.530771 0.396457
O O8 0.014888 0.260463 0.453181
O O9 0.656992 0.532269 0.670067
O O10 0.410196 0.318676 0.412894
O O11 0.372329 0.755512 0.443576
O O12 0.657498 0.069600 0.731384
#
# Coordination Sequence:
#
# PCOD9139456 Si02
#       6
#     4   4   4   4   4   4
#     4  12  27  52  71 115 145 215 242 317 362 463
#     4  12  25  46  70 114 148 196 257 309 384 453
#     4  10  25  45  75 112 147 198 246 331 385 445
#     4  10  25  45  75 112 141 203 243 335 379 450
#     4  12  29  45  79 103 160 200 259 296 380 449
#     4  10  25  49  76 108 155 186 269 302 392 444
#
# _framework density 27.644676
#
# number of rings (size 3 to 8) (size 9 to 14) (size 15 to 20)
#    1.000    0.000    1.667    3.000    9.333    0.000 
#    9.000    0.000    0.000    0.000    0.000    0.000 
#    0.000    0.000    0.000    0.000    0.000    0.000 
#
# Total GULP energy -67203.730424 kJ/mol
# GULP energy per Si atom -5600.310869 kJ/mol
# Density = 2.758176 g / cm^3
# Si number density = 27.644676 Si / 1000 Ang^3
#
#
#
# Elastic Constant Matrix: (Units=GPa)
#
#
# Indices 1 2 3 4 5 6 
#
# 1 109.4700 -0.2064 36.2208 -0.0005 2.0391 -0.0003
# 2 -0.2064 90.8799 24.7813 0.0003 -15.0099 0.0012
# 3 36.2208 24.7813 159.4823 -0.0006 -25.9699 -0.0001
# 4 -0.0005 0.0003 -0.0006 45.2848 0.0000 8.3552
# 5 2.0391 -15.0099 -25.9699 0.0000 64.7793 -0.0002
# 6 -0.0003 0.0012 -0.0001 8.3552 -0.0002 42.7359
#
#
#
# Elastic Compliance Matrix: (Units=1/GPa)
#
#
# Indices 1 2 3 4 5 6 
#
# 1 0.010002 0.000517 -0.002550 0.000000 -0.001217 0.000000
# 2 0.000517 0.011786 -0.001612 0.000000 0.002068 0.000000
# 3 -0.002550 -0.001612 0.007545 0.000000 0.002731 0.000000
# 4 0.000000 0.000000 0.000000 0.022909 0.000000 -0.004479
# 5 -0.001217 0.002068 0.002731 0.000000 0.017050 0.000000
# 6 0.000000 0.000000 0.000000 -0.004479 0.000000 0.024275
#
#
# Mechanical properties :
#
#
# Convention : Reuss Voigt Hill
#
# Bulk Modulus (GPa) = 45.36664 53.49152 49.42908
# Shear Modulus (GPa) = 46.20873 50.49577 48.35225
#
# Velocity S-wave (km/s) = 4.09286 4.27851 4.18672
# Velocity P-wave (km/s) = 6.22749 6.61810 6.42576
#
# Compressibility (1/GPa) = 0.02204263
#
# Stress axis : x y z
#
# Youngs Moduli (GPa) = 99.97601 84.84726 132.54233
#
# Poissons Ratio (x) = -0.04387 0.33802
# Poissons Ratio (y) = -0.05169 0.21366
# Poissons Ratio (z) = 0.25497 0.13677
#
# Static dielectric constant tensor:
#      x y z
#    x 2.272620 0.000000 0.004440 
#    y 0.000000 2.072820 0.000000 
#    z 0.004440 0.000000 2.052670 
# 
# From -- ./inp_files/11124.got.cif
#   From: 2010.05.17/outbox.cif.g08.bks.cpg/sg9_6_cif.got.tgz:11124.got - 2010.06.03 20:04:27.
