data_PCOD9139889
_publ_section_title
;
Structure prediction by ZEFSAII (Michael W. Deem and Ramdas Pophale) SiO2 
 PCOD9139889
Probable space group: C C
;
_chemical_formula_sum "Si O2"
_cell_formula_units_Z 32
_cell_length_a 19.376583
_cell_length_b 9.727835
_cell_length_c 8.030926
_cell_angle_alpha 90.000000
_cell_angle_beta 104.638152
_cell_angle_gamma 90.000000
_cell_volume 1464.631732
_symmetry_space_group_name_H-M "C C"
_symmetry_group_IT_number 9
_symmetry_cell_setting 'monoclinic'
loop_
_space_group_symop_operation_xyz
x,y,z
x,-y,1/2+z
1/2+x,1/2+y,z
1/2+x,1/2-y,1/2+z
loop_
_atom_site_type_symbol
_atom_site_label
_atom_site_fract_x
_atom_site_fract_y
_atom_site_fract_z
Si Si1 0.628370 0.824862 0.903430
Si Si2 0.119187 0.165653 0.395918
Si Si3 0.570757 0.917552 0.199897
Si Si4 0.426335 0.219212 0.071865
Si Si5 0.924367 0.425988 0.932137
Si Si6 0.558952 0.411751 0.200693
Si Si7 0.273408 0.210097 0.892416
Si Si8 0.773820 0.411671 0.019914
O O1 0.580640 0.926937 0.763006
O O2 0.590888 0.676886 0.872087
O O3 0.706700 0.808667 0.877721
O O4 0.625672 0.882147 0.086571
O O5 0.092321 0.320000 0.364120
O O6 0.111803 0.115904 0.580008
O O7 0.201557 0.148295 0.394623
O O8 0.066333 0.068972 0.257021
O O9 0.432994 0.907063 0.443145
O O10 0.493236 0.882232 0.080462
O O11 0.426603 0.141271 0.251266
O O12 0.484588 0.339860 0.107282
O O13 0.347958 0.277700 0.988122
O O14 0.848783 0.389147 0.970835
O O15 0.277714 0.149481 0.707978
O O16 0.264112 0.076664 0.006292
#
# Coordination Sequence:
#
# PCOD9139889 Si02
#       8
#     4   4   4   4   4   4   4   4
#     4  12  24  44  67  98 134 169 224 273 331 391
#     4  12  26  42  69  99 135 175 220 274 332 396
#     4  12  26  42  69  99 135 175 220 274 332 396
#     4  11  24  41  67  99 136 175 219 275 330 396
#     4  11  22  39  67  99 133 170 224 268 330 386
#     4  12  24  44  67  98 134 169 224 273 331 391
#     4  11  24  41  67  99 136 175 219 275 330 396
#     4  11  22  39  67  99 133 170 224 268 330 386
#
# _framework density 21.848496000000001
#
# number of rings (size 3 to 8) (size 9 to 14) (size 15 to 20)
#    0.000    0.500    5.000    4.500    7.000    0.000 
#    0.000    2.500    0.000    0.000    0.000    0.000 
#    0.000    0.000    0.000    0.000    0.000    0.000 
#
# Total GULP energy -89469.606751 kJ/mol
# GULP energy per Si atom -5591.850422 kJ/mol
# Density = 2.179877 g / cm^3
# Si number density = 21.848496 Si / 1000 Ang^3
#
#
#
# Elastic Constant Matrix: (Units=GPa)
#
#
# Indices 1 2 3 4 5 6 
#
# 1 152.6488 40.2812 26.1382 0.0000 22.8679 0.0000
# 2 40.2812 50.2332 16.5284 0.0000 4.6297 0.0000
# 3 26.1382 16.5284 71.8098 0.0000 -5.9586 0.0000
# 4 0.0000 0.0000 0.0000 27.9449 0.0000 2.3835
# 5 22.8679 4.6297 -5.9586 0.0000 44.4997 0.0000
# 6 0.0000 0.0000 0.0000 2.3835 0.0000 33.8372
#
#
#
# Elastic Compliance Matrix: (Units=1/GPa)
#
#
# Indices 1 2 3 4 5 6 
#
# 1 0.009257 -0.006262 -0.002295 0.000000 -0.004413 0.000000
# 2 -0.006262 0.026160 -0.003743 0.000000 -0.000005 0.000000
# 3 -0.002295 -0.003743 0.015929 0.000000 0.003701 0.000000
# 4 0.000000 0.000000 0.000000 0.036001 0.000000 -0.002536
# 5 -0.004413 -0.000005 0.003701 0.000000 0.025236 0.000000
# 6 0.000000 0.000000 0.000000 -0.002536 0.000000 0.029732
#
#
# Mechanical properties :
#
#
# Convention : Reuss Voigt Hill
#
# Bulk Modulus (GPa) = 37.38379 48.95417 43.16898
# Shear Modulus (GPa) = 28.43662 34.03928 31.23795
#
# Velocity S-wave (km/s) = 3.61160 3.95139 3.78531
# Velocity P-wave (km/s) = 5.87700 6.57821 6.23747
#
# Compressibility (1/GPa) = 0.02674956
#
# Stress axis : x y z
#
# Youngs Moduli (GPa) = 108.02284 38.22615 62.77692
#
# Poissons Ratio (x) = 0.23936 0.14404
# Poissons Ratio (y) = 0.67639 0.23494
# Poissons Ratio (z) = 0.24786 0.14306
#
# Static dielectric constant tensor:
#      x y z
#    x 1.832220 0.000000 0.003910 
#    y 0.000000 1.755220 0.000000 
#    z 0.003910 0.000000 1.820270 
# 
# From -- ./inp_files/9448.got.cif
#   From: 2010.05.17/outbox.cif.g08.bks.cpg/sg9_5_cif.got.tgz:9448.got - 2010.06.03 20:04:27.
