data_PCOD9139748
_publ_section_title
;
Structure prediction by ZEFSAII (Michael W. Deem and Ramdas Pophale) SiO2 
 PCOD9139748
Probable space group: C C
;
_chemical_formula_sum "Si O2"
_cell_formula_units_Z 32
_cell_length_a 8.034772
_cell_length_b 12.309418
_cell_length_c 16.698718
_cell_angle_alpha 90.000000
_cell_angle_beta 53.521233
_cell_angle_gamma 90.000000
_cell_volume 1327.981350
_symmetry_space_group_name_H-M "C C"
_symmetry_group_IT_number 9
_symmetry_cell_setting 'monoclinic'
loop_
_space_group_symop_operation_xyz
x,y,z
x,-y,1/2+z
1/2+x,1/2+y,z
1/2+x,1/2-y,1/2+z
loop_
_atom_site_type_symbol
_atom_site_label
_atom_site_fract_x
_atom_site_fract_y
_atom_site_fract_z
Si Si1 0.954280 0.609729 0.635900
Si Si2 0.864897 0.086757 0.961693
Si Si3 0.874008 0.613020 0.116177
Si Si4 0.424139 0.584727 0.561712
Si Si5 0.345191 0.301929 0.233622
Si Si6 0.709424 0.882940 0.912081
Si Si7 0.957034 0.285089 0.439532
Si Si8 0.124485 0.735560 0.293359
O O1 0.821603 0.499428 0.674096
O O2 0.838222 0.708465 0.708219
O O3 0.175995 0.593678 0.614784
O O4 0.007262 0.620689 0.526621
O O5 0.995412 0.183516 0.887872
O O6 0.834991 0.988004 0.906244
O O7 0.627588 0.120474 0.049181
O O8 0.973706 0.030153 0.007061
O O9 0.770666 0.711556 0.191887
O O10 0.839307 0.631713 0.031598
O O11 0.452083 0.607540 0.647373
O O12 0.518229 0.683959 0.481886
O O13 0.154956 0.339009 0.342211
O O14 0.497313 0.236098 0.248064
O O15 0.659771 0.873065 0.833393
O O16 0.829096 0.774997 0.907435
#
# Coordination Sequence:
#
# PCOD9139748 Si02
#       8
#     4   4   4   4   4   4   4   4
#     4   9  21  40  59  85 118 156 199 244 306 373
#     4   9  20  42  57  81 127 161 194 259 305 361
#     4   9  19  38  58  84 117 151 196 253 296 356
#     4   8  19  39  58  78 122 156 195 243 300 372
#     4  11  21  33  63  92 113 155 202 248 306 368
#     4   9  22  41  59  82 126 161 197 251 314 365
#     4   9  17  36  62  83 112 158 195 241 306 369
#     4  12  23  37  62  93 121 154 208 257 309 376
#
# _framework density 24.096723999999998
#
# number of rings (size 3 to 8) (size 9 to 14) (size 15 to 20)
#    0.000    3.000    1.250    0.750    5.250    0.000 
#    6.750    1.250    0.000    0.000    0.000    0.000 
#    0.000    0.000    0.000    0.000    0.000    0.000 
#
# Total GULP energy -89320.344522 kJ/mol
# GULP energy per Si atom -5582.521533 kJ/mol
# Density = 2.404188 g / cm^3
# Si number density = 24.096724 Si / 1000 Ang^3
#
#
#
# Elastic Constant Matrix: (Units=GPa)
#
#
# Indices 1 2 3 4 5 6 
#
# 1 46.0113 11.9540 20.3974 -0.0002 18.5092 0.0002
# 2 11.9540 55.2083 10.2238 -0.0001 7.3565 0.0001
# 3 20.3974 10.2238 81.4245 -0.0001 13.1293 0.0001
# 4 -0.0002 -0.0001 -0.0001 30.3641 0.0001 5.9237
# 5 18.5092 7.3565 13.1293 0.0001 32.9437 -0.0001
# 6 0.0002 0.0001 0.0001 5.9237 -0.0001 23.6953
#
#
#
# Elastic Compliance Matrix: (Units=1/GPa)
#
#
# Indices 1 2 3 4 5 6 
#
# 1 0.030704 -0.003818 -0.004882 0.000000 -0.014453 0.000000
# 2 -0.003818 0.019390 -0.001203 0.000000 -0.001705 0.000000
# 3 -0.004882 -0.001203 0.014074 0.000000 -0.002598 0.000000
# 4 0.000000 0.000000 0.000000 0.034622 0.000000 -0.008655
# 5 -0.014453 -0.001705 -0.002598 0.000000 0.039891 0.000000
# 6 0.000000 0.000000 0.000000 -0.008655 0.000000 0.044366
#
#
# Mechanical properties :
#
#
# Convention : Reuss Voigt Hill
#
# Bulk Modulus (GPa) = 22.54203 29.75495 26.14849
# Shear Modulus (GPa) = 22.97360 26.73853 24.85607
#
# Velocity S-wave (km/s) = 3.09105 3.33473 3.21520
# Velocity P-wave (km/s) = 4.70262 5.21557 4.96572
#
# Compressibility (1/GPa) = 0.04436157
#
# Stress axis : x y z
#
# Youngs Moduli (GPa) = 32.56921 51.57296 71.05226
#
# Poissons Ratio (x) = 0.19692 0.34685
# Poissons Ratio (y) = 0.12436 0.08549
# Poissons Ratio (z) = 0.15899 0.06205
#
# Static dielectric constant tensor:
#      x y z
#    x 1.970360 0.000000 0.030850 
#    y 0.000000 1.957500 0.000000 
#    z 0.030850 0.000000 1.932630 
# 
# From -- ./inp_files/23238.got.cif
#   From: 2010.05.17/outbox.cif.g08.bks.cpg/sg9_12_cif.got.tgz:23238.got - 2010.06.03 20:04:27.
