data_PCOD9139762
_publ_section_title
;
Structure prediction by ZEFSAII (Michael W. Deem and Ramdas Pophale) SiO2 
 PCOD9139762
Probable space group: C C
;
_chemical_formula_sum "Si O2"
_cell_formula_units_Z 32
_cell_length_a 20.905159
_cell_length_b 7.589352
_cell_length_c 9.630228
_cell_angle_alpha 90.000000
_cell_angle_beta 78.586189
_cell_angle_gamma 90.000000
_cell_volume 1497.682832
_symmetry_space_group_name_H-M "C C"
_symmetry_group_IT_number 9
_symmetry_cell_setting 'monoclinic'
loop_
_space_group_symop_operation_xyz
x,y,z
x,-y,1/2+z
1/2+x,1/2+y,z
1/2+x,1/2-y,1/2+z
loop_
_atom_site_type_symbol
_atom_site_label
_atom_site_fract_x
_atom_site_fract_y
_atom_site_fract_z
Si Si1 0.842170 0.189101 0.241530
Si Si2 0.763183 0.722696 0.034510
Si Si3 0.125195 0.793368 0.645601
Si Si4 0.482952 0.698594 0.227767
Si Si5 0.633823 0.347735 0.967921
Si Si6 0.773310 0.679945 0.507600
Si Si7 0.992521 0.170713 0.556338
Si Si8 0.360636 0.287697 0.229735
O O1 0.788269 0.261940 0.368474
O O2 0.913254 0.281721 0.217559
O O3 0.809927 0.204239 0.105287
O O4 0.858333 0.989842 0.282125
O O5 0.692393 0.808419 0.087268
O O6 0.761734 0.515284 0.072072
O O7 0.818477 0.797430 0.108828
O O8 0.132007 0.859286 0.801928
O O9 0.053064 0.708998 0.668971
O O10 0.129570 0.957253 0.536740
O O11 0.480788 0.660137 0.394996
O O12 0.489148 0.521711 0.130798
O O13 0.701650 0.261478 0.986969
O O14 0.565900 0.258145 0.043326
O O15 0.822159 0.672033 0.356486
O O16 0.933234 0.269589 0.657212
#
# Coordination Sequence:
#
# PCOD9139762 Si02
#       8
#     4   4   4   4   4   4   4   4
#     4  11  23  36  58  84 115 148 188 232 282 335
#     4  11  21  38  58  85 113 149 184 234 284 334
#     4   9  18  32  55  80 111 144 189 237 276 322
#     4   9  18  33  53  82 109 145 190 237 275 323
#     4   9  18  33  53  82 109 145 190 237 275 323
#     4  11  23  36  58  84 115 148 188 232 282 335
#     4   9  18  32  55  80 111 144 189 237 276 322
#     4  11  21  38  58  85 113 149 184 234 284 334
#
# _framework density 21.366337999999999
#
# number of rings (size 3 to 8) (size 9 to 14) (size 15 to 20)
#    0.000    2.000    2.500    1.500   10.500    0.000 
#    0.000    0.000    0.000    9.000    0.000    0.000 
#    0.000    0.000    0.000    0.000    0.000    0.000 
#
# Total GULP energy -89140.249275 kJ/mol
# GULP energy per Si atom -5571.265580 kJ/mol
# Density = 2.131771 g / cm^3
# Si number density = 21.366338 Si / 1000 Ang^3
#
#
#
# Elastic Constant Matrix: (Units=GPa)
#
#
# Indices 1 2 3 4 5 6 
#
# 1 142.1040 -26.0583 18.7457 0.0000 -35.1114 0.0000
# 2 -26.0583 19.3278 -18.9818 0.0000 -5.9570 0.0000
# 3 18.7457 -18.9818 74.9517 0.0000 -16.0509 0.0000
# 4 0.0000 0.0000 0.0000 22.3059 0.0000 0.4124
# 5 -35.1114 -5.9570 -16.0509 0.0000 42.8434 0.0000
# 6 0.0000 0.0000 0.0000 0.4124 0.0000 7.7001
#
#
#
# Elastic Compliance Matrix: (Units=1/GPa)
#
#
# Indices 1 2 3 4 5 6 
#
# 1 0.024062 0.058730 0.016120 0.000000 0.033925 0.000000
# 2 0.058730 0.226872 0.065049 0.000000 0.104045 0.000000
# 3 0.016120 0.065049 0.033215 0.000000 0.034699 0.000000
# 4 0.000000 0.000000 0.000000 0.044876 0.000000 -0.002403
# 5 0.033925 0.104045 0.034699 0.000000 0.078610 0.000000
# 6 0.000000 0.000000 0.000000 -0.002403 0.000000 0.129998
#
#
# Mechanical properties :
#
#
# Convention : Reuss Voigt Hill
#
# Bulk Modulus (GPa) = 1.77321 20.42163 11.09742
# Shear Modulus (GPa) = 11.21535 32.08174 21.64854
#
# Velocity S-wave (km/s) = 2.29357 3.87913 3.18655
# Velocity P-wave (km/s) = 2.80101 5.44446 4.32943
#
# Compressibility (1/GPa) = 0.56394775
#
# Stress axis : x y z
#
# Youngs Moduli (GPa) = 41.55866 4.40776 30.10695
#
# Poissons Ratio (x) = -0.25887 -0.48534
# Poissons Ratio (y) = -2.44072 -1.95843
# Poissons Ratio (z) = -0.66994 -0.28672
#
# Static dielectric constant tensor:
#      x y z
#    x 1.867010 0.000000 -0.014740 
#    y 0.000000 1.794820 0.000000 
#    z -0.014740 0.000000 1.749780 
# 
# From -- ./inp_files/11238.got.cif
#   From: 2010.05.17/outbox.cif.g08.bks.cpg/sg9_6_cif.got.tgz:11238.got - 2010.06.03 20:04:27.
