data_PCOD9139776
_publ_section_title
;
Structure prediction by ZEFSAII (Michael W. Deem and Ramdas Pophale) SiO2 
 PCOD9139776
Probable space group: C C
;
_chemical_formula_sum "Si O2"
_cell_formula_units_Z 32
_cell_length_a 24.634284
_cell_length_b 5.550410
_cell_length_c 20.675548
_cell_angle_alpha 90.000000
_cell_angle_beta 154.015759
_cell_angle_gamma 90.000000
_cell_volume 1238.565569
_symmetry_space_group_name_H-M "C C"
_symmetry_group_IT_number 9
_symmetry_cell_setting 'monoclinic'
loop_
_space_group_symop_operation_xyz
x,y,z
x,-y,1/2+z
1/2+x,1/2+y,z
1/2+x,1/2-y,1/2+z
loop_
_atom_site_type_symbol
_atom_site_label
_atom_site_fract_x
_atom_site_fract_y
_atom_site_fract_z
Si Si1 0.172700 0.825342 0.173250
Si Si2 0.276455 0.674447 0.742694
Si Si3 0.880678 0.077113 0.231927
Si Si4 0.590760 0.174866 0.762623
Si Si5 0.244806 0.283114 0.987885
Si Si6 0.857190 0.377525 0.491351
Si Si7 0.484640 0.475873 0.560260
Si Si8 0.138774 0.897450 0.954325
O O1 0.189999 0.561234 0.160942
O O2 0.272381 0.838936 0.338365
O O3 0.205552 0.069374 0.167713
O O4 0.038676 0.846183 0.062849
O O5 0.351805 0.608185 0.758632
O O6 0.377156 0.664886 0.907909
O O7 0.024726 0.149171 0.380934
O O8 0.772400 0.281681 0.116699
O O9 0.852465 0.934008 0.135867
O O10 0.608386 0.340331 0.718991
O O11 0.597885 0.278762 0.842158
O O12 0.676371 0.945207 0.861692
O O13 0.455259 0.089905 0.596739
O O14 0.298815 0.081626 0.999517
O O15 0.162141 0.173952 0.956968
O O16 0.937388 0.129162 0.571147
#
# Coordination Sequence:
#
# PCOD9139776 Si02
#       8
#     4   4   4   4   4   4   4   4
#     4  11  26  46  72 104 147 193 251 309 383 449
#     4  11  28  48  71 107 142 202 251 314 378 459
#     4  11  27  47  75 104 150 202 264 319 396 465
#     4  11  21  39  67 103 141 190 237 317 382 461
#     4  11  24  41  71 107 148 193 252 319 397 465
#     4  11  22  41  66 106 144 191 242 312 383 463
#     4  11  25  41  68 102 146 188 250 309 381 460
#     4  11  25  47  72 111 146 199 257 327 394 470
#
# _framework density 25.83634
#
# number of rings (size 3 to 8) (size 9 to 14) (size 15 to 20)
#    0.000    1.000    1.250    4.500    8.750    3.000 
#    0.000    0.000    0.000    0.000    0.000    0.000 
#    0.000    0.000    0.000    0.000    0.000    0.000 
#
# Total GULP energy -89397.941228 kJ/mol
# GULP energy per Si atom -5587.371327 kJ/mol
# Density = 2.577754 g / cm^3
# Si number density = 25.836340 Si / 1000 Ang^3
#
#
#
# Elastic Constant Matrix: (Units=GPa)
#
#
# Indices 1 2 3 4 5 6 
#
# 1 115.2291 23.3534 23.0914 0.0013 11.6963 0.0010
# 2 23.3534 87.5682 32.8935 -0.0039 -3.5821 -0.0023
# 3 23.0914 32.8935 99.3358 -0.0030 4.5317 -0.0020
# 4 0.0013 -0.0039 -0.0030 38.5249 0.0007 -8.6327
# 5 11.6963 -3.5821 4.5317 0.0007 34.6928 0.0005
# 6 0.0010 -0.0023 -0.0020 -8.6327 0.0005 40.5207
#
#
#
# Elastic Compliance Matrix: (Units=1/GPa)
#
#
# Indices 1 2 3 4 5 6 
#
# 1 0.009742 -0.002217 -0.001379 -0.000001 -0.003333 -0.000001
# 2 -0.002217 0.013675 -0.004136 0.000001 0.002700 0.000001
# 3 -0.001379 -0.004136 0.011826 0.000001 -0.001507 0.000001
# 4 -0.000001 0.000001 0.000001 0.027259 0.000000 0.005807
# 5 -0.003333 0.002700 -0.001507 0.000000 0.030424 0.000000
# 6 -0.000001 0.000001 0.000001 0.005807 0.000000 0.025916
#
#
# Mechanical properties :
#
#
# Convention : Reuss Voigt Hill
#
# Bulk Modulus (GPa) = 50.55577 51.20107 50.87842
# Shear Modulus (GPa) = 35.48689 37.60067 36.54378
#
# Velocity S-wave (km/s) = 3.71013 3.81903 3.76498
# Velocity P-wave (km/s) = 6.16146 6.26954 6.21574
#
# Compressibility (1/GPa) = 0.01978014
#
# Stress axis : x y z
#
# Youngs Moduli (GPa) = 102.64599 73.12661 84.56170
#
# Poissons Ratio (x) = 0.16210 0.11658
# Poissons Ratio (y) = 0.22753 0.34976
# Poissons Ratio (z) = 0.14151 0.30246
#
# Static dielectric constant tensor:
#      x y z
#    x 2.020770 0.000000 0.003720 
#    y 0.000000 2.183410 0.000000 
#    z 0.003720 0.000000 2.010900 
# 
# From -- ./inp_files/19810.got.cif
#   From: 2010.05.17/outbox.cif.g08.bks.cpg/sg9_10_cif.got.tgz:19810.got - 2010.06.03 20:04:27.
