data_PCOD9139855
_publ_section_title
;
Structure prediction by ZEFSAII (Michael W. Deem and Ramdas Pophale) SiO2 
 PCOD9139855
Probable space group: C C
;
_chemical_formula_sum "Si O2"
_cell_formula_units_Z 32
_cell_length_a 11.614967
_cell_length_b 14.906791
_cell_length_c 9.169379
_cell_angle_alpha 90.000000
_cell_angle_beta 121.579568
_cell_angle_gamma 90.000000
_cell_volume 1352.501289
_symmetry_space_group_name_H-M "C C"
_symmetry_group_IT_number 9
_symmetry_cell_setting 'monoclinic'
loop_
_space_group_symop_operation_xyz
x,y,z
x,-y,1/2+z
1/2+x,1/2+y,z
1/2+x,1/2-y,1/2+z
loop_
_atom_site_type_symbol
_atom_site_label
_atom_site_fract_x
_atom_site_fract_y
_atom_site_fract_z
Si Si1 0.312500 0.489374 0.399130
Si Si2 0.472978 0.360908 0.335696
Si Si3 0.317330 0.126232 0.820943
Si Si4 0.425967 0.183357 0.192000
Si Si5 0.599370 0.493563 0.750034
Si Si6 0.198458 0.673968 0.257991
Si Si7 0.592383 0.864970 0.368431
Si Si8 0.163774 0.804303 0.718329
O O1 0.340724 0.415039 0.293746
O O2 0.449073 0.486165 0.583770
O O3 0.297406 0.589885 0.333546
O O4 0.179148 0.453176 0.390080
O O5 0.441559 0.292440 0.183917
O O6 0.578763 0.438707 0.368977
O O7 0.545955 0.308866 0.516417
O O8 0.207069 0.049015 0.726072
O O9 0.259401 0.227053 0.793935
O O10 0.432084 0.120281 0.773582
O O11 0.377802 0.121536 0.026208
O O12 0.585515 0.161583 0.309952
O O13 0.310325 0.183936 0.238842
O O14 0.645467 0.392612 0.805417
O O15 0.127888 0.665225 0.055023
O O16 0.638854 0.785186 0.292907
#
# Coordination Sequence:
#
# PCOD9139855 Si02
#       8
#     4   4   4   4   4   4   4   4
#     4  11  25  44  71 101 140 187 234 288 349 422
#     4  11  22  43  69 102 136 184 238 281 344 416
#     4  11  25  44  71 106 144 181 236 290 352 410
#     4  11  21  46  69  99 139 185 236 285 345 415
#     4  11  24  43  72 105 138 187 236 286 346 419
#     4  11  25  43  70 102 143 187 229 291 352 412
#     4  11  27  46  68 108 144 180 236 291 353 413
#     4  11  25  43  72 101 142 183 233 288 347 413
#
# _framework density 23.659865
#
# number of rings (size 3 to 8) (size 9 to 14) (size 15 to 20)
#    0.000    1.000    3.750    1.500    8.750    1.000 
#    2.250    0.000    0.000    0.000    0.000    0.000 
#    0.000    0.000    0.000    0.000    0.000    0.000 
#
# Total GULP energy -89313.680662 kJ/mol
# GULP energy per Si atom -5582.105041 kJ/mol
# Density = 2.360601 g / cm^3
# Si number density = 23.659865 Si / 1000 Ang^3
#
#
#
# Elastic Constant Matrix: (Units=GPa)
#
#
# Indices 1 2 3 4 5 6 
#
# 1 147.0646 30.5926 3.3299 0.0000 10.0315 0.0000
# 2 30.5926 120.7456 18.8673 0.0000 11.2584 0.0000
# 3 3.3299 18.8673 29.7257 0.0000 -1.0337 0.0000
# 4 0.0000 0.0000 0.0000 29.6725 0.0000 4.9867
# 5 10.0315 11.2584 -1.0337 0.0000 24.4548 0.0000
# 6 0.0000 0.0000 0.0000 4.9867 0.0000 41.3965
#
#
#
# Elastic Compliance Matrix: (Units=1/GPa)
#
#
# Indices 1 2 3 4 5 6 
#
# 1 0.007294 -0.001667 0.000164 0.000000 -0.002218 0.000000
# 2 -0.001667 0.010094 -0.006367 0.000000 -0.004232 0.000000
# 3 0.000164 -0.006367 0.037819 0.000000 0.004463 0.000000
# 4 0.000000 0.000000 0.000000 0.034398 0.000000 -0.004144
# 5 -0.002218 -0.004232 0.004463 0.000000 0.043939 0.000000
# 6 0.000000 0.000000 0.000000 -0.004144 0.000000 0.024656
#
#
# Mechanical properties :
#
#
# Convention : Reuss Voigt Hill
#
# Bulk Modulus (GPa) = 25.33795 44.79062 35.06428
# Shear Modulus (GPa) = 26.72445 35.42117 31.07281
#
# Velocity S-wave (km/s) = 3.36449 3.87343 3.62790
# Velocity P-wave (km/s) = 5.08188 6.24314 5.69220
#
# Compressibility (1/GPa) = 0.03946649
#
# Stress axis : x y z
#
# Youngs Moduli (GPa) = 137.09815 99.07158 26.44168
#
# Poissons Ratio (x) = 0.16514 -0.00433
# Poissons Ratio (y) = 0.22852 0.16836
# Poissons Ratio (z) = -0.02245 0.63080
#
# Static dielectric constant tensor:
#      x y z
#    x 2.026100 0.000000 -0.017500 
#    y 0.000000 1.863960 0.000000 
#    z -0.017500 0.000000 1.986900 
# 
# From -- ./inp_files/7666.got.cif
#   From: 2010.05.17/outbox.cif.g08.bks.cpg/sg9_4_cif.got.tgz:7666.got - 2010.06.03 20:04:27.
