data_PCOD9139752
_publ_section_title
;
Structure prediction by ZEFSAII (Michael W. Deem and Ramdas Pophale) SiO2 
 PCOD9139752
Probable space group: C C
;
_chemical_formula_sum "Si O2"
_cell_formula_units_Z 32
_cell_length_a 21.620324
_cell_length_b 7.624783
_cell_length_c 8.650477
_cell_angle_alpha 90.000000
_cell_angle_beta 56.177454
_cell_angle_gamma 90.000000
_cell_volume 1184.699474
_symmetry_space_group_name_H-M "C C"
_symmetry_group_IT_number 9
_symmetry_cell_setting 'monoclinic'
loop_
_space_group_symop_operation_xyz
x,y,z
x,-y,1/2+z
1/2+x,1/2+y,z
1/2+x,1/2-y,1/2+z
loop_
_atom_site_type_symbol
_atom_site_label
_atom_site_fract_x
_atom_site_fract_y
_atom_site_fract_z
Si Si1 0.360580 0.546913 0.711370
Si Si2 0.428916 0.932070 0.358629
Si Si3 0.670080 0.030868 0.825556
Si Si4 0.728772 0.231464 0.030866
Si Si5 0.099328 0.935161 0.130682
Si Si6 0.008929 0.143567 0.061305
Si Si7 0.016340 0.664239 0.042675
Si Si8 0.799510 0.776129 0.000728
O O1 0.313987 0.697593 0.867228
O O2 0.445788 0.510839 0.634199
O O3 0.319154 0.365240 0.812077
O O4 0.346981 0.597490 0.553245
O O5 0.459497 0.809570 0.176574
O O6 0.462338 0.853701 0.470269
O O7 0.339546 0.908907 0.474936
O O8 0.465517 0.114827 0.261566
O O9 0.685623 0.090676 0.978704
O O10 0.582911 0.025308 0.917499
O O11 0.716118 0.183132 0.668454
O O12 0.706244 0.846186 0.726594
O O13 0.686398 0.409634 0.045079
O O14 0.055407 0.864705 0.340197
O O15 0.070934 0.822053 0.022175
O O16 0.066369 0.120087 0.124606
#
# Coordination Sequence:
#
# PCOD9139752 Si02
#       8
#     4   4   4   4   4   4   4   4
#     4   9  17  32  54  80 111 146 188 233 285 345
#     4  11  22  36  58  89 121 153 197 246 296 349
#     4   9  17  32  54  80 110 146 189 233 284 345
#     4   9  18  32  54  83 112 144 190 242 286 339
#     4  11  22  36  58  89 120 153 198 246 296 349
#     4  11  21  36  58  88 118 153 197 247 294 350
#     4  11  21  36  58  87 120 157 195 244 295 351
#     4   9  18  32  54  82 112 144 190 243 286 338
#
# _framework density 27.01107
#
# number of rings (size 3 to 8) (size 9 to 14) (size 15 to 20)
#    0.000    2.000    0.000    6.000    0.000    0.000 
#    0.000    0.000    0.000   24.000    0.000    0.000 
#    0.000    0.000    0.000    0.000    0.000    0.000 
#
# Total GULP energy -89333.017111 kJ/mol
# GULP energy per Si atom -5583.313569 kJ/mol
# Density = 2.694959 g / cm^3
# Si number density = 27.011070 Si / 1000 Ang^3
#
#
#
# Elastic Constant Matrix: (Units=GPa)
#
#
# Indices 1 2 3 4 5 6 
#
# 1 150.2803 13.1875 31.9105 0.0000 -29.1023 0.0000
# 2 13.1875 31.7079 -11.8271 0.0000 -1.9941 0.0000
# 3 31.9105 -11.8271 79.4718 0.0000 -1.2203 0.0000
# 4 0.0000 0.0000 0.0000 31.3935 0.0000 -1.1947
# 5 -29.1023 -1.9941 -1.2203 0.0000 50.1727 0.0000
# 6 0.0000 0.0000 0.0000 -1.1947 0.0000 36.8106
#
#
#
# Elastic Compliance Matrix: (Units=1/GPa)
#
#
# Indices 1 2 3 4 5 6 
#
# 1 0.008944 -0.005002 -0.004261 0.000000 0.004885 0.000000
# 2 -0.005002 0.036294 0.007390 0.000000 -0.001279 0.000000
# 3 -0.004261 0.007390 0.015366 0.000000 -0.001804 0.000000
# 4 0.000000 0.000000 0.000000 0.031893 0.000000 0.001035
# 5 0.004885 -0.001279 -0.001804 0.000000 0.022670 0.000000
# 6 0.000000 0.000000 0.000000 0.001035 0.000000 0.027200
#
#
# Mechanical properties :
#
#
# Convention : Reuss Voigt Hill
#
# Bulk Modulus (GPa) = 17.58721 36.44464 27.01592
# Shear Modulus (GPa) = 30.29105 38.88794 34.58950
#
# Velocity S-wave (km/s) = 3.35241 3.79846 3.58238
# Velocity P-wave (km/s) = 4.63790 5.72359 5.20911
#
# Compressibility (1/GPa) = 0.05685952
#
# Stress axis : x y z
#
# Youngs Moduli (GPa) = 111.80742 27.55252 65.07883
#
# Poissons Ratio (x) = 0.13781 0.27728
# Poissons Ratio (y) = 0.55924 -0.48094
# Poissons Ratio (z) = 0.47637 -0.20362
#
# Static dielectric constant tensor:
#      x y z
#    x 2.103650 0.000000 0.000130 
#    y 0.000000 2.445140 0.000000 
#    z 0.000130 0.000000 2.048660 
# 
# From -- ./inp_files/12064.got.cif
#   From: 2010.05.17/outbox.cif.g08.bks.cpg/sg9_7_cif.got.tgz:12064.got - 2010.06.03 20:04:27.
