data_PCOD9139327
_publ_section_title
;
Structure prediction by ZEFSAII (Michael W. Deem and Ramdas Pophale) SiO2 
 PCOD9139327
Probable space group: C C
;
_chemical_formula_sum "Si O2"
_cell_formula_units_Z 32
_cell_length_a 7.730885
_cell_length_b 17.367986
_cell_length_c 10.458967
_cell_angle_alpha 90.000000
_cell_angle_beta 75.110526
_cell_angle_gamma 90.000000
_cell_volume 1357.171900
_symmetry_space_group_name_H-M "C C"
_symmetry_group_IT_number 9
_symmetry_cell_setting 'monoclinic'
loop_
_space_group_symop_operation_xyz
x,y,z
x,-y,1/2+z
1/2+x,1/2+y,z
1/2+x,1/2-y,1/2+z
loop_
_atom_site_type_symbol
_atom_site_label
_atom_site_fract_x
_atom_site_fract_y
_atom_site_fract_z
Si Si1 0.303270 0.857536 0.472310
Si Si2 0.954435 0.214250 0.114104
Si Si3 0.861725 0.972845 0.291684
Si Si4 0.637054 0.332097 0.849108
Si Si5 0.825316 0.080963 0.528469
Si Si6 0.952666 0.622269 0.664033
Si Si7 0.748742 0.475197 0.683033
Si Si8 0.694235 0.172927 0.962588
O O1 0.388385 0.875105 0.321007
O O2 0.220246 0.932980 0.553624
O O3 0.479375 0.832743 0.518535
O O4 0.139684 0.798317 0.501156
O O5 0.875051 0.300254 0.120013
O O6 0.014471 0.192139 0.247717
O O7 0.801216 0.165517 0.074591
O O8 0.831359 0.978278 0.145799
O O9 0.772625 0.894996 0.359406
O O10 0.794607 0.039692 0.398494
O O11 0.076693 0.976828 0.262001
O O12 0.762059 0.402700 0.777561
O O13 0.725147 0.254785 0.885545
O O14 0.505093 0.369776 0.978487
O O15 0.661013 0.133956 0.598688
O O16 0.903597 0.536565 0.631312
#
# Coordination Sequence:
#
# PCOD9139327 Si02
#       8
#     4   4   4   4   4   4   4   4
#     4  11  24  49  71 106 157 189 251 321 368 450
#     4  11  26  46  74 108 148 198 252 314 380 449
#     4  11  25  46  75 106 146 197 249 306 380 449
#     4  10  24  50  72 109 151 194 248 321 376 451
#     4  11  25  45  74 105 148 194 245 315 377 446
#     4  12  24  45  70 106 147 193 247 316 371 449
#     4  10  26  44  71 103 151 192 244 313 375 444
#     4  12  24  47  77 109 144 203 252 308 389 444
#
# _framework density 23.578446
#
# number of rings (size 3 to 8) (size 9 to 14) (size 15 to 20)
#    0.000    1.000    2.500    2.250   10.500    1.000 
#    4.500    0.000    0.000    0.000    0.000    0.000 
#    0.000    0.000    0.000    0.000    0.000    0.000 
#
# Total GULP energy -89335.206965 kJ/mol
# GULP energy per Si atom -5583.450435 kJ/mol
# Density = 2.352478 g / cm^3
# Si number density = 23.578446 Si / 1000 Ang^3
#
#
#
# Elastic Constant Matrix: (Units=GPa)
#
#
# Indices 1 2 3 4 5 6 
#
# 1 59.7038 7.6389 1.4777 0.0000 0.4743 0.0000
# 2 7.6389 125.6977 13.2170 0.0000 -8.3746 0.0000
# 3 1.4777 13.2170 87.4771 0.0000 -9.8099 0.0000
# 4 0.0000 0.0000 0.0000 13.0170 0.0000 -7.1612
# 5 0.4743 -8.3746 -9.8099 0.0000 37.9332 0.0000
# 6 0.0000 0.0000 0.0000 -7.1612 0.0000 36.5225
#
#
#
# Elastic Compliance Matrix: (Units=1/GPa)
#
#
# Indices 1 2 3 4 5 6 
#
# 1 0.016891 -0.001040 -0.000183 0.000000 -0.000488 0.000000
# 2 -0.001040 0.008233 -0.001052 0.000000 0.001559 0.000000
# 3 -0.000183 -0.001052 0.011913 0.000000 0.002851 0.000000
# 4 0.000000 0.000000 0.000000 0.086111 0.000000 0.016884
# 5 -0.000488 0.001559 0.002851 0.000000 0.027450 0.000000
# 6 0.000000 0.000000 0.000000 0.016884 0.000000 0.030691
#
#
# Mechanical properties :
#
#
# Convention : Reuss Voigt Hill
#
# Bulk Modulus (GPa) = 30.78001 35.28285 33.03143
# Shear Modulus (GPa) = 25.42364 34.19755 29.81059
#
# Velocity S-wave (km/s) = 3.28725 3.81251 3.55958
# Velocity P-wave (km/s) = 5.24315 5.86317 5.56181
#
# Compressibility (1/GPa) = 0.03248862
#
# Stress axis : x y z
#
# Youngs Moduli (GPa) = 59.20387 121.45934 83.94009
#
# Poissons Ratio (x) = 0.12629 0.01536
# Poissons Ratio (y) = 0.06156 0.08827
# Poissons Ratio (z) = 0.01083 0.12773
#
# Static dielectric constant tensor:
#      x y z
#    x 1.943720 0.000000 0.044540 
#    y 0.000000 1.914240 0.000000 
#    z 0.044540 0.000000 1.895950 
# 
# From -- ./inp_files/15036.got.cif
#   From: 2010.05.17/outbox.cif.g08.bks.cpg/sg9_8_cif.got.tgz:15036.got - 2010.06.03 20:04:27.
