data_PCOD9139590
_publ_section_title
;
Structure prediction by ZEFSAII (Michael W. Deem and Ramdas Pophale) SiO2 
 PCOD9139590
Probable space group: C C
;
_chemical_formula_sum "Si O2"
_cell_formula_units_Z 20
_cell_length_a 7.101412
_cell_length_b 16.130814
_cell_length_c 7.459888
_cell_angle_alpha 90.000000
_cell_angle_beta 104.245377
_cell_angle_gamma 90.000000
_cell_volume 828.265275
_symmetry_space_group_name_H-M "C C"
_symmetry_group_IT_number 9
_symmetry_cell_setting 'monoclinic'
loop_
_space_group_symop_operation_xyz
x,y,z
x,-y,1/2+z
1/2+x,1/2+y,z
1/2+x,1/2-y,1/2+z
loop_
_atom_site_type_symbol
_atom_site_label
_atom_site_fract_x
_atom_site_fract_y
_atom_site_fract_z
Si Si1 0.886320 0.477792 0.260470
Si Si2 0.021003 0.346311 0.541756
Si Si3 0.287310 0.414234 0.303941
Si Si4 0.292260 0.680869 0.424160
Si Si5 0.104601 0.941412 0.901002
O O1 0.475268 0.472987 0.378167
O O2 0.908079 0.430119 0.457297
O O3 0.106850 0.478993 0.247592
O O4 0.742028 0.425567 0.103503
O O5 0.207042 0.355490 0.446360
O O6 0.100697 0.328807 0.758847
O O7 0.872678 0.273066 0.460476
O O8 0.288672 0.363986 0.117976
O O9 0.758777 0.443521 0.778128
O O10 0.453086 0.630726 0.351301
#
# Coordination Sequence:
#
# PCOD9139590 Si02
#       5
#     4   4   4   4   4
#     4  10  26  45  73 108 146 191 242 300 369 423
#     4  10  27  48  73 106 148 190 246 301 367 433
#     4  10  27  47  73 110 147 188 248 302 359 443
#     4  12  25  50  74 106 150 194 244 304 366 438
#     4  12  23  46  77 104 149 189 244 299 367 431
#
# _framework density 24.146856
#
# number of rings (size 3 to 8) (size 9 to 14) (size 15 to 20)
#    1.200    0.000    2.000    2.400    5.600    1.600 
#    3.600    0.000    0.000    0.000    0.000    0.000 
#    0.000    0.000    0.000    0.000    0.000    0.000 
#
# Total GULP energy -55773.108149 kJ/mol
# GULP energy per Si atom -5577.310815 kJ/mol
# Density = 2.409190 g / cm^3
# Si number density = 24.146856 Si / 1000 Ang^3
#
#
#
# Elastic Constant Matrix: (Units=GPa)
#
#
# Indices 1 2 3 4 5 6 
#
# 1 130.5571 14.5884 26.6874 0.0000 14.1335 0.0000
# 2 14.5884 42.5590 -0.6616 0.0000 2.9363 0.0000
# 3 26.6874 -0.6616 138.5684 0.0000 28.5868 0.0000
# 4 0.0000 0.0000 0.0000 33.4769 0.0000 11.5722
# 5 14.1335 2.9363 28.5868 0.0000 41.7702 0.0000
# 6 0.0000 0.0000 0.0000 11.5722 0.0000 25.9514
#
#
#
# Elastic Compliance Matrix: (Units=1/GPa)
#
#
# Indices 1 2 3 4 5 6 
#
# 1 0.008423 -0.002784 -0.001267 0.000000 -0.001787 0.000000
# 2 -0.002784 0.024565 0.000949 0.000000 -0.001435 0.000000
# 3 -0.001267 0.000949 0.008605 0.000000 -0.005528 0.000000
# 4 0.000000 0.000000 0.000000 0.035315 0.000000 -0.015748
# 5 -0.001787 -0.001435 -0.005528 0.000000 0.028429 0.000000
# 6 0.000000 0.000000 0.000000 -0.015748 0.000000 0.045556
#
#
# Mechanical properties :
#
#
# Convention : Reuss Voigt Hill
#
# Bulk Modulus (GPa) = 28.25565 43.65697 35.95631
# Shear Modulus (GPa) = 29.60474 38.31106 33.95790
#
# Velocity S-wave (km/s) = 3.50527 3.98752 3.75414
# Velocity P-wave (km/s) = 5.30184 6.27052 5.80642
#
# Compressibility (1/GPa) = 0.03539116
#
# Stress axis : x y z
#
# Youngs Moduli (GPa) = 118.72311 40.70885 116.20489
#
# Poissons Ratio (x) = 0.11332 0.14720
# Poissons Ratio (y) = 0.33048 -0.11032
# Poissons Ratio (z) = 0.15039 -0.03865
#
# Static dielectric constant tensor:
#      x y z
#    x 1.897990 0.000000 -0.091890 
#    y 0.000000 1.969570 0.000000 
#    z -0.091890 0.000000 2.017080 
# 
# From -- ./inp_files/3738.got.cif
#   From: 2010.05.17/outbox.cif.g08.bks.cpg/sg9_2_cif.got.tgz:3738.got - 2010.06.03 20:04:27.
