data_PCOD9139537
_publ_section_title
;
Structure prediction by ZEFSAII (Michael W. Deem and Ramdas Pophale) SiO2 
 PCOD9139537
Probable space group: C C
;
_chemical_formula_sum "Si O2"
_cell_formula_units_Z 20
_cell_length_a 20.995838
_cell_length_b 4.283990
_cell_length_c 7.951713
_cell_angle_alpha 90.000000
_cell_angle_beta 113.953561
_cell_angle_gamma 90.000000
_cell_volume 653.625627
_symmetry_space_group_name_H-M "C C"
_symmetry_group_IT_number 9
_symmetry_cell_setting 'monoclinic'
loop_
_space_group_symop_operation_xyz
x,y,z
x,-y,1/2+z
1/2+x,1/2+y,z
1/2+x,1/2-y,1/2+z
loop_
_atom_site_type_symbol
_atom_site_label
_atom_site_fract_x
_atom_site_fract_y
_atom_site_fract_z
Si Si1 0.715960 0.719919 0.717880
Si Si2 0.915865 0.774651 0.392461
Si Si3 0.609961 0.782403 0.106016
Si Si4 0.818359 0.329089 0.059262
Si Si5 0.512231 0.761413 0.280448
O O1 0.660792 0.473333 0.580973
O O2 0.767563 0.850578 0.631018
O O3 0.665649 0.976893 0.740832
O O4 0.766414 0.541920 0.897639
O O5 0.859906 0.889246 0.472015
O O6 0.871451 0.541993 0.227702
O O7 0.067257 0.888885 0.708872
O O8 0.964285 0.023104 0.341146
O O9 0.463733 0.909222 0.080933
O O10 0.557657 0.985746 0.932136
#
# Coordination Sequence:
#
# PCOD9139537 Si02
#       5
#     4   4   4   4   4
#     4  11  25  49  82 119 159 214 278 344 413 489
#     4  11  27  50  79 120 168 222 276 342 418 500
#     4  12  27  50  82 119 163 215 274 344 414 493
#     4  10  25  49  82 118 164 215 276 344 413 493
#     4  12  28  50  79 118 170 220 276 342 418 503
#
# _framework density 30.598557
#
# number of rings (size 3 to 8) (size 9 to 14) (size 15 to 20)
#    0.000    0.800    0.000    4.800    0.000   17.600 
#    0.000    0.000    0.000    0.000    0.000    0.000 
#    0.000    0.000    0.000    0.000    0.000    0.000 
#
# Total GULP energy -55922.408251 kJ/mol
# GULP energy per Si atom -5592.240825 kJ/mol
# Density = 3.052891 g / cm^3
# Si number density = 30.598557 Si / 1000 Ang^3
#
#
#
# Elastic Constant Matrix: (Units=GPa)
#
#
# Indices 1 2 3 4 5 6 
#
# 1 294.7987 88.6050 68.5668 0.0000 -40.3717 0.0000
# 2 88.6050 117.6759 81.8216 0.0000 20.5166 0.0000
# 3 68.5668 81.8216 268.2647 0.0000 59.4369 0.0000
# 4 0.0000 0.0000 0.0000 81.2200 0.0000 21.6886
# 5 -40.3717 20.5166 59.4369 0.0000 56.1894 0.0000
# 6 0.0000 0.0000 0.0000 21.6886 0.0000 91.7728
#
#
#
# Elastic Compliance Matrix: (Units=1/GPa)
#
#
# Indices 1 2 3 4 5 6 
#
# 1 0.006605 -0.005049 -0.002100 0.000000 0.008811 0.000000
# 2 -0.005049 0.014660 -0.001556 0.000000 -0.007335 0.000000
# 3 -0.002100 -0.001556 0.006462 0.000000 -0.007776 0.000000
# 4 0.000000 0.000000 0.000000 0.013142 0.000000 -0.003106
# 5 0.008811 -0.007335 -0.007776 0.000000 0.035031 0.000000
# 6 0.000000 0.000000 0.000000 -0.003106 0.000000 0.011630
#
#
# Mechanical properties :
#
#
# Convention : Reuss Voigt Hill
#
# Bulk Modulus (GPa) = 96.92939 128.74734 112.83837
# Shear Modulus (GPa) = 46.13440 75.28616 60.71028
#
# Velocity S-wave (km/s) = 3.88716 4.96567 4.45914
# Velocity P-wave (km/s) = 7.20370 8.66284 7.96675
#
# Compressibility (1/GPa) = 0.01031679
#
# Stress axis : x y z
#
# Youngs Moduli (GPa) = 151.40676 68.21257 154.75158
#
# Poissons Ratio (x) = 0.34439 0.32503
# Poissons Ratio (y) = 0.76443 0.24077
# Poissons Ratio (z) = 0.31800 0.10613
#
# Static dielectric constant tensor:
#      x y z
#    x 2.456220 0.000000 0.056800 
#    y 0.000000 2.359220 0.000000 
#    z 0.056800 0.000000 2.343670 
# 
# From -- ./inp_files/11096.got.cif
#   From: 2010.05.17/outbox.cif.g08.bks.cpg/sg9_6_cif.got.tgz:11096.got - 2010.06.03 20:04:27.
