data_PCOD9139893
_publ_section_title
;
Structure prediction by ZEFSAII (Michael W. Deem and Ramdas Pophale) SiO2 
 PCOD9139893
Probable space group: C C
;
_chemical_formula_sum "Si O2"
_cell_formula_units_Z 32
_cell_length_a 20.825286
_cell_length_b 11.036650
_cell_length_c 15.660465
_cell_angle_alpha 90.000000
_cell_angle_beta 26.290089
_cell_angle_gamma 90.000000
_cell_volume 1594.242473
_symmetry_space_group_name_H-M "C C"
_symmetry_group_IT_number 9
_symmetry_cell_setting 'monoclinic'
loop_
_space_group_symop_operation_xyz
x,y,z
x,-y,1/2+z
1/2+x,1/2+y,z
1/2+x,1/2-y,1/2+z
loop_
_atom_site_type_symbol
_atom_site_label
_atom_site_fract_x
_atom_site_fract_y
_atom_site_fract_z
Si Si1 0.765260 0.608774 0.847520
Si Si2 0.682212 0.503417 0.771975
Si Si3 0.164152 0.495321 0.290906
Si Si4 0.507928 0.015623 0.151829
Si Si5 0.408063 0.326641 0.567538
Si Si6 0.719205 0.245874 0.642202
Si Si7 0.532035 0.770641 0.206272
Si Si8 0.974537 0.620505 0.367776
O O1 0.734199 0.519910 0.806567
O O2 0.862256 0.722094 0.692230
O O3 0.847026 0.530985 0.821246
O O4 0.616289 0.663301 0.059855
O O5 0.685626 0.365458 0.736656
O O6 0.809995 0.570358 0.567072
O O7 0.530770 0.576629 0.947399
O O8 0.071440 0.454996 0.483743
O O9 0.267421 0.601896 0.202046
O O10 0.246726 0.375351 0.162693
O O11 0.070249 0.543778 0.322238
O O12 0.580658 0.893531 0.102214
O O13 0.521712 0.108479 0.213315
O O14 0.471375 0.252989 0.411679
O O15 0.583204 0.224846 0.742716
O O16 0.859573 0.261222 0.414714
#
# Coordination Sequence:
#
# PCOD9139893 Si02
#       8
#     4   4   4   4   4   4   4   4
#     4  11  22  39  71 104 125 173 232 275 320 392
#     4  11  22  42  66  98 135 170 218 273 334 392
#     4  12  24  43  67  98 135 173 219 273 336 397
#     4  12  22  40  68  97 127 175 222 264 329 398
#     4  11  23  39  70  99 132 163 227 279 327 385
#     4  12  25  42  65  98 139 175 209 275 345 390
#     4  12  22  41  67  97 128 173 230 269 316 401
#     4  11  22  42  68  95 129 178 217 270 331 391
#
# _framework density 20.072230000000001
#
# number of rings (size 3 to 8) (size 9 to 14) (size 15 to 20)
#    0.000    0.500    7.500    3.000    0.000    0.000 
#    0.000    5.000    0.000    0.000    0.000    0.000 
#    0.000    0.000    0.000    0.000    0.000    0.000 
#
# Total GULP energy -89289.742101 kJ/mol
# GULP energy per Si atom -5580.608881 kJ/mol
# Density = 2.002654 g / cm^3
# Si number density = 20.072230 Si / 1000 Ang^3
#
#
#
# Elastic Constant Matrix: (Units=GPa)
#
#
# Indices 1 2 3 4 5 6 
#
# 1 95.9144 24.4677 23.4058 0.0000 7.7706 0.0000
# 2 24.4677 61.0622 7.9529 0.0000 7.8199 0.0000
# 3 23.4058 7.9529 57.7546 0.0000 1.0888 0.0000
# 4 0.0000 0.0000 0.0000 25.0748 0.0000 10.2557
# 5 7.7706 7.8199 1.0888 0.0000 33.8031 0.0000
# 6 0.0000 0.0000 0.0000 10.2557 0.0000 27.2748
#
#
#
# Elastic Compliance Matrix: (Units=1/GPa)
#
#
# Indices 1 2 3 4 5 6 
#
# 1 0.012779 -0.004297 -0.004553 0.000000 -0.001797 0.000000
# 2 -0.004297 0.018620 -0.000760 0.000000 -0.003295 0.000000
# 3 -0.004553 -0.000760 0.019253 0.000000 0.000602 0.000000
# 4 0.000000 0.000000 0.000000 0.047129 0.000000 -0.017721
# 5 -0.001797 -0.003295 0.000602 0.000000 0.030739 0.000000
# 6 0.000000 0.000000 0.000000 -0.017721 0.000000 0.043327
#
#
# Mechanical properties :
#
#
# Convention : Reuss Voigt Hill
#
# Bulk Modulus (GPa) = 31.81662 36.26490 34.04076
# Shear Modulus (GPa) = 24.80836 27.82420 26.31628
#
# Velocity S-wave (km/s) = 3.51943 3.72721 3.62481
# Velocity P-wave (km/s) = 5.69216 6.05221 5.87494
#
# Compressibility (1/GPa) = 0.03143012
#
# Stress axis : x y z
#
# Youngs Moduli (GPa) = 78.25401 53.70648 51.93944
#
# Poissons Ratio (x) = 0.23080 0.23649
# Poissons Ratio (y) = 0.33629 0.03949
# Poissons Ratio (z) = 0.35630 0.04083
#
# Static dielectric constant tensor:
#      x y z
#    x 1.721970 0.000000 0.011820 
#    y 0.000000 1.707050 0.000000 
#    z 0.011820 0.000000 1.746560 
# 
# From -- ./inp_files/9092.got.cif
#   From: 2010.05.17/outbox.cif.g08.bks.cpg/sg9_5_cif.got.tgz:9092.got - 2010.06.03 20:04:27.
