data_PCOD9139442
_publ_section_title
;
Structure prediction by ZEFSAII (Michael W. Deem and Ramdas Pophale) SiO2 
 PCOD9139442
Probable space group: C C
;
_chemical_formula_sum "Si O2"
_cell_formula_units_Z 32
_cell_length_a 10.024115
_cell_length_b 15.210139
_cell_length_c 10.896578
_cell_angle_alpha 90.000000
_cell_angle_beta 58.273365
_cell_angle_gamma 90.000000
_cell_volume 1413.115802
_symmetry_space_group_name_H-M "C C"
_symmetry_group_IT_number 9
_symmetry_cell_setting 'monoclinic'
loop_
_space_group_symop_operation_xyz
x,y,z
x,-y,1/2+z
1/2+x,1/2+y,z
1/2+x,1/2-y,1/2+z
loop_
_atom_site_type_symbol
_atom_site_label
_atom_site_fract_x
_atom_site_fract_y
_atom_site_fract_z
Si Si1 0.757320 0.023501 0.552510
Si Si2 0.776142 0.572196 0.629410
Si Si3 0.957292 0.274729 0.917274
Si Si4 0.944549 0.008409 0.706820
Si Si5 0.567618 0.687882 0.113229
Si Si6 0.392853 0.880512 0.535676
Si Si7 0.472955 0.861383 0.238460
Si Si8 0.147471 0.328810 0.598499
O O1 0.846464 0.005377 0.380303
O O2 0.623522 0.096842 0.597778
O O3 0.860491 0.045182 0.624365
O O4 0.679698 0.929372 0.619115
O O5 0.882906 0.629541 0.484948
O O6 0.598388 0.565059 0.668619
O O7 0.832443 0.472003 0.619180
O O8 0.814877 0.615910 0.741594
O O9 0.081662 0.279112 0.748783
O O10 0.804861 0.214097 0.969250
O O11 0.037762 0.234378 0.998378
O O12 0.998166 0.909572 0.645332
O O13 0.745436 0.677602 0.068596
O O14 0.486791 0.756816 0.244198
O O15 0.476346 0.905156 0.368824
O O16 0.510275 0.830826 0.566172
#
# Coordination Sequence:
#
# PCOD9139442 Si02
#       8
#     4   4   4   4   4   4   4   4
#     4  12  26  46  73 104 150 190 250 297 377 434
#     4  10  25  45  72 102 137 192 236 299 363 433
#     4  11  27  46  76 103 146 191 245 305 369 440
#     4  11  27  46  74 107 144 192 249 308 357 449
#     4  10  26  45  72 105 138 189 240 299 363 437
#     4  11  25  45  71 101 145 182 244 295 370 444
#     4  11  25  43  73  98 143 187 236 295 372 436
#     4  12  27  46  73 108 147 189 246 304 375 433
#
# _framework density 22.644995999999999
#
# number of rings (size 3 to 8) (size 9 to 14) (size 15 to 20)
#    0.000    1.000    2.500    1.500   15.750    2.000 
#    0.000    0.000    0.000    0.000    0.000    0.000 
#    0.000    0.000    0.000    0.000    0.000    0.000 
#
# Total GULP energy -89496.925162 kJ/mol
# GULP energy per Si atom -5593.557823 kJ/mol
# Density = 2.259345 g / cm^3
# Si number density = 22.644996 Si / 1000 Ang^3
#
#
#
# Elastic Constant Matrix: (Units=GPa)
#
#
# Indices 1 2 3 4 5 6 
#
# 1 162.5584 40.3535 18.1760 0.0000 7.9270 0.0000
# 2 40.3535 85.8736 2.3682 0.0000 -9.3606 0.0000
# 3 18.1760 2.3682 67.5126 0.0000 6.8230 0.0000
# 4 0.0000 0.0000 0.0000 27.9254 0.0000 -10.0038
# 5 7.9270 -9.3606 6.8230 0.0000 22.6052 0.0000
# 6 0.0000 0.0000 0.0000 -10.0038 0.0000 35.9079
#
#
#
# Elastic Compliance Matrix: (Units=1/GPa)
#
#
# Indices 1 2 3 4 5 6 
#
# 1 0.007465 -0.003878 -0.001492 0.000000 -0.003773 0.000000
# 2 -0.003878 0.014272 -0.000197 0.000000 0.007329 0.000000
# 3 -0.001492 -0.000197 0.015654 0.000000 -0.004283 0.000000
# 4 0.000000 0.000000 0.000000 0.039780 0.000000 0.011083
# 5 -0.003773 0.007329 -0.004283 0.000000 0.049889 0.000000
# 6 0.000000 0.000000 0.000000 0.011083 0.000000 0.030937
#
#
# Mechanical properties :
#
#
# Convention : Reuss Voigt Hill
#
# Bulk Modulus (GPa) = 38.08812 48.63780 43.36296
# Shear Modulus (GPa) = 28.10836 34.29083 31.19959
#
# Velocity S-wave (km/s) = 3.52698 3.89559 3.71586
# Velocity P-wave (km/s) = 5.78293 6.46214 6.13194
#
# Compressibility (1/GPa) = 0.02625491
#
# Stress axis : x y z
#
# Youngs Moduli (GPa) = 133.95436 70.06821 63.88294
#
# Poissons Ratio (x) = 0.27174 0.09534
# Poissons Ratio (y) = 0.51950 0.01260
# Poissons Ratio (z) = 0.19992 0.01382
#
# Static dielectric constant tensor:
#      x y z
#    x 1.826930 0.000000 -0.017620 
#    y 0.000000 1.817530 0.000000 
#    z -0.017620 0.000000 1.936670 
# 
# From -- ./inp_files/14704.got.cif
#   From: 2010.05.17/outbox.cif.g08.bks.cpg/sg9_8_cif.got.tgz:14704.got - 2010.06.03 20:04:27.
