data_PCOD9139528
_publ_section_title
;
Structure prediction by ZEFSAII (Michael W. Deem and Ramdas Pophale) SiO2 
 PCOD9139528
Probable space group: C C
;
_chemical_formula_sum "Si O2"
_cell_formula_units_Z 20
_cell_length_a 11.019547
_cell_length_b 11.529754
_cell_length_c 8.875795
_cell_angle_alpha 90.000000
_cell_angle_beta 37.312825
_cell_angle_gamma 90.000000
_cell_volume 683.569908
_symmetry_space_group_name_H-M "C C"
_symmetry_group_IT_number 9
_symmetry_cell_setting 'monoclinic'
loop_
_space_group_symop_operation_xyz
x,y,z
x,-y,1/2+z
1/2+x,1/2+y,z
1/2+x,1/2-y,1/2+z
loop_
_atom_site_type_symbol
_atom_site_label
_atom_site_fract_x
_atom_site_fract_y
_atom_site_fract_z
Si Si1 0.615300 0.214874 0.784510
Si Si2 0.365779 0.745532 0.300483
Si Si3 0.143615 0.315485 0.590463
Si Si4 0.506049 0.602701 0.894986
Si Si5 0.367691 0.020110 0.920473
O O1 0.641270 0.246772 0.933201
O O2 0.535439 0.081242 0.859698
O O3 0.872548 0.224453 0.490041
O O4 0.395585 0.635352 0.159147
O O5 0.617952 0.765005 0.087496
O O6 0.341695 0.889295 0.307917
O O7 0.337082 0.393076 0.432262
O O8 0.126961 0.221674 0.739669
O O9 0.954286 0.398999 0.786007
O O10 0.656810 0.497154 0.714817
#
# Coordination Sequence:
#
# PCOD9139528 Si02
#       5
#     4   4   4   4   4
#     4  10  25  49  74 115 164 211 270 338 406 496
#     4  10  25  49  80 110 161 211 270 326 405 493
#     4  12  25  45  81 116 164 210 271 348 406 480
#     4  12  25  49  85 119 159 219 275 339 407 494
#     4  10  28  48  82 112 168 211 280 329 420 487
#
# _framework density 29.258161999999999
#
# number of rings (size 3 to 8) (size 9 to 14) (size 15 to 20)
#    1.200    0.000    2.000    2.400    2.800    1.600 
#    0.000    4.000    4.400    0.000    0.000    0.000 
#    0.000    0.000    0.000    0.000    0.000    0.000 
#
# Total GULP energy -55814.361516 kJ/mol
# GULP energy per Si atom -5581.436152 kJ/mol
# Density = 2.919157 g / cm^3
# Si number density = 29.258162 Si / 1000 Ang^3
#
#
#
# Elastic Constant Matrix: (Units=GPa)
#
#
# Indices 1 2 3 4 5 6 
#
# 1 137.3572 15.1307 66.6059 -0.0016 -11.1395 0.0012
# 2 15.1307 101.2676 56.0448 -0.0004 -10.1048 0.0004
# 3 66.6059 56.0448 241.4181 -0.0013 -25.3863 0.0017
# 4 -0.0016 -0.0004 -0.0013 85.6115 0.0014 -19.6405
# 5 -11.1395 -10.1048 -25.3863 0.0014 65.3150 -0.0014
# 6 0.0012 0.0004 0.0017 -19.6405 -0.0014 42.0806
#
#
#
# Elastic Compliance Matrix: (Units=1/GPa)
#
#
# Indices 1 2 3 4 5 6 
#
# 1 0.008424 0.000058 -0.002279 0.000000 0.000560 0.000000
# 2 0.000058 0.011367 -0.002574 0.000000 0.000768 0.000000
# 3 -0.002279 -0.002574 0.005511 0.000000 0.001355 0.000000
# 4 0.000000 0.000000 0.000000 0.013081 0.000000 0.006106
# 5 0.000560 0.000768 0.001355 0.000000 0.016051 0.000000
# 6 0.000000 0.000000 0.000000 0.006106 0.000000 0.026614
#
#
# Mechanical properties :
#
#
# Convention : Reuss Voigt Hill
#
# Bulk Modulus (GPa) = 63.64056 83.95618 73.79837
# Shear Modulus (GPa) = 52.15043 61.41886 56.78465
#
# Velocity S-wave (km/s) = 4.22646 4.58668 4.41025
# Velocity P-wave (km/s) = 6.75395 7.53707 7.15623
#
# Compressibility (1/GPa) = 0.01571325
#
# Stress axis : x y z
#
# Youngs Moduli (GPa) = 118.70373 87.97064 181.45424
#
# Poissons Ratio (x) = -0.00514 0.41351
# Poissons Ratio (y) = -0.00693 0.46711
# Poissons Ratio (z) = 0.27051 0.22646
#
# Static dielectric constant tensor:
#      x y z
#    x 2.316600 0.000000 -0.122730 
#    y 0.000000 2.158860 0.000000 
#    z -0.122730 0.000000 2.358370 
# 
# From -- ./inp_files/18236.got.cif
#   From: 2010.05.17/outbox.cif.g08.bks.cpg/sg9_10_cif.got.tgz:18236.got - 2010.06.03 20:04:27.
