data_PCOD9139556
_publ_section_title
;
Structure prediction by ZEFSAII (Michael W. Deem and Ramdas Pophale) SiO2 
 PCOD9139556
Probable space group: C C
;
_chemical_formula_sum "Si O2"
_cell_formula_units_Z 24
_cell_length_a 20.600399
_cell_length_b 5.174914
_cell_length_c 10.048367
_cell_angle_alpha 90.000000
_cell_angle_beta 107.807523
_cell_angle_gamma 90.000000
_cell_volume 1019.886674
_symmetry_space_group_name_H-M "C C"
_symmetry_group_IT_number 9
_symmetry_cell_setting 'monoclinic'
loop_
_space_group_symop_operation_xyz
x,y,z
x,-y,1/2+z
1/2+x,1/2+y,z
1/2+x,1/2-y,1/2+z
loop_
_atom_site_type_symbol
_atom_site_label
_atom_site_fract_x
_atom_site_fract_y
_atom_site_fract_z
Si Si1 0.995190 0.761706 0.225310
Si Si2 0.619326 0.510431 0.163472
Si Si3 0.227587 0.671905 0.332512
Si Si4 0.380175 0.562115 0.484107
Si Si5 0.659016 0.023200 0.044203
Si Si6 0.452220 0.950075 0.965050
O O1 0.921672 0.888340 0.146667
O O2 0.996811 0.660968 0.374490
O O3 0.055084 0.949961 0.216173
O O4 0.993540 0.515581 0.124699
O O5 0.689408 0.446322 0.288377
O O6 0.625487 0.775744 0.091466
O O7 0.617784 0.282345 0.050700
O O8 0.302447 0.648576 0.437126
O O9 0.225753 0.561813 0.181160
O O10 0.177738 0.524469 0.404106
O O11 0.394834 0.267074 0.455671
O O12 0.418647 0.771026 0.412818
#
# Coordination Sequence:
#
# PCOD9139556 Si02
#       6
#     4   4   4   4   4   4
#     4  10  26  43  71  95 138 168 226 265 337 382
#     4  10  26  40  70  95 133 172 218 273 326 395
#     4  10  26  42  69  95 137 172 223 272 328 388
#     4  10  26  39  69  95 135 173 219 267 330 384
#     4  10  26  42  67  96 131 175 220 269 328 388
#     4  10  26  42  68  98 132 174 218 274 323 397
#
# _framework density 23.532025000000001
#
# number of rings (size 3 to 8) (size 9 to 14) (size 15 to 20)
#    2.000    0.000    0.000    0.000   14.000    0.000 
#    0.000    0.000    0.000    0.000    0.000    0.000 
#    0.000    0.000    0.000    0.000    0.000    0.000 
#
# Total GULP energy -66924.419026 kJ/mol
# GULP energy per Si atom -5577.034919 kJ/mol
# Density = 2.347847 g / cm^3
# Si number density = 23.532025 Si / 1000 Ang^3
#
#
#
# Elastic Constant Matrix: (Units=GPa)
#
#
# Indices 1 2 3 4 5 6 
#
# 1 73.8573 8.8679 14.6590 0.0000 27.6348 0.0000
# 2 8.8679 105.3382 2.1587 0.0000 9.9174 0.0000
# 3 14.6590 2.1587 80.8192 0.0000 2.7839 0.0000
# 4 0.0000 0.0000 0.0000 22.8930 0.0000 -4.5317
# 5 27.6348 9.9174 2.7839 0.0000 36.5961 0.0000
# 6 0.0000 0.0000 0.0000 -4.5317 0.0000 22.8752
#
#
#
# Elastic Compliance Matrix: (Units=1/GPa)
#
#
# Indices 1 2 3 4 5 6 
#
# 1 0.019600 -0.000222 -0.003049 0.000000 -0.014509 0.000000
# 2 -0.000222 0.009747 -0.000135 0.000000 -0.002464 0.000000
# 3 -0.003049 -0.000135 0.012883 0.000000 0.001359 0.000000
# 4 0.000000 0.000000 0.000000 0.045464 0.000000 0.009007
# 5 -0.014509 -0.002464 0.001359 0.000000 0.038845 0.000000
# 6 0.000000 0.000000 0.000000 0.009007 0.000000 0.045500
#
#
# Mechanical properties :
#
#
# Convention : Reuss Voigt Hill
#
# Bulk Modulus (GPa) = 28.23473 34.59843 31.41658
# Shear Modulus (GPa) = 26.22502 32.09480 29.15991
#
# Velocity S-wave (km/s) = 3.34194 3.69708 3.52399
# Velocity P-wave (km/s) = 5.18806 5.74100 5.47152
#
# Compressibility (1/GPa) = 0.03541737
#
# Stress axis : x y z
#
# Youngs Moduli (GPa) = 51.02031 102.59981 77.62054
#
# Poissons Ratio (x) = 0.02274 0.23669
# Poissons Ratio (y) = 0.01131 0.01050
# Poissons Ratio (z) = 0.15558 0.01388
#
# Static dielectric constant tensor:
#      x y z
#    x 1.888970 0.000000 0.042500 
#    y 0.000000 1.887650 0.000000 
#    z 0.042500 0.000000 1.877510 
# 
# From -- ./inp_files/19537.got.cif
#   From: 2010.05.17/outbox.cif.g08.bks.cpg/sg9_10_cif.got.tgz:19537.got - 2010.06.03 20:04:27.
