data_PCOD9139275
_publ_section_title
;
Structure prediction by ZEFSAII (Michael W. Deem and Ramdas Pophale) SiO2 
 PCOD9139275
Probable space group: C C
;
_chemical_formula_sum "Si O2"
_cell_formula_units_Z 32
_cell_length_a 5.017320
_cell_length_b 12.828909
_cell_length_c 18.333627
_cell_angle_alpha 90.000000
_cell_angle_beta 86.796701
_cell_angle_gamma 90.000000
_cell_volume 1178.232022
_symmetry_space_group_name_H-M "C C"
_symmetry_group_IT_number 9
_symmetry_cell_setting 'monoclinic'
loop_
_space_group_symop_operation_xyz
x,y,z
x,-y,1/2+z
1/2+x,1/2+y,z
1/2+x,1/2-y,1/2+z
loop_
_atom_site_type_symbol
_atom_site_label
_atom_site_fract_x
_atom_site_fract_y
_atom_site_fract_z
Si Si1 0.529940 0.065278 0.744650
Si Si2 0.156355 0.957706 0.859689
Si Si3 0.634514 0.970208 0.454310
Si Si4 0.481275 0.701996 0.971207
Si Si5 0.842820 0.671223 0.601047
Si Si6 0.748172 0.540287 0.075513
Si Si7 0.565058 0.851616 0.683864
Si Si8 0.860756 0.765538 0.322067
O O1 0.254833 0.024973 0.787578
O O2 0.490518 0.131834 0.671571
O O3 0.692541 0.134736 0.799132
O O4 0.675330 0.957623 0.718243
O O5 0.888831 0.983324 0.907999
O O6 0.064326 0.220315 0.886846
O O7 0.178501 0.835709 0.841558
O O8 0.391771 0.014092 0.411941
O O9 0.687355 0.844922 0.456465
O O10 0.545699 0.986787 0.539691
O O11 0.487242 0.801112 0.022742
O O12 0.613736 0.610866 0.016663
O O13 0.637324 0.575464 0.589903
O O14 0.719220 0.783468 0.622436
O O15 0.798302 0.607213 0.146944
O O16 0.520774 0.771218 0.748996
#
# Coordination Sequence:
#
# PCOD9139275 Si02
#       8
#     4   4   4   4   4   4   4   4
#     4  10  24  47  76 109 160 200 262 326 387 464
#     4  11  26  49  75 116 157 209 262 326 388 469
#     4  12  24  48  76 110 162 201 259 331 383 452
#     4  12  25  46  76 113 156 202 265 320 391 463
#     4  11  25  47  76 114 151 212 255 322 398 467
#     4  11  25  51  72 112 158 205 260 333 383 467
#     4  10  24  47  75 112 155 201 267 316 396 470
#     4  11  25  49  76 118 155 212 260 322 398 470
#
# _framework density 27.159336
#
# number of rings (size 3 to 8) (size 9 to 14) (size 15 to 20)
#    0.000    1.000    3.750    1.500    1.750    3.000 
#   11.250    0.000    0.000    0.000    0.000    0.000 
#    0.000    0.000    0.000    0.000    0.000    0.000 
#
# Total GULP energy -89475.621909 kJ/mol
# GULP energy per Si atom -5592.226369 kJ/mol
# Density = 2.709752 g / cm^3
# Si number density = 27.159336 Si / 1000 Ang^3
#
#
#
# Elastic Constant Matrix: (Units=GPa)
#
#
# Indices 1 2 3 4 5 6 
#
# 1 103.3144 45.6058 57.8900 0.0000 5.8444 0.0000
# 2 45.6058 186.0488 53.7966 0.0000 21.6867 0.0000
# 3 57.8900 53.7966 181.0799 0.0000 35.6119 0.0000
# 4 0.0000 0.0000 0.0000 63.8501 0.0000 15.4196
# 5 5.8444 21.6867 35.6119 0.0000 45.6522 0.0000
# 6 0.0000 0.0000 0.0000 15.4196 0.0000 28.6473
#
#
#
# Elastic Compliance Matrix: (Units=1/GPa)
#
#
# Indices 1 2 3 4 5 6 
#
# 1 0.012719 -0.002287 -0.003875 0.000000 0.002481 0.000000
# 2 -0.002287 0.006404 -0.000745 0.000000 -0.002168 0.000000
# 3 -0.003875 -0.000745 0.008050 0.000000 -0.005430 0.000000
# 4 0.000000 0.000000 0.000000 0.018002 0.000000 -0.009689
# 5 0.002481 -0.002168 -0.005430 0.000000 0.026853 0.000000
# 6 0.000000 0.000000 0.000000 -0.009689 0.000000 0.040123
#
#
# Mechanical properties :
#
#
# Convention : Reuss Voigt Hill
#
# Bulk Modulus (GPa) = 74.84772 87.22533 81.03653
# Shear Modulus (GPa) = 38.33859 48.50665 43.42262
#
# Velocity S-wave (km/s) = 3.76123 4.23070 4.00285
# Velocity P-wave (km/s) = 6.81770 7.48672 7.16003
#
# Compressibility (1/GPa) = 0.01336046
#
# Stress axis : x y z
#
# Youngs Moduli (GPa) = 78.61995 156.16226 124.21776
#
# Poissons Ratio (x) = 0.35708 0.48132
# Poissons Ratio (y) = 0.17977 0.09255
# Poissons Ratio (z) = 0.30464 0.11635
#
# Static dielectric constant tensor:
#      x y z
#    x 2.188060 0.000000 -0.033540 
#    y 0.000000 2.146310 0.000000 
#    z -0.033540 0.000000 2.190890 
# 
# From -- ./inp_files/34801.got.cif
#   From: 2010.05.17/outbox.cif.g08.bks.cpg/sg9_18_cif.got.tgz:34801.got - 2010.06.03 20:04:27.
