data_PCOD9139462
_publ_section_title
;
Structure prediction by ZEFSAII (Michael W. Deem and Ramdas Pophale) SiO2 
 PCOD9139462
Probable space group: C C
;
_chemical_formula_sum "Si O2"
_cell_formula_units_Z 20
_cell_length_a 19.028305
_cell_length_b 4.935233
_cell_length_c 9.459960
_cell_angle_alpha 90.000000
_cell_angle_beta 67.343392
_cell_angle_gamma 90.000000
_cell_volume 819.820567
_symmetry_space_group_name_H-M "C C"
_symmetry_group_IT_number 9
_symmetry_cell_setting 'monoclinic'
loop_
_space_group_symop_operation_xyz
x,y,z
x,-y,1/2+z
1/2+x,1/2+y,z
1/2+x,1/2-y,1/2+z
loop_
_atom_site_type_symbol
_atom_site_label
_atom_site_fract_x
_atom_site_fract_y
_atom_site_fract_z
Si Si1 0.445470 0.316942 0.645990
Si Si2 0.391431 0.192235 0.008757
Si Si3 0.217414 0.963229 0.642484
Si Si4 0.632982 0.070115 0.316823
Si Si5 0.586488 0.694632 0.589726
O O1 0.424889 0.258476 0.826849
O O2 0.393265 0.540904 0.606507
O O3 0.526579 0.475205 0.585709
O O4 0.433885 0.042704 0.565323
O O5 0.305084 0.092579 0.055137
O O6 0.172632 0.691131 0.716449
O O7 0.197852 0.200712 0.770257
O O8 0.171693 0.081090 0.544228
O O9 0.570252 0.198096 0.259957
O O10 0.595514 0.950825 0.483616
#
# Coordination Sequence:
#
# PCOD9139462 Si02
#       5
#     4   4   4   4   4
#     4  12  30  53  82 117 173 216 269 341 411 504
#     4  12  29  54  81 121 167 219 272 334 425 485
#     4  10  26  47  82 114 158 212 270 341 391 494
#     4  10  25  45  82 113 155 203 278 337 388 476
#     4  10  28  49  81 117 159 212 275 331 405 479
#
# _framework density 24.395582000000001
#
# number of rings (size 3 to 8) (size 9 to 14) (size 15 to 20)
#    1.200    0.000    0.000    2.400   11.200    3.200 
#    0.000    0.000    0.000    0.000    0.000    0.000 
#    0.000    0.000    0.000    0.000    0.000    0.000 
#
# Total GULP energy -55913.232639 kJ/mol
# GULP energy per Si atom -5591.323264 kJ/mol
# Density = 2.434006 g / cm^3
# Si number density = 24.395582 Si / 1000 Ang^3
#
#
#
# Elastic Constant Matrix: (Units=GPa)
#
#
# Indices 1 2 3 4 5 6 
#
# 1 134.6272 35.6042 37.3692 0.0000 -0.4079 0.0000
# 2 35.6042 186.8545 68.7788 0.0000 5.5528 0.0000
# 3 37.3692 68.7788 150.9553 0.0000 20.2781 0.0000
# 4 0.0000 0.0000 0.0000 106.1615 0.0000 102.8231
# 5 -0.4079 5.5528 20.2781 0.0000 21.8433 0.0000
# 6 0.0000 0.0000 0.0000 102.8231 0.0000 229.3602
#
#
#
# Elastic Compliance Matrix: (Units=1/GPa)
#
#
# Indices 1 2 3 4 5 6 
#
# 1 0.008207 -0.000929 -0.001897 0.000000 0.002151 0.000000
# 2 -0.000929 0.006565 -0.002896 0.000000 0.001002 0.000000
# 3 -0.001897 -0.002896 0.009505 0.000000 -0.008123 0.000000
# 4 0.000000 0.000000 0.000000 0.016648 0.000000 -0.007464
# 5 0.002151 0.001002 -0.008123 0.000000 0.053107 0.000000
# 6 0.000000 0.000000 0.000000 -0.007464 0.000000 0.007706
#
#
# Mechanical properties :
#
#
# Convention : Reuss Voigt Hill
#
# Bulk Modulus (GPa) = 77.92951 83.99349 80.96150
# Shear Modulus (GPa) = 42.56794 93.51864 68.04329
#
# Velocity S-wave (km/s) = 4.18174 6.19818 5.28698
# Velocity P-wave (km/s) = 7.43837 9.25893 8.39813
#
# Compressibility (1/GPa) = 0.01283211
#
# Stress axis : x y z
#
# Youngs Moduli (GPa) = 121.85008 152.32453 105.21238
#
# Poissons Ratio (x) = 0.14157 0.19959
# Poissons Ratio (y) = 0.11325 0.30466
# Poissons Ratio (z) = 0.23116 0.44108
#
# Static dielectric constant tensor:
#      x y z
#    x 1.928940 0.000000 0.011810 
#    y 0.000000 1.938410 0.000000 
#    z 0.011810 0.000000 2.007430 
# 
# From -- ./inp_files/10236.got.cif
#   From: 2010.05.17/outbox.cif.g08.bks.cpg/sg9_6_cif.got.tgz:10236.got - 2010.06.03 20:04:27.
