data_PCOD9139023
_publ_section_title
;
Structure prediction by ZEFSAII (Michael W. Deem and Ramdas Pophale) SiO2 
 PCOD9139023
Probable space group: C C
;
_chemical_formula_sum "Si O2"
_cell_formula_units_Z 28
_cell_length_a 22.281072
_cell_length_b 5.349377
_cell_length_c 25.918079
_cell_angle_alpha 90.000000
_cell_angle_beta 19.569715
_cell_angle_gamma 90.000000
_cell_volume 1034.729229
_symmetry_space_group_name_H-M "C C"
_symmetry_group_IT_number 9
_symmetry_cell_setting 'monoclinic'
loop_
_space_group_symop_operation_xyz
x,y,z
x,-y,1/2+z
1/2+x,1/2+y,z
1/2+x,1/2-y,1/2+z
loop_
_atom_site_type_symbol
_atom_site_label
_atom_site_fract_x
_atom_site_fract_y
_atom_site_fract_z
Si Si1 0.020240 0.038405 0.985450
Si Si2 0.044474 0.243773 0.862291
Si Si3 0.241288 0.777836 0.025468
Si Si4 0.377665 0.314999 0.710232
Si Si5 0.505307 0.875365 0.270194
Si Si6 0.234159 0.241958 0.177678
Si Si7 0.751202 0.965916 0.916321
O O1 0.227745 0.096046 0.828569
O O2 0.973799 0.236081 0.977576
O O3 0.912999 0.067384 0.125694
O O4 0.940942 0.790422 0.023501
O O5 0.170198 0.003993 0.757280
O O6 0.133330 0.505980 0.777785
O O7 0.898003 0.185318 0.937303
O O8 0.324846 0.054965 0.948836
O O9 0.224568 0.680908 0.980100
O O10 0.077827 0.635193 0.186818
O O11 0.570808 0.196983 0.566086
O O12 0.297942 0.504572 0.818003
O O13 0.659655 0.742865 0.179304
O O14 0.426795 0.685709 0.292400
#
# Coordination Sequence:
#
# PCOD9139023 Si02
#       7
#     4   4   4   4   4   4   4
#     4  11  22  47  71 107 148 198 257 303 382 450
#     4  11  24  45  76 114 150 192 241 321 383 456
#     4  11  24  42  70 111 147 186 248 323 393 452
#     4  10  24  43  75 100 148 204 247 315 361 470
#     4  11  24  42  70 113 143 196 244 321 393 454
#     4  11  24  45  76 114 152 189 246 313 388 452
#     4  11  22  46  74  99 148 189 257 304 382 454
#
# _framework density 27.060222
#
# number of rings (size 3 to 8) (size 9 to 14) (size 15 to 20)
#    0.000    1.143    5.714    0.000    2.000    1.143 
#    2.571    5.714    0.000    0.000    0.000    0.000 
#    0.000    0.000    0.000    0.000    0.000    0.000 
#
# Total GULP energy -78232.003953 kJ/mol
# GULP energy per Si atom -5588.000282 kJ/mol
# Density = 2.699863 g / cm^3
# Si number density = 27.060222 Si / 1000 Ang^3
#
#
#
# Elastic Constant Matrix: (Units=GPa)
#
#
# Indices 1 2 3 4 5 6 
#
# 1 160.0028 9.4684 52.5878 0.1309 10.8808 0.0372
# 2 9.4684 81.2655 26.6669 0.2717 7.6526 -0.2551
# 3 52.5878 26.6669 130.0675 -0.2149 19.6825 0.2351
# 4 0.1309 0.2717 -0.2149 21.8513 -0.0473 6.8383
# 5 10.8808 7.6526 19.6825 -0.0473 56.9938 -0.0073
# 6 0.0372 -0.2551 0.2351 6.8383 -0.0073 14.9907
#
#
#
# Elastic Compliance Matrix: (Units=1/GPa)
#
#
# Indices 1 2 3 4 5 6 
#
# 1 0.007218 0.000145 -0.002888 -0.000098 -0.000400 0.000074
# 2 0.000145 0.013241 -0.002639 -0.000323 -0.000894 0.000413
# 3 -0.002888 -0.002639 0.009771 0.000235 -0.002469 -0.000299
# 4 -0.000098 -0.000323 0.000235 0.053396 0.000022 -0.024367
# 5 -0.000400 -0.000894 -0.002469 0.000022 0.018595 0.000023
# 6 0.000074 0.000413 -0.000299 -0.024367 0.000023 0.077835
#
#
# Mechanical properties :
#
#
# Convention : Reuss Voigt Hill
#
# Bulk Modulus (GPa) = 51.37110 60.97576 56.17343
# Shear Modulus (GPa) = 25.34097 37.60802 31.47450
#
# Velocity S-wave (km/s) = 3.06349 3.73203 3.41417
# Velocity P-wave (km/s) = 5.61592 6.41506 6.02875
#
# Compressibility (1/GPa) = 0.01946620
#
# Stress axis : x y z
#
# Youngs Moduli (GPa) = 138.54897 75.52229 102.33920
#
# Poissons Ratio (x) = -0.01094 0.29552
# Poissons Ratio (y) = -0.02007 0.27010
# Poissons Ratio (z) = 0.40008 0.19932
#
# Static dielectric constant tensor:
#      x y z
#    x 2.145010 -0.000100 0.011500 
#    y -0.000100 2.102800 0.000160 
#    z 0.011500 0.000160 2.177750 
# 
# From -- ./inp_files/36154.got.cif
#   From: 2010.05.17/outbox.cif.g08.bks.cpg/sg9_19_cif.got.tgz:36154.got - 2010.06.03 20:04:27.
