data_PCOD9139929
_publ_section_title
;
Structure prediction by ZEFSAII (Michael W. Deem and Ramdas Pophale) SiO2 
 PCOD9139929
Probable space group: C C
;
_chemical_formula_sum "Si O2"
_cell_formula_units_Z 32
_cell_length_a 27.494765
_cell_length_b 6.943975
_cell_length_c 25.148857
_cell_angle_alpha 90.000000
_cell_angle_beta 20.029910
_cell_angle_gamma 90.000000
_cell_volume 1644.562877
_symmetry_space_group_name_H-M "C C"
_symmetry_group_IT_number 9
_symmetry_cell_setting 'monoclinic'
loop_
_space_group_symop_operation_xyz
x,y,z
x,-y,1/2+z
1/2+x,1/2+y,z
1/2+x,1/2-y,1/2+z
loop_
_atom_site_type_symbol
_atom_site_label
_atom_site_fract_x
_atom_site_fract_y
_atom_site_fract_z
Si Si1 0.452570 0.033396 0.785890
Si Si2 0.200360 0.661635 0.366223
Si Si3 0.393730 0.101275 0.725544
Si Si4 0.808246 0.461339 0.709590
Si Si5 0.483069 0.690263 0.835208
Si Si6 0.659633 0.305031 0.630345
Si Si7 0.688500 0.968385 0.683073
Si Si8 0.634488 0.871047 0.351592
O O1 0.423621 0.025822 0.753063
O O2 0.585493 0.171217 0.662145
O O3 0.471599 0.827980 0.795193
O O4 0.317063 0.134346 0.952348
O O5 0.288108 0.716927 0.328585
O O6 0.206701 0.459827 0.330371
O O7 0.036589 0.676943 0.550611
O O8 0.258663 0.815914 0.263159
O O9 0.326497 0.939385 0.755355
O O10 0.688239 0.346669 0.801101
O O11 0.964705 0.408050 0.527065
O O12 0.571299 0.498895 0.731102
O O13 0.563473 0.820874 0.796184
O O14 0.331172 0.625228 0.013227
O O15 0.661690 0.168976 0.679817
O O16 0.693370 0.021761 0.739574
#
# Coordination Sequence:
#
# PCOD9139929 Si02
#       8
#     4   4   4   4   4   4   4   4
#     4  11  22  42  65  94 128 168 212 259 327 374
#     4   9  21  42  60  91 129 155 212 258 305 384
#     4   9  20  42  64  90 124 167 201 260 317 368
#     4   9  24  41  58  95 127 160 216 258 304 387
#     4  11  24  44  61  96 132 162 217 268 310 390
#     4  11  23  42  62  94 130 162 216 263 310 392
#     4  11  26  41  67  92 127 172 210 268 323 376
#     4  11  24  40  65  92 127 170 206 262 320 369
#
# _framework density 19.458057
#
# number of rings (size 3 to 8) (size 9 to 14) (size 15 to 20)
#    0.750    1.000    2.500    0.750    5.250    1.000 
#    6.750    0.000    0.000    0.000    0.000    0.000 
#    0.000    0.000    0.000    0.000    0.000    0.000 
#
# Total GULP energy -89101.892086 kJ/mol
# GULP energy per Si atom -5568.868255 kJ/mol
# Density = 1.941377 g / cm^3
# Si number density = 19.458057 Si / 1000 Ang^3
#
#
#
# Elastic Constant Matrix: (Units=GPa)
#
#
# Indices 1 2 3 4 5 6 
#
# 1 72.3666 17.4036 10.2511 -0.0062 -1.0360 0.0031
# 2 17.4036 67.9714 13.6297 -0.0189 -1.7598 0.0070
# 3 10.2511 13.6297 24.5624 -0.0100 -6.3932 0.0059
# 4 -0.0062 -0.0189 -0.0100 17.3285 0.0024 -2.2777
# 5 -1.0360 -1.7598 -6.3932 0.0024 15.3466 -0.0002
# 6 0.0031 0.0070 0.0059 -2.2777 -0.0002 12.8353
#
#
#
# Elastic Compliance Matrix: (Units=1/GPa)
#
#
# Indices 1 2 3 4 5 6 
#
# 1 0.015222 -0.002910 -0.005112 0.000000 -0.001436 0.000000
# 2 -0.002910 0.017174 -0.008810 0.000013 -0.001897 -0.000003
# 3 -0.005112 -0.008810 0.053144 0.000014 0.020784 -0.000015
# 4 0.000000 0.000013 0.000014 0.059087 -0.000002 0.010485
# 5 -0.001436 -0.001897 0.020784 -0.000002 0.073505 -0.000007
# 6 0.000000 -0.000003 -0.000015 0.010485 -0.000007 0.079771
#
#
# Mechanical properties :
#
#
# Convention : Reuss Voigt Hill
#
# Bulk Modulus (GPa) = 19.27589 27.49658 23.38623
# Shear Modulus (GPa) = 14.33251 17.34315 15.83783
#
# Velocity S-wave (km/s) = 2.71695 2.98872 2.85607
# Velocity P-wave (km/s) = 4.44639 5.10606 4.78760
#
# Compressibility (1/GPa) = 0.05187827
#
# Stress axis : x y z
#
# Youngs Moduli (GPa) = 65.69504 58.22611 18.81676
#
# Poissons Ratio (x) = 0.16941 0.09619
# Poissons Ratio (y) = 0.19114 0.16577
# Poissons Ratio (z) = 0.33583 0.51294
#
# Static dielectric constant tensor:
#      x y z
#    x 1.694430 0.000000 -0.025870 
#    y 0.000000 1.691210 0.000000 
#    z -0.025870 0.000000 1.681270 
# 
# From -- ./inp_files/37047.got.cif
#   From: 2010.05.17/outbox.cif.g08.bks.cpg/sg9_19_cif.got.tgz:37047.got - 2010.06.03 20:04:27.
