data_PCOD9139365
_publ_section_title
;
Structure prediction by ZEFSAII (Michael W. Deem and Ramdas Pophale) SiO2 
 PCOD9139365
Probable space group: C C
;
_chemical_formula_sum "Si O2"
_cell_formula_units_Z 28
_cell_length_a 8.133349
_cell_length_b 9.565396
_cell_length_c 23.719239
_cell_angle_alpha 90.000000
_cell_angle_beta 43.624474
_cell_angle_gamma 90.000000
_cell_volume 1273.143612
_symmetry_space_group_name_H-M "C C"
_symmetry_group_IT_number 9
_symmetry_cell_setting 'monoclinic'
loop_
_space_group_symop_operation_xyz
x,y,z
x,-y,1/2+z
1/2+x,1/2+y,z
1/2+x,1/2-y,1/2+z
loop_
_atom_site_type_symbol
_atom_site_label
_atom_site_fract_x
_atom_site_fract_y
_atom_site_fract_z
Si Si1 0.984960 0.665250 0.588420
Si Si2 0.068334 0.646800 0.227349
Si Si3 0.122792 0.477207 0.942753
Si Si4 0.991723 0.775635 0.989741
Si Si5 0.669432 0.153481 0.662825
Si Si6 0.398386 0.036352 0.379557
Si Si7 0.550746 0.722568 0.306141
O O1 0.745142 0.750986 0.651036
O O2 0.996843 0.562856 0.532820
O O3 0.238356 0.747883 0.521297
O O4 0.010595 0.616372 0.647019
O O5 0.183985 0.495066 0.188348
O O6 0.040237 0.640149 0.302093
O O7 0.806588 0.679614 0.267925
O O8 0.154795 0.643668 0.937135
O O9 0.364163 0.392940 0.872539
O O10 0.963900 0.439704 0.928029
O O11 0.122815 0.918331 0.939995
O O12 0.911015 0.790173 0.074708
O O13 0.571561 0.261500 0.733091
O O14 0.462451 0.876328 0.348635
#
# Coordination Sequence:
#
# PCOD9139365 Si02
#       7
#     4   4   4   4   4   4   4
#     4  10  25  41  69 102 134 174 227 281 339 402
#     4  11  24  45  71  98 136 180 226 282 338 404
#     4  12  25  41  71 100 137 177 230 276 343 401
#     4  10  26  45  68 102 136 177 225 285 334 405
#     4   9  25  43  69  98 140 172 230 276 342 397
#     4  11  25  45  68  96 140 179 228 278 341 401
#     4  11  26  46  70 102 133 185 228 280 339 402
#
# _framework density 21.992804
#
# number of rings (size 3 to 8) (size 9 to 14) (size 15 to 20)
#    0.857    0.571    0.000    3.429    8.000    6.857 
#    0.000    0.000    0.000    0.000    0.000    0.000 
#    0.000    0.000    0.000    0.000    0.000    0.000 
#
# Total GULP energy -78015.932352 kJ/mol
# GULP energy per Si atom -5572.566597 kJ/mol
# Density = 2.194275 g / cm^3
# Si number density = 21.992804 Si / 1000 Ang^3
#
#
#
# Elastic Constant Matrix: (Units=GPa)
#
#
# Indices 1 2 3 4 5 6 
#
# 1 64.0516 9.7606 42.9444 -0.0001 4.3214 0.0001
# 2 9.7606 64.2644 41.9284 -0.0001 -10.5990 0.0000
# 3 42.9444 41.9284 111.2881 -0.0001 12.6511 0.0001
# 4 -0.0001 -0.0001 -0.0001 45.7271 0.0001 -0.0808
# 5 4.3214 -10.5990 12.6511 0.0001 53.6350 -0.0001
# 6 0.0001 0.0000 0.0001 -0.0808 -0.0001 11.0261
#
#
#
# Elastic Compliance Matrix: (Units=1/GPa)
#
#
# Indices 1 2 3 4 5 6 
#
# 1 0.021511 0.003223 -0.009649 0.000000 0.001180 0.000000
# 2 0.003223 0.023239 -0.010781 0.000000 0.006875 0.000000
# 3 -0.009649 -0.010781 0.017391 0.000000 -0.005455 0.000000
# 4 0.000000 0.000000 0.000000 0.021869 0.000000 0.000160
# 5 0.001180 0.006875 -0.005455 0.000000 0.021195 0.000000
# 6 0.000000 0.000000 0.000000 0.000160 0.000000 0.090695
#
#
# Mechanical properties :
#
#
# Convention : Reuss Voigt Hill
#
# Bulk Modulus (GPa) = 36.06584 47.65232 41.85908
# Shear Modulus (GPa) = 20.87195 31.74236 26.30715
#
# Velocity S-wave (km/s) = 3.08398 3.80321 3.46232
# Velocity P-wave (km/s) = 5.39591 6.40313 5.92098
#
# Compressibility (1/GPa) = 0.02772707
#
# Stress axis : x y z
#
# Youngs Moduli (GPa) = 46.48760 43.03143 57.50123
#
# Poissons Ratio (x) = -0.13868 0.55484
# Poissons Ratio (y) = -0.14982 0.61990
# Poissons Ratio (z) = 0.44857 0.46391
#
# Static dielectric constant tensor:
#      x y z
#    x 1.848030 0.000000 0.038630 
#    y 0.000000 1.825670 0.000000 
#    z 0.038630 0.000000 1.830080 
# 
# From -- ./inp_files/34946.got.cif
#   From: 2010.05.17/outbox.cif.g08.bks.cpg/sg9_18_cif.got.tgz:34946.got - 2010.06.03 20:04:27.
