data_PCOD9139460
_publ_section_title
;
Structure prediction by ZEFSAII (Michael W. Deem and Ramdas Pophale) SiO2 
 PCOD9139460
Probable space group: C C
;
_chemical_formula_sum "Si O2"
_cell_formula_units_Z 20
_cell_length_a 24.242413
_cell_length_b 4.902957
_cell_length_c 9.541417
_cell_angle_alpha 90.000000
_cell_angle_beta 133.697130
_cell_angle_gamma 90.000000
_cell_volume 819.947709
_symmetry_space_group_name_H-M "C C"
_symmetry_group_IT_number 9
_symmetry_cell_setting 'monoclinic'
loop_
_space_group_symop_operation_xyz
x,y,z
x,-y,1/2+z
1/2+x,1/2+y,z
1/2+x,1/2-y,1/2+z
loop_
_atom_site_type_symbol
_atom_site_label
_atom_site_fract_x
_atom_site_fract_y
_atom_site_fract_z
Si Si1 0.953840 0.300254 0.981190
Si Si2 0.714536 0.519476 0.476381
Si Si3 0.399348 0.303307 0.066218
Si Si4 0.256363 0.676437 0.803915
Si Si5 0.625811 0.004199 0.755010
O O1 0.922770 0.233281 0.770341
O O2 0.910576 0.530712 0.995815
O O3 0.038584 0.420752 0.108920
O O4 0.949989 0.032252 0.073009
O O5 0.756721 0.344368 0.664446
O O6 0.773951 0.621690 0.464522
O O7 0.671970 0.797765 0.444631
O O8 0.649242 0.310127 0.309014
O O9 0.314269 0.428902 0.907639
O O10 0.168884 0.606653 0.690683
#
# Coordination Sequence:
#
# PCOD9139460 Si02
#       5
#     4   4   4   4   4
#     4  12  29  50  83 115 166 204 266 317 416 454
#     4  10  25  45  79 111 151 200 260 325 373 463
#     4  12  30  53  77 118 162 212 255 333 393 483
#     4  10  28  47  80 113 158 200 268 313 396 454
#     4  10  26  45  81 113 155 200 263 322 382 474
#
# _framework density 24.391795999999999
#
# number of rings (size 3 to 8) (size 9 to 14) (size 15 to 20)
#    1.200    0.000    0.000    2.400   14.000    1.600 
#    0.000    0.000    0.000    0.000    0.000    0.000 
#    0.000    0.000    0.000    0.000    0.000    0.000 
#
# Total GULP energy -55914.489307 kJ/mol
# GULP energy per Si atom -5591.448931 kJ/mol
# Density = 2.433628 g / cm^3
# Si number density = 24.391796 Si / 1000 Ang^3
#
#
#
# Elastic Constant Matrix: (Units=GPa)
#
#
# Indices 1 2 3 4 5 6 
#
# 1 144.6245 46.0064 65.5670 0.0000 -0.7805 0.0000
# 2 46.0064 149.8361 47.5432 0.0000 -26.3711 0.0000
# 3 65.5670 47.5432 109.7296 0.0000 -27.6378 0.0000
# 4 0.0000 0.0000 0.0000 41.7180 0.0000 -2.9716
# 5 -0.7805 -26.3711 -27.6378 0.0000 51.4782 0.0000
# 6 0.0000 0.0000 0.0000 -2.9716 0.0000 61.9218
#
#
#
# Elastic Compliance Matrix: (Units=1/GPa)
#
#
# Indices 1 2 3 4 5 6 
#
# 1 0.010443 -0.001902 -0.006501 0.000000 -0.004306 0.000000
# 2 -0.001902 0.008373 -0.001640 0.000000 0.003380 0.000000
# 3 -0.006501 -0.001640 0.015579 0.000000 0.007425 0.000000
# 4 0.000000 0.000000 0.000000 0.024053 0.000000 0.001154
# 5 -0.004306 0.003380 0.007425 0.000000 0.025078 0.000000
# 6 0.000000 0.000000 0.000000 0.001154 0.000000 0.016205
#
#
# Mechanical properties :
#
#
# Convention : Reuss Voigt Hill
#
# Bulk Modulus (GPa) = 69.88345 80.26927 75.07636
# Shear Modulus (GPa) = 40.13271 47.36183 43.74727
#
# Velocity S-wave (km/s) = 4.06068 4.41127 4.23960
# Velocity P-wave (km/s) = 7.12026 7.67629 7.40349
#
# Compressibility (1/GPa) = 0.01430954
#
# Stress axis : x y z
#
# Youngs Moduli (GPa) = 95.75405 119.42868 64.19038
#
# Poissons Ratio (x) = 0.22712 0.41729
# Poissons Ratio (y) = 0.18210 0.10529
# Poissons Ratio (z) = 0.62249 0.19589
#
# Static dielectric constant tensor:
#      x y z
#    x 1.955740 0.000000 -0.003010 
#    y 0.000000 1.940300 0.000000 
#    z -0.003010 0.000000 1.989840 
# 
# From -- ./inp_files/11897.got.cif
#   From: 2010.05.17/outbox.cif.g08.bks.cpg/sg9_6_cif.got.tgz:11897.got - 2010.06.03 20:04:27.
