data_PCOD9139273
_publ_section_title
;
Structure prediction by ZEFSAII (Michael W. Deem and Ramdas Pophale) SiO2 
 PCOD9139273
Probable space group: C C
;
_chemical_formula_sum "Si O2"
_cell_formula_units_Z 32
_cell_length_a 7.254990
_cell_length_b 30.447569
_cell_length_c 9.098079
_cell_angle_alpha 90.000000
_cell_angle_beta 46.945056
_cell_angle_gamma 90.000000
_cell_volume 1468.513260
_symmetry_space_group_name_H-M "C C"
_symmetry_group_IT_number 9
_symmetry_cell_setting 'monoclinic'
loop_
_space_group_symop_operation_xyz
x,y,z
x,-y,1/2+z
1/2+x,1/2+y,z
1/2+x,1/2-y,1/2+z
loop_
_atom_site_type_symbol
_atom_site_label
_atom_site_fract_x
_atom_site_fract_y
_atom_site_fract_z
Si Si1 0.260030 0.560254 0.150410
Si Si2 0.969336 0.153783 0.623280
Si Si3 0.187008 0.939746 0.951472
Si Si4 0.473519 0.506584 0.300941
Si Si5 0.977701 0.846217 0.478599
Si Si6 0.723763 0.261259 0.907479
Si Si7 0.723274 0.761259 0.694398
Si Si8 0.973518 0.701386 0.800939
O O1 0.319150 0.536823 0.272417
O O2 0.429866 0.602904 0.032636
O O3 0.973518 0.575309 0.300942
O O4 0.308155 0.524896 0.995352
O O5 0.017171 0.102904 0.569242
O O6 0.175454 0.186169 0.438174
O O7 0.713182 0.169190 0.683551
O O8 0.973520 0.160917 0.800939
O O9 0.127893 0.963178 0.829463
O O10 0.138880 0.975104 0.106532
O O11 0.233854 0.830810 0.418330
O O12 0.771582 0.813831 0.663705
O O13 0.547211 0.234841 0.889644
O O14 0.933128 0.252767 0.937480
O O15 0.513909 0.247233 0.164396
O O16 0.899824 0.734841 0.712233
#
# Coordination Sequence:
#
# PCOD9139273 Si02
#       8
#     4   4   4   4   4   4   4   4
#     4  11  24  47  75 103 142 175 226 284 344 412
#     4  12  25  43  65 100 137 180 226 283 338 403
#     4  11  24  47  75 103 142 175 226 284 344 412
#     4  10  24  47  74 110 130 180 224 277 358 414
#     4  12  25  43  65 100 137 180 226 283 338 403
#     4  12  23  42  65  92 131 178 232 280 337 397
#     4  12  23  42  65  92 131 178 232 280 337 397
#     4  12  24  41  68  90 138 182 228 279 338 402
#
# _framework density 21.790748000000001
#
# number of rings (size 3 to 8) (size 9 to 14) (size 15 to 20)
#    0.000    0.500    6.250    2.250    0.000    3.000 
#    9.000    0.000    0.000    0.000    0.000    0.000 
#    0.000    0.000    0.000    0.000    0.000    0.000 
#
# Total GULP energy -89246.056525 kJ/mol
# GULP energy per Si atom -5577.878533 kJ/mol
# Density = 2.174115 g / cm^3
# Si number density = 21.790748 Si / 1000 Ang^3
#
#
#
# Elastic Constant Matrix: (Units=GPa)
#
#
# Indices 1 2 3 4 5 6 
#
# 1 195.0380 72.6258 91.8605 0.0000 3.3847 0.0000
# 2 72.6258 163.9942 43.4171 0.0000 13.0668 0.0000
# 3 91.8605 43.4171 112.7598 0.0000 12.5203 0.0000
# 4 0.0000 0.0000 0.0000 8.0498 0.0000 -28.5813
# 5 3.3847 13.0668 12.5203 0.0000 37.6696 0.0000
# 6 0.0000 0.0000 0.0000 -28.5813 0.0000 -13.6738
#
#
#
# Elastic Compliance Matrix: (Units=1/GPa)
#
#
# Indices 1 2 3 4 5 6 
#
# 1 0.009211 -0.002458 -0.006811 0.000000 0.002289 0.000000
# 2 -0.002458 0.007533 -0.000657 0.000000 -0.002174 0.000000
# 3 -0.006811 -0.000657 0.015136 0.000000 -0.004191 0.000000
# 4 0.000000 0.000000 0.000000 0.014751 0.000000 -0.030833
# 5 0.002289 -0.002174 -0.004191 0.000000 0.028488 0.000000
# 6 0.000000 0.000000 0.000000 -0.030833 0.000000 -0.008684
#
#
# Mechanical properties :
#
#
# Convention : Reuss Voigt Hill
#
# Bulk Modulus (GPa) = 83.14384 98.62210 90.88297
# Shear Modulus (GPa) = 55.37296 24.00169 39.68732
#
# Velocity S-wave (km/s) = 5.04642 3.32243 4.27229
# Velocity P-wave (km/s) = 8.49668 7.75081 8.13230
#
# Compressibility (1/GPa) = 0.01202735
#
# Stress axis : x y z
#
# Youngs Moduli (GPa) = 108.56682 132.74050 66.06966
#
# Poissons Ratio (x) = 0.32630 0.45003
# Poissons Ratio (y) = 0.26688 0.04339
# Poissons Ratio (z) = 0.73949 0.08717
#
# Static dielectric constant tensor:
#      x y z
#    x 1.779340 0.000000 -0.110140 
#    y 0.000000 1.725650 0.000000 
#    z -0.110140 0.000000 2.116050 
# 
# From -- ./inp_files/4451.got.cif
#   From: 2010.05.17/outbox.cif.g08.bks.cpg/sg9_3_cif.got.tgz:4451.got - 2010.06.03 20:04:27.
