data_PCOD9139937
_publ_section_title
;
Structure prediction by ZEFSAII (Michael W. Deem and Ramdas Pophale) SiO2 
 PCOD9139937
Probable space group: C C
;
_chemical_formula_sum "Si O2"
_cell_formula_units_Z 32
_cell_length_a 28.916749
_cell_length_b 11.017003
_cell_length_c 9.019379
_cell_angle_alpha 90.000000
_cell_angle_beta 149.183715
_cell_angle_gamma 90.000000
_cell_volume 1471.983327
_symmetry_space_group_name_H-M "C C"
_symmetry_group_IT_number 9
_symmetry_cell_setting 'monoclinic'
loop_
_space_group_symop_operation_xyz
x,y,z
x,-y,1/2+z
1/2+x,1/2+y,z
1/2+x,1/2-y,1/2+z
loop_
_atom_site_type_symbol
_atom_site_label
_atom_site_fract_x
_atom_site_fract_y
_atom_site_fract_z
Si Si1 0.898900 0.890034 0.695440
Si Si2 0.272218 0.201017 0.478059
Si Si3 0.092034 0.103759 0.832299
Si Si4 0.396581 0.646830 0.835586
Si Si5 0.439333 0.965123 0.318182
Si Si6 0.529334 0.853266 0.276060
Si Si7 0.298444 0.835411 0.386998
Si Si8 0.635044 0.379124 0.117547
O O1 0.812205 0.827741 0.529534
O O2 0.891148 0.877649 0.496727
O O3 0.903876 0.029152 0.755651
O O4 0.993866 0.837599 0.024926
O O5 0.263168 0.199773 0.629608
O O6 0.357081 0.112679 0.664850
O O7 0.172421 0.173398 0.138673
O O8 0.133592 0.084254 0.783903
O O9 0.071150 0.978514 0.861998
O O10 0.315480 0.721045 0.538759
O O11 0.473449 0.748964 0.037206
O O12 0.514646 0.025501 0.635301
O O13 0.484057 0.890832 0.307343
O O14 0.385164 0.080047 0.102440
O O15 0.614406 0.765075 0.545587
O O16 0.226620 0.908904 0.285421
#
# Coordination Sequence:
#
# PCOD9139937 Si02
#       8
#     4   4   4   4   4   4   4   4
#     4  12  23  45  69 103 146 191 236 302 369 434
#     4  12  24  43  72 102 143 188 242 301 366 438
#     4  12  24  41  68 106 141 187 245 296 362 436
#     4  11  23  42  69 100 141 188 237 292 362 432
#     4  11  22  42  69 100 133 190 236 291 360 430
#     4  11  23  44  68 103 143 184 240 299 358 433
#     4  11  25  42  68 103 139 187 247 296 360 435
#     4  12  24  43  67 105 144 185 239 313 357 430
#
# _framework density 21.739377000000001
#
# number of rings (size 3 to 8) (size 9 to 14) (size 15 to 20)
#    0.000    0.500    6.250    2.250    1.750    0.000 
#    4.500    5.000    0.000    0.000    0.000    0.000 
#    0.000    0.000    0.000    0.000    0.000    0.000 
#
# Total GULP energy -89125.825442 kJ/mol
# GULP energy per Si atom -5570.364090 kJ/mol
# Density = 2.168990 g / cm^3
# Si number density = 21.739377 Si / 1000 Ang^3
#
#
#
# Elastic Constant Matrix: (Units=GPa)
#
#
# Indices 1 2 3 4 5 6 
#
# 1 46.1842 -4.0090 40.2551 0.0000 -2.5153 0.0000
# 2 -4.0090 73.9108 33.2734 0.0000 0.1784 0.0000
# 3 40.2551 33.2734 110.9042 0.0000 -19.0470 0.0000
# 4 0.0000 0.0000 0.0000 42.0331 0.0000 0.3705
# 5 -2.5153 0.1784 -19.0470 0.0000 33.0403 0.0000
# 6 0.0000 0.0000 0.0000 0.3705 0.0000 43.7938
#
#
#
# Elastic Compliance Matrix: (Units=1/GPa)
#
#
# Indices 1 2 3 4 5 6 
#
# 1 0.037963 0.010257 -0.018169 0.000000 -0.007639 0.000000
# 2 0.010257 0.018704 -0.010231 0.000000 -0.005218 0.000000
# 3 -0.018169 -0.010231 0.020481 0.000000 0.010479 0.000000
# 4 0.000000 0.000000 0.000000 0.023793 0.000000 -0.000201
# 5 -0.007639 -0.005218 0.010479 0.000000 0.035753 0.000000
# 6 0.000000 0.000000 0.000000 -0.000201 0.000000 0.022836
#
#
# Mechanical properties :
#
#
# Convention : Reuss Voigt Hill
#
# Bulk Modulus (GPa) = 24.47222 41.11536 32.79379
# Shear Modulus (GPa) = 23.87363 34.53876 29.20619
#
# Velocity S-wave (km/s) = 3.31747 3.99026 3.66931
# Velocity P-wave (km/s) = 5.09467 6.33904 5.75061
#
# Compressibility (1/GPa) = 0.04086266
#
# Stress axis : x y z
#
# Youngs Moduli (GPa) = 26.34147 53.46318 48.82674
#
# Poissons Ratio (x) = -0.54836 0.88712
# Poissons Ratio (y) = -0.27018 0.49954
# Poissons Ratio (z) = 0.47859 0.54697
#
# Static dielectric constant tensor:
#      x y z
#    x 1.743180 0.000000 0.036510 
#    y 0.000000 1.767560 0.000000 
#    z 0.036510 0.000000 1.890120 
# 
# From -- ./inp_files/10744.got.cif
#   From: 2010.05.17/outbox.cif.g08.bks.cpg/sg9_6_cif.got.tgz:10744.got - 2010.06.03 20:04:27.
