data_PCOD9139206
_publ_section_title
;
Structure prediction by ZEFSAII (Michael W. Deem and Ramdas Pophale) SiO2 
 PCOD9139206
Probable space group: C C
;
_chemical_formula_sum "Si O2"
_cell_formula_units_Z 28
_cell_length_a 21.530218
_cell_length_b 9.476297
_cell_length_c 9.535436
_cell_angle_alpha 90.000000
_cell_angle_beta 35.574533
_cell_angle_gamma 90.000000
_cell_volume 1131.807652
_symmetry_space_group_name_H-M "C C"
_symmetry_group_IT_number 9
_symmetry_cell_setting 'monoclinic'
loop_
_space_group_symop_operation_xyz
x,y,z
x,-y,1/2+z
1/2+x,1/2+y,z
1/2+x,1/2-y,1/2+z
loop_
_atom_site_type_symbol
_atom_site_label
_atom_site_fract_x
_atom_site_fract_y
_atom_site_fract_z
Si Si1 0.382940 0.273444 0.816100
Si Si2 0.045397 0.096491 0.834042
Si Si3 0.349787 0.426697 0.497680
Si Si4 0.162641 0.996250 0.380099
Si Si5 0.386093 0.888006 0.850400
Si Si6 0.470896 0.079601 0.899530
Si Si7 0.684388 0.782725 0.998823
O O1 0.488069 0.275605 0.523285
O O2 0.347478 0.435172 0.909029
O O3 0.415322 0.194355 0.898246
O O4 0.276948 0.222535 0.929785
O O5 0.090028 0.996004 0.874955
O O6 0.945458 0.041204 0.929601
O O7 0.136903 0.112920 0.546193
O O8 0.377232 0.280535 0.368611
O O9 0.244964 0.385197 0.777752
O O10 0.134389 0.850213 0.510518
O O11 0.280656 0.958636 0.110989
O O12 0.402944 0.942036 0.663574
O O13 0.477205 0.942819 0.788480
O O14 0.585459 0.132923 0.742131
#
# Coordination Sequence:
#
# PCOD9139206 Si02
#       7
#     4   4   4   4   4   4   4
#     4  11  25  46  76 107 145 192 254 309 359 449
#     4  11  21  40  77  98 147 180 256 301 358 423
#     4  10  24  46  70 110 139 193 249 306 364 439
#     4  11  23  45  68 111 137 197 245 307 363 446
#     4  11  29  47  72 107 154 192 246 304 380 448
#     4  12  27  51  71 107 155 199 240 309 378 448
#     4  10  25  43  72 100 151 185 242 298 384 431
#
# _framework density 24.739186
#
# number of rings (size 3 to 8) (size 9 to 14) (size 15 to 20)
#    0.000    1.143    2.857    0.857   16.000    0.000 
#    5.143    0.000    0.000    0.000    0.000    0.000 
#    0.000    0.000    0.000    0.000    0.000    0.000 
#
# Total GULP energy -78261.625453 kJ/mol
# GULP energy per Si atom -5590.116104 kJ/mol
# Density = 2.468288 g / cm^3
# Si number density = 24.739186 Si / 1000 Ang^3
#
#
#
# Elastic Constant Matrix: (Units=GPa)
#
#
# Indices 1 2 3 4 5 6 
#
# 1 108.3089 15.2698 45.7531 0.0000 20.1324 0.0000
# 2 15.2698 102.7058 29.3098 0.0000 5.7565 0.0000
# 3 45.7531 29.3098 116.6185 0.0000 16.1104 0.0000
# 4 0.0000 0.0000 0.0000 30.6506 0.0000 1.6771
# 5 20.1324 5.7565 16.1104 0.0000 46.6423 0.0000
# 6 0.0000 0.0000 0.0000 1.6771 0.0000 36.2026
#
#
#
# Elastic Compliance Matrix: (Units=1/GPa)
#
#
# Indices 1 2 3 4 5 6 
#
# 1 0.011634 -0.000396 -0.003967 0.000000 -0.003603 0.000000
# 2 -0.000396 0.010510 -0.002447 0.000000 -0.000281 0.000000
# 3 -0.003967 -0.002447 0.010993 0.000000 -0.001782 0.000000
# 4 0.000000 0.000000 0.000000 0.032709 0.000000 -0.001515
# 5 -0.003603 -0.000281 -0.001782 0.000000 0.023645 0.000000
# 6 0.000000 0.000000 0.000000 -0.001515 0.000000 0.027693
#
#
# Mechanical properties :
#
#
# Convention : Reuss Voigt Hill
#
# Bulk Modulus (GPa) = 51.24017 56.47763 53.85890
# Shear Modulus (GPa) = 36.41427 38.51912 37.46670
#
# Velocity S-wave (km/s) = 3.84073 3.95018 3.89584
# Velocity P-wave (km/s) = 6.35810 6.60938 6.48496
#
# Compressibility (1/GPa) = 0.01951594
#
# Stress axis : x y z
#
# Youngs Moduli (GPa) = 85.95351 95.15174 90.96849
#
# Poissons Ratio (x) = 0.03764 0.36090
# Poissons Ratio (y) = 0.03400 0.22263
# Poissons Ratio (z) = 0.34101 0.23287
#
# Static dielectric constant tensor:
#      x y z
#    x 1.933910 0.000000 -0.010300 
#    y 0.000000 1.985040 0.000000 
#    z -0.010300 0.000000 2.039480 
# 
# From -- ./inp_files/11618.got.cif
#   From: 2010.05.17/outbox.cif.g08.bks.cpg/sg9_6_cif.got.tgz:11618.got - 2010.06.03 20:04:27.
