data_PCOD9139936
_publ_section_title
;
Structure prediction by ZEFSAII (Michael W. Deem and Ramdas Pophale) SiO2 
 PCOD9139936
Probable space group: C C
;
_chemical_formula_sum "Si O2"
_cell_formula_units_Z 20
_cell_length_a 9.622915
_cell_length_b 10.585307
_cell_length_c 9.487486
_cell_angle_alpha 90.000000
_cell_angle_beta 62.826923
_cell_angle_gamma 90.000000
_cell_volume 859.748040
_symmetry_space_group_name_H-M "C C"
_symmetry_group_IT_number 9
_symmetry_cell_setting 'monoclinic'
loop_
_space_group_symop_operation_xyz
x,y,z
x,-y,1/2+z
1/2+x,1/2+y,z
1/2+x,1/2-y,1/2+z
loop_
_atom_site_type_symbol
_atom_site_label
_atom_site_fract_x
_atom_site_fract_y
_atom_site_fract_z
Si Si1 0.097660 0.421762 0.279270
Si Si2 0.273305 0.521958 0.436316
Si Si3 0.619207 0.485571 0.888088
Si Si4 0.570031 0.249890 0.546614
Si Si5 0.815370 0.416593 0.033101
O O1 0.235071 0.425354 0.330074
O O2 0.069137 0.290386 0.211482
O O3 0.943508 0.482480 0.416546
O O4 0.160649 0.507859 0.120948
O O5 0.447836 0.536305 0.406873
O O6 0.602003 0.607509 0.997662
O O7 0.206364 0.659142 0.421003
O O8 0.699333 0.387107 0.957493
O O9 0.729371 0.524029 0.707592
O O10 0.413092 0.202574 0.543718
#
# Coordination Sequence:
#
# PCOD9139936 Si02
#       5
#     4   4   4   4   4
#     4   9  18  44  64  91 138 175 208 270 344 378
#     4   9  20  39  69  94 134 176 216 275 330 398
#     4  12  23  42  70 100 133 167 232 275 326 385
#     4   9  23  43  65  90 140 177 209 267 347 390
#     4  11  22  42  68  99 131 175 217 283 317 399
#
# _framework density 23.262630000000001
#
# number of rings (size 3 to 8) (size 9 to 14) (size 15 to 20)
#    1.200    0.800    2.000    1.200    0.000    4.800 
#    3.600    2.000    0.000    0.000    0.000    0.000 
#    0.000    0.000    0.000    0.000    0.000    0.000 
#
# Total GULP energy -55861.306999 kJ/mol
# GULP energy per Si atom -5586.130700 kJ/mol
# Density = 2.320968 g / cm^3
# Si number density = 23.262630 Si / 1000 Ang^3
#
#
#
# Elastic Constant Matrix: (Units=GPa)
#
#
# Indices 1 2 3 4 5 6 
#
# 1 196.2025 25.4509 26.7964 0.0000 17.5400 0.0000
# 2 25.4509 54.2640 14.1237 0.0000 3.7634 0.0000
# 3 26.7964 14.1237 95.9035 0.0000 15.4181 0.0000
# 4 0.0000 0.0000 0.0000 28.8507 0.0000 0.5748
# 5 17.5400 3.7634 15.4181 0.0000 40.4459 0.0000
# 6 0.0000 0.0000 0.0000 0.5748 0.0000 16.7591
#
#
#
# Elastic Compliance Matrix: (Units=1/GPa)
#
#
# Indices 1 2 3 4 5 6 
#
# 1 0.005693 -0.002292 -0.000949 0.000000 -0.001894 0.000000
# 2 -0.002292 0.020107 -0.002322 0.000000 0.000008 0.000000
# 3 -0.000949 -0.002322 0.011647 0.000000 -0.003812 0.000000
# 4 0.000000 0.000000 0.000000 0.034685 0.000000 -0.001190
# 5 -0.001894 0.000008 -0.003812 0.000000 0.026998 0.000000
# 6 0.000000 0.000000 0.000000 -0.001190 0.000000 0.059710
#
#
# Mechanical properties :
#
#
# Convention : Reuss Voigt Hill
#
# Bulk Modulus (GPa) = 37.99107 53.23467 45.61287
# Shear Modulus (GPa) = 27.97365 35.87773 31.92569
#
# Velocity S-wave (km/s) = 3.47149 3.93146 3.70861
# Velocity P-wave (km/s) = 5.69519 6.59867 6.16350
#
# Compressibility (1/GPa) = 0.02632197
#
# Stress axis : x y z
#
# Youngs Moduli (GPa) = 175.65600 49.73347 85.85828
#
# Poissons Ratio (x) = 0.11398 0.08145
# Poissons Ratio (y) = 0.40258 0.19937
# Poissons Ratio (z) = 0.16664 0.11549
#
# Static dielectric constant tensor:
#      x y z
#    x 1.917730 0.000000 0.016550 
#    y 0.000000 1.894510 0.000000 
#    z 0.016550 0.000000 1.881720 
# 
# From -- ./inp_files/4808.got.cif
#   From: 2010.05.17/outbox.cif.g08.bks.cpg/sg9_3_cif.got.tgz:4808.got - 2010.06.03 20:04:27.
