data_PCOD9139965
_publ_section_title
;
Structure prediction by ZEFSAII (Michael W. Deem and Ramdas Pophale) SiO2 
 PCOD9139965
Probable space group: C C
;
_chemical_formula_sum "Si O2"
_cell_formula_units_Z 32
_cell_length_a 13.043817
_cell_length_b 10.884891
_cell_length_c 9.273368
_cell_angle_alpha 90.000000
_cell_angle_beta 70.729104
_cell_angle_gamma 90.000000
_cell_volume 1242.864773
_symmetry_space_group_name_H-M "C C"
_symmetry_group_IT_number 9
_symmetry_cell_setting 'monoclinic'
loop_
_space_group_symop_operation_xyz
x,y,z
x,-y,1/2+z
1/2+x,1/2+y,z
1/2+x,1/2-y,1/2+z
loop_
_atom_site_type_symbol
_atom_site_label
_atom_site_fract_x
_atom_site_fract_y
_atom_site_fract_z
Si Si1 0.128820 0.912356 0.839990
Si Si2 0.790233 0.529400 0.587177
Si Si3 0.006789 0.688349 0.483673
Si Si4 0.697899 0.775229 0.684625
Si Si5 0.072756 0.335701 0.274303
Si Si6 0.820140 0.270612 0.432259
Si Si7 0.261127 0.469530 0.150148
Si Si8 0.480508 0.547321 0.128968
O O1 0.142753 0.768468 0.820293
O O2 0.240581 0.986191 0.764906
O O3 0.049186 0.933885 0.739548
O O4 0.053729 0.959750 0.999959
O O5 0.719269 0.650887 0.585656
O O6 0.774122 0.398475 0.516753
O O7 0.911712 0.585490 0.520236
O O8 0.077201 0.708442 0.306515
O O9 0.074744 0.658211 0.597997
O O10 0.967563 0.825258 0.546795
O O11 0.769713 0.754461 0.798263
O O12 0.739171 0.897931 0.587297
O O13 0.144593 0.452072 0.282689
O O14 0.948360 0.305164 0.367000
O O15 0.797159 0.148876 0.538621
O O16 0.362595 0.491380 0.208003
#
# Coordination Sequence:
#
# PCOD9139965 Si02
#       8
#     4   4   4   4   4   4   4   4
#     4  11  23  42  70 100 138 193 241 290 362 437
#     4  12  24  42  73 105 136 189 241 294 363 431
#     4  11  22  43  72 101 141 188 236 293 364 430
#     4  12  24  46  72 102 144 187 237 299 364 436
#     4  11  22  43  72 101 141 188 236 293 364 430
#     4  12  24  46  72 102 144 187 237 299 364 436
#     4  12  24  42  73 105 136 189 241 294 363 431
#     4  11  23  42  70 100 138 193 241 290 362 437
#
# _framework density 25.746967000000001
#
# number of rings (size 3 to 8) (size 9 to 14) (size 15 to 20)
#    0.000    0.500    7.500    2.250    0.000    0.000 
#    0.000    6.250    0.000    0.000    0.000    0.000 
#    0.000    0.000    0.000    0.000    0.000    0.000 
#
# Total GULP energy -89333.111361 kJ/mol
# GULP energy per Si atom -5583.319460 kJ/mol
# Density = 2.568837 g / cm^3
# Si number density = 25.746967 Si / 1000 Ang^3
#
#
#
# Elastic Constant Matrix: (Units=GPa)
#
#
# Indices 1 2 3 4 5 6 
#
# 1 93.6633 31.1953 24.2374 0.0000 -39.2218 0.0000
# 2 31.1953 178.8831 33.4877 0.0000 -0.3401 0.0000
# 3 24.2374 33.4877 73.9678 0.0000 -23.2234 0.0000
# 4 0.0000 0.0000 0.0000 42.2578 0.0000 -20.7717
# 5 -39.2218 -0.3401 -23.2234 0.0000 46.8214 0.0000
# 6 0.0000 0.0000 0.0000 -20.7717 0.0000 44.1331
#
#
#
# Elastic Compliance Matrix: (Units=1/GPa)
#
#
# Indices 1 2 3 4 5 6 
#
# 1 0.018034 -0.003175 0.000312 0.000000 0.015239 0.000000
# 2 -0.003175 0.006766 -0.003367 0.000000 -0.004280 0.000000
# 3 0.000312 -0.003367 0.017785 0.000000 0.009059 0.000000
# 4 0.000000 0.000000 0.000000 0.030787 0.000000 0.014490
# 5 0.015239 -0.004280 0.009059 0.000000 0.038585 0.000000
# 6 0.000000 0.000000 0.000000 0.014490 0.000000 0.029479
#
#
# Mechanical properties :
#
#
# Convention : Reuss Voigt Hill
#
# Bulk Modulus (GPa) = 33.19168 58.26165 45.72666
# Shear Modulus (GPa) = 30.49945 43.81538 37.15742
#
# Velocity S-wave (km/s) = 3.44551 4.12973 3.80304
# Velocity P-wave (km/s) = 5.36174 6.73923 6.08956
#
# Compressibility (1/GPa) = 0.03012804
#
# Stress axis : x y z
#
# Youngs Moduli (GPa) = 55.44938 147.79821 56.22575
#
# Poissons Ratio (x) = 0.46919 -0.01756
# Poissons Ratio (y) = 0.17603 0.18930
# Poissons Ratio (z) = -0.01732 0.49760
#
# Static dielectric constant tensor:
#      x y z
#    x 2.056190 0.000000 -0.046130 
#    y 0.000000 2.070020 0.000000 
#    z -0.046130 0.000000 2.135270 
# 
# From -- ./inp_files/17907.got.cif
#   From: 2010.05.17/outbox.cif.g08.bks.cpg/sg9_9_cif.got.tgz:17907.got - 2010.06.03 20:04:27.
