data_PCOD9139296
_publ_section_title
;
Structure prediction by ZEFSAII (Michael W. Deem and Ramdas Pophale) SiO2 
 PCOD9139296
Probable space group: C C
;
_chemical_formula_sum "Si O2"
_cell_formula_units_Z 24
_cell_length_a 10.847893
_cell_length_b 16.524206
_cell_length_c 4.997674
_cell_angle_alpha 90.000000
_cell_angle_beta 78.522592
_cell_angle_gamma 90.000000
_cell_volume 877.933111
_symmetry_space_group_name_H-M "C C"
_symmetry_group_IT_number 9
_symmetry_cell_setting 'monoclinic'
loop_
_space_group_symop_operation_xyz
x,y,z
x,-y,1/2+z
1/2+x,1/2+y,z
1/2+x,1/2-y,1/2+z
loop_
_atom_site_type_symbol
_atom_site_label
_atom_site_fract_x
_atom_site_fract_y
_atom_site_fract_z
Si Si1 0.006280 0.554913 0.301290
Si Si2 0.568986 0.186109 0.893857
Si Si3 0.819989 0.180441 0.990240
Si Si4 0.069946 0.143218 0.098105
Si Si5 0.857590 0.949510 0.893641
Si Si6 0.322284 0.136914 0.677563
O O1 0.048538 0.501429 0.536374
O O2 0.858771 0.570291 0.439443
O O3 0.045658 0.646778 0.199903
O O4 0.564107 0.278165 0.792826
O O5 0.452430 0.144865 0.789695
O O6 0.716962 0.166412 0.807130
O O7 0.795139 0.124911 0.261604
O O8 0.801647 0.274600 0.062998
O O9 0.969456 0.164118 0.900999
O O10 0.004927 0.071603 0.290908
O O11 0.203901 0.123417 0.917901
O O12 0.831892 0.023471 0.702935
#
# Coordination Sequence:
#
# PCOD9139296 Si02
#       6
#     4   4   4   4   4   4
#     4  12  28  50  76 116 165 211 257 332 411 481
#     4  11  25  48  79 113 154 210 272 327 391 475
#     4   9  25  44  76 110 150 202 267 319 395 461
#     4   9  25  48  75 116 149 208 269 322 391 467
#     4  10  24  48  71 109 153 199 247 317 396 466
#     4  11  25  48  77 114 153 206 270 331 388 480
#
# _framework density 27.336933999999999
#
# number of rings (size 3 to 8) (size 9 to 14) (size 15 to 20)
#    1.000    0.667    1.667    0.000    7.000    6.667 
#    0.000    0.000    0.000    0.000    0.000    0.000 
#    0.000    0.000    0.000    0.000    0.000    0.000 
#
# Total GULP energy -66927.192314 kJ/mol
# GULP energy per Si atom -5577.266026 kJ/mol
# Density = 2.727471 g / cm^3
# Si number density = 27.336934 Si / 1000 Ang^3
#
#
#
# Elastic Constant Matrix: (Units=GPa)
#
#
# Indices 1 2 3 4 5 6 
#
# 1 171.9191 43.3000 55.9358 0.0000 10.6169 0.0000
# 2 43.3000 96.4765 40.9523 0.0000 -8.3971 0.0000
# 3 55.9358 40.9523 137.4420 0.0000 0.7140 0.0000
# 4 0.0000 0.0000 0.0000 41.1234 0.0000 1.4486
# 5 10.6169 -8.3971 0.7140 0.0000 11.1109 0.0000
# 6 0.0000 0.0000 0.0000 1.4486 0.0000 23.6186
#
#
#
# Elastic Compliance Matrix: (Units=1/GPa)
#
#
# Indices 1 2 3 4 5 6 
#
# 1 0.008058 -0.003597 -0.002154 0.000000 -0.010280 0.000000
# 2 -0.003597 0.014492 -0.002930 0.000000 0.014578 0.000000
# 3 -0.002154 -0.002930 0.009029 0.000000 -0.000736 0.000000
# 4 0.000000 0.000000 0.000000 0.024370 0.000000 -0.001495
# 5 -0.010280 0.014578 -0.000736 0.000000 0.110889 0.000000
# 6 0.000000 0.000000 0.000000 -0.001495 0.000000 0.042431
#
#
# Mechanical properties :
#
#
# Convention : Reuss Voigt Hill
#
# Bulk Modulus (GPa) = 70.33687 76.24598 73.29143
# Shear Modulus (GPa) = 21.61022 32.88055 27.24539
#
# Velocity S-wave (km/s) = 2.81466 3.47189 3.16040
# Velocity P-wave (km/s) = 6.02897 6.63504 6.33925
#
# Compressibility (1/GPa) = 0.01421729
#
# Stress axis : x y z
#
# Youngs Moduli (GPa) = 124.09303 69.00301 110.74900
#
# Poissons Ratio (x) = 0.24820 0.23860
# Poissons Ratio (y) = 0.44636 0.32448
# Poissons Ratio (z) = 0.26735 0.20217
#
# Static dielectric constant tensor:
#      x y z
#    x 2.242760 0.000000 0.027580 
#    y 0.000000 2.136160 0.000000 
#    z 0.027580 0.000000 2.173430 
# 
# From -- ./inp_files/1595.got.cif
#   From: 2010.05.17/outbox.cif.g08.bks.cpg/sg9_1_cif.got.tgz:1595.got - 2010.06.03 20:04:27.
