data_PCOD9139498
_publ_section_title
;
Structure prediction by ZEFSAII (Michael W. Deem and Ramdas Pophale) SiO2 
 PCOD9139498
Probable space group: C C
;
_chemical_formula_sum "Si O2"
_cell_formula_units_Z 32
_cell_length_a 9.520640
_cell_length_b 14.862938
_cell_length_c 9.881116
_cell_angle_alpha 90.000000
_cell_angle_beta 107.942517
_cell_angle_gamma 90.000000
_cell_volume 1330.223033
_symmetry_space_group_name_H-M "C C"
_symmetry_group_IT_number 9
_symmetry_cell_setting 'monoclinic'
loop_
_space_group_symop_operation_xyz
x,y,z
x,-y,1/2+z
1/2+x,1/2+y,z
1/2+x,1/2-y,1/2+z
loop_
_atom_site_type_symbol
_atom_site_label
_atom_site_fract_x
_atom_site_fract_y
_atom_site_fract_z
Si Si1 0.142570 0.642041 0.574600
Si Si2 0.063788 0.015261 0.505798
Si Si3 0.727415 0.567288 0.273930
Si Si4 0.640022 0.700121 0.661246
Si Si5 0.490939 0.037759 0.917184
Si Si6 0.289359 0.414205 0.371307
Si Si7 0.337250 0.203795 0.993767
Si Si8 0.852996 0.726404 0.481720
O O1 0.258345 0.593894 0.705002
O O2 0.218797 0.727999 0.528850
O O3 0.067873 0.556744 0.479254
O O4 0.996220 0.685888 0.596351
O O5 0.133381 0.931589 0.609318
O O6 0.890377 0.998675 0.435788
O O7 0.136629 0.034508 0.380843
O O8 0.094848 0.097569 0.615482
O O9 0.859884 0.497748 0.283433
O O10 0.796842 0.661753 0.343401
O O11 0.486234 0.753465 0.606058
O O12 0.755116 0.708666 0.819791
O O13 0.727341 0.731168 0.554916
O O14 0.628839 0.088632 0.892723
O O15 0.404033 0.100490 0.999636
O O16 0.378320 0.325053 0.434450
#
# Coordination Sequence:
#
# PCOD9139498 Si02
#       8
#     4   4   4   4   4   4   4   4
#     4  11  29  47  74 118 152 199 273 328 409 498
#     4  11  26  45  78 108 157 206 272 333 410 499
#     4  10  25  47  75 106 148 209 266 322 408 498
#     4  11  25  49  76 112 153 212 271 328 413 501
#     4  11  25  50  76 108 155 208 254 340 406 480
#     4  12  27  46  74 109 160 193 263 340 405 490
#     4  12  26  47  81 111 156 203 273 332 404 487
#     4  10  25  47  70 106 151 202 248 329 399 479
#
# _framework density 24.056115999999999
#
# number of rings (size 3 to 8) (size 9 to 14) (size 15 to 20)
#    0.000    1.000    2.500    1.500   12.250    3.000 
#    0.000    0.000    0.000    0.000    0.000    0.000 
#    0.000    0.000    0.000    0.000    0.000    0.000 
#
# Total GULP energy -89111.100673 kJ/mol
# GULP energy per Si atom -5569.443792 kJ/mol
# Density = 2.400136 g / cm^3
# Si number density = 24.056116 Si / 1000 Ang^3
#
#
#
# Elastic Constant Matrix: (Units=GPa)
#
#
# Indices 1 2 3 4 5 6 
#
# 1 85.4849 78.3551 46.1223 0.0000 26.1636 0.0000
# 2 78.3551 -37.7445 4.8458 0.0000 -29.8453 0.0000
# 3 46.1223 4.8458 84.6121 0.0000 11.4868 0.0000
# 4 0.0000 0.0000 0.0000 28.1267 0.0000 12.6962
# 5 26.1636 -29.8453 11.4868 0.0000 19.6773 0.0000
# 6 0.0000 0.0000 0.0000 12.6962 0.0000 36.4079
#
#
#
# Elastic Compliance Matrix: (Units=1/GPa)
#
#
# Indices 1 2 3 4 5 6 
#
# 1 0.005816 0.007107 -0.004334 0.000000 0.005577 0.000000
# 2 0.007107 -0.002504 -0.002098 0.000000 -0.012022 0.000000
# 3 -0.004334 -0.002098 0.015152 0.000000 -0.006265 0.000000
# 4 0.000000 0.000000 0.000000 0.042195 0.000000 -0.014714
# 5 0.005577 -0.012022 -0.006265 0.000000 0.028828 0.000000
# 6 0.000000 0.000000 0.000000 -0.014714 0.000000 0.032598
#
#
# Mechanical properties :
#
#
# Convention : Reuss Voigt Hill
#
# Bulk Modulus (GPa) = 50.47448 43.44432 46.95940
# Shear Modulus (GPa) = 39.26492 17.04434 28.15463
#
# Velocity S-wave (km/s) = 4.04446 2.66470 3.42478
# Velocity P-wave (km/s) = 6.54505 5.25036 5.93313
#
# Compressibility (1/GPa) = 0.01981199
#
# Stress axis : x y z
#
# Youngs Moduli (GPa) = 171.95168 -399.37689 65.99822
#
# Poissons Ratio (x) = 2.83828 0.28605
# Poissons Ratio (y) = -1.22202 0.13849
# Poissons Ratio (z) = 0.74527 -0.83805
#
# Static dielectric constant tensor:
#      x y z
#    x 2.004630 0.000000 0.028220 
#    y 0.000000 2.046820 0.000000 
#    z 0.028220 0.000000 1.937090 
# 
# From -- ./inp_files/14810.got.cif
#   From: 2010.05.17/outbox.cif.g08.bks.cpg/sg9_8_cif.got.tgz:14810.got - 2010.06.03 20:04:27.
