data_PCOD9139612
_publ_section_title
;
Structure prediction by ZEFSAII (Michael W. Deem and Ramdas Pophale) SiO2 
 PCOD9139612
Probable space group: C C
;
_chemical_formula_sum "Si O2"
_cell_formula_units_Z 24
_cell_length_a 4.979248
_cell_length_b 34.291440
_cell_length_c 7.105197
_cell_angle_alpha 90.000000
_cell_angle_beta 47.557449
_cell_angle_gamma 90.000000
_cell_volume 895.272220
_symmetry_space_group_name_H-M "C C"
_symmetry_group_IT_number 9
_symmetry_cell_setting 'monoclinic'
loop_
_space_group_symop_operation_xyz
x,y,z
x,-y,1/2+z
1/2+x,1/2+y,z
1/2+x,1/2-y,1/2+z
loop_
_atom_site_type_symbol
_atom_site_label
_atom_site_fract_x
_atom_site_fract_y
_atom_site_fract_z
Si Si1 0.270960 0.679053 0.349240
Si Si2 0.927430 0.450688 0.550830
Si Si3 0.733036 0.463174 0.235604
Si Si4 0.963222 0.833065 0.185534
Si Si5 0.462486 0.100806 0.384774
Si Si6 0.674236 0.774559 0.556305
O O1 0.413512 0.676621 0.491128
O O2 0.398537 0.711165 0.137523
O O3 0.257186 0.635375 0.267229
O O4 0.836162 0.687578 0.578536
O O5 0.720310 0.447141 0.452847
O O6 0.815653 0.491166 0.703888
O O7 0.903627 0.414963 0.704373
O O8 0.353337 0.458044 0.308671
O O9 0.021182 0.436486 0.989487
O O10 0.637296 0.816373 0.465222
O O11 0.848795 0.748943 0.307070
O O12 0.090206 0.877763 0.132846
#
# Coordination Sequence:
#
# PCOD9139612 Si02
#       6
#     4   4   4   4   4   4
#     4  10  26  47  74 109 155 198 251 305 387 444
#     4  12  27  43  71 102 144 191 253 316 381 442
#     4  12  27  43  71 102 144 191 253 316 381 442
#     4  10  26  47  74 109 155 198 251 305 387 444
#     4  10  27  44  74 104 150 190 258 306 380 446
#     4  12  25  52  80 120 154 202 252 316 378 464
#
# _framework density 26.807487999999999
#
# number of rings (size 3 to 8) (size 9 to 14) (size 15 to 20)
#    1.000    0.000    3.333    1.000    7.000    2.667 
#    0.000    0.000    0.000    0.000    0.000    0.000 
#    0.000    0.000    0.000    0.000    0.000    0.000 
#
# Total GULP energy -67088.609687 kJ/mol
# GULP energy per Si atom -5590.717474 kJ/mol
# Density = 2.674647 g / cm^3
# Si number density = 26.807488 Si / 1000 Ang^3
#
#
#
# Elastic Constant Matrix: (Units=GPa)
#
#
# Indices 1 2 3 4 5 6 
#
# 1 79.3428 16.5440 28.6380 0.0000 18.5604 0.0000
# 2 16.5440 115.7728 36.6299 0.0000 2.5931 0.0000
# 3 28.6380 36.6299 138.5577 0.0000 16.5417 0.0000
# 4 0.0000 0.0000 0.0000 66.6302 0.0000 15.9037
# 5 18.5604 2.5931 16.5417 0.0000 40.2326 0.0000
# 6 0.0000 0.0000 0.0000 15.9037 0.0000 30.3294
#
#
#
# Elastic Compliance Matrix: (Units=1/GPa)
#
#
# Indices 1 2 3 4 5 6 
#
# 1 0.015027 -0.001372 -0.002026 0.000000 -0.006011 0.000000
# 2 -0.001372 0.009559 -0.002361 0.000000 0.000988 0.000000
# 3 -0.002026 -0.002361 0.008550 0.000000 -0.002429 0.000000
# 4 0.000000 0.000000 0.000000 0.017155 0.000000 -0.008996
# 5 -0.006011 0.000988 -0.002429 0.000000 0.028563 0.000000
# 6 0.000000 0.000000 0.000000 -0.008996 0.000000 0.037688
#
#
# Mechanical properties :
#
#
# Convention : Reuss Voigt Hill
#
# Bulk Modulus (GPa) = 46.25753 55.25522 50.75638
# Shear Modulus (GPa) = 36.96414 44.22920 40.59667
#
# Velocity S-wave (km/s) = 3.71735 4.06628 3.89572
# Velocity P-wave (km/s) = 5.97644 6.53474 6.26181
#
# Compressibility (1/GPa) = 0.02161810
#
# Stress axis : x y z
#
# Youngs Moduli (GPa) = 66.54760 104.61745 116.95803
#
# Poissons Ratio (x) = 0.14352 0.23691
# Poissons Ratio (y) = 0.09129 0.27618
# Poissons Ratio (z) = 0.13480 0.24704
#
# Static dielectric constant tensor:
#      x y z
#    x 2.106170 0.000000 -0.103820 
#    y 0.000000 2.167980 0.000000 
#    z -0.103820 0.000000 2.126140 
# 
# From -- ./inp_files/4060.got.cif
#   From: 2010.05.17/outbox.cif.g08.bks.cpg/sg9_3_cif.got.tgz:4060.got - 2010.06.03 20:04:27.
