data_PCOD9139805
_publ_section_title
;
Structure prediction by ZEFSAII (Michael W. Deem and Ramdas Pophale) SiO2 
 PCOD9139805
Probable space group: C C
;
_chemical_formula_sum "Si O2"
_cell_formula_units_Z 32
_cell_length_a 9.033268
_cell_length_b 28.652191
_cell_length_c 4.959893
_cell_angle_alpha 90.000000
_cell_angle_beta 79.608870
_cell_angle_gamma 90.000000
_cell_volume 1262.679989
_symmetry_space_group_name_H-M "C C"
_symmetry_group_IT_number 9
_symmetry_cell_setting 'monoclinic'
loop_
_space_group_symop_operation_xyz
x,y,z
x,-y,1/2+z
1/2+x,1/2+y,z
1/2+x,1/2-y,1/2+z
loop_
_atom_site_type_symbol
_atom_site_label
_atom_site_fract_x
_atom_site_fract_y
_atom_site_fract_z
Si Si1 0.288070 0.717894 0.873630
Si Si2 0.735738 0.886565 0.558553
Si Si3 0.092996 0.259771 0.917369
Si Si4 0.312617 0.893446 0.352976
Si Si5 0.158068 0.971545 0.768212
Si Si6 0.918621 0.353543 0.815376
Si Si7 0.831162 0.061888 0.504752
Si Si8 0.008209 0.472376 0.032289
O O1 0.252654 0.663225 0.911607
O O2 0.183024 0.738888 0.670411
O O3 0.467364 0.723934 0.847507
O O4 0.226800 0.741657 0.161929
O O5 0.559681 0.888621 0.703962
O O6 0.822614 0.892769 0.811397
O O7 0.803681 0.922976 0.321917
O O8 0.001934 0.308782 0.908632
O O9 0.211379 0.926973 0.574853
O O10 0.350685 0.850583 0.539292
O O11 0.448740 0.927322 0.212397
O O12 0.289305 0.871100 0.064496
O O13 0.980860 0.964458 0.873062
O O14 0.198965 0.016154 0.565896
O O15 0.687315 0.031837 0.470339
O O16 0.964054 0.515405 0.242091
#
# Coordination Sequence:
#
# PCOD9139805 Si02
#       8
#     4   4   4   4   4   4   4   4
#     4  11  24  45  73 106 147 187 230 286 351 421
#     4  11  21  42  68  99 132 175 223 285 340 399
#     4  11  24  45  73 106 147 187 230 286 351 421
#     4  12  23  41  65  93 130 172 227 274 348 408
#     4  12  26  46  62  88 135 180 219 284 360 410
#     4  11  21  42  68  99 132 175 223 285 340 399
#     4  12  23  41  65  93 130 172 227 274 348 408
#     4  12  22  36  60  94 119 160 223 282 330 404
#
# _framework density 25.342925999999999
#
# number of rings (size 3 to 8) (size 9 to 14) (size 15 to 20)
#    0.000    0.500    2.500    8.250    0.000    0.000 
#    6.750    0.000    0.000    0.000    0.000    0.000 
#    0.000    0.000    0.000    0.000    0.000    0.000 
#
# Total GULP energy -89294.240832 kJ/mol
# GULP energy per Si atom -5580.890052 kJ/mol
# Density = 2.528524 g / cm^3
# Si number density = 25.342926 Si / 1000 Ang^3
#
#
#
# Elastic Constant Matrix: (Units=GPa)
#
#
# Indices 1 2 3 4 5 6 
#
# 1 49.9740 4.3999 27.7223 0.0000 -3.3659 0.0000
# 2 4.3999 45.3961 20.4498 0.0000 4.8357 0.0000
# 3 27.7223 20.4498 177.6157 0.0000 13.5541 0.0000
# 4 0.0000 0.0000 0.0000 1.8472 0.0000 0.7361
# 5 -3.3659 4.8357 13.5541 0.0000 56.3101 0.0000
# 6 0.0000 0.0000 0.0000 0.7361 0.0000 32.2579
#
#
#
# Elastic Compliance Matrix: (Units=1/GPa)
#
#
# Indices 1 2 3 4 5 6 
#
# 1 0.022198 -0.000794 -0.003545 0.000000 0.002248 0.000000
# 2 -0.000794 0.023367 -0.002455 0.000000 -0.001463 0.000000
# 3 -0.003545 -0.002455 0.006587 0.000000 -0.001587 0.000000
# 4 0.000000 0.000000 0.000000 0.546316 0.000000 -0.012466
# 5 0.002248 -0.001463 -0.001587 0.000000 0.018401 0.000000
# 6 0.000000 0.000000 0.000000 -0.012466 0.000000 0.031285
#
#
# Mechanical properties :
#
#
# Convention : Reuss Voigt Hill
#
# Bulk Modulus (GPa) = 25.93033 42.01441 33.97237
# Shear Modulus (GPa) = 7.41184 32.77732 20.09458
#
# Velocity S-wave (km/s) = 1.71201 3.60022 2.81892
# Velocity P-wave (km/s) = 3.76324 5.82207 4.90196
#
# Compressibility (1/GPa) = 0.03856487
#
# Stress axis : x y z
#
# Youngs Moduli (GPa) = 45.04871 42.79544 151.81140
#
# Poissons Ratio (x) = 0.03398 0.53815
# Poissons Ratio (y) = 0.03577 0.37266
# Poissons Ratio (z) = 0.15969 0.10505
#
# Static dielectric constant tensor:
#      x y z
#    x 2.057410 0.000000 0.030300 
#    y 0.000000 2.138920 0.000000 
#    z 0.030300 0.000000 1.953810 
# 
# From -- ./inp_files/1236.got.cif
#   From: 2010.05.17/outbox.cif.g08.bks.cpg/sg9_1_cif.got.tgz:1236.got - 2010.06.03 20:04:27.
