data_PCOD9139764
_publ_section_title
;
Structure prediction by ZEFSAII (Michael W. Deem and Ramdas Pophale) SiO2 
 PCOD9139764
Probable space group: C C
;
_chemical_formula_sum "Si O2"
_cell_formula_units_Z 32
_cell_length_a 9.861888
_cell_length_b 16.112818
_cell_length_c 10.228821
_cell_angle_alpha 90.000000
_cell_angle_beta 130.335052
_cell_angle_gamma 90.000000
_cell_volume 1238.988849
_symmetry_space_group_name_H-M "C C"
_symmetry_group_IT_number 9
_symmetry_cell_setting 'monoclinic'
loop_
_space_group_symop_operation_xyz
x,y,z
x,-y,1/2+z
1/2+x,1/2+y,z
1/2+x,1/2-y,1/2+z
loop_
_atom_site_type_symbol
_atom_site_label
_atom_site_fract_x
_atom_site_fract_y
_atom_site_fract_z
Si Si1 0.053800 0.684245 0.135630
Si Si2 0.009983 0.157025 0.109001
Si Si3 0.245433 0.081079 0.589030
Si Si4 0.818133 0.959971 0.849734
Si Si5 0.201890 0.012406 0.818111
Si Si6 0.837291 0.090685 0.647480
Si Si7 0.674663 0.753877 0.452525
Si Si8 0.692830 0.728933 0.977956
O O1 0.189470 0.609313 0.210727
O O2 0.130185 0.745112 0.295074
O O3 0.040494 0.726439 0.985992
O O4 0.858382 0.666785 0.067357
O O5 0.094279 0.066893 0.188270
O O6 0.101182 0.216152 0.273601
O O7 0.054779 0.191498 0.994000
O O8 0.802217 0.169027 0.004724
O O9 0.303824 0.024724 0.504661
O O10 0.284224 0.175693 0.581119
O O11 0.026372 0.068953 0.458622
O O12 0.313637 0.051158 0.770867
O O13 0.789758 0.043859 0.751163
O O14 0.774937 0.957677 0.976859
O O15 0.050561 0.077246 0.767959
O O16 0.764957 0.183499 0.584589
#
# Coordination Sequence:
#
# PCOD9139764 Si02
#       8
#     4   4   4   4   4   4   4   4
#     4  11  21  38  60  89 119 153 194 242 289 345
#     4  11  24  39  60  89 121 153 193 241 293 346
#     4   9  18  33  56  84 112 148 194 239 280 338
#     4   9  18  33  56  84 112 148 194 239 280 338
#     4   9  18  34  56  82 110 150 195 232 277 347
#     4   9  18  34  56  82 110 150 195 232 277 347
#     4  11  21  38  60  89 119 153 194 242 289 345
#     4  11  24  39  60  89 121 153 193 241 293 346
#
# _framework density 25.827511999999999
#
# number of rings (size 3 to 8) (size 9 to 14) (size 15 to 20)
#    0.000    2.000    0.000    6.000    0.000    8.000 
#    0.000    1.250    0.000    9.000    0.000    0.000 
#    0.000    0.000    0.000    0.000    0.000    0.000 
#
# Total GULP energy -89624.150973 kJ/mol
# GULP energy per Si atom -5601.509436 kJ/mol
# Density = 2.576873 g / cm^3
# Si number density = 25.827512 Si / 1000 Ang^3
#
#
#
# Elastic Constant Matrix: (Units=GPa)
#
#
# Indices 1 2 3 4 5 6 
#
# 1 95.1237 40.0055 37.2365 0.0000 -26.9580 0.0000
# 2 40.0055 124.6277 26.5476 0.0000 -14.2621 0.0000
# 3 37.2365 26.5476 78.0733 0.0000 -28.1060 0.0000
# 4 0.0000 0.0000 0.0000 25.8301 0.0000 -1.6535
# 5 -26.9580 -14.2621 -28.1060 0.0000 44.9990 0.0000
# 6 0.0000 0.0000 0.0000 -1.6535 0.0000 35.8619
#
#
#
# Elastic Compliance Matrix: (Units=1/GPa)
#
#
# Indices 1 2 3 4 5 6 
#
# 1 0.015052 -0.003341 -0.004100 0.000000 0.005398 0.000000
# 2 -0.003341 0.009440 -0.001625 0.000000 -0.000025 0.000000
# 3 -0.004100 -0.001625 0.018380 0.000000 0.008508 0.000000
# 4 0.000000 0.000000 0.000000 0.038829 0.000000 0.001790
# 5 0.005398 -0.000025 0.008508 0.000000 0.030763 0.000000
# 6 0.000000 0.000000 0.000000 0.001790 0.000000 0.027967
#
#
# Mechanical properties :
#
#
# Convention : Reuss Voigt Hill
#
# Bulk Modulus (GPa) = 40.42106 56.15597 48.28851
# Shear Modulus (GPa) = 29.97430 34.27386 32.12408
#
# Velocity S-wave (km/s) = 3.41039 3.64679 3.53057
# Velocity P-wave (km/s) = 5.58498 6.28665 5.94618
#
# Compressibility (1/GPa) = 0.02473958
#
# Stress axis : x y z
#
# Youngs Moduli (GPa) = 66.43502 105.93587 54.40819
#
# Poissons Ratio (x) = 0.35390 0.22307
# Poissons Ratio (y) = 0.22194 0.08843
# Poissons Ratio (z) = 0.27238 0.17219
#
# Static dielectric constant tensor:
#      x y z
#    x 1.951070 0.000000 0.007130 
#    y 0.000000 2.011410 0.000000 
#    z 0.007130 0.000000 2.069070 
# 
# From -- ./inp_files/15167.got.cif
#   From: 2010.05.17/outbox.cif.g08.bks.cpg/sg9_8_cif.got.tgz:15167.got - 2010.06.03 20:04:27.
