data_PCOD9139667
_publ_section_title
;
Structure prediction by ZEFSAII (Michael W. Deem and Ramdas Pophale) SiO2 
 PCOD9139667
Probable space group: C C
;
_chemical_formula_sum "Si O2"
_cell_formula_units_Z 28
_cell_length_a 17.754406
_cell_length_b 5.941108
_cell_length_c 12.377502
_cell_angle_alpha 90.000000
_cell_angle_beta 117.045917
_cell_angle_gamma 90.000000
_cell_volume 1162.813245
_symmetry_space_group_name_H-M "C C"
_symmetry_group_IT_number 9
_symmetry_cell_setting 'monoclinic'
loop_
_space_group_symop_operation_xyz
x,y,z
x,-y,1/2+z
1/2+x,1/2+y,z
1/2+x,1/2-y,1/2+z
loop_
_atom_site_type_symbol
_atom_site_label
_atom_site_fract_x
_atom_site_fract_y
_atom_site_fract_z
Si Si1 0.397040 0.028437 0.731200
Si Si2 0.912167 0.788639 0.949906
Si Si3 0.764641 0.300876 0.506108
Si Si4 0.144450 0.473343 0.542757
Si Si5 0.043469 0.464800 0.152236
Si Si6 0.113905 0.100165 0.337880
Si Si7 0.993306 0.826756 0.396925
O O1 0.317844 0.993020 0.602930
O O2 0.409032 0.800627 0.807613
O O3 0.388335 0.225780 0.811643
O O4 0.486728 0.035577 0.726413
O O5 0.970004 0.008007 0.978926
O O6 0.831200 0.818891 0.971097
O O7 0.967199 0.582427 0.032861
O O8 0.725043 0.120398 0.562944
O O9 0.690822 0.424381 0.391615
O O10 0.123111 0.396327 0.651131
O O11 0.133202 0.276699 0.448284
O O12 0.067144 0.655318 0.479949
O O13 0.095091 0.235654 0.217066
O O14 0.031446 0.962483 0.321440
#
# Coordination Sequence:
#
# PCOD9139667 Si02
#       7
#     4   4   4   4   4   4   4
#     4  11  23  45  65 106 135 182 237 286 348 429
#     4  11  23  45  66 107 135 183 228 299 342 423
#     4  10  28  43  68  99 148 182 228 288 372 403
#     4  11  23  46  62 105 134 180 236 287 349 427
#     4  11  20  42  74  93 137 174 240 282 335 415
#     4  11  23  46  66 102 141 182 228 296 346 431
#     4  11  20  43  73  94 136 177 243 278 344 418
#
# _framework density 24.079532
#
# number of rings (size 3 to 8) (size 9 to 14) (size 15 to 20)
#    0.000    1.143    5.714    0.000    2.000    4.571 
#    2.571    0.000    0.000    0.000    0.000    0.000 
#    0.000    0.000    0.000    0.000    0.000    0.000 
#
# Total GULP energy -78008.300114 kJ/mol
# GULP energy per Si atom -5572.021437 kJ/mol
# Density = 2.402473 g / cm^3
# Si number density = 24.079532 Si / 1000 Ang^3
#
#
#
# Elastic Constant Matrix: (Units=GPa)
#
#
# Indices 1 2 3 4 5 6 
#
# 1 152.5741 11.4540 16.7675 0.0000 -5.2194 0.0000
# 2 11.4540 43.1621 6.0008 0.0000 12.1196 0.0000
# 3 16.7675 6.0008 62.9933 0.0000 9.5005 0.0000
# 4 0.0000 0.0000 0.0000 10.5452 0.0000 17.5185
# 5 -5.2194 12.1196 9.5005 0.0000 19.0044 0.0000
# 6 0.0000 0.0000 0.0000 17.5185 0.0000 19.2447
#
#
#
# Elastic Compliance Matrix: (Units=1/GPa)
#
#
# Indices 1 2 3 4 5 6 
#
# 1 0.007220 -0.003016 -0.002405 0.000000 0.005108 0.000000
# 2 -0.003016 0.029482 0.001033 0.000000 -0.020146 0.000000
# 3 -0.002405 0.001033 0.017970 0.000000 -0.010302 0.000000
# 4 0.000000 0.000000 0.000000 -0.185123 0.000000 0.168517
# 5 0.005108 -0.020146 -0.010302 0.000000 0.072020 0.000000
# 6 0.000000 0.000000 0.000000 0.168517 0.000000 -0.101439
#
#
# Mechanical properties :
#
#
# Convention : Reuss Voigt Hill
#
# Bulk Modulus (GPa) = 21.78856 36.35268 29.07062
# Shear Modulus (GPa) = -36.82013 24.72602 -6.04706
#
# Velocity S-wave (km/s) = -3.91462 3.20792 -1.58642
# Velocity P-wave (km/s) = 3.37107 5.37129 2.95691
#
# Compressibility (1/GPa) = 0.04589564
#
# Stress axis : x y z
#
# Youngs Moduli (GPa) = 138.51112 33.91896 55.64757
#
# Poissons Ratio (x) = 0.10230 0.13382
# Poissons Ratio (y) = 0.41774 -0.05746
# Poissons Ratio (z) = 0.33310 -0.03503
#
# Static dielectric constant tensor:
#      x y z
#    x 2.006820 0.000000 -0.193540 
#    y 0.000000 2.031310 0.000000 
#    z -0.193540 0.000000 2.138520 
# 
# From -- ./inp_files/19764.got.cif
#   From: 2010.05.17/outbox.cif.g08.bks.cpg/sg9_10_cif.got.tgz:19764.got - 2010.06.03 20:04:27.
