data_PCOD9139418
_publ_section_title
;
Structure prediction by ZEFSAII (Michael W. Deem and Ramdas Pophale) SiO2 
 PCOD9139418
Probable space group: C C
;
_chemical_formula_sum "Si O2"
_cell_formula_units_Z 28
_cell_length_a 16.197050
_cell_length_b 9.413669
_cell_length_c 22.297769
_cell_angle_alpha 90.000000
_cell_angle_beta 160.009584
_cell_angle_gamma 90.000000
_cell_volume 1162.273402
_symmetry_space_group_name_H-M "C C"
_symmetry_group_IT_number 9
_symmetry_cell_setting 'monoclinic'
loop_
_space_group_symop_operation_xyz
x,y,z
x,-y,1/2+z
1/2+x,1/2+y,z
1/2+x,1/2-y,1/2+z
loop_
_atom_site_type_symbol
_atom_site_label
_atom_site_fract_x
_atom_site_fract_y
_atom_site_fract_z
Si Si1 0.572790 0.961774 0.342240
Si Si2 0.844779 0.872199 0.361721
Si Si3 0.167124 0.366842 0.791475
Si Si4 0.776408 0.646438 0.232508
Si Si5 0.389265 0.075530 0.910516
Si Si6 0.835058 0.179180 0.135237
Si Si7 0.851561 0.548271 0.511140
O O1 0.735662 0.878966 0.503180
O O2 0.408004 0.843458 0.196288
O O3 0.699661 0.060426 0.378506
O O4 0.408675 0.068829 0.268519
O O5 0.910694 0.786867 0.347573
O O6 0.011060 0.817270 0.528107
O O7 0.844945 0.042205 0.368621
O O8 0.558864 0.842802 0.175614
O O9 0.220542 0.204339 0.817277
O O10 0.901429 0.412365 0.587384
O O11 0.773059 0.534254 0.284545
O O12 0.446601 0.994238 0.010441
O O13 0.624315 0.138352 0.038348
O O14 0.080814 0.097287 0.320484
#
# Coordination Sequence:
#
# PCOD9139418 Si02
#       7
#     4   4   4   4   4   4   4
#     4  11  26  46  77 111 154 199 254 320 379 468
#     4  10  25  44  74 105 144 202 252 303 383 457
#     4  10  26  45  72 115 146 194 254 317 386 444
#     4  11  25  48  74 108 152 199 257 312 383 458
#     4  11  26  48  79 113 153 204 254 329 381 456
#     4  11  26  47  75 113 155 206 258 307 398 463
#     4  10  26  44  79 109 152 202 255 312 382 466
#
# _framework density 24.090717999999999
#
# number of rings (size 3 to 8) (size 9 to 14) (size 15 to 20)
#    0.857    0.571    0.000    2.571   12.000    1.143 
#   10.286    0.000    0.000    0.000    0.000    0.000 
#    0.000    0.000    0.000    0.000    0.000    0.000 
#
# Total GULP energy -78179.614620 kJ/mol
# GULP energy per Si atom -5584.258187 kJ/mol
# Density = 2.403589 g / cm^3
# Si number density = 24.090718 Si / 1000 Ang^3
#
#
#
# Elastic Constant Matrix: (Units=GPa)
#
#
# Indices 1 2 3 4 5 6 
#
# 1 125.1133 55.6836 60.2903 0.0076 -12.2951 -0.0024
# 2 55.6836 122.4760 34.9363 -0.0367 -9.1820 -0.0012
# 3 60.2903 34.9363 130.3934 -0.0175 -22.7640 -0.0109
# 4 0.0076 -0.0367 -0.0175 20.8500 -0.0208 3.4428
# 5 -12.2951 -9.1820 -22.7640 -0.0208 24.0441 -0.0022
# 6 -0.0024 -0.0012 -0.0109 3.4428 -0.0022 44.6275
#
#
#
# Elastic Compliance Matrix: (Units=1/GPa)
#
#
# Indices 1 2 3 4 5 6 
#
# 1 0.011991 -0.004179 -0.004352 -0.000015 0.000415 0.000001
# 2 -0.004179 0.010334 -0.000624 0.000021 0.001219 -0.000002
# 3 -0.004352 -0.000624 0.011283 0.000018 0.008219 0.000002
# 4 -0.000015 0.000021 0.000018 0.048581 0.000059 -0.003748
# 5 0.000415 0.001219 0.008219 0.000059 0.050050 0.000000
# 6 0.000001 -0.000002 0.000002 -0.003748 0.000000 0.022697
#
#
# Mechanical properties :
#
#
# Convention : Reuss Voigt Hill
#
# Bulk Modulus (GPa) = 65.36516 75.53368 70.44942
# Shear Modulus (GPa) = 28.03565 33.04247 30.53906
#
# Velocity S-wave (km/s) = 3.41508 3.70751 3.56430
# Velocity P-wave (km/s) = 6.53775 7.05333 6.80043
#
# Compressibility (1/GPa) = 0.01529867
#
# Stress axis : x y z
#
# Youngs Moduli (GPa) = 83.39837 96.76633 88.62633
#
# Poissons Ratio (x) = 0.40439 0.38570
# Poissons Ratio (y) = 0.34852 0.05528
# Poissons Ratio (z) = 0.36295 0.06036
#
# Static dielectric constant tensor:
#      x y z
#    x 1.937260 0.000010 -0.009750 
#    y 0.000010 1.920210 -0.000020 
#    z -0.009750 -0.000020 1.937860 
# 
# From -- ./inp_files/35828.got.cif
#   From: 2010.05.17/outbox.cif.g08.bks.cpg/sg9_18_cif.got.tgz:35828.got - 2010.06.03 20:04:27.
