data_PCOD9139405
_publ_section_title
;
Structure prediction by ZEFSAII (Michael W. Deem and Ramdas Pophale) SiO2 
 PCOD9139405
Probable space group: C C
;
_chemical_formula_sum "Si O2"
_cell_formula_units_Z 32
_cell_length_a 14.370215
_cell_length_b 4.951059
_cell_length_c 17.863507
_cell_angle_alpha 90.000000
_cell_angle_beta 93.991135
_cell_angle_gamma 90.000000
_cell_volume 1267.866642
_symmetry_space_group_name_H-M "C C"
_symmetry_group_IT_number 9
_symmetry_cell_setting 'monoclinic'
loop_
_space_group_symop_operation_xyz
x,y,z
x,-y,1/2+z
1/2+x,1/2+y,z
1/2+x,1/2-y,1/2+z
loop_
_atom_site_type_symbol
_atom_site_label
_atom_site_fract_x
_atom_site_fract_y
_atom_site_fract_z
Si Si1 0.171200 0.589270 0.570180
Si Si2 0.005801 0.413245 0.644356
Si Si3 0.250915 0.254380 0.928032
Si Si4 0.271908 0.894692 0.126701
Si Si5 0.906720 0.134140 0.870669
Si Si6 0.237480 0.960927 0.784789
Si Si7 0.030342 0.117992 0.246391
Si Si8 0.898971 0.574908 0.513035
O O1 0.180662 0.618877 0.482567
O O2 0.187322 0.279585 0.591730
O O3 0.074483 0.628393 0.605676
O O4 0.248139 0.790027 0.610350
O O5 0.027992 0.137431 0.689180
O O6 0.948261 0.341028 0.564694
O O7 0.979731 0.613412 0.712243
O O8 0.341819 0.426905 0.913007
O O9 0.207662 0.162741 0.848856
O O10 0.298596 0.002596 0.972306
O O11 0.269884 0.870546 0.214988
O O12 0.359486 0.774414 0.085569
O O13 0.827836 0.295317 0.818064
O O14 0.978781 0.987629 0.819239
O O15 0.949549 0.308344 0.942689
O O16 0.140463 0.806557 0.763455
#
# Coordination Sequence:
#
# PCOD9139405 Si02
#       8
#     4   4   4   4   4   4   4   4
#     4  11  22  45  68  99 139 178 238 288 349 431
#     4  12  26  48  70 107 142 191 241 306 360 435
#     4  10  25  45  70 104 139 194 239 291 374 434
#     4  11  22  43  70  99 137 179 240 286 347 436
#     4  11  26  48  71 107 149 194 242 304 374 447
#     4  11  25  46  72 106 144 195 237 308 366 443
#     4  12  29  47  72 111 147 188 250 300 374 442
#     4  10  25  44  69 103 141 191 237 301 362 432
#
# _framework density 25.239249999999998
#
# number of rings (size 3 to 8) (size 9 to 14) (size 15 to 20)
#    0.000    1.000    3.750    0.750   12.250    0.000 
#    2.250    0.000    0.000    0.000    0.000    0.000 
#    0.000    0.000    0.000    0.000    0.000    0.000 
#
# Total GULP energy -89097.677916 kJ/mol
# GULP energy per Si atom -5568.604870 kJ/mol
# Density = 2.518180 g / cm^3
# Si number density = 25.239250 Si / 1000 Ang^3
#
#
#
# Elastic Constant Matrix: (Units=GPa)
#
#
# Indices 1 2 3 4 5 6 
#
# 1 82.2922 6.3767 32.3250 0.0000 -15.6911 0.0000
# 2 6.3767 79.4033 27.0293 0.0000 -4.7659 0.0000
# 3 32.3250 27.0293 152.4619 0.0000 -18.4238 0.0000
# 4 0.0000 0.0000 0.0000 36.2248 0.0000 -7.5891
# 5 -15.6911 -4.7659 -18.4238 0.0000 41.8187 0.0000
# 6 0.0000 0.0000 0.0000 -7.5891 0.0000 20.7827
#
#
#
# Elastic Compliance Matrix: (Units=1/GPa)
#
#
# Indices 1 2 3 4 5 6 
#
# 1 0.013902 -0.000037 -0.002441 0.000000 0.004137 0.000000
# 2 -0.000037 0.013413 -0.002310 0.000000 0.000497 0.000000
# 3 -0.002441 -0.002310 0.007757 0.000000 0.002238 0.000000
# 4 0.000000 0.000000 0.000000 0.029892 0.000000 0.010916
# 5 0.004137 0.000497 0.002238 0.000000 0.026508 0.000000
# 6 0.000000 0.000000 0.000000 0.010916 0.000000 0.052103
#
#
# Mechanical properties :
#
#
# Convention : Reuss Voigt Hill
#
# Bulk Modulus (GPa) = 39.22278 49.51324 44.36801
# Shear Modulus (GPa) = 30.93108 36.32700 33.62904
#
# Velocity S-wave (km/s) = 3.50453 3.79793 3.65418
# Velocity P-wave (km/s) = 5.65242 6.23639 5.95157
#
# Compressibility (1/GPa) = 0.02549539
#
# Stress axis : x y z
#
# Youngs Moduli (GPa) = 71.93027 74.55407 128.92319
#
# Poissons Ratio (x) = 0.00277 0.31471
# Poissons Ratio (y) = 0.00268 0.29781
# Poissons Ratio (z) = 0.17559 0.17222
#
# Static dielectric constant tensor:
#      x y z
#    x 2.612950 0.000000 0.135080 
#    y 0.000000 2.096980 0.000000 
#    z 0.135080 0.000000 2.069930 
# 
# From -- ./inp_files/30396.got.cif
#   From: 2010.05.17/outbox.cif.g08.bks.cpg/sg9_16_cif.got.tgz:30396.got - 2010.06.03 20:04:27.
