data_PCOD9139038
_publ_section_title
;
Structure prediction by ZEFSAII (Michael W. Deem and Ramdas Pophale) SiO2 
 PCOD9139038
Probable space group: C C
;
_chemical_formula_sum "Si O2"
_cell_formula_units_Z 24
_cell_length_a 6.835793
_cell_length_b 13.758152
_cell_length_c 10.852255
_cell_angle_alpha 90.000000
_cell_angle_beta 96.361857
_cell_angle_gamma 90.000000
_cell_volume 1014.346422
_symmetry_space_group_name_H-M "C C"
_symmetry_group_IT_number 9
_symmetry_cell_setting 'monoclinic'
loop_
_space_group_symop_operation_xyz
x,y,z
x,-y,1/2+z
1/2+x,1/2+y,z
1/2+x,1/2-y,1/2+z
loop_
_atom_site_type_symbol
_atom_site_label
_atom_site_fract_x
_atom_site_fract_y
_atom_site_fract_z
Si Si1 0.530580 0.679020 0.710060
Si Si2 0.336926 0.024711 0.409426
Si Si3 0.717960 0.678736 0.216491
Si Si4 0.972947 0.640075 0.762329
Si Si5 0.706740 0.945017 0.066040
Si Si6 0.508643 0.588517 0.983646
O O1 0.441023 0.786483 0.712086
O O2 0.759836 0.671975 0.695542
O O3 0.384486 0.628991 0.602033
O O4 0.496676 0.626946 0.842191
O O5 0.607431 0.235143 0.782684
O O6 0.226018 0.078894 0.291378
O O7 0.529075 0.083899 0.462961
O O8 0.419135 0.918698 0.379875
O O9 0.597503 0.667571 0.082199
O O10 0.670492 0.498330 0.495748
O O11 0.087792 0.561014 0.686487
O O12 0.810231 0.042877 0.025757
#
# Coordination Sequence:
#
# PCOD9139038 Si02
#       6
#     4   4   4   4   4   4
#     4  10  24  44  65 103 139 176 235 285 346 427
#     4  11  24  44  70 104 137 183 230 290 357 422
#     4  11  25  43  71 101 134 186 234 290 357 413
#     4  10  24  46  66 101 143 180 238 285 348 428
#     4  11  21  41  69  98 137 177 224 286 346 420
#     4  11  24  44  69  99 136 180 235 286 352 418
#
# _framework density 23.660554000000001
#
# number of rings (size 3 to 8) (size 9 to 14) (size 15 to 20)
#    0.000    1.333    0.000    6.000    4.667    4.000 
#   12.000    0.000    0.000    0.000    0.000    0.000 
#    0.000    0.000    0.000    0.000    0.000    0.000 
#
# Total GULP energy -66966.664606 kJ/mol
# GULP energy per Si atom -5580.555384 kJ/mol
# Density = 2.360670 g / cm^3
# Si number density = 23.660554 Si / 1000 Ang^3
#
#
#
# Elastic Constant Matrix: (Units=GPa)
#
#
# Indices 1 2 3 4 5 6 
#
# 1 161.0889 25.4442 14.4988 0.0000 10.0137 0.0000
# 2 25.4442 63.8878 16.6856 0.0000 -2.0991 0.0000
# 3 14.4988 16.6856 45.3611 0.0000 19.4291 0.0000
# 4 0.0000 0.0000 0.0000 26.6124 0.0000 3.1718
# 5 10.0137 -2.0991 19.4291 0.0000 39.8987 0.0000
# 6 0.0000 0.0000 0.0000 3.1718 0.0000 38.2273
#
#
#
# Elastic Compliance Matrix: (Units=1/GPa)
#
#
# Indices 1 2 3 4 5 6 
#
# 1 0.006765 -0.002609 -0.000527 0.000000 -0.001579 0.000000
# 2 -0.002609 0.019174 -0.008758 0.000000 0.005928 0.000000
# 3 -0.000527 -0.008758 0.032316 0.000000 -0.016065 0.000000
# 4 0.000000 0.000000 0.000000 0.037952 0.000000 -0.003149
# 5 -0.001579 0.005928 -0.016065 0.000000 0.033595 0.000000
# 6 0.000000 0.000000 0.000000 -0.003149 0.000000 0.026421
#
#
# Mechanical properties :
#
#
# Convention : Reuss Voigt Hill
#
# Bulk Modulus (GPa) = 29.01218 42.62164 35.81691
# Shear Modulus (GPa) = 26.10979 35.19495 30.65237
#
# Velocity S-wave (km/s) = 3.32552 3.86099 3.60322
# Velocity P-wave (km/s) = 5.19942 6.15867 5.69926
#
# Compressibility (1/GPa) = 0.03446829
#
# Stress axis : x y z
#
# Youngs Moduli (GPa) = 147.81221 52.15513 30.94402
#
# Poissons Ratio (x) = 0.13606 0.01629
# Poissons Ratio (y) = 0.38560 0.27101
# Poissons Ratio (z) = 0.07784 0.45678
#
# Static dielectric constant tensor:
#      x y z
#    x 1.894080 0.000000 0.015790 
#    y 0.000000 1.905130 0.000000 
#    z 0.015790 0.000000 1.924680 
# 
# From -- ./inp_files/12990.got.cif
#   From: 2010.05.17/outbox.cif.g08.bks.cpg/sg9_7_cif.got.tgz:12990.got - 2010.06.03 20:04:27.
