data_PCOD9139184
_publ_section_title
;
Structure prediction by ZEFSAII (Michael W. Deem and Ramdas Pophale) SiO2 
 PCOD9139184
Probable space group: C C
;
_chemical_formula_sum "Si O2"
_cell_formula_units_Z 24
_cell_length_a 8.494756
_cell_length_b 12.067763
_cell_length_c 9.561629
_cell_angle_alpha 90.000000
_cell_angle_beta 79.410365
_cell_angle_gamma 90.000000
_cell_volume 963.494455
_symmetry_space_group_name_H-M "C C"
_symmetry_group_IT_number 9
_symmetry_cell_setting 'monoclinic'
loop_
_space_group_symop_operation_xyz
x,y,z
x,-y,1/2+z
1/2+x,1/2+y,z
1/2+x,1/2-y,1/2+z
loop_
_atom_site_type_symbol
_atom_site_label
_atom_site_fract_x
_atom_site_fract_y
_atom_site_fract_z
Si Si1 0.529290 0.872630 0.176440
Si Si2 0.013057 0.712485 0.987952
Si Si3 0.830293 0.074088 0.439666
Si Si4 0.772161 0.452803 0.603954
Si Si5 0.094985 0.930855 0.354095
Si Si6 0.753767 0.787203 0.697014
O O1 0.693473 0.901626 0.074476
O O2 0.433355 0.760867 0.146466
O O3 0.540434 0.141425 0.842190
O O4 0.408663 0.966898 0.141080
O O5 0.157790 0.702177 0.070370
O O6 0.970093 0.836774 0.951861
O O7 0.853618 0.666711 0.091938
O O8 0.760946 0.108542 0.299312
O O9 0.914082 0.954646 0.429524
O O10 0.715395 0.468846 0.455663
O O11 0.621382 0.485577 0.720891
O O12 0.153584 0.809492 0.297626
#
# Coordination Sequence:
#
# PCOD9139184 Si02
#       6
#     4   4   4   4   4   4
#     4  10  24  46  66 109 144 188 255 301 382 446
#     4  11  24  46  72 103 148 198 245 315 376 448
#     4  11  24  44  75 108 140 198 246 308 385 453
#     4  11  22  48  71 100 148 193 248 314 375 447
#     4  11  24  47  73 103 150 195 243 317 380 447
#     4  10  24  47  69 107 146 196 249 311 376 449
#
# _framework density 24.909327999999999
#
# number of rings (size 3 to 8) (size 9 to 14) (size 15 to 20)
#    0.000    1.333    5.000    2.000    7.000    1.333 
#   15.000    0.000    0.000    0.000    0.000    0.000 
#    0.000    0.000    0.000    0.000    0.000    0.000 
#
# Total GULP energy -67165.366253 kJ/mol
# GULP energy per Si atom -5597.113854 kJ/mol
# Density = 2.485263 g / cm^3
# Si number density = 24.909328 Si / 1000 Ang^3
#
#
#
# Elastic Constant Matrix: (Units=GPa)
#
#
# Indices 1 2 3 4 5 6 
#
# 1 126.3371 30.6442 68.0545 0.0000 1.9321 0.0000
# 2 30.6442 69.5835 14.9149 0.0000 5.9345 0.0000
# 3 68.0545 14.9149 136.1066 0.0000 40.8258 0.0000
# 4 0.0000 0.0000 0.0000 19.1904 0.0000 -9.4694
# 5 1.9321 5.9345 40.8258 0.0000 57.4793 0.0000
# 6 0.0000 0.0000 0.0000 -9.4694 0.0000 29.7263
#
#
#
# Elastic Compliance Matrix: (Units=1/GPa)
#
#
# Indices 1 2 3 4 5 6 
#
# 1 0.013084 -0.004583 -0.007688 0.000000 0.005494 0.000000
# 2 -0.004583 0.016332 0.001222 0.000000 -0.002400 0.000000
# 3 -0.007688 0.001222 0.014000 0.000000 -0.009812 0.000000
# 4 0.000000 0.000000 0.000000 0.061828 0.000000 0.019695
# 5 0.005494 -0.002400 -0.009812 0.000000 0.024430 0.000000
# 6 0.000000 0.000000 0.000000 0.019695 0.000000 0.039914
#
#
# Mechanical properties :
#
#
# Convention : Reuss Voigt Hill
#
# Bulk Modulus (GPa) = 46.90752 62.13936 54.52344
# Shear Modulus (GPa) = 25.15172 35.84011 30.49591
#
# Velocity S-wave (km/s) = 3.18107 3.79730 3.50276
# Velocity P-wave (km/s) = 5.68898 6.65029 6.18833
#
# Compressibility (1/GPa) = 0.02131854
#
# Stress axis : x y z
#
# Youngs Moduli (GPa) = 76.42802 61.22830 71.42635
#
# Poissons Ratio (x) = 0.28060 0.54912
# Poissons Ratio (y) = 0.35026 -0.08725
# Poissons Ratio (z) = 0.58757 -0.07480
#
# Static dielectric constant tensor:
#      x y z
#    x 1.982740 0.000000 -0.059930 
#    y 0.000000 1.985970 0.000000 
#    z -0.059930 0.000000 1.948890 
# 
# From -- ./inp_files/14206.got.cif
#   From: 2010.05.17/outbox.cif.g08.bks.cpg/sg9_8_cif.got.tgz:14206.got - 2010.06.03 20:04:27.
