data_PCOD9139198
_publ_section_title
;
Structure prediction by ZEFSAII (Michael W. Deem and Ramdas Pophale) SiO2 
 PCOD9139198
Probable space group: C C
;
_chemical_formula_sum "Si O2"
_cell_formula_units_Z 28
_cell_length_a 9.535354
_cell_length_b 17.211585
_cell_length_c 10.410005
_cell_angle_alpha 90.000000
_cell_angle_beta 137.089369
_cell_angle_gamma 90.000000
_cell_volume 1163.226774
_symmetry_space_group_name_H-M "C C"
_symmetry_group_IT_number 9
_symmetry_cell_setting 'monoclinic'
loop_
_space_group_symop_operation_xyz
x,y,z
x,-y,1/2+z
1/2+x,1/2+y,z
1/2+x,1/2-y,1/2+z
loop_
_atom_site_type_symbol
_atom_site_label
_atom_site_fract_x
_atom_site_fract_y
_atom_site_fract_z
Si Si1 0.695010 0.888041 0.424950
Si Si2 0.341386 0.611959 0.291068
Si Si3 0.424039 0.166869 0.099077
Si Si4 0.963846 0.658614 0.540583
Si Si5 0.612357 0.333131 0.616942
Si Si6 0.268198 0.460496 0.108009
Si Si7 0.572550 0.341386 0.175436
O O1 0.768198 0.848518 0.608009
O O2 0.508672 0.852522 0.220902
O O3 0.899102 0.878765 0.474774
O O4 0.662826 0.977437 0.440536
O O5 0.527724 0.647478 0.495116
O O6 0.373571 0.522563 0.275482
O O7 0.137294 0.621234 0.241245
O O8 0.302180 0.154295 0.884175
O O9 0.268198 0.145436 0.108009
O O10 0.484322 0.257135 0.154662
O O11 0.734216 0.654295 0.331844
O O12 0.052074 0.742864 0.561357
O O13 0.097352 0.592400 0.559780
O O14 0.439043 0.407600 0.156238
#
# Coordination Sequence:
#
# PCOD9139198 Si02
#       7
#     4   4   4   4   4   4   4
#     4  10  26  46  65 105 144 177 221 286 352 399
#     4  10  26  46  65 105 144 177 221 286 352 399
#     4  12  24  42  75 105 127 184 240 277 330 411
#     4  12  22  44  74  99 138 180 232 282 333 407
#     4  12  24  42  75 105 127 184 240 277 330 411
#     4  10  24  46  70 100 146 176 222 290 346 400
#     4  12  22  44  74  99 138 180 232 282 333 407
#
# _framework density 24.070974
#
# number of rings (size 3 to 8) (size 9 to 14) (size 15 to 20)
#    0.857    0.000    4.286    3.429    0.000    3.429 
#    0.000    2.857    0.000    0.000    0.000    0.000 
#    0.000    0.000    0.000    0.000    0.000    0.000 
#
# Total GULP energy -78339.746520 kJ/mol
# GULP energy per Si atom -5595.696180 kJ/mol
# Density = 2.401619 g / cm^3
# Si number density = 24.070974 Si / 1000 Ang^3
#
#
#
# Elastic Constant Matrix: (Units=GPa)
#
#
# Indices 1 2 3 4 5 6 
#
# 1 71.3164 11.7211 23.9217 0.0000 -4.9974 0.0000
# 2 11.7211 57.9340 21.6099 0.0000 -11.5260 0.0000
# 3 23.9217 21.6099 179.3234 0.0000 4.5360 0.0000
# 4 0.0000 0.0000 0.0000 30.0270 0.0000 -11.8869
# 5 -4.9974 -11.5260 4.5360 0.0000 34.0798 0.0000
# 6 0.0000 0.0000 0.0000 -11.8869 0.0000 -10.6036
#
#
#
# Elastic Compliance Matrix: (Units=1/GPa)
#
#
# Indices 1 2 3 4 5 6 
#
# 1 0.015087 -0.002024 -0.001813 0.000000 0.001769 0.000000
# 2 -0.002024 0.019864 -0.002294 0.000000 0.006727 0.000000
# 3 -0.001813 -0.002294 0.006142 0.000000 -0.001859 0.000000
# 4 0.000000 0.000000 0.000000 0.023067 0.000000 -0.025858
# 5 0.001769 0.006727 -0.001859 0.000000 0.032125 0.000000
# 6 0.000000 0.000000 0.000000 -0.025858 0.000000 -0.065320
#
#
# Mechanical properties :
#
#
# Convention : Reuss Voigt Hill
#
# Bulk Modulus (GPa) = 34.68541 47.00878 40.84709
# Shear Modulus (GPa) = 94.62881 27.45537 61.04209
#
# Velocity S-wave (km/s) = 6.27676 3.38094 5.04126
# Velocity P-wave (km/s) = 8.18360 5.90023 7.13386
#
# Compressibility (1/GPa) = 0.02883057
#
# Stress axis : x y z
#
# Youngs Moduli (GPa) = 66.28257 50.34109 162.81591
#
# Poissons Ratio (x) = 0.10189 0.29526
# Poissons Ratio (y) = 0.13415 0.37350
# Poissons Ratio (z) = 0.12020 0.11548
#
# Static dielectric constant tensor:
#      x y z
#    x 1.944450 0.000000 -0.115330 
#    y 0.000000 1.840990 0.000000 
#    z -0.115330 0.000000 1.962410 
# 
# From -- ./inp_files/16982.got.cif
#   From: 2010.05.17/outbox.cif.g08.bks.cpg/sg9_9_cif.got.tgz:16982.got - 2010.06.03 20:04:27.
