data_PCOD9139295
_publ_section_title
;
Structure prediction by ZEFSAII (Michael W. Deem and Ramdas Pophale) SiO2 
 PCOD9139295
Probable space group: C C
;
_chemical_formula_sum "Si O2"
_cell_formula_units_Z 20
_cell_length_a 8.187613
_cell_length_b 12.709155
_cell_length_c 9.589267
_cell_angle_alpha 90.000000
_cell_angle_beta 51.512349
_cell_angle_gamma 90.000000
_cell_volume 781.048862
_symmetry_space_group_name_H-M "C C"
_symmetry_group_IT_number 9
_symmetry_cell_setting 'monoclinic'
loop_
_space_group_symop_operation_xyz
x,y,z
x,-y,1/2+z
1/2+x,1/2+y,z
1/2+x,1/2-y,1/2+z
loop_
_atom_site_type_symbol
_atom_site_label
_atom_site_fract_x
_atom_site_fract_y
_atom_site_fract_z
Si Si1 0.575100 0.334668 0.332060
Si Si2 0.201273 0.394600 0.732518
Si Si3 0.460037 0.321436 0.070968
Si Si4 0.802475 0.508227 0.324023
Si Si5 0.566282 0.894399 0.372419
O O1 0.409044 0.376478 0.532708
O O2 0.647908 0.216973 0.329347
O O3 0.481771 0.325631 0.227129
O O4 0.756809 0.421923 0.231095
O O5 0.189366 0.495833 0.841008
O O6 0.017885 0.427675 0.720559
O O7 0.220558 0.350585 0.168716
O O8 0.618846 0.407818 0.927765
O O9 0.524616 0.207512 0.985275
O O10 0.841445 0.433223 0.437552
#
# Coordination Sequence:
#
# PCOD9139295 Si02
#       5
#     4   4   4   4   4
#     4  12  24  47  79 108 144 200 249 300 369 443
#     4  10  24  48  71 109 147 189 248 304 365 437
#     4  12  24  47  77 108 149 195 246 306 370 436
#     4  10  24  49  73 105 147 199 242 300 371 442
#     4  10  26  49  70 110 149 195 239 308 371 436
#
# _framework density 25.606590000000001
#
# number of rings (size 3 to 8) (size 9 to 14) (size 15 to 20)
#    1.200    0.000    2.000    3.600    0.000    6.400 
#    3.600    0.000    0.000    0.000    0.000    0.000 
#    0.000    0.000    0.000    0.000    0.000    0.000 
#
# Total GULP energy -55834.409426 kJ/mol
# GULP energy per Si atom -5583.440943 kJ/mol
# Density = 2.554831 g / cm^3
# Si number density = 25.606590 Si / 1000 Ang^3
#
#
#
# Elastic Constant Matrix: (Units=GPa)
#
#
# Indices 1 2 3 4 5 6 
#
# 1 48.5606 57.2047 28.8734 0.0000 -9.0515 0.0000
# 2 57.2047 244.0476 73.4411 0.0000 9.9399 0.0000
# 3 28.8734 73.4411 93.2105 0.0000 -15.6664 0.0000
# 4 0.0000 0.0000 0.0000 31.0142 0.0000 -8.9488
# 5 -9.0515 9.9399 -15.6664 0.0000 18.8297 0.0000
# 6 0.0000 0.0000 0.0000 -8.9488 0.0000 49.3747
#
#
#
# Elastic Compliance Matrix: (Units=1/GPa)
#
#
# Indices 1 2 3 4 5 6 
#
# 1 0.035561 -0.009199 -0.000091 0.000000 0.021874 0.000000
# 2 -0.009199 0.008809 -0.006529 0.000000 -0.014505 0.000000
# 3 -0.000091 -0.006529 0.019151 0.000000 0.019337 0.000000
# 4 0.000000 0.000000 0.000000 0.034023 0.000000 0.006166
# 5 0.021874 -0.014505 0.019337 0.000000 0.087368 0.000000
# 6 0.000000 0.000000 0.000000 0.006166 0.000000 0.021371
#
#
# Mechanical properties :
#
#
# Convention : Reuss Voigt Hill
#
# Bulk Modulus (GPa) = 31.36502 78.31747 54.84124
# Shear Modulus (GPa) = 20.11672 34.93035 27.52353
#
# Velocity S-wave (km/s) = 2.80591 3.69740 3.28206
# Velocity P-wave (km/s) = 4.77210 6.99135 5.98548
#
# Compressibility (1/GPa) = 0.03188265
#
# Stress axis : x y z
#
# Youngs Moduli (GPa) = 28.12097 113.51402 52.21582
#
# Poissons Ratio (x) = 1.04421 0.00475
# Poissons Ratio (y) = 0.25868 0.34094
# Poissons Ratio (z) = 0.00256 0.74118
#
# Static dielectric constant tensor:
#      x y z
#    x 2.156420 0.000000 0.015960 
#    y 0.000000 1.996700 0.000000 
#    z 0.015960 0.000000 2.028130 
# 
# From -- ./inp_files/12477.got.cif
#   From: 2010.05.17/outbox.cif.g08.bks.cpg/sg9_7_cif.got.tgz:12477.got - 2010.06.03 20:04:27.
