data_PCOD9139311
_publ_section_title
;
Structure prediction by ZEFSAII (Michael W. Deem and Ramdas Pophale) SiO2 
 PCOD9139311
Probable space group: C C
;
_chemical_formula_sum "Si O2"
_cell_formula_units_Z 32
_cell_length_a 16.535232
_cell_length_b 14.519633
_cell_length_c 8.710710
_cell_angle_alpha 90.000000
_cell_angle_beta 41.522801
_cell_angle_gamma 90.000000
_cell_volume 1386.370561
_symmetry_space_group_name_H-M "C C"
_symmetry_group_IT_number 9
_symmetry_cell_setting 'monoclinic'
loop_
_space_group_symop_operation_xyz
x,y,z
x,-y,1/2+z
1/2+x,1/2+y,z
1/2+x,1/2-y,1/2+z
loop_
_atom_site_type_symbol
_atom_site_label
_atom_site_fract_x
_atom_site_fract_y
_atom_site_fract_z
Si Si1 0.574340 0.602078 0.769610
Si Si2 0.688082 0.139271 0.622161
Si Si3 0.843662 0.792282 0.627166
Si Si4 0.005454 0.062708 0.538354
Si Si5 0.187339 0.796132 0.843228
Si Si6 0.421347 0.909968 0.524439
Si Si7 0.244986 0.427126 0.499242
Si Si8 0.958826 0.604725 0.336462
O O1 0.514561 0.550688 0.708488
O O2 0.596682 0.515046 0.844128
O O3 0.662402 0.674367 0.557202
O O4 0.469401 0.659258 0.000523
O O5 0.754622 0.199079 0.397332
O O6 0.699625 0.194008 0.765054
O O7 0.733776 0.034105 0.566961
O O8 0.546717 0.128560 0.778300
O O9 0.787025 0.854626 0.570528
O O10 0.888716 0.694279 0.499692
O O11 0.069081 0.161474 0.425126
O O12 0.860784 0.066535 0.715962
O O13 0.307904 0.851014 0.630904
O O14 0.435146 0.903322 0.688690
O O15 0.407872 0.015146 0.494133
O O16 0.105592 0.398834 0.655492
#
# Coordination Sequence:
#
# PCOD9139311 Si02
#       8
#     4   4   4   4   4   4   4   4
#     4   9  20  41  67 104 141 187 241 300 362 431
#     4  11  25  46  75 108 150 200 245 308 376 444
#     4  11  24  47  73 114 141 197 250 308 369 442
#     4   9  20  41  72 104 139 190 238 306 363 433
#     4  10  25  46  71 103 157 183 255 292 383 439
#     4  11  28  48  73 111 150 204 241 314 372 451
#     4  10  24  48  78 105 152 183 259 301 371 447
#     4  11  28  47  79 107 154 198 249 307 384 437
#
# _framework density 23.081851
#
# number of rings (size 3 to 8) (size 9 to 14) (size 15 to 20)
#    0.750    1.000    1.250    0.750   10.500    2.000 
#    4.500    0.000    0.000    0.000    0.000    0.000 
#    0.000    0.000    0.000    0.000    0.000    0.000 
#
# Total GULP energy -89212.351839 kJ/mol
# GULP energy per Si atom -5575.771990 kJ/mol
# Density = 2.302932 g / cm^3
# Si number density = 23.081851 Si / 1000 Ang^3
#
#
#
# Elastic Constant Matrix: (Units=GPa)
#
#
# Indices 1 2 3 4 5 6 
#
# 1 51.4170 48.4957 37.9054 0.0000 -20.2794 0.0000
# 2 48.4957 166.0280 81.6282 0.0000 -9.0238 0.0000
# 3 37.9054 81.6282 133.4877 0.0000 -11.3017 0.0000
# 4 0.0000 0.0000 0.0000 38.5541 0.0000 2.3460
# 5 -20.2794 -9.0238 -11.3017 0.0000 35.2749 0.0000
# 6 0.0000 0.0000 0.0000 2.3460 0.0000 33.7186
#
#
#
# Elastic Compliance Matrix: (Units=1/GPa)
#
#
# Indices 1 2 3 4 5 6 
#
# 1 0.036920 -0.007724 -0.004246 0.000000 0.017889 0.000000
# 2 -0.007724 0.010238 -0.004339 0.000000 -0.003212 0.000000
# 3 -0.004246 -0.004339 0.011358 0.000000 0.000088 0.000000
# 4 0.000000 0.000000 0.000000 0.026048 0.000000 -0.001812
# 5 0.017889 -0.003212 0.000088 0.000000 0.037839 0.000000
# 6 0.000000 0.000000 0.000000 -0.001812 0.000000 0.029783
#
#
# Mechanical properties :
#
#
# Convention : Reuss Voigt Hill
#
# Bulk Modulus (GPa) = 38.61424 76.33236 57.47330
# Shear Modulus (GPa) = 25.84817 33.70309 29.77563
#
# Velocity S-wave (km/s) = 3.35004 3.82534 3.59556
# Velocity P-wave (km/s) = 5.63288 7.25625 6.49548
#
# Compressibility (1/GPa) = 0.02589718
#
# Stress axis : x y z
#
# Youngs Moduli (GPa) = 27.08573 97.67460 88.04494
#
# Poissons Ratio (x) = 0.75446 0.37383
# Poissons Ratio (y) = 0.20922 0.38204
# Poissons Ratio (z) = 0.11500 0.42382
#
# Static dielectric constant tensor:
#      x y z
#    x 1.882250 0.000000 -0.007180 
#    y 0.000000 1.895840 0.000000 
#    z -0.007180 0.000000 1.874580 
# 
# From -- ./inp_files/20949.got.cif
#   From: 2010.05.17/outbox.cif.g08.bks.cpg/sg9_11_cif.got.tgz:20949.got - 2010.06.03 20:04:27.
