data_PCOD9139746
_publ_section_title
;
Structure prediction by ZEFSAII (Michael W. Deem and Ramdas Pophale) SiO2 
 PCOD9139746
Probable space group: C C
;
_chemical_formula_sum "Si O2"
_cell_formula_units_Z 32
_cell_length_a 10.374573
_cell_length_b 9.752907
_cell_length_c 13.874957
_cell_angle_alpha 90.000000
_cell_angle_beta 72.818599
_cell_angle_gamma 90.000000
_cell_volume 1341.249322
_symmetry_space_group_name_H-M "C C"
_symmetry_group_IT_number 9
_symmetry_cell_setting 'monoclinic'
loop_
_space_group_symop_operation_xyz
x,y,z
x,-y,1/2+z
1/2+x,1/2+y,z
1/2+x,1/2-y,1/2+z
loop_
_atom_site_type_symbol
_atom_site_label
_atom_site_fract_x
_atom_site_fract_y
_atom_site_fract_z
Si Si1 0.806600 0.027855 0.141200
Si Si2 0.431241 0.124215 0.293667
Si Si3 0.786302 0.476261 0.180890
Si Si4 0.790005 0.802966 0.473822
Si Si5 0.072999 0.623924 0.574290
Si Si6 0.273288 0.409579 0.871063
Si Si7 0.438829 0.812858 0.279426
Si Si8 0.057361 0.837256 0.123328
O O1 0.767915 0.067237 0.257843
O O2 0.923594 0.914459 0.119880
O O3 0.901465 0.808260 0.858368
O O4 0.682691 0.968682 0.106772
O O5 0.647219 0.154136 0.457862
O O6 0.526733 0.228173 0.215065
O O7 0.306032 0.107244 0.244538
O O8 0.479098 0.966927 0.303514
O O9 0.877381 0.309426 0.901393
O O10 0.931904 0.459312 0.095314
O O11 0.035891 0.270635 0.169419
O O12 0.847502 0.842165 0.566256
O O13 0.661022 0.549358 0.642075
O O14 0.794720 0.939218 0.408815
O O15 0.140268 0.243951 0.523636
O O16 0.297082 0.145484 0.758195
#
# Coordination Sequence:
#
# PCOD9139746 Si02
#       8
#     4   4   4   4   4   4   4   4
#     4  11  24  44  78 110 147 201 256 312 381 462
#     4   9  21  46  70 103 146 202 239 313 382 448
#     4   8  21  46  72 106 146 192 248 313 375 453
#     4  11  24  46  72 107 156 198 246 319 390 443
#     4   8  21  47  67 103 148 191 250 305 377 446
#     4  11  20  46  76 108 146 209 244 313 387 456
#     4   8  20  43  70 105 142 191 255 302 368 462
#     4  12  23  48  75 112 153 194 262 321 374 464
#
# _framework density 23.858353999999999
#
# number of rings (size 3 to 8) (size 9 to 14) (size 15 to 20)
#    1.500    0.500    1.250    3.750    0.000    1.000 
#   18.000    1.250    0.000    0.000    0.000    0.000 
#    0.000    0.000    0.000    0.000    0.000    0.000 
#
# Total GULP energy -89150.407244 kJ/mol
# GULP energy per Si atom -5571.900453 kJ/mol
# Density = 2.380405 g / cm^3
# Si number density = 23.858354 Si / 1000 Ang^3
#
#
#
# Elastic Constant Matrix: (Units=GPa)
#
#
# Indices 1 2 3 4 5 6 
#
# 1 81.8177 64.3192 43.2484 0.0000 -3.2318 0.0000
# 2 64.3192 110.6339 66.0648 0.0000 -20.7285 0.0000
# 3 43.2484 66.0648 166.8056 0.0000 -41.3128 0.0000
# 4 0.0000 0.0000 0.0000 46.1999 0.0000 4.0738
# 5 -3.2318 -20.7285 -41.3128 0.0000 35.7153 0.0000
# 6 0.0000 0.0000 0.0000 4.0738 0.0000 18.0059
#
#
#
# Elastic Compliance Matrix: (Units=1/GPa)
#
#
# Indices 1 2 3 4 5 6 
#
# 1 0.024786 -0.014350 -0.003153 0.000000 -0.009734 0.000000
# 2 -0.014350 0.020253 -0.002398 0.000000 0.007682 0.000000
# 3 -0.003153 -0.002398 0.010297 0.000000 0.010234 0.000000
# 4 0.000000 0.000000 0.000000 0.022086 0.000000 -0.004997
# 5 -0.009734 0.007682 0.010234 0.000000 0.043414 0.000000
# 6 0.000000 0.000000 0.000000 -0.004997 0.000000 0.056668
#
#
# Mechanical properties :
#
#
# Convention : Reuss Voigt Hill
#
# Bulk Modulus (GPa) = 64.38319 78.50246 71.44282
# Shear Modulus (GPa) = 22.47340 32.35921 27.41630
#
# Velocity S-wave (km/s) = 3.07245 3.68680 3.39356
# Velocity P-wave (km/s) = 6.29530 7.14831 6.73532
#
# Compressibility (1/GPa) = 0.01553200
#
# Stress axis : x y z
#
# Youngs Moduli (GPa) = 40.34531 49.37523 97.11610
#
# Poissons Ratio (x) = 0.70856 0.30625
# Poissons Ratio (y) = 0.57897 0.23289
# Poissons Ratio (z) = 0.12723 0.11841
#
# Static dielectric constant tensor:
#      x y z
#    x 1.966860 0.000000 0.001800 
#    y 0.000000 1.980310 0.000000 
#    z 0.001800 0.000000 1.951950 
# 
# From -- ./inp_files/16449.got.cif
#   From: 2010.05.17/outbox.cif.g08.bks.cpg/sg9_9_cif.got.tgz:16449.got - 2010.06.03 20:04:27.
