data_PCOD9139825
_publ_section_title
;
Structure prediction by ZEFSAII (Michael W. Deem and Ramdas Pophale) SiO2 
 PCOD9139825
Probable space group: C C
;
_chemical_formula_sum "Si O2"
_cell_formula_units_Z 28
_cell_length_a 14.363431
_cell_length_b 10.161927
_cell_length_c 13.486766
_cell_angle_alpha 90.000000
_cell_angle_beta 149.789625
_cell_angle_gamma 90.000000
_cell_volume 990.518026
_symmetry_space_group_name_H-M "C C"
_symmetry_group_IT_number 9
_symmetry_cell_setting 'monoclinic'
loop_
_space_group_symop_operation_xyz
x,y,z
x,-y,1/2+z
1/2+x,1/2+y,z
1/2+x,1/2-y,1/2+z
loop_
_atom_site_type_symbol
_atom_site_label
_atom_site_fract_x
_atom_site_fract_y
_atom_site_fract_z
Si Si1 0.251320 0.679342 0.966220
Si Si2 0.788215 0.369845 0.457565
Si Si3 0.093086 0.113225 0.173748
Si Si4 0.663912 0.850513 0.729324
Si Si5 0.605874 0.016772 0.492468
Si Si6 0.730691 0.626630 0.619764
Si Si7 0.491195 0.598141 0.855734
O O1 0.164782 0.757044 0.794746
O O2 0.148109 0.586276 0.946046
O O3 0.403336 0.588021 0.056284
O O4 0.306366 0.796685 0.093332
O O5 0.714485 0.486501 0.317165
O O6 0.809778 0.223318 0.431018
O O7 0.639397 0.363162 0.407981
O O8 0.006348 0.393583 0.664682
O O9 0.046019 0.145788 0.016572
O O10 0.664310 0.972120 0.656583
O O11 0.669512 0.732344 0.647446
O O12 0.380056 0.990941 0.284131
O O13 0.775339 0.121930 0.632662
O O14 0.539563 0.557498 0.411518
#
# Coordination Sequence:
#
# PCOD9139825 Si02
#       7
#     4   4   4   4   4   4   4
#     4  11  22  43  74 108 148 191 251 324 380 457
#     4  12  25  45  71 106 149 202 248 312 392 460
#     4  12  25  46  73 110 151 199 255 322 390 457
#     4  11  23  43  72 107 148 184 259 320 375 449
#     4  11  22  44  78 109 131 200 268 316 365 448
#     4  11  21  43  76 108 136 190 269 316 364 456
#     4  12  26  46  72 106 155 192 256 312 380 469
#
# _framework density 28.268035999999999
#
# number of rings (size 3 to 8) (size 9 to 14) (size 15 to 20)
#    0.000    0.571    7.143    0.857    4.000    1.143 
#   10.286    0.000    0.000    0.000    0.000    0.000 
#    0.000    0.000    0.000    0.000    0.000    0.000 
#
# Total GULP energy -77968.893083 kJ/mol
# GULP energy per Si atom -5569.206649 kJ/mol
# Density = 2.820370 g / cm^3
# Si number density = 28.268036 Si / 1000 Ang^3
#
#
#
# Elastic Constant Matrix: (Units=GPa)
#
#
# Indices 1 2 3 4 5 6 
#
# 1 158.9889 18.0777 55.6558 0.0001 1.8040 0.0000
# 2 18.0777 60.0706 37.5333 0.0000 -15.6639 0.0000
# 3 55.6558 37.5333 120.4761 0.0001 -0.5959 0.0000
# 4 0.0001 0.0000 0.0001 34.4482 0.0000 -9.2476
# 5 1.8040 -15.6639 -0.5959 0.0000 45.1363 0.0000
# 6 0.0000 0.0000 0.0000 -9.2476 0.0000 46.1896
#
#
#
# Elastic Compliance Matrix: (Units=1/GPa)
#
#
# Indices 1 2 3 4 5 6 
#
# 1 0.007511 -0.000253 -0.003393 0.000000 -0.000433 0.000000
# 2 -0.000253 0.023227 -0.007080 0.000000 0.007977 0.000000
# 3 -0.003393 -0.007080 0.012063 0.000000 -0.002162 0.000000
# 4 0.000000 0.000000 0.000000 0.030678 0.000000 0.006142
# 5 -0.000433 0.007977 -0.002162 0.000000 0.024912 0.000000
# 6 0.000000 0.000000 0.000000 0.006142 0.000000 0.022880
#
#
# Mechanical properties :
#
#
# Convention : Reuss Voigt Hill
#
# Bulk Modulus (GPa) = 46.84090 62.45212 54.64651
# Shear Modulus (GPa) = 33.36905 40.37273 36.87089
#
# Velocity S-wave (km/s) = 3.43950 3.78327 3.61547
# Velocity P-wave (km/s) = 5.69032 6.42067 6.06650
#
# Compressibility (1/GPa) = 0.02134886
#
# Stress axis : x y z
#
# Youngs Moduli (GPa) = 133.13312 43.05342 82.89889
#
# Poissons Ratio (x) = 0.01090 0.28129
# Poissons Ratio (y) = 0.03370 0.58690
# Poissons Ratio (z) = 0.45175 0.30481
#
# Static dielectric constant tensor:
#      x y z
#    x 2.216470 0.000000 0.030910 
#    y 0.000000 2.381270 0.000000 
#    z 0.030910 0.000000 2.301980 
# 
# From -- ./inp_files/25932.got.cif
#   From: 2010.05.17/outbox.cif.g08.bks.cpg/sg9_13_cif.got.tgz:25932.got - 2010.06.03 20:04:27.
