data_PCOD9139032
_publ_section_title
;
Structure prediction by ZEFSAII (Michael W. Deem and Ramdas Pophale) SiO2 
 PCOD9139032
Probable space group: C C
;
_chemical_formula_sum "Si O2"
_cell_formula_units_Z 28
_cell_length_a 11.880789
_cell_length_b 13.186429
_cell_length_c 8.895076
_cell_angle_alpha 90.000000
_cell_angle_beta 113.815074
_cell_angle_gamma 90.000000
_cell_volume 1274.892849
_symmetry_space_group_name_H-M "C C"
_symmetry_group_IT_number 9
_symmetry_cell_setting 'monoclinic'
loop_
_space_group_symop_operation_xyz
x,y,z
x,-y,1/2+z
1/2+x,1/2+y,z
1/2+x,1/2-y,1/2+z
loop_
_atom_site_type_symbol
_atom_site_label
_atom_site_fract_x
_atom_site_fract_y
_atom_site_fract_z
Si Si1 0.734280 0.225802 0.171210
Si Si2 0.752795 0.094003 0.640954
Si Si3 0.840213 0.423569 0.295799
Si Si4 0.216924 0.202279 0.966263
Si Si5 0.120745 0.571444 0.878248
Si Si6 0.949388 0.067200 0.335073
Si Si7 0.607529 0.447623 0.632193
O O1 0.790840 0.334543 0.157621
O O2 0.658789 0.249354 0.282824
O O3 0.848733 0.155601 0.286170
O O4 0.662805 0.166266 0.004593
O O5 0.770175 0.207435 0.594202
O O6 0.656107 0.091804 0.725942
O O7 0.699220 0.024146 0.478976
O O8 0.873271 0.035891 0.762759
O O9 0.820753 0.370398 0.448400
O O10 0.744570 0.514736 0.241028
O O11 0.978230 0.448666 0.330197
O O12 0.122877 0.136544 0.012206
O O13 0.038179 0.088712 0.242679
O O14 0.030587 0.042577 0.523966
#
# Coordination Sequence:
#
# PCOD9139032 Si02
#       7
#     4   4   4   4   4   4   4
#     4   9  22  43  67  97 129 180 217 267 330 391
#     4  11  24  45  70 101 128 180 224 271 328 396
#     4  10  26  43  66  98 136 177 212 281 334 387
#     4  10  24  44  64 100 131 173 226 264 337 387
#     4  11  24  44  70  98 140 170 222 274 333 395
#     4  11  22  42  72  94 136 170 226 272 328 399
#     4  12  24  43  65 102 132 174 219 283 332 389
#
# _framework density 21.962629
#
# number of rings (size 3 to 8) (size 9 to 14) (size 15 to 20)
#    0.857    0.571    1.429    4.286    6.000    1.143 
#    2.571    0.000    0.000    0.000    0.000    0.000 
#    0.000    0.000    0.000    0.000    0.000    0.000 
#
# Total GULP energy -78221.777522 kJ/mol
# GULP energy per Si atom -5587.269823 kJ/mol
# Density = 2.191264 g / cm^3
# Si number density = 21.962629 Si / 1000 Ang^3
#
#
#
# Elastic Constant Matrix: (Units=GPa)
#
#
# Indices 1 2 3 4 5 6 
#
# 1 100.2309 15.4577 22.5262 0.0000 -6.0876 0.0000
# 2 15.4577 58.4813 8.6247 0.0000 -4.0587 0.0000
# 3 22.5262 8.6247 45.5250 0.0000 -17.2908 0.0000
# 4 0.0000 0.0000 0.0000 29.1841 0.0000 -13.9888
# 5 -6.0876 -4.0587 -17.2908 0.0000 42.6035 0.0000
# 6 0.0000 0.0000 0.0000 -13.9888 0.0000 22.3891
#
#
#
# Elastic Compliance Matrix: (Units=1/GPa)
#
#
# Indices 1 2 3 4 5 6 
#
# 1 0.011535 -0.002282 -0.005594 0.000000 -0.000840 0.000000
# 2 -0.002282 0.018048 -0.002082 0.000000 0.000548 0.000000
# 3 -0.005594 -0.002082 0.029260 0.000000 0.010878 0.000000
# 4 0.000000 0.000000 0.000000 0.048915 0.000000 0.030562
# 5 -0.000840 0.000548 0.010878 0.000000 0.027819 0.000000
# 6 0.000000 0.000000 0.000000 0.030562 0.000000 0.063760
#
#
# Mechanical properties :
#
#
# Convention : Reuss Voigt Hill
#
# Bulk Modulus (GPa) = 25.68937 33.05048 29.36993
# Shear Modulus (GPa) = 21.53051 29.34391 25.43721
#
# Velocity S-wave (km/s) = 3.13441 3.65921 3.40693
# Velocity P-wave (km/s) = 4.98213 5.73884 5.37382
#
# Compressibility (1/GPa) = 0.03892661
#
# Stress axis : x y z
#
# Youngs Moduli (GPa) = 86.69118 55.40856 34.17663
#
# Poissons Ratio (x) = 0.12645 0.19119
# Poissons Ratio (y) = 0.19785 0.07114
# Poissons Ratio (z) = 0.48497 0.11534
#
# Static dielectric constant tensor:
#      x y z
#    x 1.761340 0.000000 -0.002820 
#    y 0.000000 1.816630 0.000000 
#    z -0.002820 0.000000 1.825670 
# 
# From -- ./inp_files/7268.got.cif
#   From: 2010.05.17/outbox.cif.g08.bks.cpg/sg9_4_cif.got.tgz:7268.got - 2010.06.03 20:04:27.
