data_PCOD9139808
_publ_section_title
;
Structure prediction by ZEFSAII (Michael W. Deem and Ramdas Pophale) SiO2 
 PCOD9139808
Probable space group: C C
;
_chemical_formula_sum "Si O2"
_cell_formula_units_Z 32
_cell_length_a 13.981110
_cell_length_b 4.970389
_cell_length_c 28.494353
_cell_angle_alpha 90.000000
_cell_angle_beta 134.239953
_cell_angle_gamma 90.000000
_cell_volume 1418.603855
_symmetry_space_group_name_H-M "C C"
_symmetry_group_IT_number 9
_symmetry_cell_setting 'monoclinic'
loop_
_space_group_symop_operation_xyz
x,y,z
x,-y,1/2+z
1/2+x,1/2+y,z
1/2+x,1/2-y,1/2+z
loop_
_atom_site_type_symbol
_atom_site_label
_atom_site_fract_x
_atom_site_fract_y
_atom_site_fract_z
Si Si1 0.608100 0.488793 0.725310
Si Si2 0.790529 0.718895 0.417781
Si Si3 0.696278 0.319116 0.044141
Si Si4 0.411153 0.984803 0.812185
Si Si5 0.369008 0.703817 0.583845
Si Si6 0.439407 0.257176 0.003346
Si Si7 0.545400 0.527873 0.399338
Si Si8 0.091022 0.507544 0.781711
O O1 0.270115 0.448080 0.551683
O O2 0.755016 0.424495 0.756356
O O3 0.508357 0.606173 0.652634
O O4 0.549029 0.218532 0.727623
O O5 0.884791 0.459861 0.447159
O O6 0.667759 0.612650 0.407344
O O7 0.723249 0.854817 0.349590
O O8 0.874434 0.954022 0.470970
O O9 0.800629 0.556042 0.089070
O O10 0.598375 0.262323 0.053730
O O11 0.597597 0.429101 0.969483
O O12 0.495110 0.769680 0.871185
O O13 0.429573 0.270042 0.843931
O O14 0.482381 0.989083 0.785920
O O15 0.390961 0.814180 0.538891
O O16 0.616778 0.715903 0.768876
#
# Coordination Sequence:
#
# PCOD9139808 Si02
#       8
#     4   4   4   4   4   4   4   4
#     4  12  27  45  72  96 138 191 229 270 335 419
#     4  11  22  42  69  99 143 169 216 287 345 402
#     4  12  26  43  70 104 133 182 225 282 347 398
#     4  11  25  43  66 105 133 178 220 280 341 398
#     4  12  26  49  66  99 143 179 235 277 329 413
#     4  12  24  43  69 101 133 182 220 280 346 400
#     4  11  21  42  69  99 145 164 216 289 341 403
#     4  11  25  45  67 105 136 177 225 285 340 397
#
# _framework density 22.557390999999999
#
# number of rings (size 3 to 8) (size 9 to 14) (size 15 to 20)
#    0.000    0.500    2.500    6.750    5.250    2.000 
#    0.000    0.000    0.000    0.000    0.000    0.000 
#    0.000    0.000    0.000    0.000    0.000    0.000 
#
# Total GULP energy -89618.975322 kJ/mol
# GULP energy per Si atom -5601.185958 kJ/mol
# Density = 2.250605 g / cm^3
# Si number density = 22.557391 Si / 1000 Ang^3
#
#
#
# Elastic Constant Matrix: (Units=GPa)
#
#
# Indices 1 2 3 4 5 6 
#
# 1 101.8245 34.8155 35.5789 -0.0008 20.9065 0.0010
# 2 34.8155 94.4520 2.5417 -0.0020 11.4680 0.0029
# 3 35.5789 2.5417 66.9340 0.0007 18.8958 0.0005
# 4 -0.0008 -0.0020 0.0007 41.3201 -0.0009 -4.0675
# 5 20.9065 11.4680 18.8958 -0.0009 19.6899 -0.0002
# 6 0.0010 0.0029 0.0005 -4.0675 -0.0002 11.3563
#
#
#
# Elastic Compliance Matrix: (Units=1/GPa)
#
#
# Indices 1 2 3 4 5 6 
#
# 1 0.014868 -0.004364 -0.005484 0.000000 -0.007982 0.000000
# 2 -0.004364 0.012868 0.003619 0.000000 -0.006334 -0.000003
# 3 -0.005484 0.003619 0.022863 -0.000001 -0.018226 -0.000002
# 4 0.000000 0.000000 -0.000001 0.025086 0.000002 0.008985
# 5 -0.007982 -0.006334 -0.018226 0.000002 0.080443 0.000005
# 6 0.000000 -0.000003 -0.000002 0.008985 0.000005 0.091275
#
#
# Mechanical properties :
#
#
# Convention : Reuss Voigt Hill
#
# Bulk Modulus (GPa) = 26.21820 45.45365 35.83593
# Shear Modulus (GPa) = 18.34369 27.15821 22.75095
#
# Velocity S-wave (km/s) = 2.85476 3.47358 3.17926
# Velocity P-wave (km/s) = 4.74493 6.02342 5.42199
#
# Compressibility (1/GPa) = 0.03814144
#
# Stress axis : x y z
#
# Youngs Moduli (GPa) = 67.25905 77.71492 43.73890
#
# Poissons Ratio (x) = 0.33912 0.23986
# Poissons Ratio (y) = 0.29349 -0.15829
# Poissons Ratio (z) = 0.36884 -0.28126
#
# Static dielectric constant tensor:
#      x y z
#    x 1.843730 0.000000 0.000080 
#    y 0.000000 1.802080 0.000000 
#    z 0.000080 0.000000 1.838360 
# 
# From -- ./inp_files/37371.got.cif
#   From: 2010.05.17/outbox.cif.g08.bks.cpg/sg9_19_cif.got.tgz:37371.got - 2010.06.03 20:04:27.
