data_PCOD9139614
_publ_section_title
;
Structure prediction by ZEFSAII (Michael W. Deem and Ramdas Pophale) SiO2 
 PCOD9139614
Probable space group: C C
;
_chemical_formula_sum "Si O2"
_cell_formula_units_Z 24
_cell_length_a 5.223030
_cell_length_b 13.471553
_cell_length_c 13.738708
_cell_angle_alpha 90.000000
_cell_angle_beta 78.882861
_cell_angle_gamma 90.000000
_cell_volume 948.547583
_symmetry_space_group_name_H-M "C C"
_symmetry_group_IT_number 9
_symmetry_cell_setting 'monoclinic'
loop_
_space_group_symop_operation_xyz
x,y,z
x,-y,1/2+z
1/2+x,1/2+y,z
1/2+x,1/2-y,1/2+z
loop_
_atom_site_type_symbol
_atom_site_label
_atom_site_fract_x
_atom_site_fract_y
_atom_site_fract_z
Si Si1 0.437680 0.383286 0.105000
Si Si2 0.193605 0.874495 0.413574
Si Si3 0.770211 0.571746 0.327865
Si Si4 0.001831 0.335682 0.977381
Si Si5 0.143390 0.089633 0.129189
Si Si6 0.591525 0.762538 0.259554
O O1 0.445875 0.499656 0.128744
O O2 0.350298 0.317407 0.203593
O O3 0.727270 0.357097 0.049334
O O4 0.229492 0.359521 0.036482
O O5 0.403311 0.843175 0.317769
O O6 0.015616 0.778124 0.439990
O O7 0.290505 0.893232 0.517144
O O8 0.101765 0.981061 0.381518
O O9 0.008768 0.591452 0.382786
O O10 0.820101 0.560361 0.209263
O O11 0.627536 0.678402 0.338564
O O12 0.009012 0.192125 0.174782
#
# Coordination Sequence:
#
# PCOD9139614 Si02
#       6
#     4   4   4   4   4   4
#     4  12  27  56  84 122 169 219 276 345 414 492
#     4  12  25  52  82 123 163 221 271 346 407 493
#     4  10  26  47  79 124 157 215 275 334 410 488
#     4  12  27  53  85 120 167 217 275 340 417 490
#     4  10  26  52  79 127 157 223 275 340 409 497
#     4  10  27  50  81 122 163 217 276 339 411 490
#
# _framework density 25.301843000000002
#
# number of rings (size 3 to 8) (size 9 to 14) (size 15 to 20)
#    1.000    0.000    3.333    1.000    4.667    1.333 
#   12.000    0.000    0.000    0.000    0.000    0.000 
#    0.000    0.000    0.000    0.000    0.000    0.000 
#
# Total GULP energy -67062.829865 kJ/mol
# GULP energy per Si atom -5588.569155 kJ/mol
# Density = 2.524425 g / cm^3
# Si number density = 25.301843 Si / 1000 Ang^3
#
#
#
# Elastic Constant Matrix: (Units=GPa)
#
#
# Indices 1 2 3 4 5 6 
#
# 1 106.5973 41.2767 48.6426 0.0000 -2.6993 0.0000
# 2 41.2767 162.9518 63.5979 0.0000 2.3360 0.0000
# 3 48.6426 63.5979 156.2888 0.0000 -10.8538 0.0000
# 4 0.0000 0.0000 0.0000 62.2976 0.0000 -1.7027
# 5 -2.6993 2.3360 -10.8538 0.0000 34.3824 0.0000
# 6 0.0000 0.0000 0.0000 -1.7027 0.0000 21.4052
#
#
#
# Elastic Compliance Matrix: (Units=1/GPa)
#
#
# Indices 1 2 3 4 5 6 
#
# 1 0.011352 -0.001786 -0.002798 0.000000 0.000129 0.000000
# 2 -0.001786 0.007649 -0.002661 0.000000 -0.001500 0.000000
# 3 -0.002798 -0.002661 0.008536 0.000000 0.002656 0.000000
# 4 0.000000 0.000000 0.000000 0.016087 0.000000 0.001280
# 5 0.000129 -0.001500 0.002656 0.000000 0.030035 0.000000
# 6 0.000000 0.000000 0.000000 0.001280 0.000000 0.046819
#
#
# Mechanical properties :
#
#
# Convention : Reuss Voigt Hill
#
# Bulk Modulus (GPa) = 76.63211 81.43024 79.03117
# Shear Modulus (GPa) = 35.88909 41.77175 38.83042
#
# Velocity S-wave (km/s) = 3.77030 4.06758 3.92176
# Velocity P-wave (km/s) = 7.02186 7.36978 7.19792
#
# Compressibility (1/GPa) = 0.01304936
#
# Stress axis : x y z
#
# Youngs Moduli (GPa) = 88.08677 130.73321 117.14480
#
# Poissons Ratio (x) = 0.23344 0.32773
# Poissons Ratio (y) = 0.15729 0.31173
# Poissons Ratio (z) = 0.24644 0.34789
#
# Static dielectric constant tensor:
#      x y z
#    x 1.967320 0.000000 0.049900 
#    y 0.000000 1.973140 0.000000 
#    z 0.049900 0.000000 2.052860 
# 
# From -- ./inp_files/21674.got.cif
#   From: 2010.05.17/outbox.cif.g08.bks.cpg/sg9_11_cif.got.tgz:21674.got - 2010.06.03 20:04:27.
