data_PCOD9139169
_publ_section_title
;
Structure prediction by ZEFSAII (Michael W. Deem and Ramdas Pophale) SiO2 
 PCOD9139169
Probable space group: C C
;
_chemical_formula_sum "Si O2"
_cell_formula_units_Z 24
_cell_length_a 17.581007
_cell_length_b 6.698423
_cell_length_c 16.706787
_cell_angle_alpha 90.000000
_cell_angle_beta 32.208238
_cell_angle_gamma 90.000000
_cell_volume 1048.660186
_symmetry_space_group_name_H-M "C C"
_symmetry_group_IT_number 9
_symmetry_cell_setting 'monoclinic'
loop_
_space_group_symop_operation_xyz
x,y,z
x,-y,1/2+z
1/2+x,1/2+y,z
1/2+x,1/2-y,1/2+z
loop_
_atom_site_type_symbol
_atom_site_label
_atom_site_fract_x
_atom_site_fract_y
_atom_site_fract_z
Si Si1 0.630080 0.326889 0.661690
Si Si2 0.262043 0.502438 0.241257
Si Si3 0.491224 0.222127 0.023879
Si Si4 0.914150 0.513476 0.369843
Si Si5 0.937027 0.119642 0.731747
Si Si6 0.281767 0.922658 0.151590
O O1 0.785614 0.349591 0.481479
O O2 0.562126 0.107766 0.730258
O O3 0.521652 0.460134 0.707512
O O4 0.659212 0.446475 0.718578
O O5 0.395047 0.402683 0.075163
O O6 0.122772 0.368083 0.361203
O O7 0.314419 0.485188 0.287086
O O8 0.233522 0.720527 0.234694
O O9 0.535635 0.293701 0.072082
O O10 0.372014 0.048633 0.135348
O O11 0.896788 0.690744 0.321833
O O12 0.888012 0.607996 0.481107
#
# Coordination Sequence:
#
# PCOD9139169 Si02
#       6
#     4   4   4   4   4   4
#     4  10  25  45  75 105 146 198 246 315 368 444
#     4  10  25  48  73 109 150 196 251 309 373 454
#     4  10  25  43  73 108 147 196 244 316 367 453
#     4  10  25  45  76 109 146 196 250 314 369 446
#     4  10  24  45  74 107 146 195 251 305 377 446
#     4  10  26  44  77 106 149 197 252 309 374 443
#
# _framework density 22.886347000000001
#
# number of rings (size 3 to 8) (size 9 to 14) (size 15 to 20)
#    2.000    0.000    0.000    1.000    7.000    5.333 
#    0.000    0.000    0.000    0.000    0.000    0.000 
#    0.000    0.000    0.000    0.000    0.000    0.000 
#
# Total GULP energy -66875.636127 kJ/mol
# GULP energy per Si atom -5572.969677 kJ/mol
# Density = 2.283426 g / cm^3
# Si number density = 22.886347 Si / 1000 Ang^3
#
#
#
# Elastic Constant Matrix: (Units=GPa)
#
#
# Indices 1 2 3 4 5 6 
#
# 1 97.5145 50.0153 18.1544 0.0002 -4.7253 -0.0001
# 2 50.0153 71.3373 6.6434 0.0005 16.8125 0.0003
# 3 18.1544 6.6434 40.6428 0.0004 -4.1662 0.0002
# 4 0.0002 0.0005 0.0004 31.2921 -0.0001 6.8045
# 5 -4.7253 16.8125 -4.1662 -0.0001 25.1853 0.0000
# 6 -0.0001 0.0003 0.0002 6.8045 0.0000 31.8718
#
#
#
# Elastic Compliance Matrix: (Units=1/GPa)
#
#
# Indices 1 2 3 4 5 6 
#
# 1 0.021062 -0.017854 -0.004947 0.000000 0.015052 0.000000
# 2 -0.017854 0.032408 0.000119 0.000000 -0.024964 0.000000
# 3 -0.004947 0.000119 0.027152 0.000000 0.003484 0.000000
# 4 0.000000 0.000000 0.000000 0.033513 0.000000 -0.007155
# 5 0.015052 -0.024964 0.003484 0.000000 0.059771 0.000000
# 6 0.000000 0.000000 0.000000 -0.007155 0.000000 0.032903
#
#
# Mechanical properties :
#
#
# Convention : Reuss Voigt Hill
#
# Bulk Modulus (GPa) = 28.36226 39.90231 34.13228
# Shear Modulus (GPa) = 18.94473 26.64861 22.79667
#
# Velocity S-wave (km/s) = 2.88023 3.41602 3.15950
# Velocity P-wave (km/s) = 4.84567 5.74732 5.31565
#
# Compressibility (1/GPa) = 0.03525812
#
# Stress axis : x y z
#
# Youngs Moduli (GPa) = 47.47791 30.85691 36.82959
#
# Poissons Ratio (x) = 0.55091 0.18219
# Poissons Ratio (y) = 0.84766 -0.00437
# Poissons Ratio (z) = 0.23487 -0.00366
#
# Static dielectric constant tensor:
#      x y z
#    x 1.884570 0.000000 0.015530 
#    y 0.000000 1.893550 0.000000 
#    z 0.015530 0.000000 1.906580 
# 
# From -- ./inp_files/18847.got.cif
#   From: 2010.05.17/outbox.cif.g08.bks.cpg/sg9_10_cif.got.tgz:18847.got - 2010.06.03 20:04:27.
