data_PCOD9139225
_publ_section_title
;
Structure prediction by ZEFSAII (Michael W. Deem and Ramdas Pophale) SiO2 
 PCOD9139225
Probable space group: C C
;
_chemical_formula_sum "Si O2"
_cell_formula_units_Z 32
_cell_length_a 13.965703
_cell_length_b 6.777443
_cell_length_c 15.335464
_cell_angle_alpha 90.000000
_cell_angle_beta 114.733088
_cell_angle_gamma 90.000000
_cell_volume 1318.375104
_symmetry_space_group_name_H-M "C C"
_symmetry_group_IT_number 9
_symmetry_cell_setting 'monoclinic'
loop_
_space_group_symop_operation_xyz
x,y,z
x,-y,1/2+z
1/2+x,1/2+y,z
1/2+x,1/2-y,1/2+z
loop_
_atom_site_type_symbol
_atom_site_label
_atom_site_fract_x
_atom_site_fract_y
_atom_site_fract_z
Si Si1 0.314490 0.501088 0.854320
Si Si2 0.123521 0.734198 0.842244
Si Si3 0.732237 0.736831 0.675994
Si Si4 0.540780 0.594159 0.904273
Si Si5 0.556625 0.471349 0.605373
Si Si6 0.655210 0.973634 0.020852
Si Si7 0.368026 0.705754 0.561829
Si Si8 0.437147 0.869860 0.145714
O O1 0.226756 0.670313 0.828829
O O2 0.272528 0.324177 0.780547
O O3 0.416079 0.590068 0.845026
O O4 0.342250 0.398028 0.958227
O O5 0.021745 0.630821 0.757945
O O6 0.098250 0.963766 0.852631
O O7 0.151238 0.639992 0.945617
O O8 0.675190 0.529185 0.671967
O O9 0.829887 0.721383 0.645883
O O10 0.647550 0.896229 0.605601
O O11 0.553799 0.483015 0.001915
O O12 0.583020 0.807854 0.947094
O O13 0.476885 0.603935 0.630735
O O14 0.504509 0.259151 0.602134
O O15 0.764942 0.855207 0.075783
O O16 0.394252 0.934953 0.581566
#
# Coordination Sequence:
#
# PCOD9139225 Si02
#       8
#     4   4   4   4   4   4   4   4
#     4  10  25  47  73 109 150 192 254 310 375 464
#     4  11  25  49  70 106 151 190 248 315 373 455
#     4  12  24  49  73 109 152 195 259 313 377 458
#     4  11  24  45  72 103 143 196 246 308 381 447
#     4  11  25  44  71 105 144 193 250 308 371 459
#     4  11  25  45  76 102 151 196 243 313 379 445
#     4  10  24  46  73 103 146 195 239 313 381 439
#     4  12  26  47  76 107 151 197 253 316 381 451
#
# _framework density 24.272303999999998
#
# number of rings (size 3 to 8) (size 9 to 14) (size 15 to 20)
#    0.000    1.000    3.750    1.500    3.500    4.000 
#    2.250    0.000    0.000    0.000    0.000    0.000 
#    0.000    0.000    0.000    0.000    0.000    0.000 
#
# Total GULP energy -89250.524822 kJ/mol
# GULP energy per Si atom -5578.157801 kJ/mol
# Density = 2.421706 g / cm^3
# Si number density = 24.272304 Si / 1000 Ang^3
#
#
#
# Elastic Constant Matrix: (Units=GPa)
#
#
# Indices 1 2 3 4 5 6 
#
# 1 69.4186 53.3877 35.2369 0.0000 7.3097 0.0000
# 2 53.3877 119.9122 25.1086 0.0000 4.2143 0.0000
# 3 35.2369 25.1086 73.5751 0.0000 16.7440 0.0000
# 4 0.0000 0.0000 0.0000 38.0273 0.0000 12.6538
# 5 7.3097 4.2143 16.7440 0.0000 21.6236 0.0000
# 6 0.0000 0.0000 0.0000 12.6538 0.0000 40.1038
#
#
#
# Elastic Compliance Matrix: (Units=1/GPa)
#
#
# Indices 1 2 3 4 5 6 
#
# 1 0.026899 -0.009990 -0.009526 0.000000 0.000230 0.000000
# 2 -0.009990 0.012701 0.000297 0.000000 0.000672 0.000000
# 3 -0.009526 0.000297 0.021041 0.000000 -0.013130 0.000000
# 4 0.000000 0.000000 0.000000 0.029382 0.000000 -0.009271
# 5 0.000230 0.000672 -0.013130 0.000000 0.056204 0.000000
# 6 0.000000 0.000000 0.000000 -0.009271 0.000000 0.027860
#
#
# Mechanical properties :
#
#
# Convention : Reuss Voigt Hill
#
# Bulk Modulus (GPa) = 45.03733 54.48582 49.76157
# Shear Modulus (GPa) = 22.73492 29.89578 26.31535
#
# Velocity S-wave (km/s) = 3.06381 3.51334 3.29625
# Velocity P-wave (km/s) = 5.57774 6.24136 5.91886
#
# Compressibility (1/GPa) = 0.02220380
#
# Stress axis : x y z
#
# Youngs Moduli (GPa) = 37.17595 78.73254 47.52720
#
# Poissons Ratio (x) = 0.78650 0.45274
# Poissons Ratio (y) = 0.37137 -0.01411
# Poissons Ratio (z) = 0.35414 -0.02338
#
# Static dielectric constant tensor:
#      x y z
#    x 1.978790 0.000000 0.007970 
#    y 0.000000 1.999080 0.000000 
#    z 0.007970 0.000000 1.926220 
# 
# From -- ./inp_files/30494.got.cif
#   From: 2010.05.17/outbox.cif.g08.bks.cpg/sg9_16_cif.got.tgz:30494.got - 2010.06.03 20:04:27.
