data_PCOD9139683
_publ_section_title
;
Structure prediction by ZEFSAII (Michael W. Deem and Ramdas Pophale) SiO2 
 PCOD9139683
Probable space group: C C
;
_chemical_formula_sum "Si O2"
_cell_formula_units_Z 28
_cell_length_a 15.484835
_cell_length_b 7.418126
_cell_length_c 12.157825
_cell_angle_alpha 90.000000
_cell_angle_beta 113.105056
_cell_angle_gamma 90.000000
_cell_volume 1284.528908
_symmetry_space_group_name_H-M "C C"
_symmetry_group_IT_number 9
_symmetry_cell_setting 'monoclinic'
loop_
_space_group_symop_operation_xyz
x,y,z
x,-y,1/2+z
1/2+x,1/2+y,z
1/2+x,1/2-y,1/2+z
loop_
_atom_site_type_symbol
_atom_site_label
_atom_site_fract_x
_atom_site_fract_y
_atom_site_fract_z
Si Si1 0.681230 0.759947 0.643140
Si Si2 0.208633 0.326912 0.112874
Si Si3 0.413754 0.190537 0.243898
Si Si4 0.503153 0.205531 0.517467
Si Si5 0.851501 0.369743 0.088370
Si Si6 0.976245 0.730773 0.032604
Si Si7 0.775463 0.711035 0.913829
O O1 0.761041 0.710889 0.597795
O O2 0.578282 0.695600 0.554585
O O3 0.708525 0.689770 0.777264
O O4 0.691133 0.975945 0.652049
O O5 0.305138 0.245564 0.206883
O O6 0.109359 0.232277 0.089171
O O7 0.226876 0.320510 0.989510
O O8 0.473311 0.241884 0.378268
O O9 0.455667 0.267842 0.151547
O O10 0.408612 0.977586 0.211950
O O11 0.421991 0.264111 0.561414
O O12 0.493347 0.985823 0.525394
O O13 0.808332 0.522177 0.984888
O O14 0.878045 0.788729 0.928179
#
# Coordination Sequence:
#
# PCOD9139683 Si02
#       7
#     4   4   4   4   4   4   4
#     4  11  19  35  56  77 106 137 173 224 255 296
#     4   9  20  33  53  80 100 134 181 212 258 313
#     4   9  17  35  53  72 103 138 169 213 262 309
#     4   9  16  32  53  73 100 135 173 211 250 312
#     4   9  19  32  52  77 101 138 178 205 253 320
#     4   8  18  32  53  75  98 138 178 202 257 323
#     4   9  19  37  52  74 108 138 170 217 263 307
#
# _framework density 21.797874
#
# number of rings (size 3 to 8) (size 9 to 14) (size 15 to 20)
#    0.000    3.429    0.000    2.571    0.000    1.143 
#    0.000   15.714    0.000    0.000    0.000    0.000 
#    0.000    0.000    0.000    0.000    0.000    0.000 
#
# Total GULP energy -77965.304437 kJ/mol
# GULP energy per Si atom -5568.950317 kJ/mol
# Density = 2.174826 g / cm^3
# Si number density = 21.797874 Si / 1000 Ang^3
#
#
#
# Elastic Constant Matrix: (Units=GPa)
#
#
# Indices 1 2 3 4 5 6 
#
# 1 106.6484 -16.5058 2.7046 0.0000 7.7857 0.0000
# 2 -16.5058 19.6692 -3.3858 0.0000 -0.0155 0.0000
# 3 2.7046 -3.3858 35.0172 0.0000 4.1906 0.0000
# 4 0.0000 0.0000 0.0000 -9.3304 0.0000 12.5276
# 5 7.7857 -0.0155 4.1906 0.0000 20.4056 0.0000
# 6 0.0000 0.0000 0.0000 12.5276 0.0000 5.5078
#
#
#
# Elastic Compliance Matrix: (Units=1/GPa)
#
#
# Indices 1 2 3 4 5 6 
#
# 1 0.011142 0.009446 0.000575 0.000000 -0.004362 0.000000
# 2 0.009446 0.059729 0.005609 0.000000 -0.004711 0.000000
# 3 0.000575 0.005609 0.029814 0.000000 -0.006338 0.000000
# 4 0.000000 0.000000 0.000000 -0.026438 0.000000 0.060133
# 5 -0.004362 -0.004711 -0.006338 0.000000 0.051969 0.000000
# 6 0.000000 0.000000 0.000000 0.060133 0.000000 0.044786
#
#
# Mechanical properties :
#
#
# Convention : Reuss Voigt Hill
#
# Bulk Modulus (GPa) = 7.57888 14.10676 10.84282
# Shear Modulus (GPa) = 27.21463 15.21805 21.21634
#
# Velocity S-wave (km/s) = 3.53724 2.64511 3.12319
# Velocity P-wave (km/s) = 4.49079 3.97674 4.24156
#
# Compressibility (1/GPa) = 0.13194556
#
# Stress axis : x y z
#
# Youngs Moduli (GPa) = 89.74722 16.74215 33.54150
#
# Poissons Ratio (x) = -0.15814 -0.01928
# Poissons Ratio (y) = -0.84774 -0.18814
# Poissons Ratio (z) = -0.05158 -0.09391
#
# Static dielectric constant tensor:
#      x y z
#    x 1.885260 0.000000 0.003100 
#    y 0.000000 1.907170 0.000000 
#    z 0.003100 0.000000 1.778600 
# 
# From -- ./inp_files/17561.got.cif
#   From: 2010.05.17/outbox.cif.g08.bks.cpg/sg9_9_cif.got.tgz:17561.got - 2010.06.03 20:04:27.
