data_PCOD9139306
_publ_section_title
;
Structure prediction by ZEFSAII (Michael W. Deem and Ramdas Pophale) SiO2 
 PCOD9139306
Probable space group: C C
;
_chemical_formula_sum "Si O2"
_cell_formula_units_Z 32
_cell_length_a 11.758302
_cell_length_b 8.329611
_cell_length_c 14.996602
_cell_angle_alpha 90.000000
_cell_angle_beta 60.440718
_cell_angle_gamma 90.000000
_cell_volume 1277.628041
_symmetry_space_group_name_H-M "C C"
_symmetry_group_IT_number 9
_symmetry_cell_setting 'monoclinic'
loop_
_space_group_symop_operation_xyz
x,y,z
x,-y,1/2+z
1/2+x,1/2+y,z
1/2+x,1/2-y,1/2+z
loop_
_atom_site_type_symbol
_atom_site_label
_atom_site_fract_x
_atom_site_fract_y
_atom_site_fract_z
Si Si1 0.012950 0.276503 0.579270
Si Si2 0.338703 0.785808 0.492016
Si Si3 0.272272 0.827552 0.804734
Si Si4 0.690988 0.995075 0.767879
Si Si5 0.775567 0.646611 0.511975
Si Si6 0.192238 0.173215 0.877727
Si Si7 0.432311 0.660191 0.093842
Si Si8 0.083899 0.416181 0.130044
O O1 0.118730 0.155426 0.578102
O O2 0.087587 0.448152 0.552333
O O3 0.960606 0.225866 0.502686
O O4 0.893889 0.312655 0.691284
O O5 0.316088 0.785235 0.394479
O O6 0.215315 0.688027 0.576057
O O7 0.326845 0.973195 0.519873
O O8 0.187731 0.668661 0.815582
O O9 0.306922 0.820998 0.896265
O O10 0.213368 0.007203 0.816323
O O11 0.591323 0.003215 0.723644
O O12 0.661743 0.833911 0.834668
O O13 0.841906 0.970753 0.676507
O O14 0.838567 0.773823 0.552820
O O15 0.070713 0.135706 0.991166
O O16 0.465532 0.798089 0.153159
#
# Coordination Sequence:
#
# PCOD9139306 Si02
#       8
#     4   4   4   4   4   4   4   4
#     4  12  24  48  78 105 158 198 255 323 385 470
#     4  10  24  48  74 110 153 199 258 318 392 460
#     4  11  28  48  75 121 147 209 267 319 395 466
#     4  12  26  50  79 116 159 206 264 318 399 474
#     4  11  26  47  76 111 154 201 260 322 392 461
#     4  10  27  51  77 118 159 202 266 330 393 464
#     4  11  25  49  79 113 160 209 253 331 397 464
#     4  11  24  43  78 110 148 204 257 311 393 461
#
# _framework density 25.046410999999999
#
# number of rings (size 3 to 8) (size 9 to 14) (size 15 to 20)
#    0.000    1.000    3.750    0.750   10.500    0.000 
#    6.750    0.000    0.000    0.000    0.000    0.000 
#    0.000    0.000    0.000    0.000    0.000    0.000 
#
# Total GULP energy -89549.660908 kJ/mol
# GULP energy per Si atom -5596.853807 kJ/mol
# Density = 2.498940 g / cm^3
# Si number density = 25.046411 Si / 1000 Ang^3
#
#
#
# Elastic Constant Matrix: (Units=GPa)
#
#
# Indices 1 2 3 4 5 6 
#
# 1 110.9157 22.0354 26.5109 0.0000 24.5510 0.0000
# 2 22.0354 135.2107 43.8869 0.0000 21.2005 0.0000
# 3 26.5109 43.8869 109.1618 0.0000 -12.1710 0.0000
# 4 0.0000 0.0000 0.0000 48.0877 0.0000 8.4524
# 5 24.5510 21.2005 -12.1710 0.0000 43.6795 0.0000
# 6 0.0000 0.0000 0.0000 8.4524 0.0000 42.7296
#
#
#
# Elastic Compliance Matrix: (Units=1/GPa)
#
#
# Indices 1 2 3 4 5 6 
#
# 1 0.011588 0.000637 -0.003954 0.000000 -0.007925 0.000000
# 2 0.000637 0.009889 -0.004857 0.000000 -0.006512 0.000000
# 3 -0.003954 -0.004857 0.012988 0.000000 0.008199 0.000000
# 4 0.000000 0.000000 0.000000 0.021544 0.000000 -0.004262
# 5 -0.007925 -0.006512 0.008199 0.000000 0.032793 0.000000
# 6 0.000000 0.000000 0.000000 -0.004262 0.000000 0.024246
#
#
# Mechanical properties :
#
#
# Convention : Reuss Voigt Hill
#
# Bulk Modulus (GPa) = 55.19174 60.01718 57.60446
# Shear Modulus (GPa) = 36.91785 44.42302 40.67043
#
# Velocity S-wave (km/s) = 3.84341 4.21602 4.03402
# Velocity P-wave (km/s) = 6.46369 6.90754 6.68930
#
# Compressibility (1/GPa) = 0.01811865
#
# Stress axis : x y z
#
# Youngs Moduli (GPa) = 86.29254 101.11880 76.99576
#
# Poissons Ratio (x) = -0.06446 0.30446
# Poissons Ratio (y) = -0.05501 0.37395
# Poissons Ratio (z) = 0.34122 0.49110
#
# Static dielectric constant tensor:
#      x y z
#    x 1.967410 0.000000 -0.040460 
#    y 0.000000 2.006570 0.000000 
#    z -0.040460 0.000000 2.011690 
# 
# From -- ./inp_files/24366.got.cif
#   From: 2010.05.17/outbox.cif.g08.bks.cpg/sg9_13_cif.got.tgz:24366.got - 2010.06.03 20:04:27.
