data_PCOD9139522
_publ_section_title
;
Structure prediction by ZEFSAII (Michael W. Deem and Ramdas Pophale) SiO2 
 PCOD9139522
Probable space group: C C
;
_chemical_formula_sum "Si O2"
_cell_formula_units_Z 24
_cell_length_a 10.212344
_cell_length_b 11.370712
_cell_length_c 17.362225
_cell_angle_alpha 90.000000
_cell_angle_beta 155.576277
_cell_angle_gamma 90.000000
_cell_volume 833.632263
_symmetry_space_group_name_H-M "C C"
_symmetry_group_IT_number 9
_symmetry_cell_setting 'monoclinic'
loop_
_space_group_symop_operation_xyz
x,y,z
x,-y,1/2+z
1/2+x,1/2+y,z
1/2+x,1/2-y,1/2+z
loop_
_atom_site_type_symbol
_atom_site_label
_atom_site_fract_x
_atom_site_fract_y
_atom_site_fract_z
Si Si1 0.095510 0.570339 0.818850
Si Si2 0.152188 0.240576 0.911661
Si Si3 0.100217 0.368828 0.552023
Si Si4 0.135742 0.967726 0.937257
Si Si5 0.064344 0.255584 0.181394
Si Si6 0.110839 0.913546 0.183441
O O1 0.248245 0.663798 0.842727
O O2 0.821319 0.513491 0.618314
O O3 0.880127 0.629060 0.768546
O O4 0.354726 0.491925 0.000499
O O5 0.376417 0.242006 0.955520
O O6 0.387579 0.309598 0.094955
O O7 0.812930 0.293116 0.752989
O O8 0.119579 0.100901 0.900175
O O9 0.284516 0.420926 0.724786
O O10 0.356660 0.328691 0.625299
O O11 0.846797 0.458969 0.376928
O O12 0.341567 0.853676 0.021896
#
# Coordination Sequence:
#
# PCOD9139522 Si02
#       6
#     4   4   4   4   4   4
#     4  10  26  53  74 114 153 225 254 334 408 482
#     4  12  25  48  82 117 158 219 265 324 410 480
#     4  12  27  48  81 127 157 204 276 344 385 475
#     4  10  25  50  81 116 165 213 270 332 404 487
#     4  10  25  48  84 111 163 214 269 320 408 485
#     4  12  28  49  82 113 166 203 278 342 395 473
#
# _framework density 28.789673000000001
#
# number of rings (size 3 to 8) (size 9 to 14) (size 15 to 20)
#    1.000    0.000    1.667    3.000    7.000    2.667 
#    0.000    0.000    0.000    0.000    0.000    0.000 
#    0.000    0.000    0.000    0.000    0.000    0.000 
#
# Total GULP energy -66800.586373 kJ/mol
# GULP energy per Si atom -5566.715531 kJ/mol
# Density = 2.872415 g / cm^3
# Si number density = 28.789673 Si / 1000 Ang^3
#
#
#
# Elastic Constant Matrix: (Units=GPa)
#
#
# Indices 1 2 3 4 5 6 
#
# 1 119.7915 26.3095 70.2512 0.0029 31.9216 -0.0011
# 2 26.3095 86.1173 65.5141 0.0129 -0.9773 0.0014
# 3 70.2512 65.5141 270.8163 0.0402 -21.4445 0.0028
# 4 0.0029 0.0129 0.0402 63.1809 0.0018 0.9481
# 5 31.9216 -0.9773 -21.4445 0.0018 59.6632 -0.0047
# 6 -0.0011 0.0014 0.0028 0.9481 -0.0047 38.8899
#
#
#
# Elastic Compliance Matrix: (Units=1/GPa)
#
#
# Indices 1 2 3 4 5 6 
#
# 1 0.013037 -0.001228 -0.003745 0.000002 -0.008341 0.000000
# 2 -0.001228 0.014409 -0.003187 -0.000001 -0.000252 0.000000
# 3 -0.003745 -0.003187 0.005753 -0.000003 0.004019 0.000000
# 4 0.000002 -0.000001 -0.000003 0.015833 -0.000003 -0.000386
# 5 -0.008341 -0.000252 0.004019 -0.000003 0.022664 0.000002
# 6 0.000000 0.000000 0.000000 -0.000386 0.000002 0.025723
#
#
# Mechanical properties :
#
#
# Convention : Reuss Voigt Hill
#
# Bulk Modulus (GPa) = 59.24889 88.98608 74.11749
# Shear Modulus (GPa) = 41.88771 53.32347 47.60559
#
# Velocity S-wave (km/s) = 3.81853 4.30836 4.07082
# Velocity P-wave (km/s) = 6.32978 7.46494 6.92068
#
# Compressibility (1/GPa) = 0.01687795
#
# Stress axis : x y z
#
# Youngs Moduli (GPa) = 76.70664 69.40075 173.81244
#
# Poissons Ratio (x) = 0.08525 0.65095
# Poissons Ratio (y) = 0.09422 0.55396
# Poissons Ratio (z) = 0.28728 0.22119
#
# Static dielectric constant tensor:
#      x y z
#    x 2.433480 0.000000 -0.043240 
#    y 0.000000 2.373710 -0.000010 
#    z -0.043240 -0.000010 2.237870 
# 
# From -- ./inp_files/33402.got.cif
#   From: 2010.05.17/outbox.cif.g08.bks.cpg/sg9_17_cif.got.tgz:33402.got - 2010.06.03 20:04:27.
