data_PCOD9139141
_publ_section_title
;
Structure prediction by ZEFSAII (Michael W. Deem and Ramdas Pophale) SiO2 
 PCOD9139141
Probable space group: C C
;
_chemical_formula_sum "Si O2"
_cell_formula_units_Z 32
_cell_length_a 7.097894
_cell_length_b 11.085253
_cell_length_c 19.352050
_cell_angle_alpha 90.000000
_cell_angle_beta 118.772318
_cell_angle_gamma 90.000000
_cell_volume 1334.668791
_symmetry_space_group_name_H-M "C C"
_symmetry_group_IT_number 9
_symmetry_cell_setting 'monoclinic'
loop_
_space_group_symop_operation_xyz
x,y,z
x,-y,1/2+z
1/2+x,1/2+y,z
1/2+x,1/2-y,1/2+z
loop_
_atom_site_type_symbol
_atom_site_label
_atom_site_fract_x
_atom_site_fract_y
_atom_site_fract_z
Si Si1 0.225350 0.535523 0.488830
Si Si2 0.860453 0.727282 0.688531
Si Si3 0.153050 0.996364 0.488723
Si Si4 0.908274 0.380779 0.344060
Si Si5 0.742820 0.617509 0.250326
Si Si6 0.385302 0.827381 0.629415
Si Si7 0.075687 0.226046 0.883580
Si Si8 0.516875 0.128873 0.573034
O O1 0.471610 0.528067 0.511308
O O2 0.140209 0.665074 0.445906
O O3 0.172909 0.534377 0.560414
O O4 0.102287 0.430759 0.424960
O O5 0.947006 0.674798 0.776054
O O6 0.606918 0.755935 0.654513
O O7 0.994935 0.849213 0.698648
O O8 0.927485 0.642884 0.635630
O O9 0.336457 0.918700 0.559336
O O10 0.058520 0.905155 0.415732
O O11 0.291542 0.112632 0.490377
O O12 0.770679 0.500321 0.301809
O O13 0.768748 0.287732 0.363299
O O14 0.871586 0.605859 0.200858
O O15 0.864881 0.729574 0.307521
O O16 0.173279 0.743753 0.594859
#
# Coordination Sequence:
#
# PCOD9139141 Si02
#       8
#     4   4   4   4   4   4   4   4
#     4  11  25  45  69 102 140 180 238 289 346 421
#     4  11  24  45  71 100 142 184 231 292 344 414
#     4  12  25  42  70 101 137 187 227 286 351 409
#     4  11  23  46  73 100 136 186 227 289 346 412
#     4  10  24  45  69 101 134 179 230 281 344 411
#     4  11  24  45  66 102 142 177 231 285 339 418
#     4  11  23  46  70 101 139 176 234 286 348 413
#     4  11  24  42  68 101 134 185 228 280 352 408
#
# _framework density 23.975987
#
# number of rings (size 3 to 8) (size 9 to 14) (size 15 to 20)
#    0.000    1.000    3.750    2.250    0.000    5.000 
#    2.250    0.000    0.000    0.000    0.000    0.000 
#    0.000    0.000    0.000    0.000    0.000    0.000 
#
# Total GULP energy -89313.597209 kJ/mol
# GULP energy per Si atom -5582.099826 kJ/mol
# Density = 2.392142 g / cm^3
# Si number density = 23.975987 Si / 1000 Ang^3
#
#
#
# Elastic Constant Matrix: (Units=GPa)
#
#
# Indices 1 2 3 4 5 6 
#
# 1 155.3748 52.6205 20.0485 0.0000 -13.2006 0.0000
# 2 52.6205 38.8718 16.0961 0.0000 2.1757 0.0000
# 3 20.0485 16.0961 46.4893 0.0000 -18.1647 0.0000
# 4 0.0000 0.0000 0.0000 33.6556 0.0000 -9.2372
# 5 -13.2006 2.1757 -18.1647 0.0000 40.8807 0.0000
# 6 0.0000 0.0000 0.0000 -9.2372 0.0000 23.1946
#
#
#
# Elastic Compliance Matrix: (Units=1/GPa)
#
#
# Indices 1 2 3 4 5 6 
#
# 1 0.013342 -0.020123 0.004012 0.000000 0.007162 0.000000
# 2 -0.020123 0.062424 -0.020296 0.000000 -0.018838 0.000000
# 3 0.004012 -0.020296 0.033562 0.000000 0.017289 0.000000
# 4 0.000000 0.000000 0.000000 0.033359 0.000000 0.013285
# 5 0.007162 -0.018838 0.017289 0.000000 0.035458 0.000000
# 6 0.000000 0.000000 0.000000 0.013285 0.000000 0.048404
#
#
# Mechanical properties :
#
#
# Convention : Reuss Voigt Hill
#
# Bulk Modulus (GPa) = 27.38628 46.47402 36.93015
# Shear Modulus (GPa) = 16.04953 29.67756 22.86354
#
# Velocity S-wave (km/s) = 2.59008 3.52206 3.09139
# Velocity P-wave (km/s) = 4.51574 5.99713 5.30836
#
# Compressibility (1/GPa) = 0.03651463
#
# Stress axis : x y z
#
# Youngs Moduli (GPa) = 74.95239 16.01942 29.79523
#
# Poissons Ratio (x) = 0.32236 -0.11953
# Poissons Ratio (y) = 1.50825 0.60472
# Poissons Ratio (z) = -0.30069 0.32513
#
# Static dielectric constant tensor:
#      x y z
#    x 1.903780 0.000000 -0.032640 
#    y 0.000000 2.001040 0.000000 
#    z -0.032640 0.000000 1.930790 
# 
# From -- ./inp_files/32015.got.cif
#   From: 2010.05.17/outbox.cif.g08.bks.cpg/sg9_17_cif.got.tgz:32015.got - 2010.06.03 20:04:27.
