data_PCOD9139867
_publ_section_title
;
Structure prediction by ZEFSAII (Michael W. Deem and Ramdas Pophale) SiO2 
 PCOD9139867
Probable space group: C C
;
_chemical_formula_sum "Si O2"
_cell_formula_units_Z 32
_cell_length_a 6.369907
_cell_length_b 25.696757
_cell_length_c 7.974608
_cell_angle_alpha 90.000000
_cell_angle_beta 98.980998
_cell_angle_gamma 90.000000
_cell_volume 1289.328161
_symmetry_space_group_name_H-M "C C"
_symmetry_group_IT_number 9
_symmetry_cell_setting 'monoclinic'
loop_
_space_group_symop_operation_xyz
x,y,z
x,-y,1/2+z
1/2+x,1/2+y,z
1/2+x,1/2-y,1/2+z
loop_
_atom_site_type_symbol
_atom_site_label
_atom_site_fract_x
_atom_site_fract_y
_atom_site_fract_z
Si Si1 0.326890 0.559930 0.583610
Si Si2 0.751466 0.781647 0.050171
Si Si3 0.814184 0.939680 0.672058
Si Si4 0.632175 0.652484 0.718744
Si Si5 0.008470 0.347064 0.537992
Si Si6 0.465615 0.876173 0.020992
Si Si7 0.888910 0.218662 0.207599
Si Si8 0.175131 0.124271 0.235113
O O1 0.320698 0.499770 0.627366
O O2 0.320850 0.564774 0.377919
O O3 0.513198 0.597126 0.677829
O O4 0.111455 0.584132 0.637904
O O5 0.639896 0.835445 0.982093
O O6 0.570085 0.750279 0.129175
O O7 0.950360 0.802560 0.188702
O O8 0.819958 0.757433 0.879016
O O9 0.627452 0.902420 0.578921
O O10 0.028983 0.915211 0.617497
O O11 0.820464 0.648696 0.878320
O O12 0.784949 0.659470 0.578839
O O13 0.190434 0.302149 0.568462
O O14 0.855414 0.339870 0.677609
O O15 0.320575 0.908909 0.877352
O O16 0.000827 0.164849 0.275019
#
# Coordination Sequence:
#
# PCOD9139867 Si02
#       8
#     4   4   4   4   4   4   4   4
#     4  11  25  42  70 107 147 195 249 307 374 451
#     4  11  25  49  79 108 149 198 253 315 384 459
#     4  11  25  42  70 107 147 195 249 307 374 451
#     4  11  25  47  74 108 150 196 249 314 379 454
#     4  11  25  47  74 108 150 196 249 314 379 454
#     4  11  21  47  74  96 149 197 244 303 380 439
#     4  11  25  49  79 108 149 198 253 315 384 459
#     4  11  21  47  74  96 149 197 244 303 380 439
#
# _framework density 24.819129
#
# number of rings (size 3 to 8) (size 9 to 14) (size 15 to 20)
#    0.000    1.000    5.000    1.500    3.500    7.000 
#    4.500    1.250    0.000    0.000    0.000    0.000 
#    0.000    0.000    0.000    0.000    0.000    0.000 
#
# Total GULP energy -89110.713729 kJ/mol
# GULP energy per Si atom -5569.419608 kJ/mol
# Density = 2.476264 g / cm^3
# Si number density = 24.819129 Si / 1000 Ang^3
#
#
#
# Elastic Constant Matrix: (Units=GPa)
#
#
# Indices 1 2 3 4 5 6 
#
# 1 221.5031 90.4195 75.0770 0.0000 31.6796 0.0000
# 2 90.4195 170.6858 46.1601 0.0000 15.7146 0.0000
# 3 75.0770 46.1601 108.7492 0.0000 35.6203 0.0000
# 4 0.0000 0.0000 0.0000 28.1486 0.0000 -1.7774
# 5 31.6796 15.7146 35.6203 0.0000 62.2291 0.0000
# 6 0.0000 0.0000 0.0000 -1.7774 0.0000 27.2362
#
#
#
# Elastic Compliance Matrix: (Units=1/GPa)
#
#
# Indices 1 2 3 4 5 6 
#
# 1 0.006847 -0.002650 -0.003298 0.000000 -0.000929 0.000000
# 2 -0.002650 0.007644 -0.001508 0.000000 0.000282 0.000000
# 3 -0.003298 -0.001508 0.014077 0.000000 -0.005998 0.000000
# 4 0.000000 0.000000 0.000000 0.035673 0.000000 0.002328
# 5 -0.000929 0.000282 -0.005998 0.000000 0.019905 0.000000
# 6 0.000000 0.000000 0.000000 0.002328 0.000000 0.036868
#
#
# Mechanical properties :
#
#
# Convention : Reuss Voigt Hill
#
# Bulk Modulus (GPa) = 73.22077 102.69459 87.95768
# Shear Modulus (GPa) = 35.59326 42.80822 39.20074
#
# Velocity S-wave (km/s) = 3.79107 4.15759 3.97855
# Velocity P-wave (km/s) = 6.98060 8.03208 7.52473
#
# Compressibility (1/GPa) = 0.01365733
#
# Stress axis : x y z
#
# Youngs Moduli (GPa) = 146.05178 130.81873 71.03856
#
# Poissons Ratio (x) = 0.34663 0.23428
# Poissons Ratio (y) = 0.38699 0.10710
# Poissons Ratio (z) = 0.48168 0.19723
#
# Static dielectric constant tensor:
#      x y z
#    x 2.008690 0.000000 -0.013690 
#    y 0.000000 2.033300 0.000000 
#    z -0.013690 0.000000 3.002890 
# 
# From -- ./inp_files/13757.got.cif
#   From: 2010.05.17/outbox.cif.g08.bks.cpg/sg9_7_cif.got.tgz:13757.got - 2010.06.03 20:04:27.
