data_PCOD9139635
_publ_section_title
;
Structure prediction by ZEFSAII (Michael W. Deem and Ramdas Pophale) SiO2 
 PCOD9139635
Probable space group: C C
;
_chemical_formula_sum "Si O2"
_cell_formula_units_Z 28
_cell_length_a 5.991306
_cell_length_b 23.334023
_cell_length_c 7.792722
_cell_angle_alpha 90.000000
_cell_angle_beta 81.535173
_cell_angle_gamma 90.000000
_cell_volume 1077.564623
_symmetry_space_group_name_H-M "C C"
_symmetry_group_IT_number 9
_symmetry_cell_setting 'monoclinic'
loop_
_space_group_symop_operation_xyz
x,y,z
x,-y,1/2+z
1/2+x,1/2+y,z
1/2+x,1/2-y,1/2+z
loop_
_atom_site_type_symbol
_atom_site_label
_atom_site_fract_x
_atom_site_fract_y
_atom_site_fract_z
Si Si1 0.268110 0.519489 0.666100
Si Si2 0.935481 0.511685 0.952693
Si Si3 0.951386 0.677166 0.627188
Si Si4 0.097421 0.271461 0.767855
Si Si5 0.555283 0.404885 0.590275
Si Si6 0.243550 0.676414 0.909467
Si Si7 0.133632 0.903998 0.950958
O O1 0.403296 0.460174 0.654383
O O2 0.433244 0.635656 0.969693
O O3 0.413828 0.568201 0.561986
O O4 0.011273 0.515793 0.627346
O O5 0.780941 0.566795 0.990211
O O6 0.191839 0.527289 0.870419
O O7 0.793625 0.458650 0.894861
O O8 0.818890 0.732270 0.717139
O O9 0.759806 0.636533 0.569664
O O10 0.098009 0.653762 0.767302
O O11 0.103640 0.692626 0.443575
O O12 0.089708 0.307229 0.591931
O O13 0.878545 0.231332 0.819218
O O14 0.592756 0.375125 0.770997
#
# Coordination Sequence:
#
# PCOD9139635 Si02
#       7
#     4   4   4   4   4   4   4
#     4  11  24  46  72 101 149 203 256 317 372 447
#     4  11  24  46  72 101 149 203 256 317 372 447
#     4  11  26  50  80 113 155 199 258 320 390 463
#     4  10  26  50  78 114 154 200 256 320 388 466
#     4  11  26  46  73 113 149 203 259 313 384 464
#     4  11  26  50  80 113 155 199 258 320 390 463
#     4  11  26  46  73 113 149 203 259 313 384 464
#
# _framework density 25.98452
#
# number of rings (size 3 to 8) (size 9 to 14) (size 15 to 20)
#    0.000    1.143    2.857    0.857    2.000   12.571 
#    0.000    2.857    0.000    0.000    0.000    0.000 
#    0.000    0.000    0.000    0.000    0.000    0.000 
#
# Total GULP energy -78408.974730 kJ/mol
# GULP energy per Si atom -5600.641052 kJ/mol
# Density = 2.592538 g / cm^3
# Si number density = 25.984520 Si / 1000 Ang^3
#
#
#
# Elastic Constant Matrix: (Units=GPa)
#
#
# Indices 1 2 3 4 5 6 
#
# 1 116.2018 52.5055 69.3431 0.0000 9.7424 0.0000
# 2 52.5055 91.0328 57.2305 0.0000 2.2351 0.0000
# 3 69.3431 57.2305 132.3076 0.0000 -1.6279 0.0000
# 4 0.0000 0.0000 0.0000 31.5204 0.0000 4.8175
# 5 9.7424 2.2351 -1.6279 0.0000 68.8480 0.0000
# 6 0.0000 0.0000 0.0000 4.8175 0.0000 20.3279
#
#
#
# Elastic Compliance Matrix: (Units=1/GPa)
#
#
# Indices 1 2 3 4 5 6 
#
# 1 0.014110 -0.004705 -0.005384 0.000000 -0.001971 0.000000
# 2 -0.004705 0.016686 -0.004751 0.000000 0.000012 0.000000
# 3 -0.005384 -0.004751 0.012450 0.000000 0.001211 0.000000
# 4 0.000000 0.000000 0.000000 0.032918 0.000000 -0.007801
# 5 -0.001971 0.000012 0.001211 0.000000 0.014832 0.000000
# 6 0.000000 0.000000 0.000000 -0.007801 0.000000 0.051042
#
#
# Mechanical properties :
#
#
# Convention : Reuss Voigt Hill
#
# Bulk Modulus (GPa) = 73.72140 77.52226 75.62183
# Shear Modulus (GPa) = 28.37036 34.83679 31.60358
#
# Velocity S-wave (km/s) = 3.30785 3.66550 3.49126
# Velocity P-wave (km/s) = 6.55912 6.91471 6.73926
#
# Compressibility (1/GPa) = 0.01356458
#
# Stress axis : x y z
#
# Youngs Moduli (GPa) = 70.87233 59.93201 80.32018
#
# Poissons Ratio (x) = 0.28197 0.43246
# Poissons Ratio (y) = 0.33345 0.38164
# Poissons Ratio (z) = 0.38159 0.28476
#
# Static dielectric constant tensor:
#      x y z
#    x 1.998030 0.000000 0.043710 
#    y 0.000000 2.122060 0.000000 
#    z 0.043710 0.000000 2.279890 
# 
# From -- ./inp_files/4148.got.cif
#   From: 2010.05.17/outbox.cif.g08.bks.cpg/sg9_3_cif.got.tgz:4148.got - 2010.06.03 20:04:27.
