data_PCOD9139235
_publ_section_title
;
Structure prediction by ZEFSAII (Michael W. Deem and Ramdas Pophale) SiO2 
 PCOD9139235
Probable space group: C C
;
_chemical_formula_sum "Si O2"
_cell_formula_units_Z 24
_cell_length_a 12.649892
_cell_length_b 12.592273
_cell_length_c 7.434426
_cell_angle_alpha 90.000000
_cell_angle_beta 117.250985
_cell_angle_gamma 90.000000
_cell_volume 1052.797102
_symmetry_space_group_name_H-M "C C"
_symmetry_group_IT_number 9
_symmetry_cell_setting 'monoclinic'
loop_
_space_group_symop_operation_xyz
x,y,z
x,-y,1/2+z
1/2+x,1/2+y,z
1/2+x,1/2-y,1/2+z
loop_
_atom_site_type_symbol
_atom_site_label
_atom_site_fract_x
_atom_site_fract_y
_atom_site_fract_z
Si Si1 0.933550 0.647250 0.291040
Si Si2 0.457409 0.913374 0.222989
Si Si3 0.703773 0.870160 0.587809
Si Si4 0.505744 0.624263 0.754548
Si Si5 0.847172 0.020301 0.914169
Si Si6 0.255054 0.843642 0.341148
O O1 0.983776 0.539283 0.243650
O O2 0.008476 0.751411 0.301701
O O3 0.927380 0.628582 0.500251
O O4 0.812301 0.665699 0.084321
O O5 0.574902 0.861031 0.398355
O O6 0.348243 0.896926 0.276055
O O7 0.731150 0.980278 0.715594
O O8 0.726043 0.768633 0.726936
O O9 0.803279 0.886833 0.510863
O O10 0.459220 0.564471 0.893571
O O11 0.400105 0.587258 0.540617
O O12 0.632418 0.593617 0.773126
#
# Coordination Sequence:
#
# PCOD9139235 Si02
#       6
#     4   4   4   4   4   4
#     4  12  26  47  72 116 150 200 251 306 380 446
#     4  12  27  46  78 113 152 198 254 312 377 446
#     4  11  24  48  76 107 151 195 257 308 373 453
#     4  11  26  46  73 106 151 194 252 306 382 449
#     4  10  24  46  74 106 146 202 246 311 375 453
#     4  12  27  47  75 110 152 193 248 319 375 441
#
# _framework density 22.796417000000002
#
# number of rings (size 3 to 8) (size 9 to 14) (size 15 to 20)
#    0.000    0.667    3.333    3.000    4.667    2.667 
#    3.000    0.000    0.000    0.000    0.000    0.000 
#    0.000    0.000    0.000    0.000    0.000    0.000 
#
# Total GULP energy -67029.126604 kJ/mol
# GULP energy per Si atom -5585.760550 kJ/mol
# Density = 2.274453 g / cm^3
# Si number density = 22.796417 Si / 1000 Ang^3
#
#
#
# Elastic Constant Matrix: (Units=GPa)
#
#
# Indices 1 2 3 4 5 6 
#
# 1 156.4360 25.4962 59.1429 0.0000 -11.9281 0.0000
# 2 25.4962 99.6801 36.9698 0.0000 -7.8368 0.0000
# 3 59.1429 36.9698 158.9521 0.0000 0.8366 0.0000
# 4 0.0000 0.0000 0.0000 28.0726 0.0000 -2.1981
# 5 -11.9281 -7.8368 0.8366 0.0000 30.4237 0.0000
# 6 0.0000 0.0000 0.0000 -2.1981 0.0000 27.6219
#
#
#
# Elastic Compliance Matrix: (Units=1/GPa)
#
#
# Indices 1 2 3 4 5 6 
#
# 1 0.007771 -0.000743 -0.002734 0.000000 0.002930 0.000000
# 2 -0.000743 0.011312 -0.002369 0.000000 0.002688 0.000000
# 3 -0.002734 -0.002369 0.007869 0.000000 -0.001898 0.000000
# 4 0.000000 0.000000 0.000000 0.035845 0.000000 0.002853
# 5 0.002930 0.002688 -0.001898 0.000000 0.034762 0.000000
# 6 0.000000 0.000000 0.000000 0.002853 0.000000 0.036430
#
#
# Mechanical properties :
#
#
# Convention : Reuss Voigt Hill
#
# Bulk Modulus (GPa) = 65.52870 73.14288 69.33579
# Shear Modulus (GPa) = 33.16360 36.78760 34.97560
#
# Velocity S-wave (km/s) = 3.81829 4.02150 3.92121
# Velocity P-wave (km/s) = 6.94598 7.32927 7.14020
#
# Compressibility (1/GPa) = 0.01526049
#
# Stress axis : x y z
#
# Youngs Moduli (GPa) = 128.69170 88.40200 127.07631
#
# Poissons Ratio (x) = 0.06570 0.34740
# Poissons Ratio (y) = 0.09565 0.30099
# Poissons Ratio (z) = 0.35182 0.20939
#
# Static dielectric constant tensor:
#      x y z
#    x 1.866790 0.000000 -0.028000 
#    y 0.000000 1.863800 0.000000 
#    z -0.028000 0.000000 1.924140 
# 
# From -- ./inp_files/7017.got.cif
#   From: 2010.05.17/outbox.cif.g08.bks.cpg/sg9_4_cif.got.tgz:7017.got - 2010.06.03 20:04:27.
