data_PCOD9139902
_publ_section_title
;
Structure prediction by ZEFSAII (Michael W. Deem and Ramdas Pophale) SiO2 
 PCOD9139902
Probable space group: C C
;
_chemical_formula_sum "Si O2"
_cell_formula_units_Z 28
_cell_length_a 9.900247
_cell_length_b 15.307720
_cell_length_c 9.006885
_cell_angle_alpha 90.000000
_cell_angle_beta 63.929625
_cell_angle_gamma 90.000000
_cell_volume 1226.113759
_symmetry_space_group_name_H-M "C C"
_symmetry_group_IT_number 9
_symmetry_cell_setting 'monoclinic'
loop_
_space_group_symop_operation_xyz
x,y,z
x,-y,1/2+z
1/2+x,1/2+y,z
1/2+x,1/2-y,1/2+z
loop_
_atom_site_type_symbol
_atom_site_label
_atom_site_fract_x
_atom_site_fract_y
_atom_site_fract_z
Si Si1 0.311030 0.773025 0.373990
Si Si2 0.758770 0.194068 0.098217
Si Si3 0.676877 0.025650 0.312749
Si Si4 0.334076 0.604705 0.527485
Si Si5 0.151186 0.970479 0.806871
Si Si6 0.554244 0.335576 0.298856
Si Si7 0.362809 0.948061 0.449008
O O1 0.258200 0.440220 0.919830
O O2 0.310287 0.706928 0.510462
O O3 0.146869 0.808933 0.404342
O O4 0.412262 0.857453 0.350502
O O5 0.851117 0.222877 0.202448
O O6 0.634812 0.270753 0.142534
O O7 0.684936 0.102811 0.184874
O O8 0.879745 0.183015 0.910751
O O9 0.505813 0.002066 0.431688
O O10 0.760642 0.942230 0.203356
O O11 0.509967 0.582158 0.435026
O O12 0.088659 0.062007 0.767523
O O13 0.267437 0.996598 0.878265
O O14 0.248620 0.923686 0.634780
#
# Coordination Sequence:
#
# PCOD9139902 Si02
#       7
#     4   4   4   4   4   4   4
#     4   8  22  34  68  84 127 162 226 235 312 379
#     4   9  19  35  61  91 115 159 218 252 288 374
#     4  11  23  38  65  93 126 161 215 261 317 366
#     4  11  22  40  67  90 124 166 212 262 312 375
#     4  11  23  40  67  92 131 165 215 256 319 375
#     4   9  19  35  61  92 114 161 216 252 287 376
#     4  11  24  40  65  94 127 168 214 262 313 373
#
# _framework density 22.836378
#
# number of rings (size 3 to 8) (size 9 to 14) (size 15 to 20)
#    0.857    1.143    1.429    1.714   10.000    0.000 
#    0.000    0.000   18.857    0.000    0.000    0.000 
#    0.000    0.000    0.000    0.000    0.000    0.000 
#
# Total GULP energy -78180.619766 kJ/mol
# GULP energy per Si atom -5584.329983 kJ/mol
# Density = 2.278440 g / cm^3
# Si number density = 22.836378 Si / 1000 Ang^3
#
#
#
# Elastic Constant Matrix: (Units=GPa)
#
#
# Indices 1 2 3 4 5 6 
#
# 1 72.0813 21.9613 19.6766 0.0000 -5.3928 0.0000
# 2 21.9613 79.3732 -6.3021 0.0000 -6.3694 0.0000
# 3 19.6766 -6.3021 52.0656 0.0000 -22.0672 0.0000
# 4 0.0000 0.0000 0.0000 19.8911 0.0000 11.9966
# 5 -5.3928 -6.3694 -22.0672 0.0000 32.8317 0.0000
# 6 0.0000 0.0000 0.0000 11.9966 0.0000 17.9834
#
#
#
# Elastic Compliance Matrix: (Units=1/GPa)
#
#
# Indices 1 2 3 4 5 6 
#
# 1 0.017974 -0.006095 -0.009481 0.000000 -0.004603 0.000000
# 2 -0.006095 0.015377 0.006999 0.000000 0.006686 0.000000
# 3 -0.009481 0.006999 0.032934 0.000000 0.021937 0.000000
# 4 0.000000 0.000000 0.000000 0.084117 0.000000 -0.056114
# 5 -0.004603 0.006686 0.021937 0.000000 0.045744 0.000000
# 6 0.000000 0.000000 0.000000 -0.056114 0.000000 0.093040
#
#
# Mechanical properties :
#
#
# Convention : Reuss Voigt Hill
#
# Bulk Modulus (GPa) = 20.35434 30.46575 25.41004
# Shear Modulus (GPa) = 15.49336 25.35354 20.42345
#
# Velocity S-wave (km/s) = 2.60753 3.33562 2.99379
# Velocity P-wave (km/s) = 4.24242 5.31084 4.80641
#
# Compressibility (1/GPa) = 0.04912958
#
# Stress axis : x y z
#
# Youngs Moduli (GPa) = 55.63537 65.03053 30.36345
#
# Poissons Ratio (x) = 0.39638 0.28789
# Poissons Ratio (y) = 0.33912 -0.21250
# Poissons Ratio (z) = 0.52750 -0.45512
#
# Static dielectric constant tensor:
#      x y z
#    x 1.837290 0.000000 0.044590 
#    y 0.000000 1.858160 0.000000 
#    z 0.044590 0.000000 1.860890 
# 
# From -- ./inp_files/16635.got.cif
#   From: 2010.05.17/outbox.cif.g08.bks.cpg/sg9_9_cif.got.tgz:16635.got - 2010.06.03 20:04:27.
