data_PCOD9139151
_publ_section_title
;
Structure prediction by ZEFSAII (Michael W. Deem and Ramdas Pophale) SiO2 
 PCOD9139151
Probable space group: C C
;
_chemical_formula_sum "Si O2"
_cell_formula_units_Z 28
_cell_length_a 28.538060
_cell_length_b 8.147194
_cell_length_c 8.779283
_cell_angle_alpha 90.000000
_cell_angle_beta 146.725747
_cell_angle_gamma 90.000000
_cell_volume 1119.914071
_symmetry_space_group_name_H-M "C C"
_symmetry_group_IT_number 9
_symmetry_cell_setting 'monoclinic'
loop_
_space_group_symop_operation_xyz
x,y,z
x,-y,1/2+z
1/2+x,1/2+y,z
1/2+x,1/2-y,1/2+z
loop_
_atom_site_type_symbol
_atom_site_label
_atom_site_fract_x
_atom_site_fract_y
_atom_site_fract_z
Si Si1 0.523010 0.216199 0.189650
Si Si2 0.824441 0.231306 0.808302
Si Si3 0.675411 0.575654 0.140553
Si Si4 0.252728 0.805228 0.161980
Si Si5 0.150940 0.260742 0.650356
Si Si6 0.862798 0.099036 0.242815
Si Si7 0.986439 0.537969 0.805289
O O1 0.617083 0.281168 0.415355
O O2 0.503183 0.148441 0.302698
O O3 0.460565 0.362289 0.977090
O O4 0.491556 0.066072 0.999544
O O5 0.730605 0.266577 0.482648
O O6 0.852402 0.085138 0.770541
O O7 0.817602 0.160530 0.963273
O O8 0.898895 0.371657 0.011569
O O9 0.751665 0.475268 0.260001
O O10 0.703733 0.643124 0.378501
O O11 0.615377 0.419560 0.014115
O O12 0.198143 0.685106 0.121906
O O13 0.331775 0.711344 0.302157
O O14 0.072921 0.371986 0.484074
#
# Coordination Sequence:
#
# PCOD9139151 Si02
#       7
#     4   4   4   4   4   4   4
#     4  11  27  46  74 106 152 198 255 313 383 441
#     4  11  26  48  75 109 151 195 259 310 387 452
#     4  10  24  45  70 106 143 194 248 302 377 452
#     4  10  25  41  72 107 136 197 241 306 373 447
#     4  10  25  46  74 102 151 193 249 314 376 453
#     4  11  26  46  75 106 150 200 247 315 382 456
#     4  11  27  46  70 110 147 197 251 322 370 459
#
# _framework density 25.001918
#
# number of rings (size 3 to 8) (size 9 to 14) (size 15 to 20)
#    0.857    0.571    0.000    2.571   10.000    4.571 
#    0.000    0.000    0.000    0.000    0.000    0.000 
#    0.000    0.000    0.000    0.000    0.000    0.000 
#
# Total GULP energy -78055.974141 kJ/mol
# GULP energy per Si atom -5575.426724 kJ/mol
# Density = 2.494501 g / cm^3
# Si number density = 25.001918 Si / 1000 Ang^3
#
#
#
# Elastic Constant Matrix: (Units=GPa)
#
#
# Indices 1 2 3 4 5 6 
#
# 1 104.1769 -0.6473 47.7469 0.0000 2.6947 0.0000
# 2 -0.6473 54.2163 26.8487 0.0000 6.9896 0.0000
# 3 47.7469 26.8487 114.2214 0.0000 6.3318 0.0000
# 4 0.0000 0.0000 0.0000 29.8483 0.0000 -0.0028
# 5 2.6947 6.9896 6.3318 0.0000 27.4238 0.0000
# 6 0.0000 0.0000 0.0000 -0.0028 0.0000 49.5166
#
#
#
# Elastic Compliance Matrix: (Units=1/GPa)
#
#
# Indices 1 2 3 4 5 6 
#
# 1 0.012315 0.003127 -0.005847 0.000000 -0.000657 0.000000
# 2 0.003127 0.022167 -0.006268 0.000000 -0.004510 0.000000
# 3 -0.005847 -0.006268 0.012715 0.000000 -0.000764 0.000000
# 4 0.000000 0.000000 0.000000 0.033503 0.000000 0.000002
# 5 -0.000657 -0.004510 -0.000764 0.000000 0.037855 0.000000
# 6 0.000000 0.000000 0.000000 0.000002 0.000000 0.020195
#
#
# Mechanical properties :
#
#
# Convention : Reuss Voigt Hill
#
# Bulk Modulus (GPa) = 34.22031 46.72347 40.47189
# Shear Modulus (GPa) = 30.03626 34.60217 32.31921
#
# Velocity S-wave (km/s) = 3.46982 3.72422 3.59927
# Velocity P-wave (km/s) = 5.45616 6.10096 5.78754
#
# Compressibility (1/GPa) = 0.02922242
#
# Stress axis : x y z
#
# Youngs Moduli (GPa) = 81.20089 45.11139 78.64996
#
# Poissons Ratio (x) = -0.14107 0.45984
# Poissons Ratio (y) = -0.25392 0.49296
# Poissons Ratio (z) = 0.47475 0.28275
#
# Static dielectric constant tensor:
#      x y z
#    x 2.030560 0.000000 -0.030330 
#    y 0.000000 2.070940 0.000000 
#    z -0.030330 0.000000 1.955130 
# 
# From -- ./inp_files/12391.got.cif
#   From: 2010.05.17/outbox.cif.g08.bks.cpg/sg9_7_cif.got.tgz:12391.got - 2010.06.03 20:04:27.
