data_PCOD9139008
_publ_section_title
;
Structure prediction by ZEFSAII (Michael W. Deem and Ramdas Pophale) SiO2 
 PCOD9139008
Probable space group: C C
;
_chemical_formula_sum "Si O2"
_cell_formula_units_Z 28
_cell_length_a 23.360547
_cell_length_b 8.660973
_cell_length_c 8.518085
_cell_angle_alpha 90.000000
_cell_angle_beta 41.764263
_cell_angle_gamma 90.000000
_cell_volume 1147.915230
_symmetry_space_group_name_H-M "C C"
_symmetry_group_IT_number 9
_symmetry_cell_setting 'monoclinic'
loop_
_space_group_symop_operation_xyz
x,y,z
x,-y,1/2+z
1/2+x,1/2+y,z
1/2+x,1/2-y,1/2+z
loop_
_atom_site_type_symbol
_atom_site_label
_atom_site_fract_x
_atom_site_fract_y
_atom_site_fract_z
Si Si1 0.212440 0.652554 0.189930
Si Si2 0.241321 0.974703 0.306276
Si Si3 0.710810 0.177581 0.822097
Si Si4 0.420302 0.053736 0.571978
Si Si5 0.018779 0.229915 0.683796
Si Si6 0.511530 0.180089 0.687380
Si Si7 0.547288 0.453433 0.814430
O O1 0.245812 0.811882 0.201749
O O2 0.246317 0.482364 0.175019
O O3 0.110163 0.653067 0.437327
O O4 0.224517 0.663516 0.979748
O O5 0.150375 0.957689 0.583092
O O6 0.238310 0.144487 0.227388
O O7 0.321676 0.987053 0.258119
O O8 0.608703 0.179615 0.994636
O O9 0.439664 0.161613 0.380462
O O10 0.448655 0.129201 0.676760
O O11 0.484162 0.913556 0.400131
O O12 0.018457 0.124000 0.532920
O O13 0.021623 0.127089 0.835248
O O14 0.507802 0.354676 0.753253
#
# Coordination Sequence:
#
# PCOD9139008 Si02
#       7
#     4   4   4   4   4   4   4
#     4  11  23  47  70 106 135 198 242 291 349 449
#     4  10  28  44  74 107 149 185 244 302 373 423
#     4  11  25  42  74 100 141 189 248 292 353 437
#     4  12  24  43  69 103 143 177 234 307 369 411
#     4  11  22  42  73 102 139 188 246 297 355 438
#     4  11  22  41  68  99 137 183 237 290 351 433
#     4  10  24  43  72 101 138 192 245 289 352 443
#
# _framework density 24.392047000000002
#
# number of rings (size 3 to 8) (size 9 to 14) (size 15 to 20)
#    0.000    1.143    2.857    1.714   16.000    0.000 
#    2.571    0.000    0.000    0.000    0.000    0.000 
#    0.000    0.000    0.000    0.000    0.000    0.000 
#
# Total GULP energy -78241.756081 kJ/mol
# GULP energy per Si atom -5588.696863 kJ/mol
# Density = 2.433653 g / cm^3
# Si number density = 24.392047 Si / 1000 Ang^3
#
#
#
# Elastic Constant Matrix: (Units=GPa)
#
#
# Indices 1 2 3 4 5 6 
#
# 1 94.7216 47.6776 20.4013 0.0000 -3.6829 0.0000
# 2 47.6776 179.6361 42.7847 0.0000 15.2763 0.0000
# 3 20.4013 42.7847 59.0138 0.0000 11.1350 0.0000
# 4 0.0000 0.0000 0.0000 11.3402 0.0000 19.8529
# 5 -3.6829 15.2763 11.1350 0.0000 37.5847 0.0000
# 6 0.0000 0.0000 0.0000 19.8529 0.0000 34.0320
#
#
#
# Elastic Compliance Matrix: (Units=1/GPa)
#
#
# Indices 1 2 3 4 5 6 
#
# 1 0.012817 -0.002998 -0.002886 0.000000 0.003329 0.000000
# 2 -0.002998 0.007497 -0.003992 0.000000 -0.002158 0.000000
# 3 -0.002886 -0.003992 0.021803 0.000000 -0.005120 0.000000
# 4 0.000000 0.000000 0.000000 -4.145953 0.000000 2.418581
# 5 0.003329 -0.002158 -0.005120 0.000000 0.029327 0.000000
# 6 0.000000 0.000000 0.000000 2.418581 0.000000 -1.381518
#
#
# Mechanical properties :
#
#
# Convention : Reuss Voigt Hill
#
# Bulk Modulus (GPa) = 44.70981 61.67766 53.19374
# Shear Modulus (GPa) = -0.92101 31.42524 15.25211
#
# Velocity S-wave (km/s) = -0.61515 3.59324 2.50329
# Velocity P-wave (km/s) = 4.22669 6.52350 5.49641
#
# Compressibility (1/GPa) = 0.02236646
#
# Stress axis : x y z
#
# Youngs Moduli (GPa) = 78.02086 133.39347 45.86588
#
# Poissons Ratio (x) = 0.39986 0.13236
# Poissons Ratio (y) = 0.23388 0.18307
# Poissons Ratio (z) = 0.22516 0.53244
#
# Static dielectric constant tensor:
#      x y z
#    x 1.914400 0.000000 0.042730 
#    y 0.000000 2.063600 0.000000 
#    z 0.042730 0.000000 1.905380 
# 
# From -- ./inp_files/10356.got.cif
#   From: 2010.05.17/outbox.cif.g08.bks.cpg/sg9_6_cif.got.tgz:10356.got - 2010.06.03 20:04:27.
