data_PCOD9139605
_publ_section_title
;
Structure prediction by ZEFSAII (Michael W. Deem and Ramdas Pophale) SiO2 
 PCOD9139605
Probable space group: C C
;
_chemical_formula_sum "Si O2"
_cell_formula_units_Z 20
_cell_length_a 9.045118
_cell_length_b 5.196113
_cell_length_c 15.517030
_cell_angle_alpha 90.000000
_cell_angle_beta 92.882607
_cell_angle_gamma 90.000000
_cell_volume 728.369161
_symmetry_space_group_name_H-M "C C"
_symmetry_group_IT_number 9
_symmetry_cell_setting 'monoclinic'
loop_
_space_group_symop_operation_xyz
x,y,z
x,-y,1/2+z
1/2+x,1/2+y,z
1/2+x,1/2-y,1/2+z
loop_
_atom_site_type_symbol
_atom_site_label
_atom_site_fract_x
_atom_site_fract_y
_atom_site_fract_z
Si Si1 0.447370 0.973444 0.375000
Si Si2 0.181274 0.456682 0.006559
Si Si3 0.415786 0.201551 0.551215
Si Si4 0.894742 0.969179 0.264961
Si Si5 0.670970 0.695211 0.658595
O O1 0.373206 0.028839 0.466125
O O2 0.386540 0.193662 0.310917
O O3 0.617873 0.026258 0.408990
O O4 0.429744 0.695827 0.334091
O O5 0.346846 0.522195 0.026068
O O6 0.114534 0.683814 0.067068
O O7 0.089808 0.239329 0.051556
O O8 0.333208 0.086331 0.631711
O O9 0.742146 0.061828 0.215154
O O10 0.040680 0.941047 0.207292
#
# Coordination Sequence:
#
# PCOD9139605 Si02
#       5
#     4   4   4   4   4
#     4  10  26  48  74 110 154 204 256 322 388 470
#     4   8  20  46  75 107 147 215 255 315 371 502
#     4   8  20  46  75 107 147 215 255 315 371 502
#     4  12  28  44  76 116 156 192 256 340 392 440
#     4  10  26  46  74 116 150 214 248 336 376 484
#
# _framework density 27.458601000000002
#
# number of rings (size 3 to 8) (size 9 to 14) (size 15 to 20)
#    2.400    0.000    0.000    0.000    8.400    1.600 
#    0.000    4.000    0.000    0.000    0.000    0.000 
#    0.000    0.000    0.000    0.000    0.000    0.000 
#
# Total GULP energy -55688.695121 kJ/mol
# GULP energy per Si atom -5568.869512 kJ/mol
# Density = 2.739610 g / cm^3
# Si number density = 27.458601 Si / 1000 Ang^3
#
#
#
# Elastic Constant Matrix: (Units=GPa)
#
#
# Indices 1 2 3 4 5 6 
#
# 1 130.2959 38.9383 11.2401 0.0000 -5.8926 0.0000
# 2 38.9383 106.9926 38.7943 0.0000 -15.7993 0.0000
# 3 11.2401 38.7943 124.2046 0.0000 -24.1316 0.0000
# 4 0.0000 0.0000 0.0000 38.1077 0.0000 -1.3339
# 5 -5.8926 -15.7993 -24.1316 0.0000 43.6961 0.0000
# 6 0.0000 0.0000 0.0000 -1.3339 0.0000 47.6031
#
#
#
# Elastic Compliance Matrix: (Units=1/GPa)
#
#
# Indices 1 2 3 4 5 6 
#
# 1 0.008618 -0.003206 0.000249 0.000000 0.000140 0.000000
# 2 -0.003206 0.011931 -0.003005 0.000000 0.002222 0.000000
# 3 0.000249 -0.003005 0.009816 0.000000 0.004368 0.000000
# 4 0.000000 0.000000 0.000000 0.026267 0.000000 0.000736
# 5 0.000140 0.002222 0.004368 0.000000 0.026120 0.000000
# 6 0.000000 0.000000 0.000000 0.000736 0.000000 0.021028
#
#
# Mechanical properties :
#
#
# Convention : Reuss Voigt Hill
#
# Bulk Modulus (GPa) = 54.22704 59.93762 57.08233
# Shear Modulus (GPa) = 41.03422 44.04940 42.54181
#
# Velocity S-wave (km/s) = 3.86994 4.00961 3.94039
# Velocity P-wave (km/s) = 6.30557 6.58116 6.44484
#
# Compressibility (1/GPa) = 0.01844098
#
# Stress axis : x y z
#
# Youngs Moduli (GPa) = 116.03953 83.81735 101.87604
#
# Poissons Ratio (x) = 0.26870 -0.02533
# Poissons Ratio (y) = 0.37199 0.30610
# Poissons Ratio (z) = -0.02886 0.25184
#
# Static dielectric constant tensor:
#      x y z
#    x 2.905930 0.000000 -0.015900 
#    y 0.000000 2.381660 0.000000 
#    z -0.015900 0.000000 2.215730 
# 
# From -- ./inp_files/29603.got.cif
#   From: 2010.05.17/outbox.cif.g08.bks.cpg/sg9_15_cif.got.tgz:29603.got - 2010.06.03 20:04:27.
