data_PCOD9139068
_publ_section_title
;
Structure prediction by ZEFSAII (Michael W. Deem and Ramdas Pophale) SiO2 
 PCOD9139068
Probable space group: C C
;
_chemical_formula_sum "Si O2"
_cell_formula_units_Z 20
_cell_length_a 4.993577
_cell_length_b 20.055254
_cell_length_c 8.257189
_cell_angle_alpha 90.000000
_cell_angle_beta 59.979289
_cell_angle_gamma 90.000000
_cell_volume 715.998480
_symmetry_space_group_name_H-M "C C"
_symmetry_group_IT_number 9
_symmetry_cell_setting 'monoclinic'
loop_
_space_group_symop_operation_xyz
x,y,z
x,-y,1/2+z
1/2+x,1/2+y,z
1/2+x,1/2-y,1/2+z
loop_
_atom_site_type_symbol
_atom_site_label
_atom_site_fract_x
_atom_site_fract_y
_atom_site_fract_z
Si Si1 0.468440 0.042494 0.822260
Si Si2 0.776314 0.281220 0.463585
Si Si3 0.287469 0.183305 0.303849
Si Si4 0.263141 0.581436 0.072212
Si Si5 0.365525 0.849556 0.112983
O O1 0.508093 0.083635 0.641355
O O2 0.559858 0.968462 0.745210
O O3 0.669658 0.070842 0.910734
O O4 0.110314 0.052517 0.980121
O O5 0.136631 0.257529 0.369768
O O6 0.690997 0.323938 0.645987
O O7 0.706790 0.320895 0.322401
O O8 0.601801 0.210957 0.507637
O O9 0.632811 0.153271 0.174301
O O10 0.180095 0.147307 0.501748
#
# Coordination Sequence:
#
# PCOD9139068 Si02
#       5
#     4   4   4   4   4
#     4  12  28  49  77 110 152 197 255 314 380 451
#     4  10  24  44  68 108 150 194 254 296 380 452
#     4  11  24  42  72 105 150 195 251 305 377 441
#     4  12  28  49  77 110 152 197 255 314 380 451
#     4  11  24  42  72 105 150 195 251 305 377 441
#
# _framework density 27.933021
#
# number of rings (size 3 to 8) (size 9 to 14) (size 15 to 20)
#    0.000    0.800    2.000    3.600    8.400    1.600 
#    0.000    0.000    0.000    0.000    0.000    0.000 
#    0.000    0.000    0.000    0.000    0.000    0.000 
#
# Total GULP energy -55802.802615 kJ/mol
# GULP energy per Si atom -5580.280262 kJ/mol
# Density = 2.786944 g / cm^3
# Si number density = 27.933021 Si / 1000 Ang^3
#
#
#
# Elastic Constant Matrix: (Units=GPa)
#
#
# Indices 1 2 3 4 5 6 
#
# 1 146.6947 20.1364 45.5639 0.0000 1.9188 0.0000
# 2 20.1364 54.6508 16.3427 0.0000 -2.0067 0.0000
# 3 45.5639 16.3427 189.2529 0.0000 45.3491 0.0000
# 4 0.0000 0.0000 0.0000 69.6467 0.0000 -0.3547
# 5 1.9188 -2.0067 45.3491 0.0000 56.6671 0.0000
# 6 0.0000 0.0000 0.0000 -0.3547 0.0000 20.9697
#
#
#
# Elastic Compliance Matrix: (Units=1/GPa)
#
#
# Indices 1 2 3 4 5 6 
#
# 1 0.007713 -0.002210 -0.001961 0.000000 0.001230 0.000000
# 2 -0.002210 0.019691 -0.001674 0.000000 0.002112 0.000000
# 3 -0.001961 -0.001674 0.007298 0.000000 -0.005834 0.000000
# 4 0.000000 0.000000 0.000000 0.014359 0.000000 0.000243
# 5 0.001230 0.002112 -0.005834 0.000000 0.022349 0.000000
# 6 0.000000 0.000000 0.000000 0.000243 0.000000 0.047692
#
#
# Mechanical properties :
#
#
# Convention : Reuss Voigt Hill
#
# Bulk Modulus (GPa) = 43.45690 61.63160 52.54425
# Shear Modulus (GPa) = 36.11051 50.02706 43.06878
#
# Velocity S-wave (km/s) = 3.59939 4.23657 3.93091
# Velocity P-wave (km/s) = 5.73284 6.78552 6.28127
#
# Compressibility (1/GPa) = 0.02301131
#
# Stress axis : x y z
#
# Youngs Moduli (GPa) = 129.64698 50.78546 137.01529
#
# Poissons Ratio (x) = 0.11226 0.26866
# Poissons Ratio (y) = 0.28658 0.22940
# Poissons Ratio (z) = 0.25421 0.08503
#
# Static dielectric constant tensor:
#      x y z
#    x 2.232900 0.000000 -0.059640 
#    y 0.000000 2.287070 0.000000 
#    z -0.059640 0.000000 2.195030 
# 
# From -- ./inp_files/3737.got.cif
#   From: 2010.05.17/outbox.cif.g08.bks.cpg/sg9_2_cif.got.tgz:3737.got - 2010.06.03 20:04:27.
