data_PCOD9139712
_publ_section_title
;
Structure prediction by ZEFSAII (Michael W. Deem and Ramdas Pophale) SiO2 
 PCOD9139712
Probable space group: C C
;
_chemical_formula_sum "Si O2"
_cell_formula_units_Z 32
_cell_length_a 30.780985
_cell_length_b 6.593849
_cell_length_c 7.110354
_cell_angle_alpha 90.000000
_cell_angle_beta 126.869789
_cell_angle_gamma 90.000000
_cell_volume 1154.524992
_symmetry_space_group_name_H-M "C C"
_symmetry_group_IT_number 9
_symmetry_cell_setting 'monoclinic'
loop_
_space_group_symop_operation_xyz
x,y,z
x,-y,1/2+z
1/2+x,1/2+y,z
1/2+x,1/2-y,1/2+z
loop_
_atom_site_type_symbol
_atom_site_label
_atom_site_fract_x
_atom_site_fract_y
_atom_site_fract_z
Si Si1 0.927090 0.823432 0.301170
Si Si2 0.166833 0.606487 0.533722
Si Si3 0.832627 0.152995 0.100168
Si Si4 0.574943 0.757520 0.548689
Si Si5 0.337994 0.936697 0.750200
Si Si6 0.243190 0.312388 0.916100
Si Si7 0.994910 0.179819 0.629667
Si Si8 0.597848 0.297383 0.669991
O O1 0.895682 0.638287 0.315840
O O2 0.947671 0.759251 0.149552
O O3 0.882107 0.002089 0.186551
O O4 0.977001 0.947345 0.530750
O O5 0.212126 0.721109 0.530584
O O6 0.148766 0.728974 0.671216
O O7 0.114880 0.588281 0.259064
O O8 0.195129 0.390021 0.655218
O O9 0.837996 0.322852 0.273547
O O10 0.782202 0.010554 0.018360
O O11 0.830944 0.295947 0.913876
O O12 0.514598 0.774945 0.482410
O O13 0.546693 0.269967 0.395211
O O14 0.598545 0.542925 0.680801
O O15 0.582326 0.762389 0.345011
O O16 0.284040 0.871812 0.491833
#
# Coordination Sequence:
#
# PCOD9139712 Si02
#       8
#     4   4   4   4   4   4   4   4
#     4  11  22  42  76 106 156 198 258 305 378 458
#     4  11  26  43  73 104 149 202 250 322 373 454
#     4  11  26  45  73 111 148 199 254 318 380 459
#     4  11  21  42  72 115 150 193 263 309 374 465
#     4  11  26  45  73 111 148 199 254 318 380 459
#     4  11  26  52  68 106 154 200 254 311 390 452
#     4  11  20  39  73 110 147 212 244 308 379 448
#     4  11  21  42  72 115 150 193 263 309 374 465
#
# _framework density 27.717026000000001
#
# number of rings (size 3 to 8) (size 9 to 14) (size 15 to 20)
#    0.000    1.000    6.250    0.000    5.250    1.000 
#    0.000    0.000   11.000    0.000    0.000    0.000 
#    0.000    0.000    0.000    0.000    0.000    0.000 
#
# Total GULP energy -89453.768321 kJ/mol
# GULP energy per Si atom -5590.860520 kJ/mol
# Density = 2.765394 g / cm^3
# Si number density = 27.717026 Si / 1000 Ang^3
#
#
#
# Elastic Constant Matrix: (Units=GPa)
#
#
# Indices 1 2 3 4 5 6 
#
# 1 272.4047 57.3767 71.2573 0.0000 -23.8610 0.0000
# 2 57.3767 86.0595 31.2274 0.0000 -4.8773 0.0000
# 3 71.2573 31.2274 130.5902 0.0000 -9.6607 0.0000
# 4 0.0000 0.0000 0.0000 34.1285 0.0000 3.6343
# 5 -23.8610 -4.8773 -9.6607 0.0000 57.6472 0.0000
# 6 0.0000 0.0000 0.0000 3.6343 0.0000 35.4316
#
#
#
# Elastic Compliance Matrix: (Units=1/GPa)
#
#
# Indices 1 2 3 4 5 6 
#
# 1 0.004818 -0.002425 -0.001941 0.000000 0.001464 0.000000
# 2 -0.002425 0.013963 -0.002028 0.000000 -0.000162 0.000000
# 3 -0.001941 -0.002028 0.009244 0.000000 0.000574 0.000000
# 4 0.000000 0.000000 0.000000 0.029625 0.000000 -0.003039
# 5 0.001464 -0.000162 0.000574 0.000000 0.018035 0.000000
# 6 0.000000 0.000000 0.000000 -0.003039 0.000000 0.028535
#
#
# Mechanical properties :
#
#
# Convention : Reuss Voigt Hill
#
# Bulk Modulus (GPa) = 65.62520 89.86414 77.74467
# Shear Modulus (GPa) = 40.95493 47.38765 44.17129
#
# Velocity S-wave (km/s) = 3.84814 4.13933 3.99639
# Velocity P-wave (km/s) = 6.59337 7.43894 7.02888
#
# Compressibility (1/GPa) = 0.01523805
#
# Stress axis : x y z
#
# Youngs Moduli (GPa) = 207.57200 71.61713 108.18000
#
# Poissons Ratio (x) = 0.17366 0.20994
# Poissons Ratio (y) = 0.50332 0.21937
# Poissons Ratio (z) = 0.40282 0.14523
#
# Static dielectric constant tensor:
#      x y z
#    x 2.115460 0.000000 0.003260 
#    y 0.000000 2.226700 0.000000 
#    z 0.003260 0.000000 2.395630 
# 
# From -- ./inp_files/12595.got.cif
#   From: 2010.05.17/outbox.cif.g08.bks.cpg/sg9_7_cif.got.tgz:12595.got - 2010.06.03 20:04:27.
