data_PCOD9139658
_publ_section_title
;
Structure prediction by ZEFSAII (Michael W. Deem and Ramdas Pophale) SiO2 
 PCOD9139658
Probable space group: C C
;
_chemical_formula_sum "Si O2"
_cell_formula_units_Z 28
_cell_length_a 16.916976
_cell_length_b 7.903344
_cell_length_c 14.655973
_cell_angle_alpha 90.000000
_cell_angle_beta 142.914456
_cell_angle_gamma 90.000000
_cell_volume 1181.599877
_symmetry_space_group_name_H-M "C C"
_symmetry_group_IT_number 9
_symmetry_cell_setting 'monoclinic'
loop_
_space_group_symop_operation_xyz
x,y,z
x,-y,1/2+z
1/2+x,1/2+y,z
1/2+x,1/2-y,1/2+z
loop_
_atom_site_type_symbol
_atom_site_label
_atom_site_fract_x
_atom_site_fract_y
_atom_site_fract_z
Si Si1 0.012010 0.270183 0.417940
Si Si2 0.787267 0.741547 0.009791
Si Si3 0.441059 0.700238 0.104337
Si Si4 0.022605 0.372112 0.846505
Si Si5 0.342011 0.558187 0.379703
Si Si6 0.567136 0.068483 0.585696
Si Si7 0.192329 0.137124 0.454532
O O1 0.983769 0.427262 0.321501
O O2 0.035147 0.375801 0.531458
O O3 0.147260 0.179223 0.515353
O O4 0.900464 0.138565 0.341859
O O5 0.921655 0.737366 0.193485
O O6 0.669268 0.853802 0.943054
O O7 0.802459 0.802464 0.919678
O O8 0.741348 0.549002 0.979016
O O9 0.486246 0.871049 0.096771
O O10 0.551394 0.652429 0.277064
O O11 0.442450 0.556988 0.028451
O O12 0.298172 0.729421 0.014997
O O13 0.030351 0.325347 0.961066
O O14 0.221001 0.434463 0.245977
#
# Coordination Sequence:
#
# PCOD9139658 Si02
#       7
#     4   4   4   4   4   4   4
#     4  10  27  45  74 105 149 188 248 306 368 436
#     4  12  27  47  76 108 147 201 243 305 368 454
#     4  12  26  50  73 108 147 197 244 307 373 449
#     4  10  27  46  74 106 150 188 252 297 372 430
#     4  12  27  48  77 108 151 192 254 303 380 437
#     4  10  27  45  75 108 147 191 247 313 358 445
#     4  12  27  45  77 107 147 193 248 301 377 437
#
# _framework density 23.696683
#
# number of rings (size 3 to 8) (size 9 to 14) (size 15 to 20)
#    0.857    0.000    1.429    3.429   14.000    0.000 
#    0.000    0.000    0.000    0.000    0.000    0.000 
#    0.000    0.000    0.000    0.000    0.000    0.000 
#
# Total GULP energy -78220.440828 kJ/mol
# GULP energy per Si atom -5587.174345 kJ/mol
# Density = 2.364275 g / cm^3
# Si number density = 23.696683 Si / 1000 Ang^3
#
#
#
# Elastic Constant Matrix: (Units=GPa)
#
#
# Indices 1 2 3 4 5 6 
#
# 1 123.0089 45.8675 12.8298 0.0000 32.1949 0.0000
# 2 45.8675 76.4603 20.7380 0.0000 7.7156 0.0000
# 3 12.8298 20.7380 96.6303 0.0000 10.9348 0.0000
# 4 0.0000 0.0000 0.0000 26.6522 0.0000 7.9503
# 5 32.1949 7.7156 10.9348 0.0000 31.1997 0.0000
# 6 0.0000 0.0000 0.0000 7.9503 0.0000 44.7207
#
#
#
# Elastic Compliance Matrix: (Units=1/GPa)
#
#
# Indices 1 2 3 4 5 6 
#
# 1 0.014315 -0.007577 0.001234 0.000000 -0.013330 0.000000
# 2 -0.007577 0.018085 -0.003388 0.000000 0.004534 0.000000
# 3 0.001234 -0.003388 0.011414 0.000000 -0.004436 0.000000
# 4 0.000000 0.000000 0.000000 0.039621 0.000000 -0.007044
# 5 -0.013330 0.004534 -0.004436 0.000000 0.046241 0.000000
# 6 0.000000 0.000000 0.000000 -0.007044 0.000000 0.023613
#
#
# Mechanical properties :
#
#
# Convention : Reuss Voigt Hill
#
# Bulk Modulus (GPa) = 41.06470 50.55224 45.80847
# Shear Modulus (GPa) = 27.64421 34.95879 31.30150
#
# Velocity S-wave (km/s) = 3.41924 3.84508 3.63839
# Velocity P-wave (km/s) = 5.74066 6.41032 6.08471
#
# Compressibility (1/GPa) = 0.02435181
#
# Stress axis : x y z
#
# Youngs Moduli (GPa) = 69.85693 55.29298 87.61147
#
# Poissons Ratio (x) = 0.41895 -0.10811
# Poissons Ratio (y) = 0.52930 0.29686
# Poissons Ratio (z) = -0.08620 0.18735
#
# Static dielectric constant tensor:
#      x y z
#    x 1.900580 0.000000 -0.000860 
#    y 0.000000 1.949510 0.000000 
#    z -0.000860 0.000000 1.924700 
# 
# From -- ./inp_files/11384.got.cif
#   From: 2010.05.17/outbox.cif.g08.bks.cpg/sg9_6_cif.got.tgz:11384.got - 2010.06.03 20:04:27.
