data_PCOD9139926
_publ_section_title
;
Structure prediction by ZEFSAII (Michael W. Deem and Ramdas Pophale) SiO2 
 PCOD9139926
Probable space group: C C
;
_chemical_formula_sum "Si O2"
_cell_formula_units_Z 32
_cell_length_a 13.588840
_cell_length_b 12.216016
_cell_length_c 7.764580
_cell_angle_alpha 90.000000
_cell_angle_beta 80.225364
_cell_angle_gamma 90.000000
_cell_volume 1270.220596
_symmetry_space_group_name_H-M "C C"
_symmetry_group_IT_number 9
_symmetry_cell_setting 'monoclinic'
loop_
_space_group_symop_operation_xyz
x,y,z
x,-y,1/2+z
1/2+x,1/2+y,z
1/2+x,1/2-y,1/2+z
loop_
_atom_site_type_symbol
_atom_site_label
_atom_site_fract_x
_atom_site_fract_y
_atom_site_fract_z
Si Si1 0.251940 0.194929 0.411240
Si Si2 0.367594 0.835276 0.344514
Si Si3 0.592889 0.086211 0.366669
Si Si4 0.386898 0.391119 0.975905
Si Si5 0.166910 0.630768 0.702554
Si Si6 0.936024 0.864177 0.343179
Si Si7 0.403653 0.048697 0.183547
Si Si8 0.659337 0.307976 0.289155
O O1 0.176429 0.259577 0.308642
O O2 0.344251 0.282130 0.418942
O O3 0.303742 0.096870 0.295181
O O4 0.194996 0.149839 0.593861
O O5 0.399107 0.708646 0.337297
O O6 0.414881 0.894266 0.496484
O O7 0.247079 0.835828 0.395431
O O8 0.391947 0.917993 0.183155
O O9 0.590943 0.123351 0.565895
O O10 0.493766 0.083219 0.281634
O O11 0.662718 0.176960 0.260056
O O12 0.641418 0.967369 0.338858
O O13 0.273372 0.389660 0.080023
O O14 0.445766 0.360115 0.132282
O O15 0.410957 0.511113 0.900580
O O16 0.046875 0.835271 0.376365
#
# Coordination Sequence:
#
# PCOD9139926 Si02
#       8
#     4   4   4   4   4   4   4   4
#     4  11  24  46  74 105 154 192 235 319 379 428
#     4  12  26  47  73 105 149 201 251 303 389 441
#     4  12  22  42  72 108 143 190 261 301 362 448
#     4  11  23  46  72 107 151 192 242 314 374 445
#     4  11  22  41  74 112 144 191 251 319 366 433
#     4  11  25  46  76 110 151 186 254 308 375 445
#     4  12  25  49  70 102 155 193 243 320 374 444
#     4  12  25  45  73 109 145 201 247 300 373 458
#
# _framework density 25.192475000000002
#
# number of rings (size 3 to 8) (size 9 to 14) (size 15 to 20)
#    0.000    0.500    5.000    4.500    1.750    3.000 
#    0.000    1.250    0.000    0.000    0.000    0.000 
#    0.000    0.000    0.000    0.000    0.000    0.000 
#
# Total GULP energy -89583.504006 kJ/mol
# GULP energy per Si atom -5598.969000 kJ/mol
# Density = 2.513514 g / cm^3
# Si number density = 25.192475 Si / 1000 Ang^3
#
#
#
# Elastic Constant Matrix: (Units=GPa)
#
#
# Indices 1 2 3 4 5 6 
#
# 1 120.1517 33.0655 18.3532 0.0000 24.2375 0.0000
# 2 33.0655 120.5756 12.9539 0.0000 -1.0406 0.0000
# 3 18.3532 12.9539 64.4233 0.0000 15.6384 0.0000
# 4 0.0000 0.0000 0.0000 37.5212 0.0000 0.1383
# 5 24.2375 -1.0406 15.6384 0.0000 40.8495 0.0000
# 6 0.0000 0.0000 0.0000 0.1383 0.0000 31.9751
#
#
#
# Elastic Compliance Matrix: (Units=1/GPa)
#
#
# Indices 1 2 3 4 5 6 
#
# 1 0.010432 -0.002806 -0.000979 0.000000 -0.005887 0.000000
# 2 -0.002806 0.009266 -0.001681 0.000000 0.002545 0.000000
# 3 -0.000979 -0.001681 0.017649 0.000000 -0.006219 0.000000
# 4 0.000000 0.000000 0.000000 0.026652 0.000000 -0.000115
# 5 -0.005887 0.002545 -0.006219 0.000000 0.030418 0.000000
# 6 0.000000 0.000000 0.000000 -0.000115 0.000000 0.031275
#
#
# Mechanical properties :
#
#
# Convention : Reuss Voigt Hill
#
# Bulk Modulus (GPa) = 37.85926 48.21065 43.03496
# Shear Modulus (GPa) = 34.38093 38.12101 36.25097
#
# Velocity S-wave (km/s) = 3.69823 3.89419 3.79748
# Velocity P-wave (km/s) = 5.77031 6.27679 6.02888
#
# Compressibility (1/GPa) = 0.02641361
#
# Stress axis : x y z
#
# Youngs Moduli (GPa) = 95.85791 107.92413 56.66115
#
# Poissons Ratio (x) = 0.30288 0.05545
# Poissons Ratio (y) = 0.26902 0.09527
# Poissons Ratio (z) = 0.09382 0.18146
#
# Static dielectric constant tensor:
#      x y z
#    x 2.019200 0.000000 0.026050 
#    y 0.000000 1.977630 0.000000 
#    z 0.026050 0.000000 2.019550 
# 
# From -- ./inp_files/9151.got.cif
#   From: 2010.05.17/outbox.cif.g08.bks.cpg/sg9_5_cif.got.tgz:9151.got - 2010.06.03 20:04:27.
