data_PCOD9139066
_publ_section_title
;
Structure prediction by ZEFSAII (Michael W. Deem and Ramdas Pophale) SiO2 
 PCOD9139066
Probable space group: C C
;
_chemical_formula_sum "Si O2"
_cell_formula_units_Z 28
_cell_length_a 21.909113
_cell_length_b 10.058707
_cell_length_c 12.063155
_cell_angle_alpha 90.000000
_cell_angle_beta 24.805252
_cell_angle_gamma 90.000000
_cell_volume 1115.311965
_symmetry_space_group_name_H-M "C C"
_symmetry_group_IT_number 9
_symmetry_cell_setting 'monoclinic'
loop_
_space_group_symop_operation_xyz
x,y,z
x,-y,1/2+z
1/2+x,1/2+y,z
1/2+x,1/2-y,1/2+z
loop_
_atom_site_type_symbol
_atom_site_label
_atom_site_fract_x
_atom_site_fract_y
_atom_site_fract_z
Si Si1 0.980070 0.671144 0.172210
Si Si2 0.756361 0.963931 0.154884
Si Si3 0.314050 0.808422 0.467963
Si Si4 0.051428 0.662093 0.385669
Si Si5 0.558702 0.536437 0.625468
Si Si6 0.889648 0.582839 0.082826
Si Si7 0.161264 0.931934 0.232037
O O1 0.951207 0.661929 0.086841
O O2 0.829138 0.615058 0.469269
O O3 0.016125 0.817728 0.152373
O O4 0.126930 0.583929 0.948890
O O5 0.697554 0.096969 0.193936
O O6 0.765456 0.843443 0.051816
O O7 0.921246 0.985587 0.923063
O O8 0.374620 0.839813 0.492173
O O9 0.183865 0.913737 0.663122
O O10 0.434666 0.832908 0.177212
O O11 0.083623 0.811656 0.294159
O O12 0.984572 0.551259 0.415766
O O13 0.725178 0.544229 0.389684
O O14 0.577116 0.440438 0.487786
#
# Coordination Sequence:
#
# PCOD9139066 Si02
#       7
#     4   4   4   4   4   4   4
#     4  11  22  44  68 101 143 178 232 293 338 412
#     4  11  21  41  71  96 133 187 229 287 347 402
#     4  11  22  44  66 100 143 176 229 294 340 404
#     4  11  23  44  68 101 140 182 233 290 346 411
#     4  11  23  44  70 102 140 185 235 285 349 416
#     4  10  24  44  68 106 145 186 234 284 355 418
#     4  11  21  41  69  94 132 186 220 295 341 395
#
# _framework density 25.105083
#
# number of rings (size 3 to 8) (size 9 to 14) (size 15 to 20)
#    0.000    1.143    8.571    0.000    0.000    0.000 
#   15.429    0.000    0.000    0.000    0.000    0.000 
#    0.000    0.000    0.000    0.000    0.000    0.000 
#
# Total GULP energy -78230.464851 kJ/mol
# GULP energy per Si atom -5587.890347 kJ/mol
# Density = 2.504794 g / cm^3
# Si number density = 25.105083 Si / 1000 Ang^3
#
#
#
# Elastic Constant Matrix: (Units=GPa)
#
#
# Indices 1 2 3 4 5 6 
#
# 1 77.3234 8.7993 20.1379 0.0000 2.1457 0.0000
# 2 8.7993 119.7700 33.2104 0.0000 -9.1669 0.0000
# 3 20.1379 33.2104 166.9536 0.0000 -24.6123 0.0000
# 4 0.0000 0.0000 0.0000 50.3570 0.0000 -13.7949
# 5 2.1457 -9.1669 -24.6123 0.0000 37.9769 0.0000
# 6 0.0000 0.0000 0.0000 -13.7949 0.0000 24.4581
#
#
#
# Elastic Compliance Matrix: (Units=1/GPa)
#
#
# Indices 1 2 3 4 5 6 
#
# 1 0.013537 -0.000653 -0.001812 0.000000 -0.002097 0.000000
# 2 -0.000653 0.008910 -0.001516 0.000000 0.001205 0.000000
# 3 -0.001812 -0.001516 0.007155 0.000000 0.004373 0.000000
# 4 0.000000 0.000000 0.000000 0.023487 0.000000 0.013247
# 5 -0.002097 0.001205 0.004373 0.000000 0.029575 0.000000
# 6 0.000000 0.000000 0.000000 0.013247 0.000000 0.048358
#
#
# Mechanical properties :
#
#
# Convention : Reuss Voigt Hill
#
# Bulk Modulus (GPa) = 46.21046 54.26021 50.23534
# Shear Modulus (GPa) = 34.20047 42.68502 38.44274
#
# Velocity S-wave (km/s) = 3.69493 4.12789 3.91739
# Velocity P-wave (km/s) = 6.05393 6.66179 6.36512
#
# Compressibility (1/GPa) = 0.02164012
#
# Stress axis : x y z
#
# Youngs Moduli (GPa) = 73.87116 112.23505 139.77166
#
# Poissons Ratio (x) = 0.07324 0.25329
# Poissons Ratio (y) = 0.04820 0.21189
# Poissons Ratio (z) = 0.13387 0.17015
#
# Static dielectric constant tensor:
#      x y z
#    x 2.053710 0.000000 0.013730 
#    y 0.000000 1.973520 0.000000 
#    z 0.013730 0.000000 1.975380 
# 
# From -- ./inp_files/28061.got.cif
#   From: 2010.05.17/outbox.cif.g08.bks.cpg/sg9_15_cif.got.tgz:28061.got - 2010.06.03 20:04:27.
