data_PCOD9139747
_publ_section_title
;
Structure prediction by ZEFSAII (Michael W. Deem and Ramdas Pophale) SiO2 
 PCOD9139747
Probable space group: C C
;
_chemical_formula_sum "Si O2"
_cell_formula_units_Z 28
_cell_length_a 22.421525
_cell_length_b 9.521222
_cell_length_c 9.182292
_cell_angle_alpha 90.000000
_cell_angle_beta 134.696594
_cell_angle_gamma 90.000000
_cell_volume 1393.418534
_symmetry_space_group_name_H-M "C C"
_symmetry_group_IT_number 9
_symmetry_cell_setting 'monoclinic'
loop_
_space_group_symop_operation_xyz
x,y,z
x,-y,1/2+z
1/2+x,1/2+y,z
1/2+x,1/2-y,1/2+z
loop_
_atom_site_type_symbol
_atom_site_label
_atom_site_fract_x
_atom_site_fract_y
_atom_site_fract_z
Si Si1 0.382730 0.019059 0.097210
Si Si2 0.428381 0.423150 0.533452
Si Si3 0.644820 0.358007 0.584548
Si Si4 0.614284 0.634683 0.353581
Si Si5 0.507168 0.780708 0.381685
Si Si6 0.307723 0.189494 0.229171
Si Si7 0.479061 0.719097 0.648125
O O1 0.458433 0.927219 0.295794
O O2 0.325006 0.096686 0.116359
O O3 0.426179 0.142476 0.082570
O O4 0.335751 0.912353 0.910041
O O5 0.523968 0.420411 0.638945
O O6 0.442246 0.337767 0.708165
O O7 0.365576 0.328596 0.332667
O O8 0.415348 0.587010 0.534539
O O9 0.647367 0.516582 0.522072
O O10 0.664542 0.345677 0.790766
O O11 0.712274 0.275343 0.603003
O O12 0.550970 0.303965 0.391175
O O13 0.584646 0.766784 0.401498
O O14 0.527456 0.736425 0.578688
#
# Coordination Sequence:
#
# PCOD9139747 Si02
#       7
#     4   4   4   4   4   4   4
#     4  11  22  38  62  87 120 161 204 249 302 366
#     4   8  20  34  62  82 115 149 202 244 286 364
#     4  11  21  33  62  89 121 159 196 260 297 356
#     4   9  18  35  56  88 114 155 207 237 290 356
#     4   9  20  36  59  90 111 150 214 251 282 354
#     4  11  22  39  57  91 126 155 198 252 312 351
#     4  11  21  37  66  85 111 159 211 245 303 359
#
# _framework density 20.094466000000001
#
# number of rings (size 3 to 8) (size 9 to 14) (size 15 to 20)
#    0.857    1.143    1.429    3.429    2.000    0.000 
#    0.000    0.000    9.429    0.000    0.000    0.000 
#    0.000    0.000    0.000    0.000    0.000    0.000 
#
# Total GULP energy -77938.106211 kJ/mol
# GULP energy per Si atom -5567.007587 kJ/mol
# Density = 2.004873 g / cm^3
# Si number density = 20.094466 Si / 1000 Ang^3
#
#
#
# Elastic Constant Matrix: (Units=GPa)
#
#
# Indices 1 2 3 4 5 6 
#
# 1 95.7152 16.2326 13.9155 0.0000 -21.3327 0.0000
# 2 16.2326 92.1928 11.5741 0.0000 4.4361 0.0000
# 3 13.9155 11.5741 34.5245 0.0000 -16.2472 0.0000
# 4 0.0000 0.0000 0.0000 24.0072 0.0000 0.7610
# 5 -21.3327 4.4361 -16.2472 0.0000 33.5756 0.0000
# 6 0.0000 0.0000 0.0000 0.7610 0.0000 14.6437
#
#
#
# Elastic Compliance Matrix: (Units=1/GPa)
#
#
# Indices 1 2 3 4 5 6 
#
# 1 0.012792 -0.002603 -0.000384 0.000000 0.008285 0.000000
# 2 -0.002603 0.012357 -0.006009 0.000000 -0.006194 0.000000
# 3 -0.000384 -0.006009 0.040650 0.000000 0.020220 0.000000
# 4 0.000000 0.000000 0.000000 0.041723 0.000000 -0.002168
# 5 0.008285 -0.006194 0.020220 0.000000 0.045651 0.000000
# 6 0.000000 0.000000 0.000000 -0.002168 0.000000 0.068401
#
#
# Mechanical properties :
#
#
# Convention : Reuss Voigt Hill
#
# Bulk Modulus (GPa) = 20.91709 33.98633 27.45171
# Shear Modulus (GPa) = 19.56943 26.49264 23.03104
#
# Velocity S-wave (km/s) = 3.12408 3.63492 3.38914
# Velocity P-wave (km/s) = 4.84202 5.87936 5.38572
#
# Compressibility (1/GPa) = 0.04780780
#
# Stress axis : x y z
#
# Youngs Moduli (GPa) = 78.17691 80.92276 24.60039
#
# Poissons Ratio (x) = 0.21062 0.00945
# Poissons Ratio (y) = 0.20347 0.14781
# Poissons Ratio (z) = 0.03004 0.48623
#
# Static dielectric constant tensor:
#      x y z
#    x 1.747160 0.000000 -0.015790 
#    y 0.000000 1.731850 0.000000 
#    z -0.015790 0.000000 1.737620 
# 
# From -- ./inp_files/11377.got.cif
#   From: 2010.05.17/outbox.cif.g08.bks.cpg/sg9_6_cif.got.tgz:11377.got - 2010.06.03 20:04:27.
