data_PCOD9139430
_publ_section_title
;
Structure prediction by ZEFSAII (Michael W. Deem and Ramdas Pophale) SiO2 
 PCOD9139430
Probable space group: C C
;
_chemical_formula_sum "Si O2"
_cell_formula_units_Z 28
_cell_length_a 13.566440
_cell_length_b 8.993153
_cell_length_c 18.031806
_cell_angle_alpha 90.000000
_cell_angle_beta 145.225910
_cell_angle_gamma 90.000000
_cell_volume 1254.736677
_symmetry_space_group_name_H-M "C C"
_symmetry_group_IT_number 9
_symmetry_cell_setting 'monoclinic'
loop_
_space_group_symop_operation_xyz
x,y,z
x,-y,1/2+z
1/2+x,1/2+y,z
1/2+x,1/2-y,1/2+z
loop_
_atom_site_type_symbol
_atom_site_label
_atom_site_fract_x
_atom_site_fract_y
_atom_site_fract_z
Si Si1 0.908570 0.603303 0.516680
Si Si2 0.677584 0.619332 0.959480
Si Si3 0.197208 0.406500 0.630897
Si Si4 0.698312 0.517881 0.758639
Si Si5 0.524506 0.590272 0.027404
Si Si6 0.909882 0.191303 0.392591
Si Si7 0.901399 0.875118 0.159506
O O1 0.775214 0.534200 0.494579
O O2 0.810424 0.587936 0.377669
O O3 0.069696 0.489446 0.610156
O O4 0.971929 0.772250 0.547316
O O5 0.540349 0.660978 0.810453
O O6 0.575710 0.621640 0.974304
O O7 0.827152 0.739260 0.066850
O O8 0.367342 0.355948 0.781549
O O9 0.250318 0.531449 0.604966
O O10 0.089388 0.274775 0.524470
O O11 0.696617 0.474822 0.672669
O O12 0.768232 0.682103 0.817224
O O13 0.504191 0.518661 0.667572
O O14 0.395113 0.451481 0.936427
#
# Coordination Sequence:
#
# PCOD9139430 Si02
#       7
#     4   4   4   4   4   4   4
#     4  10  25  45  71 105 144 187 249 301 364 455
#     4  11  25  45  75 107 148 191 250 305 370 450
#     4  11  22  44  71 100 144 190 241 297 369 438
#     4  10  25  45  68 100 144 191 244 300 372 441
#     4  12  24  42  75 103 146 191 243 306 376 426
#     4  11  23  42  70  98 142 191 234 304 366 428
#     4  11  24  45  72 105 140 193 249 299 369 454
#
# _framework density 22.315439999999999
#
# number of rings (size 3 to 8) (size 9 to 14) (size 15 to 20)
#    0.000    1.143    4.286    0.857    8.000    1.143 
#    0.000    0.000    0.000    0.000    0.000    0.000 
#    0.000    0.000    0.000    0.000    0.000    0.000 
#
# Total GULP energy -78054.311387 kJ/mol
# GULP energy per Si atom -5575.307956 kJ/mol
# Density = 2.226465 g / cm^3
# Si number density = 22.315440 Si / 1000 Ang^3
#
#
#
# Elastic Constant Matrix: (Units=GPa)
#
#
# Indices 1 2 3 4 5 6 
#
# 1 40.1511 34.5089 22.6920 0.0000 -7.7153 0.0000
# 2 34.5089 120.8757 61.9351 0.0000 -4.3713 0.0000
# 3 22.6920 61.9351 107.1339 -0.0001 -20.5615 0.0000
# 4 0.0000 0.0000 -0.0001 20.3000 0.0000 -10.9412
# 5 -7.7153 -4.3713 -20.5615 0.0000 36.1181 0.0000
# 6 0.0000 0.0000 0.0000 -10.9412 0.0000 33.1498
#
#
#
# Elastic Compliance Matrix: (Units=1/GPa)
#
#
# Indices 1 2 3 4 5 6 
#
# 1 0.034374 -0.009149 -0.000892 0.000000 0.005728 0.000000
# 2 -0.009149 0.014438 -0.007239 0.000000 -0.004328 0.000000
# 3 -0.000892 -0.007239 0.015160 0.000000 0.007564 0.000000
# 4 0.000000 0.000000 0.000000 0.059920 0.000000 0.019777
# 5 0.005728 -0.004328 0.007564 0.000000 0.032692 0.000000
# 6 0.000000 0.000000 0.000000 0.019777 0.000000 0.036694
#
#
# Mechanical properties :
#
#
# Convention : Reuss Voigt Hill
#
# Bulk Modulus (GPa) = 34.00193 56.27030 45.13611
# Shear Modulus (GPa) = 21.03989 27.84855 24.44422
#
# Velocity S-wave (km/s) = 3.07390 3.53647 3.31327
# Velocity P-wave (km/s) = 5.27906 6.47658 5.90824
#
# Compressibility (1/GPa) = 0.02941010
#
# Stress axis : x y z
#
# Youngs Moduli (GPa) = 29.09150 69.26227 65.96322
#
# Poissons Ratio (x) = 0.63369 0.05886
# Poissons Ratio (y) = 0.26616 0.47754
# Poissons Ratio (z) = 0.02596 0.50142
#
# Static dielectric constant tensor:
#      x y z
#    x 1.855470 0.000000 0.003650 
#    y 0.000000 1.922050 0.000000 
#    z 0.003650 0.000000 1.846820 
# 
# From -- ./inp_files/11415.got.cif
#   From: 2010.05.17/outbox.cif.g08.bks.cpg/sg9_6_cif.got.tgz:11415.got - 2010.06.03 20:04:27.
