data_PCOD9139967
_publ_section_title
;
Structure prediction by ZEFSAII (Michael W. Deem and Ramdas Pophale) SiO2 
 PCOD9139967
Probable space group: C C
;
_chemical_formula_sum "Si O2"
_cell_formula_units_Z 28
_cell_length_a 14.376703
_cell_length_b 11.973001
_cell_length_c 7.797244
_cell_angle_alpha 90.000000
_cell_angle_beta 115.143288
_cell_angle_gamma 90.000000
_cell_volume 1214.985354
_symmetry_space_group_name_H-M "C C"
_symmetry_group_IT_number 9
_symmetry_cell_setting 'monoclinic'
loop_
_space_group_symop_operation_xyz
x,y,z
x,-y,1/2+z
1/2+x,1/2+y,z
1/2+x,1/2-y,1/2+z
loop_
_atom_site_type_symbol
_atom_site_label
_atom_site_fract_x
_atom_site_fract_y
_atom_site_fract_z
Si Si1 0.677380 0.644837 0.364050
Si Si2 0.912833 0.318110 0.014483
Si Si3 0.067901 0.937377 0.442473
Si Si4 0.032288 0.717529 0.254464
Si Si5 0.566571 0.860737 0.424114
Si Si6 0.357914 0.577615 0.942672
Si Si7 0.709777 0.926697 0.035779
O O1 0.799118 0.634195 0.437417
O O2 0.634133 0.541321 0.438214
O O3 0.641431 0.758660 0.428954
O O4 0.623548 0.632348 0.136485
O O5 0.901073 0.188485 0.067301
O O6 0.957380 0.313129 0.855239
O O7 0.992126 0.621818 0.703456
O O8 0.047452 0.850170 0.273569
O O9 0.955590 0.971192 0.420836
O O10 0.142509 0.662417 0.383445
O O11 0.003791 0.673900 0.044689
O O12 0.632927 0.970785 0.515696
O O13 0.267432 0.621459 0.745854
O O14 0.301638 0.482404 0.002499
#
# Coordination Sequence:
#
# PCOD9139967 Si02
#       7
#     4   4   4   4   4   4   4
#     4  12  24  49  72 104 154 193 247 311 374 444
#     4  11  26  49  73 104 153 195 240 306 375 446
#     4  11  25  46  72 104 148 191 250 308 366 445
#     4  11  25  48  74 108 147 191 250 309 369 445
#     4  12  25  47  76 110 149 191 251 311 375 440
#     4  11  22  43  73 107 140 192 243 306 363 431
#     4  12  23  44  76 109 145 189 249 311 364 441
#
# _framework density 23.045542999999999
#
# number of rings (size 3 to 8) (size 9 to 14) (size 15 to 20)
#    0.000    0.571    5.714    3.429    0.000    2.286 
#   10.286    0.000    0.000    0.000    0.000    0.000 
#    0.000    0.000    0.000    0.000    0.000    0.000 
#
# Total GULP energy -78391.691912 kJ/mol
# GULP energy per Si atom -5599.406565 kJ/mol
# Density = 2.299309 g / cm^3
# Si number density = 23.045543 Si / 1000 Ang^3
#
#
#
# Elastic Constant Matrix: (Units=GPa)
#
#
# Indices 1 2 3 4 5 6 
#
# 1 162.5234 43.8450 31.3359 0.0000 2.9114 0.0000
# 2 43.8450 67.5649 4.0861 0.0000 -4.7827 0.0000
# 3 31.3359 4.0861 80.9413 0.0000 0.8764 0.0000
# 4 0.0000 0.0000 0.0000 30.1117 0.0000 3.0248
# 5 2.9114 -4.7827 0.8764 0.0000 37.1347 0.0000
# 6 0.0000 0.0000 0.0000 3.0248 0.0000 37.9650
#
#
#
# Elastic Compliance Matrix: (Units=1/GPa)
#
#
# Indices 1 2 3 4 5 6 
#
# 1 0.008129 -0.005189 -0.002872 0.000000 -0.001238 0.000000
# 2 -0.005189 0.018298 0.001055 0.000000 0.002739 0.000000
# 3 -0.002872 0.001055 0.013413 0.000000 0.000045 0.000000
# 4 0.000000 0.000000 0.000000 0.033478 0.000000 -0.002667
# 5 -0.001238 0.002739 0.000045 0.000000 0.027378 0.000000
# 6 0.000000 0.000000 0.000000 -0.002667 0.000000 0.026553
#
#
# Mechanical properties :
#
#
# Convention : Reuss Voigt Hill
#
# Bulk Modulus (GPa) = 38.71609 52.17371 45.44490
# Shear Modulus (GPa) = 33.36299 36.49312 34.92806
#
# Velocity S-wave (km/s) = 3.80899 3.98367 3.89731
# Velocity P-wave (km/s) = 6.01505 6.62178 6.32570
#
# Compressibility (1/GPa) = 0.02582906
#
# Stress axis : x y z
#
# Youngs Moduli (GPa) = 123.02175 54.65129 74.55676
#
# Poissons Ratio (x) = 0.28358 0.21410
# Poissons Ratio (y) = 0.63835 -0.07869
# Poissons Ratio (z) = 0.35327 -0.05768
#
# Static dielectric constant tensor:
#      x y z
#    x 1.836650 0.000000 -0.041100 
#    y 0.000000 1.852620 0.000000 
#    z -0.041100 0.000000 1.898920 
# 
# From -- ./inp_files/9004.got.cif
#   From: 2010.05.17/outbox.cif.g08.bks.cpg/sg9_5_cif.got.tgz:9004.got - 2010.06.03 20:04:27.
