data_PCOD9139193
_publ_section_title
;
Structure prediction by ZEFSAII (Michael W. Deem and Ramdas Pophale) SiO2 
 PCOD9139193
Probable space group: C C
;
_chemical_formula_sum "Si O2"
_cell_formula_units_Z 32
_cell_length_a 9.753617
_cell_length_b 15.766350
_cell_length_c 9.568513
_cell_angle_alpha 90.000000
_cell_angle_beta 112.409916
_cell_angle_gamma 90.000000
_cell_volume 1360.313052
_symmetry_space_group_name_H-M "C C"
_symmetry_group_IT_number 9
_symmetry_cell_setting 'monoclinic'
loop_
_space_group_symop_operation_xyz
x,y,z
x,-y,1/2+z
1/2+x,1/2+y,z
1/2+x,1/2-y,1/2+z
loop_
_atom_site_type_symbol
_atom_site_label
_atom_site_fract_x
_atom_site_fract_y
_atom_site_fract_z
Si Si1 0.260950 0.566150 0.801160
Si Si2 0.822459 0.811345 0.579411
Si Si3 0.442108 0.910727 0.293241
Si Si4 0.512079 0.751799 0.484301
Si Si5 0.499865 0.421793 0.858187
Si Si6 0.407708 0.808521 0.889346
Si Si7 0.242658 0.285306 0.081907
Si Si8 0.315843 0.021045 0.463960
O O1 0.363911 0.483883 0.839174
O O2 0.255494 0.619158 0.653080
O O3 0.096616 0.550986 0.795438
O O4 0.319871 0.630336 0.940288
O O5 0.662514 0.799761 0.591296
O O6 0.940132 0.859260 0.716747
O O7 0.858440 0.722587 0.522802
O O8 0.470983 0.809748 0.331994
O O9 0.390274 0.937810 0.428825
O O10 0.337143 0.951037 0.133169
O O11 0.549989 0.651607 0.484574
O O12 0.366681 0.743273 0.521207
O O13 0.640365 0.477203 0.870510
O O14 0.288533 0.773696 0.731997
O O15 0.393630 0.908529 0.895861
O O16 0.579179 0.778683 0.949700
#
# Coordination Sequence:
#
# PCOD9139193 Si02
#       8
#     4   4   4   4   4   4   4   4
#     4  10  26  46  71 107 149 190 246 311 380 452
#     4  10  24  46  69 101 147 188 242 306 379 449
#     4  11  28  49  73 111 155 200 246 314 380 454
#     4  11  27  46  75 106 146 194 253 308 374 452
#     4  12  27  44  78 103 144 198 247 309 383 453
#     4  11  23  47  71 105 148 200 245 310 387 448
#     4  11  26  43  77 109 149 193 257 314 377 465
#     4  12  27  45  78 104 156 191 260 306 384 449
#
# _framework density 23.523996
#
# number of rings (size 3 to 8) (size 9 to 14) (size 15 to 20)
#    0.000    1.000    2.500    1.500   14.000    2.000 
#    0.000    0.000    0.000    0.000    0.000    0.000 
#    0.000    0.000    0.000    0.000    0.000    0.000 
#
# Total GULP energy -89194.975382 kJ/mol
# GULP energy per Si atom -5574.685961 kJ/mol
# Density = 2.347045 g / cm^3
# Si number density = 23.523996 Si / 1000 Ang^3
#
#
#
# Elastic Constant Matrix: (Units=GPa)
#
#
# Indices 1 2 3 4 5 6 
#
# 1 147.3013 25.3216 19.2070 0.0000 -1.3641 0.0000
# 2 25.3216 92.2392 6.1975 0.0000 -1.5681 0.0000
# 3 19.2070 6.1975 26.1672 0.0000 -1.3068 0.0000
# 4 0.0000 0.0000 0.0000 15.8619 0.0000 2.7015
# 5 -1.3641 -1.5681 -1.3068 0.0000 14.5297 0.0000
# 6 0.0000 0.0000 0.0000 2.7015 0.0000 46.8726
#
#
#
# Elastic Compliance Matrix: (Units=1/GPa)
#
#
# Indices 1 2 3 4 5 6 
#
# 1 0.007785 -0.001781 -0.005290 0.000000 0.000063 0.000000
# 2 -0.001781 0.011437 -0.001355 0.000000 0.000945 0.000000
# 3 -0.005290 -0.001355 0.042578 0.000000 0.003187 0.000000
# 4 0.000000 0.000000 0.000000 0.063669 0.000000 -0.003670
# 5 0.000063 0.000945 0.003187 0.000000 0.069219 0.000000
# 6 0.000000 0.000000 0.000000 -0.003670 0.000000 0.021546
#
#
# Mechanical properties :
#
#
# Convention : Reuss Voigt Hill
#
# Bulk Modulus (GPa) = 22.24636 40.79553 31.52095
# Shear Modulus (GPa) = 20.15576 29.78496 24.97036
#
# Velocity S-wave (km/s) = 2.93032 3.56216 3.26158
# Velocity P-wave (km/s) = 4.57454 5.85649 5.25475
#
# Compressibility (1/GPa) = 0.04495117
#
# Stress axis : x y z
#
# Youngs Moduli (GPa) = 128.44859 87.43322 23.48616
#
# Poissons Ratio (x) = 0.15569 0.12423
# Poissons Ratio (y) = 0.22873 0.03181
# Poissons Ratio (z) = 0.67943 0.11843
#
# Static dielectric constant tensor:
#      x y z
#    x 1.898450 0.000000 0.019460 
#    y 0.000000 1.832550 0.000000 
#    z 0.019460 0.000000 2.010590 
# 
# From -- ./inp_files/14717.got.cif
#   From: 2010.05.17/outbox.cif.g08.bks.cpg/sg9_8_cif.got.tgz:14717.got - 2010.06.03 20:04:27.
