data_PCOD9139896
_publ_section_title
;
Structure prediction by ZEFSAII (Michael W. Deem and Ramdas Pophale) SiO2 
 PCOD9139896
Probable space group: C C
;
_chemical_formula_sum "Si O2"
_cell_formula_units_Z 32
_cell_length_a 17.230318
_cell_length_b 9.671980
_cell_length_c 8.218448
_cell_angle_alpha 90.000000
_cell_angle_beta 111.962344
_cell_angle_gamma 90.000000
_cell_volume 1270.221811
_symmetry_space_group_name_H-M "C C"
_symmetry_group_IT_number 9
_symmetry_cell_setting 'monoclinic'
loop_
_space_group_symop_operation_xyz
x,y,z
x,-y,1/2+z
1/2+x,1/2+y,z
1/2+x,1/2-y,1/2+z
loop_
_atom_site_type_symbol
_atom_site_label
_atom_site_fract_x
_atom_site_fract_y
_atom_site_fract_z
Si Si1 0.928270 0.556516 0.793120
Si Si2 0.470332 0.287228 0.622966
Si Si3 0.499809 0.565190 0.828676
Si Si4 0.274019 0.149375 0.864827
Si Si5 0.520284 0.827496 0.661832
Si Si6 0.697476 0.900252 0.701295
Si Si7 0.187514 0.938510 0.615616
Si Si8 0.660270 0.813698 0.302264
O O1 0.850237 0.562697 0.852269
O O2 0.909568 0.668060 0.637380
O O3 0.966225 0.418790 0.746072
O O4 0.998826 0.621340 0.965468
O O5 0.475563 0.412984 0.754684
O O6 0.450981 0.360056 0.436963
O O7 0.560567 0.207260 0.689048
O O8 0.497830 0.669219 0.674760
O O9 0.595517 0.566947 0.966590
O O10 0.275640 0.312572 0.832082
O O11 0.199199 0.090820 0.694423
O O12 0.253250 0.109569 0.031654
O O13 0.618793 0.855722 0.754713
O O14 0.680963 0.856791 0.502241
O O15 0.698413 0.064914 0.720627
O O16 0.194580 0.834310 0.772916
#
# Coordination Sequence:
#
# PCOD9139896 Si02
#       8
#     4   4   4   4   4   4   4   4
#     4  12  26  43  67 102 141 184 222 291 358 423
#     4  11  22  40  63  98 132 173 226 282 348 407
#     4  11  23  39  69  98 129 173 230 294 328 402
#     4  12  25  44  68  99 145 180 227 284 363 423
#     4  12  23  42  69  99 136 178 235 279 342 411
#     4  12  22  42  66 103 128 180 228 290 334 410
#     4  11  23  42  66 101 133 179 227 284 349 413
#     4  11  24  38  70  98 132 167 231 290 338 399
#
# _framework density 25.192453
#
# number of rings (size 3 to 8) (size 9 to 14) (size 15 to 20)
#    0.000    0.500    3.750    6.000    3.500    0.000 
#    0.000    7.500    0.000    0.000    0.000    0.000 
#    0.000    0.000    0.000    0.000    0.000    0.000 
#
# Total GULP energy -89608.553983 kJ/mol
# GULP energy per Si atom -5600.534624 kJ/mol
# Density = 2.513511 g / cm^3
# Si number density = 25.192453 Si / 1000 Ang^3
#
#
#
# Elastic Constant Matrix: (Units=GPa)
#
#
# Indices 1 2 3 4 5 6 
#
# 1 56.5035 0.1522 6.8118 0.0000 -24.5918 0.0000
# 2 0.1522 138.8597 23.1857 0.0000 -1.0397 0.0000
# 3 6.8118 23.1857 78.9529 0.0000 -16.6319 0.0000
# 4 0.0000 0.0000 0.0000 47.1697 0.0000 -15.9700
# 5 -24.5918 -1.0397 -16.6319 0.0000 27.5375 0.0000
# 6 0.0000 0.0000 0.0000 -15.9700 0.0000 24.0667
#
#
#
# Elastic Compliance Matrix: (Units=1/GPa)
#
#
# Indices 1 2 3 4 5 6 
#
# 1 0.029782 -0.000421 0.003613 0.000000 0.028762 0.000000
# 2 -0.000421 0.007614 -0.002542 0.000000 -0.001623 0.000000
# 3 0.003613 -0.002542 0.015766 0.000000 0.012653 0.000000
# 4 0.000000 0.000000 0.000000 0.027343 0.000000 0.018144
# 5 0.028762 -0.001623 0.012653 0.000000 0.069580 0.000000
# 6 0.000000 0.000000 0.000000 0.018144 0.000000 0.053591
#
#
# Mechanical properties :
#
#
# Convention : Reuss Voigt Hill
#
# Bulk Modulus (GPa) = 18.36106 37.17949 27.77028
# Shear Modulus (GPa) = 22.67279 36.03253 29.35266
#
# Velocity S-wave (km/s) = 3.00323 3.78602 3.41711
# Velocity P-wave (km/s) = 4.39659 5.82256 5.15908
#
# Compressibility (1/GPa) = 0.05446307
#
# Stress axis : x y z
#
# Youngs Moduli (GPa) = 33.57779 131.33336 63.42830
#
# Poissons Ratio (x) = 0.05523 -0.22916
# Poissons Ratio (y) = 0.01412 0.16121
# Poissons Ratio (z) = -0.12131 0.33381
#
# Static dielectric constant tensor:
#      x y z
#    x 2.062810 0.000000 0.034130 
#    y 0.000000 1.931640 0.000000 
#    z 0.034130 0.000000 2.012290 
# 
# From -- ./inp_files/11351.got.cif
#   From: 2010.05.17/outbox.cif.g08.bks.cpg/sg9_6_cif.got.tgz:11351.got - 2010.06.03 20:04:27.
