data_PCOD9139903
_publ_section_title
;
Structure prediction by ZEFSAII (Michael W. Deem and Ramdas Pophale) SiO2 
 PCOD9139903
Probable space group: C C
;
_chemical_formula_sum "Si O2"
_cell_formula_units_Z 20
_cell_length_a 9.226349
_cell_length_b 19.185754
_cell_length_c 5.037181
_cell_angle_alpha 90.000000
_cell_angle_beta 70.441033
_cell_angle_gamma 90.000000
_cell_volume 840.203182
_symmetry_space_group_name_H-M "C C"
_symmetry_group_IT_number 9
_symmetry_cell_setting 'monoclinic'
loop_
_space_group_symop_operation_xyz
x,y,z
x,-y,1/2+z
1/2+x,1/2+y,z
1/2+x,1/2-y,1/2+z
loop_
_atom_site_type_symbol
_atom_site_label
_atom_site_fract_x
_atom_site_fract_y
_atom_site_fract_z
Si Si1 0.807780 0.451230 0.343730
Si Si2 0.643007 0.887192 0.169324
Si Si3 0.588012 0.339599 0.216414
Si Si4 0.743567 0.805477 0.607736
Si Si5 0.459094 0.544411 0.423668
O O1 0.790393 0.485378 0.644566
O O2 0.698536 0.387248 0.328072
O O3 0.979201 0.420389 0.217718
O O4 0.659785 0.857438 0.454584
O O5 0.777283 0.942961 0.045930
O O6 0.688139 0.826202 0.935095
O O7 0.685782 0.271871 0.080291
O O8 0.426753 0.316924 0.454594
O O9 0.536096 0.386365 0.995985
O O10 0.493680 0.516861 0.111013
#
# Coordination Sequence:
#
# PCOD9139903 Si02
#       5
#     4   4   4   4   4
#     4  12  26  44  70 103 139 177 221 279 337 402
#     4  11  24  45  71 101 135 176 224 275 338 402
#     4  11  26  46  69  99 137 178 230 278 336 396
#     4  11  26  45  71  98 134 181 226 280 331 399
#     4  11  22  40  67  97 131 170 213 268 330 397
#
# _framework density 23.803764999999999
#
# number of rings (size 3 to 8) (size 9 to 14) (size 15 to 20)
#    0.000    0.800    0.000    7.200    0.000   12.800 
#    0.000    0.000    0.000    0.000    0.000    0.000 
#    0.000    0.000    0.000    0.000    0.000    0.000 
#
# Total GULP energy -56073.383218 kJ/mol
# GULP energy per Si atom -5607.338322 kJ/mol
# Density = 2.374959 g / cm^3
# Si number density = 23.803765 Si / 1000 Ang^3
#
#
#
# Elastic Constant Matrix: (Units=GPa)
#
#
# Indices 1 2 3 4 5 6 
#
# 1 185.3438 53.0230 14.8919 0.0000 -12.8634 0.0000
# 2 53.0230 87.4396 2.0568 0.0000 -19.6457 0.0000
# 3 14.8919 2.0568 78.5229 0.0000 -2.4692 0.0000
# 4 0.0000 0.0000 0.0000 31.1450 0.0000 -17.3499
# 5 -12.8634 -19.6457 -2.4692 0.0000 28.5988 0.0000
# 6 0.0000 0.0000 0.0000 -17.3499 0.0000 45.3708
#
#
#
# Elastic Compliance Matrix: (Units=1/GPa)
#
#
# Indices 1 2 3 4 5 6 
#
# 1 0.006631 -0.003957 -0.001149 0.000000 0.000165 0.000000
# 2 -0.003957 0.015885 0.000623 0.000000 0.009186 0.000000
# 3 -0.001149 0.000623 0.012969 0.000000 0.001031 0.000000
# 4 0.000000 0.000000 0.000000 0.040799 0.000000 0.015602
# 5 0.000165 0.009186 0.001031 0.000000 0.041440 0.000000
# 6 0.000000 0.000000 0.000000 0.015602 0.000000 0.028007
#
#
# Mechanical properties :
#
#
# Convention : Reuss Voigt Hill
#
# Bulk Modulus (GPa) = 37.70666 54.58327 46.14497
# Shear Modulus (GPa) = 30.57416 39.77856 35.17636
#
# Velocity S-wave (km/s) = 3.58778 4.09235 3.84834
# Velocity P-wave (km/s) = 5.74786 6.73127 6.25891
#
# Compressibility (1/GPa) = 0.02652051
#
# Stress axis : x y z
#
# Youngs Moduli (GPa) = 150.80341 62.95153 77.10632
#
# Poissons Ratio (x) = 0.24910 0.08858
# Poissons Ratio (y) = 0.59672 -0.04805
# Poissons Ratio (z) = 0.17324 -0.03923
#
# Static dielectric constant tensor:
#      x y z
#    x 1.921520 0.000000 -0.021770 
#    y 0.000000 1.875220 0.000000 
#    z -0.021770 0.000000 1.879760 
# 
# From -- ./inp_files/477.got.cif
#   From: 2010.05.17/outbox.cif.g08.bks.cpg/sg9_1_cif.got.tgz:477.got - 2010.06.03 20:04:27.
