data_PCOD9139670
_publ_section_title
;
Structure prediction by ZEFSAII (Michael W. Deem and Ramdas Pophale) SiO2 
 PCOD9139670
Probable space group: C C
;
_chemical_formula_sum "Si O2"
_cell_formula_units_Z 32
_cell_length_a 23.024462
_cell_length_b 7.195684
_cell_length_c 23.800181
_cell_angle_alpha 90.000000
_cell_angle_beta 16.587867
_cell_angle_gamma 90.000000
_cell_volume 1125.708061
_symmetry_space_group_name_H-M "C C"
_symmetry_group_IT_number 9
_symmetry_cell_setting 'monoclinic'
loop_
_space_group_symop_operation_xyz
x,y,z
x,-y,1/2+z
1/2+x,1/2+y,z
1/2+x,1/2-y,1/2+z
loop_
_atom_site_type_symbol
_atom_site_label
_atom_site_fract_x
_atom_site_fract_y
_atom_site_fract_z
Si Si1 0.826880 0.512869 0.661970
Si Si2 0.215095 0.493235 0.161795
Si Si3 0.860841 0.105415 0.914088
Si Si4 0.531297 0.593657 0.154744
Si Si5 0.258558 0.947074 0.601005
Si Si6 0.913324 0.090012 0.591263
Si Si7 0.172598 0.451503 0.913908
Si Si8 0.987455 0.502560 0.202634
O O1 0.742687 0.541536 0.677435
O O2 0.923016 0.306453 0.566433
O O3 0.004559 0.629935 0.526507
O O4 0.637015 0.491725 0.879021
O O5 0.268747 0.278052 0.097144
O O6 0.280912 0.511813 0.165513
O O7 0.975639 0.503958 0.376323
O O8 0.317011 0.626937 0.022406
O O9 0.900332 0.051265 0.811425
O O10 0.077141 0.999210 0.728730
O O11 0.610900 0.130533 0.132045
O O12 0.359536 0.660967 0.268229
O O13 0.574878 0.797026 0.140077
O O14 0.744820 0.503970 0.938346
O O15 0.809442 0.081607 0.747643
O O16 0.042132 0.534554 0.086535
#
# Coordination Sequence:
#
# PCOD9139670 Si02
#       8
#     4   4   4   4   4   4   4   4
#     4  11  19  34  51  77 115 144 171 216 265 329
#     4  11  18  26  44  73 108 142 170 201 255 337
#     4  11  20  29  50  72 102 148 170 216 274 317
#     4  11  22  37  52  73 107 147 190 228 257 304
#     4  11  18  26  44  73 108 142 170 201 255 337
#     4  11  19  34  51  77 115 144 171 216 265 329
#     4  11  22  35  56  72 104 158 180 216 280 295
#     4  11  22  37  52  73 107 147 190 228 257 304
#
# _framework density 28.426553999999999
#
# number of rings (size 3 to 8) (size 9 to 14) (size 15 to 20)
#    0.000    1.000    7.500    3.750    0.000    0.000 
#    0.000    0.000    0.000    0.000    0.000    0.000 
#    0.000   24.000    0.000    0.000    0.000    0.000 
#
# Total GULP energy -89136.731509 kJ/mol
# GULP energy per Si atom -5571.045719 kJ/mol
# Density = 2.836185 g / cm^3
# Si number density = 28.426554 Si / 1000 Ang^3
#
#
#
# Elastic Constant Matrix: (Units=GPa)
#
#
# Indices 1 2 3 4 5 6 
#
# 1 122.6626 21.5877 24.7087 -0.0047 -10.3766 0.0027
# 2 21.5877 104.3160 5.6409 -0.0276 -4.6166 -0.0027
# 3 24.7087 5.6409 144.1323 -0.0188 -8.8632 0.0100
# 4 -0.0047 -0.0276 -0.0188 -99.5616 0.0057 -77.4227
# 5 -10.3766 -4.6166 -8.8632 0.0057 70.0074 -0.0020
# 6 0.0027 -0.0027 0.0100 -77.4227 -0.0020 -33.7201
#
#
#
# Elastic Compliance Matrix: (Units=1/GPa)
#
#
# Indices 1 2 3 4 5 6 
#
# 1 0.008817 -0.001705 -0.001382 0.000000 0.001019 0.000001
# 2 -0.001705 0.009961 -0.000073 0.000002 0.000395 -0.000006
# 3 -0.001382 -0.000073 0.007221 0.000004 0.000705 -0.000006
# 4 0.000000 0.000002 0.000004 0.012787 -0.000001 -0.029360
# 5 0.001019 0.000395 0.000705 -0.000001 0.014551 0.000002
# 6 0.000001 -0.000006 -0.000006 -0.029360 0.000002 0.037755
#
#
# Mechanical properties :
#
#
# Convention : Reuss Voigt Hill
#
# Bulk Modulus (GPa) = 50.81711 52.77618 51.79664
# Shear Modulus (GPa) = 48.09015 8.62337 28.35676
#
# Velocity S-wave (km/s) = 4.11753 1.74360 3.16182
# Velocity P-wave (km/s) = 6.36560 4.76021 5.62052
#
# Compressibility (1/GPa) = 0.01967841
#
# Stress axis : x y z
#
# Youngs Moduli (GPa) = 113.41561 100.39655 138.48118
#
# Poissons Ratio (x) = 0.17116 0.19140
# Poissons Ratio (y) = 0.19335 0.01015
# Poissons Ratio (z) = 0.15675 0.00736
#
# Static dielectric constant tensor:
#      x y z
#    x 2.288410 0.000000 -0.030280 
#    y 0.000000 2.526070 0.000000 
#    z -0.030280 0.000000 2.249750 
# 
# From -- ./inp_files/31413.got.cif
#   From: 2010.05.17/outbox.cif.g08.bks.cpg/sg9_16_cif.got.tgz:31413.got - 2010.06.03 20:04:27.
