data_PCOD9139298
_publ_section_title
;
Structure prediction by ZEFSAII (Michael W. Deem and Ramdas Pophale) SiO2 
 PCOD9139298
Probable space group: C C
;
_chemical_formula_sum "Si O2"
_cell_formula_units_Z 32
_cell_length_a 16.557899
_cell_length_b 8.244544
_cell_length_c 22.313328
_cell_angle_alpha 90.000000
_cell_angle_beta 153.471189
_cell_angle_gamma 90.000000
_cell_volume 1360.508910
_symmetry_space_group_name_H-M "C C"
_symmetry_group_IT_number 9
_symmetry_cell_setting 'monoclinic'
loop_
_space_group_symop_operation_xyz
x,y,z
x,-y,1/2+z
1/2+x,1/2+y,z
1/2+x,1/2-y,1/2+z
loop_
_atom_site_type_symbol
_atom_site_label
_atom_site_fract_x
_atom_site_fract_y
_atom_site_fract_z
Si Si1 0.364500 0.405859 0.691030
Si Si2 0.971180 0.086412 0.509758
Si Si3 0.847670 0.764027 0.390721
Si Si4 0.256325 0.997310 0.920647
Si Si5 0.171699 0.645440 0.383482
Si Si6 0.337391 0.746265 0.295554
Si Si7 0.038149 0.416619 0.923208
Si Si8 0.951323 0.394099 0.169089
O O1 0.544100 0.465872 0.778299
O O2 0.385753 0.380346 0.775740
O O3 0.208637 0.536443 0.577456
O O4 0.350753 0.229022 0.648403
O O5 0.843967 0.035239 0.482297
O O6 0.879657 0.175760 0.390041
O O7 0.134540 0.191583 0.645041
O O8 0.996050 0.904092 0.500795
O O9 0.862714 0.603641 0.441804
O O10 0.643636 0.827232 0.269518
O O11 0.888298 0.698445 0.352002
O O12 0.258044 0.189225 0.916772
O O13 0.326540 0.934794 0.030661
O O14 0.116247 0.655954 0.414462
O O15 0.008491 0.560764 0.239968
O O16 0.453417 0.905864 0.358680
#
# Coordination Sequence:
#
# PCOD9139298 Si02
#       8
#     4   4   4   4   4   4   4   4
#     4  11  25  44  75 107 149 191 245 308 378 443
#     4  11  28  47  76 104 154 197 250 310 384 452
#     4  10  27  48  72 110 144 199 246 313 376 457
#     4  11  26  46  75 101 151 193 249 304 378 452
#     4  11  27  46  71 108 144 192 249 308 373 453
#     4  12  25  48  75 108 148 199 251 310 378 450
#     4  12  26  45  74 112 147 191 256 309 375 452
#     4  10  24  48  72 104 147 196 242 304 384 445
#
# _framework density 23.520612
#
# number of rings (size 3 to 8) (size 9 to 14) (size 15 to 20)
#    0.000    1.000    2.500    1.500   12.250    2.000 
#    0.000    0.000    0.000    0.000    0.000    0.000 
#    0.000    0.000    0.000    0.000    0.000    0.000 
#
# Total GULP energy -89292.875376 kJ/mol
# GULP energy per Si atom -5580.804711 kJ/mol
# Density = 2.346708 g / cm^3
# Si number density = 23.520612 Si / 1000 Ang^3
#
#
#
# Elastic Constant Matrix: (Units=GPa)
#
#
# Indices 1 2 3 4 5 6 
#
# 1 120.4601 15.0210 17.6610 0.0000 -12.7938 0.0001
# 2 15.0210 66.8629 11.2398 0.0001 -3.0837 -0.0003
# 3 17.6610 11.2398 65.4647 0.0002 1.1393 -0.0006
# 4 0.0000 0.0001 0.0002 0.2939 -0.0001 13.3146
# 5 -12.7938 -3.0837 1.1393 -0.0001 22.5943 -0.0001
# 6 0.0001 -0.0003 -0.0006 13.3146 -0.0001 18.0224
#
#
#
# Elastic Compliance Matrix: (Units=1/GPa)
#
#
# Indices 1 2 3 4 5 6 
#
# 1 0.009388 -0.001469 -0.002372 0.000000 0.005235 0.000000
# 2 -0.001469 0.015744 -0.002332 0.000000 0.001435 0.000000
# 3 -0.002372 -0.002332 0.016359 0.000001 -0.002486 0.000000
# 4 0.000000 0.000000 0.000001 -0.104791 0.000000 0.077418
# 5 0.005235 0.001435 -0.002486 0.000000 0.047545 0.000000
# 6 0.000000 0.000000 0.000000 0.077418 0.000000 -0.001709
#
#
# Mechanical properties :
#
#
# Convention : Reuss Voigt Hill
#
# Bulk Modulus (GPa) = 34.30957 37.84793 36.07875
# Shear Modulus (GPa) = 1087.80164 22.10650 554.95407
#
# Velocity S-wave (km/s) = 21.52888 3.06907 15.37712
# Velocity P-wave (km/s) = 25.15172 5.35586 18.18370
#
# Compressibility (1/GPa) = 0.02914639
#
# Stress axis : x y z
#
# Youngs Moduli (GPa) = 106.51417 63.51563 61.12898
#
# Poissons Ratio (x) = 0.09331 0.14498
# Poissons Ratio (y) = 0.15647 0.14254
# Poissons Ratio (z) = 0.25262 0.14811
#
# Static dielectric constant tensor:
#      x y z
#    x 1.857790 0.000000 0.025030 
#    y 0.000000 2.044390 0.000000 
#    z 0.025030 0.000000 1.938070 
# 
# From -- ./inp_files/33707.got.cif
#   From: 2010.05.17/outbox.cif.g08.bks.cpg/sg9_17_cif.got.tgz:33707.got - 2010.06.03 20:04:27.
