data_PCOD9139656
_publ_section_title
;
Structure prediction by ZEFSAII (Michael W. Deem and Ramdas Pophale) SiO2 
 PCOD9139656
Probable space group: C C
;
_chemical_formula_sum "Si O2"
_cell_formula_units_Z 20
_cell_length_a 5.544813
_cell_length_b 17.913130
_cell_length_c 7.546468
_cell_angle_alpha 90.000000
_cell_angle_beta 84.626574
_cell_angle_gamma 90.000000
_cell_volume 746.258698
_symmetry_space_group_name_H-M "C C"
_symmetry_group_IT_number 9
_symmetry_cell_setting 'monoclinic'
loop_
_space_group_symop_operation_xyz
x,y,z
x,-y,1/2+z
1/2+x,1/2+y,z
1/2+x,1/2-y,1/2+z
loop_
_atom_site_type_symbol
_atom_site_label
_atom_site_fract_x
_atom_site_fract_y
_atom_site_fract_z
Si Si1 0.616710 0.915391 0.230910
Si Si2 0.835354 0.724625 0.721455
Si Si3 0.904599 0.996626 0.975881
Si Si4 0.146884 0.157128 0.376163
Si Si5 0.723341 0.380397 0.520901
O O1 0.580909 0.827633 0.202319
O O2 0.393046 0.927537 0.376764
O O3 0.847871 0.948731 0.314618
O O4 0.646833 0.960463 0.049539
O O5 0.718293 0.708206 0.538863
O O6 0.674214 0.689295 0.893076
O O7 0.926983 0.803714 0.782984
O O8 0.073127 0.923894 0.953258
O O9 0.018276 0.061252 0.089893
O O10 0.336144 0.147064 0.199416
#
# Coordination Sequence:
#
# PCOD9139656 Si02
#       5
#     4   4   4   4   4
#     4  10  27  44  76 112 153 202 259 310 401 446
#     4  10  29  47  77 112 160 203 264 315 392 467
#     4  12  24  48  81 111 154 208 255 327 389 462
#     4  12  27  51  79 110 160 208 261 322 388 464
#     4  10  27  48  77 115 159 195 269 316 384 471
#
# _framework density 26.800359
#
# number of rings (size 3 to 8) (size 9 to 14) (size 15 to 20)
#    1.200    0.000    2.000    1.200   11.200    1.600 
#    0.000    0.000    0.000    0.000    0.000    0.000 
#    0.000    0.000    0.000    0.000    0.000    0.000 
#
# Total GULP energy -55694.996104 kJ/mol
# GULP energy per Si atom -5569.499610 kJ/mol
# Density = 2.673936 g / cm^3
# Si number density = 26.800359 Si / 1000 Ang^3
#
#
#
# Elastic Constant Matrix: (Units=GPa)
#
#
# Indices 1 2 3 4 5 6 
#
# 1 51.9485 37.8474 28.6295 0.0000 8.3290 0.0000
# 2 37.8474 160.4793 45.6256 0.0000 6.1970 0.0000
# 3 28.6295 45.6256 157.1906 0.0000 7.5869 0.0000
# 4 0.0000 0.0000 0.0000 11.5365 0.0000 45.5793
# 5 8.3290 6.1970 7.5869 0.0000 39.7097 0.0000
# 6 0.0000 0.0000 0.0000 45.5793 0.0000 -4.8891
#
#
#
# Elastic Compliance Matrix: (Units=1/GPa)
#
#
# Indices 1 2 3 4 5 6 
#
# 1 0.025097 -0.004928 -0.002951 0.000000 -0.003931 0.000000
# 2 -0.004928 0.007778 -0.001364 0.000000 0.000080 0.000000
# 3 -0.002951 -0.001364 0.007322 0.000000 -0.000567 0.000000
# 4 0.000000 0.000000 0.000000 0.002291 0.000000 0.021360
# 5 -0.003931 0.000080 -0.000567 0.000000 0.026103 0.000000
# 6 0.000000 0.000000 0.000000 0.021360 0.000000 -0.005406
#
#
# Mechanical properties :
#
#
# Convention : Reuss Voigt Hill
#
# Bulk Modulus (GPa) = 46.05815 65.98036 56.01926
# Shear Modulus (GPa) = 56.23772 26.43915 41.33843
#
# Velocity S-wave (km/s) = 4.58579 3.14430 3.93167
# Velocity P-wave (km/s) = 6.72773 6.15263 6.44659
#
# Compressibility (1/GPa) = 0.02171169
#
# Stress axis : x y z
#
# Youngs Moduli (GPa) = 39.84586 128.56344 136.56674
#
# Poissons Ratio (x) = 0.63357 0.40298
# Poissons Ratio (y) = 0.19636 0.18628
# Poissons Ratio (z) = 0.11758 0.17536
#
# Static dielectric constant tensor:
#      x y z
#    x 2.158610 0.000000 -0.000730 
#    y 0.000000 2.467940 0.000000 
#    z -0.000730 0.000000 2.471810 
# 
# From -- ./inp_files/3622.got.cif
#   From: 2010.05.17/outbox.cif.g08.bks.cpg/sg9_2_cif.got.tgz:3622.got - 2010.06.03 20:04:27.
