data_PCOD9139597
_publ_section_title
;
Structure prediction by ZEFSAII (Michael W. Deem and Ramdas Pophale) SiO2 
 PCOD9139597
Probable space group: C C
;
_chemical_formula_sum "Si O2"
_cell_formula_units_Z 28
_cell_length_a 4.809900
_cell_length_b 14.091922
_cell_length_c 17.587915
_cell_angle_alpha 90.000000
_cell_angle_beta 110.759006
_cell_angle_gamma 90.000000
_cell_volume 1114.728683
_symmetry_space_group_name_H-M "C C"
_symmetry_group_IT_number 9
_symmetry_cell_setting 'monoclinic'
loop_
_space_group_symop_operation_xyz
x,y,z
x,-y,1/2+z
1/2+x,1/2+y,z
1/2+x,1/2-y,1/2+z
loop_
_atom_site_type_symbol
_atom_site_label
_atom_site_fract_x
_atom_site_fract_y
_atom_site_fract_z
Si Si1 0.967840 0.139712 0.217750
Si Si2 0.056556 0.858030 0.348903
Si Si3 0.154884 0.468509 0.416008
Si Si4 0.797586 0.665320 0.392107
Si Si5 0.920861 0.760495 0.182635
Si Si6 0.836500 0.641044 0.564807
Si Si7 0.365660 0.517784 0.590966
O O1 0.697805 0.210010 0.168773
O O2 0.009497 0.148082 0.311851
O O3 0.286763 0.175486 0.220530
O O4 0.936258 0.041310 0.172144
O O5 0.837286 0.939418 0.359125
O O6 0.960555 0.762484 0.383868
O O7 0.017483 0.837277 0.255446
O O8 0.387004 0.893728 0.396602
O O9 0.368158 0.463005 0.510735
O O10 0.010855 0.573587 0.401640
O O11 0.706960 0.671667 0.471648
O O12 0.615697 0.792325 0.112365
O O13 0.582850 0.608802 0.599416
O O14 0.022732 0.545336 0.567577
#
# Coordination Sequence:
#
# PCOD9139597 Si02
#       7
#     4   4   4   4   4   4   4
#     4  11  25  44  71 102 145 186 240 305 368 438
#     4  11  25  43  72 101 140 189 243 300 373 441
#     4  11  25  43  72 101 140 189 243 300 373 441
#     4  10  26  46  70 104 146 188 246 304 374 432
#     4  11  25  44  68 107 138 185 248 290 380 436
#     4  11  25  44  71 102 145 186 240 305 368 438
#     4  11  25  44  68 107 138 185 248 290 380 436
#
# _framework density 25.118220999999998
#
# number of rings (size 3 to 8) (size 9 to 14) (size 15 to 20)
#    0.000    1.143    0.000    5.143    8.000   10.286 
#    0.000    0.000    0.000    0.000    0.000    0.000 
#    0.000    0.000    0.000    0.000    0.000    0.000 
#
# Total GULP energy -78289.967688 kJ/mol
# GULP energy per Si atom -5592.140549 kJ/mol
# Density = 2.506105 g / cm^3
# Si number density = 25.118221 Si / 1000 Ang^3
#
#
#
# Elastic Constant Matrix: (Units=GPa)
#
#
# Indices 1 2 3 4 5 6 
#
# 1 150.0474 31.5545 15.4119 0.0000 3.1661 0.0000
# 2 31.5545 95.4700 33.6200 0.0000 11.2951 0.0000
# 3 15.4119 33.6200 105.8048 0.0000 26.4005 0.0000
# 4 0.0000 0.0000 0.0000 40.6548 0.0000 -8.4261
# 5 3.1661 11.2951 26.4005 0.0000 31.3325 0.0000
# 6 0.0000 0.0000 0.0000 -8.4261 0.0000 73.4766
#
#
#
# Elastic Compliance Matrix: (Units=1/GPa)
#
#
# Indices 1 2 3 4 5 6 
#
# 1 0.007178 -0.002273 -0.000439 0.000000 0.000464 0.000000
# 2 -0.002273 0.012561 -0.003277 0.000000 -0.001538 0.000000
# 3 -0.000439 -0.003277 0.012980 0.000000 -0.009711 0.000000
# 4 0.000000 0.000000 0.000000 0.025196 0.000000 0.002889
# 5 0.000464 -0.001538 -0.009711 0.000000 0.040605 0.000000
# 6 0.000000 0.000000 0.000000 0.002889 0.000000 0.013941
#
#
# Mechanical properties :
#
#
# Convention : Reuss Voigt Hill
#
# Bulk Modulus (GPa) = 48.21184 56.94388 52.57786
# Shear Modulus (GPa) = 38.06542 47.14182 42.60362
#
# Velocity S-wave (km/s) = 3.89710 4.33690 4.12287
# Velocity P-wave (km/s) = 6.28375 6.91360 6.60619
#
# Compressibility (1/GPa) = 0.02074179
#
# Stress axis : x y z
#
# Youngs Moduli (GPa) = 139.31835 79.60843 77.04384
#
# Poissons Ratio (x) = 0.18092 0.03384
# Poissons Ratio (y) = 0.31662 0.25245
# Poissons Ratio (z) = 0.06119 0.26086
#
# Static dielectric constant tensor:
#      x y z
#    x 1.930490 0.000000 -0.088790 
#    y 0.000000 2.031580 0.000000 
#    z -0.088790 0.000000 2.212090 
# 
# From -- ./inp_files/28632.got.cif
#   From: 2010.05.17/outbox.cif.g08.bks.cpg/sg9_15_cif.got.tgz:28632.got - 2010.06.03 20:04:27.
