data_PCOD9139660
_publ_section_title
;
Structure prediction by ZEFSAII (Michael W. Deem and Ramdas Pophale) SiO2 
 PCOD9139660
Probable space group: C C
;
_chemical_formula_sum "Si O2"
_cell_formula_units_Z 32
_cell_length_a 14.649409
_cell_length_b 6.510304
_cell_length_c 17.489846
_cell_angle_alpha 90.000000
_cell_angle_beta 128.310253
_cell_angle_gamma 90.000000
_cell_volume 1308.856061
_symmetry_space_group_name_H-M "C C"
_symmetry_group_IT_number 9
_symmetry_cell_setting 'monoclinic'
loop_
_space_group_symop_operation_xyz
x,y,z
x,-y,1/2+z
1/2+x,1/2+y,z
1/2+x,1/2-y,1/2+z
loop_
_atom_site_type_symbol
_atom_site_label
_atom_site_fract_x
_atom_site_fract_y
_atom_site_fract_z
Si Si1 0.151460 0.247463 0.700620
Si Si2 0.849418 0.954125 0.344259
Si Si3 0.984027 0.407458 0.182013
Si Si4 0.578922 0.536834 0.532627
Si Si5 0.931597 0.250645 0.746640
Si Si6 0.699208 0.370577 0.838789
Si Si7 0.678910 0.290592 0.454495
Si Si8 0.395047 0.510391 0.077286
O O1 0.256450 0.371078 0.792531
O O2 0.045258 0.409745 0.664002
O O3 0.156872 0.212557 0.611616
O O4 0.173124 0.029632 0.755682
O O5 0.975547 0.059732 0.417354
O O6 0.844110 0.834381 0.262268
O O7 0.810899 0.776490 0.383405
O O8 0.905936 0.526935 0.201683
O O9 0.088409 0.282357 0.276781
O O10 0.901593 0.251106 0.095662
O O11 0.652145 0.358265 0.528518
O O12 0.493260 0.514811 0.562631
O O13 0.933860 0.092072 0.677894
O O14 0.057268 0.274461 0.852427
O O15 0.710414 0.508835 0.920230
O O16 0.776947 0.114591 0.497938
#
# Coordination Sequence:
#
# PCOD9139660 Si02
#       8
#     4   4   4   4   4   4   4   4
#     4  11  22  48  78 106 155 201 256 314 390 470
#     4  10  27  45  79 110 152 201 255 324 391 457
#     4  11  21  44  79 102 149 203 244 312 387 457
#     4  11  24  49  72 114 153 198 263 320 385 471
#     4  11  24  51  70 109 154 196 258 318 383 466
#     4  11  22  48  74 106 150 201 248 314 395 458
#     4  11  25  48  75 110 156 196 261 318 384 480
#     4  12  25  45  79 109 155 204 253 316 397 461
#
# _framework density 24.448831999999999
#
# number of rings (size 3 to 8) (size 9 to 14) (size 15 to 20)
#    0.000    1.000    5.000    0.750    3.500    2.000 
#    6.750    1.250    0.000    0.000    0.000    0.000 
#    0.000    0.000    0.000    0.000    0.000    0.000 
#
# Total GULP energy -89230.348072 kJ/mol
# GULP energy per Si atom -5576.896754 kJ/mol
# Density = 2.439319 g / cm^3
# Si number density = 24.448832 Si / 1000 Ang^3
#
#
#
# Elastic Constant Matrix: (Units=GPa)
#
#
# Indices 1 2 3 4 5 6 
#
# 1 49.8493 17.9649 21.5153 0.0000 -6.3974 0.0000
# 2 17.9649 114.9287 41.8138 0.0000 -2.6377 0.0000
# 3 21.5153 41.8138 97.5672 0.0000 -0.4005 0.0000
# 4 0.0000 0.0000 0.0000 41.6170 0.0000 4.6583
# 5 -6.3974 -2.6377 -0.4005 0.0000 39.7026 0.0000
# 6 0.0000 0.0000 0.0000 4.6583 0.0000 14.7259
#
#
#
# Elastic Compliance Matrix: (Units=1/GPa)
#
#
# Indices 1 2 3 4 5 6 
#
# 1 0.023051 -0.001988 -0.004217 0.000000 0.003540 0.000000
# 2 -0.001988 0.010496 -0.004059 0.000000 0.000336 0.000000
# 3 -0.004217 -0.004059 0.012915 0.000000 -0.000819 0.000000
# 4 0.000000 0.000000 0.000000 0.024911 0.000000 -0.007880
# 5 0.003540 0.000336 -0.000819 0.000000 0.025772 0.000000
# 6 0.000000 0.000000 0.000000 -0.007880 0.000000 0.070400
#
#
# Mechanical properties :
#
#
# Convention : Reuss Voigt Hill
#
# Bulk Modulus (GPa) = 38.55616 47.21482 42.88549
# Shear Modulus (GPa) = 25.41730 31.27919 28.34824
#
# Velocity S-wave (km/s) = 3.22780 3.58071 3.40883
# Velocity P-wave (km/s) = 5.44940 6.03730 5.75087
#
# Compressibility (1/GPa) = 0.02593619
#
# Stress axis : x y z
#
# Youngs Moduli (GPa) = 43.38194 95.27375 77.42823
#
# Poissons Ratio (x) = 0.18939 0.32649
# Poissons Ratio (y) = 0.08624 0.31424
# Poissons Ratio (z) = 0.18293 0.38667
#
# Static dielectric constant tensor:
#      x y z
#    x 2.047220 0.000000 0.044700 
#    y 0.000000 1.946190 0.000000 
#    z 0.044700 0.000000 2.179040 
# 
# From -- ./inp_files/30496.got.cif
#   From: 2010.05.17/outbox.cif.g08.bks.cpg/sg9_16_cif.got.tgz:30496.got - 2010.06.03 20:04:27.
