data_PCOD9139302
_publ_section_title
;
Structure prediction by ZEFSAII (Michael W. Deem and Ramdas Pophale) SiO2 
 PCOD9139302
Probable space group: C C
;
_chemical_formula_sum "Si O2"
_cell_formula_units_Z 24
_cell_length_a 23.118154
_cell_length_b 9.137225
_cell_length_c 9.810968
_cell_angle_alpha 90.000000
_cell_angle_beta 151.407183
_cell_angle_gamma 90.000000
_cell_volume 991.826015
_symmetry_space_group_name_H-M "C C"
_symmetry_group_IT_number 9
_symmetry_cell_setting 'monoclinic'
loop_
_space_group_symop_operation_xyz
x,y,z
x,-y,1/2+z
1/2+x,1/2+y,z
1/2+x,1/2-y,1/2+z
loop_
_atom_site_type_symbol
_atom_site_label
_atom_site_fract_x
_atom_site_fract_y
_atom_site_fract_z
Si Si1 0.212880 0.905552 0.396040
Si Si2 0.992865 0.041442 0.767019
Si Si3 0.123064 0.698005 0.588824
Si Si4 0.041319 0.754592 0.721663
Si Si5 0.322500 0.089892 0.407319
Si Si6 0.224107 0.618533 0.288044
O O1 0.360526 0.567619 0.550919
O O2 0.317879 0.962007 0.509540
O O3 0.091141 0.973883 0.078232
O O4 0.211276 0.728793 0.389050
O O5 0.745137 0.456007 0.614004
O O6 0.993352 0.917001 0.653466
O O7 0.040434 0.201678 0.819143
O O8 0.059941 0.725028 0.602842
O O9 0.144908 0.527550 0.622574
O O10 0.253009 0.776976 0.839507
O O11 0.170718 0.719144 0.057189
O O12 0.445936 0.149229 0.600324
#
# Coordination Sequence:
#
# PCOD9139302 Si02
#       6
#     4   4   4   4   4   4
#     4  10  26  47  78 110 150 202 258 311 396 444
#     4  10  24  48  73 104 151 200 249 320 372 458
#     4  11  26  45  75 105 152 202 250 316 379 455
#     4  11  26  47  72 115 154 195 266 309 386 458
#     4  11  25  50  77 109 157 204 252 326 376 464
#     4  11  25  47  73 113 144 201 255 316 381 457
#
# _framework density 24.197790999999999
#
# number of rings (size 3 to 8) (size 9 to 14) (size 15 to 20)
#    0.000    1.333    1.667    1.000   21.000    1.333 
#    0.000    0.000    0.000    0.000    0.000    0.000 
#    0.000    0.000    0.000    0.000    0.000    0.000 
#
# Total GULP energy -67081.601433 kJ/mol
# GULP energy per Si atom -5590.133453 kJ/mol
# Density = 2.414272 g / cm^3
# Si number density = 24.197791 Si / 1000 Ang^3
#
#
#
# Elastic Constant Matrix: (Units=GPa)
#
#
# Indices 1 2 3 4 5 6 
#
# 1 122.1192 47.5687 42.6883 0.0000 17.3189 0.0000
# 2 47.5687 185.7570 36.9208 0.0000 13.4384 0.0000
# 3 42.6883 36.9208 87.3949 0.0000 29.0098 0.0000
# 4 0.0000 0.0000 0.0000 39.2686 0.0000 8.4239
# 5 17.3189 13.4384 29.0098 0.0000 34.1778 0.0000
# 6 0.0000 0.0000 0.0000 8.4239 0.0000 35.4066
#
#
#
# Elastic Compliance Matrix: (Units=1/GPa)
#
#
# Indices 1 2 3 4 5 6 
#
# 1 0.010440 -0.001803 -0.003922 0.000000 -0.001252 0.000000
# 2 -0.001803 0.006190 -0.001712 0.000000 -0.000067 0.000000
# 3 -0.003922 -0.001712 0.018375 0.000000 -0.012936 0.000000
# 4 0.000000 0.000000 0.000000 0.026835 0.000000 -0.006385
# 5 -0.001252 -0.000067 -0.012936 0.000000 0.040900 0.000000
# 6 0.000000 0.000000 0.000000 -0.006385 0.000000 0.029762
#
#
# Mechanical properties :
#
#
# Convention : Reuss Voigt Hill
#
# Bulk Modulus (GPa) = 49.67493 72.18073 60.92783
# Shear Modulus (GPa) = 32.44911 39.64348 36.04630
#
# Velocity S-wave (km/s) = 3.66593 4.05200 3.86379
# Velocity P-wave (km/s) = 6.20419 7.19623 6.71855
#
# Compressibility (1/GPa) = 0.02013088
#
# Stress axis : x y z
#
# Youngs Moduli (GPa) = 95.78855 161.54290 54.42090
#
# Poissons Ratio (x) = 0.29131 0.21343
# Poissons Ratio (y) = 0.17274 0.09317
# Poissons Ratio (z) = 0.37566 0.27658
#
# Static dielectric constant tensor:
#      x y z
#    x 1.945960 0.000000 -0.016600 
#    y 0.000000 1.962630 0.000000 
#    z -0.016600 0.000000 1.988400 
# 
# From -- ./inp_files/20827.got.cif
#   From: 2010.05.17/outbox.cif.g08.bks.cpg/sg9_11_cif.got.tgz:20827.got - 2010.06.03 20:04:27.
