data_PCOD9139943
_publ_section_title
;
Structure prediction by ZEFSAII (Michael W. Deem and Ramdas Pophale) SiO2 
 PCOD9139943
Probable space group: C C
;
_chemical_formula_sum "Si O2"
_cell_formula_units_Z 32
_cell_length_a 6.813490
_cell_length_b 17.432202
_cell_length_c 11.533388
_cell_angle_alpha 90.000000
_cell_angle_beta 90.188928
_cell_angle_gamma 90.000000
_cell_volume 1369.860725
_symmetry_space_group_name_H-M "C C"
_symmetry_group_IT_number 9
_symmetry_cell_setting 'monoclinic'
loop_
_space_group_symop_operation_xyz
x,y,z
x,-y,1/2+z
1/2+x,1/2+y,z
1/2+x,1/2-y,1/2+z
loop_
_atom_site_type_symbol
_atom_site_label
_atom_site_fract_x
_atom_site_fract_y
_atom_site_fract_z
Si Si1 0.508370 0.105200 0.373640
Si Si2 0.344912 0.434040 0.040755
Si Si3 0.517742 0.268378 0.603176
Si Si4 0.647615 0.498847 0.353728
Si Si5 0.840405 0.924793 0.686387
Si Si6 0.075471 0.178769 0.859396
Si Si7 0.122222 0.798192 0.103004
Si Si8 0.204196 0.246585 0.356675
O O1 0.660193 0.105665 0.480409
O O2 0.665381 0.098372 0.270836
O O3 0.353970 0.174235 0.359022
O O4 0.362929 0.032280 0.375959
O O5 0.263626 0.502648 0.116617
O O6 0.481217 0.371426 0.102736
O O7 0.497183 0.475478 0.953953
O O8 0.402205 0.349118 0.617913
O O9 0.634361 0.282228 0.482746
O O10 0.357224 0.201324 0.590430
O O11 0.615005 0.255646 0.728327
O O12 0.540333 0.541563 0.245838
O O13 0.654732 0.406990 0.346869
O O14 0.112861 0.225294 0.739610
O O15 0.838543 0.178413 0.866759
O O16 0.076318 0.760235 0.974895
#
# Coordination Sequence:
#
# PCOD9139943 Si02
#       8
#     4   4   4   4   4   4   4   4
#     4  11  24  41  73 103 137 199 241 284 379 446
#     4  11  23  42  70 102 145 190 237 302 369 433
#     4  11  24  46  75 103 147 196 243 305 369 437
#     4  11  22  46  67 102 148 188 239 309 358 430
#     4  11  22  42  72 101 147 187 242 302 365 434
#     4  11  25  42  70 105 144 187 247 306 358 429
#     4  11  24  45  71 103 147 193 240 302 367 435
#     4  11  24  46  70 103 147 198 239 300 377 442
#
# _framework density 23.360036999999998
#
# number of rings (size 3 to 8) (size 9 to 14) (size 15 to 20)
#    0.000    1.000    5.000    1.500    0.000    6.000 
#    4.500    1.250    0.000    0.000    0.000    0.000 
#    0.000    0.000    0.000    0.000    0.000    0.000 
#
# Total GULP energy -89159.800943 kJ/mol
# GULP energy per Si atom -5572.487559 kJ/mol
# Density = 2.330687 g / cm^3
# Si number density = 23.360037 Si / 1000 Ang^3
#
#
#
# Elastic Constant Matrix: (Units=GPa)
#
#
# Indices 1 2 3 4 5 6 
#
# 1 113.5316 53.4373 48.7976 0.0000 19.2382 0.0000
# 2 53.4373 86.4837 16.9473 0.0000 6.7882 0.0000
# 3 48.7976 16.9473 178.4633 0.0000 11.1437 0.0000
# 4 0.0000 0.0000 0.0000 -1.9998 0.0000 -8.5664
# 5 19.2382 6.7882 11.1437 0.0000 37.4863 0.0000
# 6 0.0000 0.0000 0.0000 -8.5664 0.0000 29.5410
#
#
#
# Elastic Compliance Matrix: (Units=1/GPa)
#
#
# Indices 1 2 3 4 5 6 
#
# 1 0.014802 -0.008157 -0.002945 0.000000 -0.005244 0.000000
# 2 -0.008157 0.016403 0.000608 0.000000 0.001035 0.000000
# 3 -0.002945 0.000608 0.006382 0.000000 -0.000496 0.000000
# 4 0.000000 0.000000 0.000000 -0.223018 0.000000 -0.064672
# 5 -0.005244 0.001035 -0.000496 0.000000 0.029328 0.000000
# 6 0.000000 0.000000 0.000000 -0.064672 0.000000 0.015098
#
#
# Mechanical properties :
#
#
# Convention : Reuss Voigt Hill
#
# Bulk Modulus (GPa) = 60.24846 68.53812 64.39329
# Shear Modulus (GPa) = -43.67413 30.29191 -6.69111
#
# Velocity S-wave (km/s) = -4.32859 3.60493 -1.69427
# Velocity P-wave (km/s) = 0.93006 6.83601 4.87832
#
# Compressibility (1/GPa) = 0.01659794
#
# Stress axis : x y z
#
# Youngs Moduli (GPa) = 67.55770 60.96533 156.69231
#
# Poissons Ratio (x) = 0.49732 0.46151
# Poissons Ratio (y) = 0.55109 -0.09530
# Poissons Ratio (z) = 0.19898 -0.03708
#
# Static dielectric constant tensor:
#      x y z
#    x 1.859650 0.000000 0.008520 
#    y 0.000000 1.915500 0.000000 
#    z 0.008520 0.000000 2.033670 
# 
# From -- ./inp_files/13489.got.cif
#   From: 2010.05.17/outbox.cif.g08.bks.cpg/sg9_7_cif.got.tgz:13489.got - 2010.06.03 20:04:27.
