data_PCOD9139851
_publ_section_title
;
Structure prediction by ZEFSAII (Michael W. Deem and Ramdas Pophale) SiO2 
 PCOD9139851
Probable space group: C C
;
_chemical_formula_sum "Si O2"
_cell_formula_units_Z 32
_cell_length_a 8.295785
_cell_length_b 14.691220
_cell_length_c 13.973401
_cell_angle_alpha 90.000000
_cell_angle_beta 55.390653
_cell_angle_gamma 90.000000
_cell_volume 1401.652575
_symmetry_space_group_name_H-M "C C"
_symmetry_group_IT_number 9
_symmetry_cell_setting 'monoclinic'
loop_
_space_group_symop_operation_xyz
x,y,z
x,-y,1/2+z
1/2+x,1/2+y,z
1/2+x,1/2-y,1/2+z
loop_
_atom_site_type_symbol
_atom_site_label
_atom_site_fract_x
_atom_site_fract_y
_atom_site_fract_z
Si Si1 0.546410 0.180558 0.861630
Si Si2 0.576319 0.895717 0.842751
Si Si3 0.936572 0.122466 0.474568
Si Si4 0.923896 0.393310 0.598691
Si Si5 0.536054 0.948193 0.197840
Si Si6 0.491577 0.253777 0.226105
Si Si7 0.011005 0.924336 0.751668
Si Si8 0.188854 0.909810 0.078397
O O1 0.449497 0.276623 0.924798
O O2 0.465424 0.134185 0.791609
O O3 0.780756 0.199200 0.779162
O O4 0.510336 0.113702 0.964076
O O5 0.499384 0.803356 0.819977
O O6 0.797173 0.886222 0.803650
O O7 0.584761 0.974705 0.760297
O O8 0.414074 0.921562 0.975289
O O9 0.724999 0.092323 0.581258
O O10 0.007772 0.055138 0.366086
O O11 0.081700 0.116886 0.515318
O O12 0.029671 0.319855 0.629797
O O13 0.697833 0.360092 0.672050
O O14 0.925118 0.489947 0.655195
O O15 0.657760 0.328980 0.163498
O O16 0.067959 0.006082 0.662094
#
# Coordination Sequence:
#
# PCOD9139851 Si02
#       8
#     4   4   4   4   4   4   4   4
#     4  12  21  46  78 101 145 193 241 300 362 443
#     4  11  24  48  69 105 150 181 246 306 360 435
#     4  12  24  44  73 104 143 192 245 291 369 436
#     4  11  24  44  74 104 142 194 240 297 373 429
#     4  11  25  42  74 105 138 191 246 293 359 449
#     4  11  21  45  73 106 141 194 238 291 371 445
#     4  12  27  45  69 107 146 187 245 311 361 430
#     4  12  24  48  74 104 145 196 241 299 369 443
#
# _framework density 22.830193000000001
#
# number of rings (size 3 to 8) (size 9 to 14) (size 15 to 20)
#    0.000    0.500    6.250    1.500    5.250    0.000 
#    4.500    0.000    0.000    0.000    0.000    0.000 
#    0.000    0.000    0.000    0.000    0.000    0.000 
#
# Total GULP energy -89382.824996 kJ/mol
# GULP energy per Si atom -5586.426562 kJ/mol
# Density = 2.277823 g / cm^3
# Si number density = 22.830193 Si / 1000 Ang^3
#
#
#
# Elastic Constant Matrix: (Units=GPa)
#
#
# Indices 1 2 3 4 5 6 
#
# 1 66.9044 32.5328 37.2660 0.0000 -3.7330 0.0000
# 2 32.5328 75.7546 50.8273 0.0000 -4.9953 0.0000
# 3 37.2660 50.8273 160.3357 0.0000 4.8087 0.0000
# 4 0.0000 0.0000 0.0000 52.9736 0.0000 4.7273
# 5 -3.7330 -4.9953 4.8087 0.0000 38.8159 0.0000
# 6 0.0000 0.0000 0.0000 4.7273 0.0000 21.6373
#
#
#
# Elastic Compliance Matrix: (Units=1/GPa)
#
#
# Indices 1 2 3 4 5 6 
#
# 1 0.019658 -0.006683 -0.002491 0.000000 0.001339 0.000000
# 2 -0.006683 0.019353 -0.004655 0.000000 0.002425 0.000000
# 3 -0.002491 -0.004655 0.008348 0.000000 -0.001873 0.000000
# 4 0.000000 0.000000 0.000000 0.019253 0.000000 -0.004206
# 5 0.001339 0.002425 -0.001873 0.000000 0.026435 0.000000
# 6 0.000000 0.000000 0.000000 -0.004206 0.000000 0.047136
#
#
# Mechanical properties :
#
#
# Convention : Reuss Voigt Hill
#
# Bulk Modulus (GPa) = 50.75400 60.47189 55.61294
# Shear Modulus (GPa) = 28.66862 34.84325 31.75593
#
# Velocity S-wave (km/s) = 3.54748 3.91089 3.73361
# Velocity P-wave (km/s) = 6.24970 6.85117 6.55734
#
# Compressibility (1/GPa) = 0.01970288
#
# Stress axis : x y z
#
# Youngs Moduli (GPa) = 50.86898 51.67077 119.79613
#
# Poissons Ratio (x) = 0.34531 0.29838
# Poissons Ratio (y) = 0.33995 0.55760
# Poissons Ratio (z) = 0.12670 0.24050
#
# Static dielectric constant tensor:
#      x y z
#    x 1.877070 0.000000 0.027170 
#    y 0.000000 1.930490 0.000000 
#    z 0.027170 0.000000 1.834830 
# 
# From -- ./inp_files/23368.got.cif
#   From: 2010.05.17/outbox.cif.g08.bks.cpg/sg9_12_cif.got.tgz:23368.got - 2010.06.03 20:04:27.
