data_PCOD9139299
_publ_section_title
;
Structure prediction by ZEFSAII (Michael W. Deem and Ramdas Pophale) SiO2 
 PCOD9139299
Probable space group: C C
;
_chemical_formula_sum "Si O2"
_cell_formula_units_Z 32
_cell_length_a 17.681438
_cell_length_b 9.547326
_cell_length_c 13.898345
_cell_angle_alpha 90.000000
_cell_angle_beta 147.370025
_cell_angle_gamma 90.000000
_cell_volume 1265.090309
_symmetry_space_group_name_H-M "C C"
_symmetry_group_IT_number 9
_symmetry_cell_setting 'monoclinic'
loop_
_space_group_symop_operation_xyz
x,y,z
x,-y,1/2+z
1/2+x,1/2+y,z
1/2+x,1/2-y,1/2+z
loop_
_atom_site_type_symbol
_atom_site_label
_atom_site_fract_x
_atom_site_fract_y
_atom_site_fract_z
Si Si1 0.347960 0.578961 0.710380
Si Si2 0.649225 0.543538 0.495189
Si Si3 0.596384 0.862280 0.463049
Si Si4 0.606521 0.074721 0.195264
Si Si5 0.234652 0.795584 0.446481
Si Si6 0.923421 0.340045 0.098824
Si Si7 0.712326 0.491145 0.273581
Si Si8 0.905643 0.940936 0.483581
O O1 0.209955 0.482079 0.560993
O O2 0.332895 0.704353 0.619610
O O3 0.367718 0.631434 0.840901
O O4 0.484231 0.487618 0.834471
O O5 0.661495 0.711382 0.504194
O O6 0.692656 0.434356 0.459959
O O7 0.728934 0.498302 0.678310
O O8 0.567233 0.872757 0.546005
O O9 0.462496 0.878577 0.249797
O O10 0.608110 0.193885 0.278528
O O11 0.523756 0.936897 0.140077
O O12 0.771323 0.030934 0.367024
O O13 0.289029 0.858085 0.403418
O O14 0.770666 0.376373 0.893728
O O15 0.941069 0.176865 0.098768
O O16 0.547111 0.473893 0.116079
#
# Coordination Sequence:
#
# PCOD9139299 Si02
#       8
#     4   4   4   4   4   4   4   4
#     4  10  25  46  75 104 147 199 239 305 374 443
#     4  11  26  47  74 102 150 192 253 302 369 447
#     4  11  25  48  71 110 144 195 245 306 369 451
#     4  11  26  47  75 105 151 201 248 304 375 448
#     4  12  25  44  72 107 143 191 245 300 374 432
#     4  12  25  42  75 111 144 190 250 305 368 439
#     4  11  26  44  70 111 140 195 239 306 367 438
#     4  10  24  48  72 104 155 191 243 302 372 444
#
# _framework density 25.294636000000001
#
# number of rings (size 3 to 8) (size 9 to 14) (size 15 to 20)
#    0.000    1.000    2.500    2.250    5.250    8.000 
#    0.000    0.000    0.000    0.000    0.000    0.000 
#    0.000    0.000    0.000    0.000    0.000    0.000 
#
# Total GULP energy -89607.884802 kJ/mol
# GULP energy per Si atom -5600.492800 kJ/mol
# Density = 2.523706 g / cm^3
# Si number density = 25.294636 Si / 1000 Ang^3
#
#
#
# Elastic Constant Matrix: (Units=GPa)
#
#
# Indices 1 2 3 4 5 6 
#
# 1 89.0929 38.6419 56.2408 0.0000 -28.2619 0.0000
# 2 38.6419 93.7114 33.2143 0.0000 -25.1053 0.0000
# 3 56.2408 33.2143 142.7434 0.0000 -37.2574 0.0000
# 4 0.0000 0.0000 0.0000 46.7296 0.0000 -11.2184
# 5 -28.2619 -25.1053 -37.2574 0.0000 54.9207 0.0000
# 6 0.0000 0.0000 0.0000 -11.2184 0.0000 40.2820
#
#
#
# Elastic Compliance Matrix: (Units=1/GPa)
#
#
# Indices 1 2 3 4 5 6 
#
# 1 0.017379 -0.004478 -0.004867 0.000000 0.003594 0.000000
# 2 -0.004478 0.013653 -0.000468 0.000000 0.003619 0.000000
# 3 -0.004867 -0.000468 0.010113 0.000000 0.004142 0.000000
# 4 0.000000 0.000000 0.000000 0.022933 0.000000 0.006387
# 5 0.003594 0.003619 0.004142 0.000000 0.024522 0.000000
# 6 0.000000 0.000000 0.000000 0.006387 0.000000 0.026604
#
#
# Mechanical properties :
#
#
# Convention : Reuss Voigt Hill
#
# Bulk Modulus (GPa) = 46.47062 64.63796 55.55429
# Shear Modulus (GPa) = 35.21027 41.54985 38.38006
#
# Velocity S-wave (km/s) = 3.73501 4.05734 3.89951
# Velocity P-wave (km/s) = 6.08375 6.89629 6.50272
#
# Compressibility (1/GPa) = 0.02151897
#
# Stress axis : x y z
#
# Youngs Moduli (GPa) = 57.53981 73.24356 98.88004
#
# Poissons Ratio (x) = 0.32801 0.48127
# Poissons Ratio (y) = 0.25768 0.04625
# Poissons Ratio (z) = 0.28006 0.03426
#
# Static dielectric constant tensor:
#      x y z
#    x 2.022590 0.000000 0.012690 
#    y 0.000000 1.955630 0.000000 
#    z 0.012690 0.000000 2.001460 
# 
# From -- ./inp_files/27363.got.cif
#   From: 2010.05.17/outbox.cif.g08.bks.cpg/sg9_14_cif.got.tgz:27363.got - 2010.06.03 20:04:27.
