data_PCOD9139786
_publ_section_title
;
Structure prediction by ZEFSAII (Michael W. Deem and Ramdas Pophale) SiO2 
 PCOD9139786
Probable space group: C C
;
_chemical_formula_sum "Si O2"
_cell_formula_units_Z 32
_cell_length_a 16.451794
_cell_length_b 16.136426
_cell_length_c 9.191018
_cell_angle_alpha 90.000000
_cell_angle_beta 40.381444
_cell_angle_gamma 90.000000
_cell_volume 1580.790318
_symmetry_space_group_name_H-M "C C"
_symmetry_group_IT_number 9
_symmetry_cell_setting 'monoclinic'
loop_
_space_group_symop_operation_xyz
x,y,z
x,-y,1/2+z
1/2+x,1/2+y,z
1/2+x,1/2-y,1/2+z
loop_
_atom_site_type_symbol
_atom_site_label
_atom_site_fract_x
_atom_site_fract_y
_atom_site_fract_z
Si Si1 0.982500 0.537142 0.656410
Si Si2 0.962004 0.333198 0.452052
Si Si3 0.085219 0.013522 0.307382
Si Si4 0.153665 0.371678 0.428913
Si Si5 0.689713 0.919820 0.664238
Si Si6 0.249635 0.057070 0.357256
Si Si7 0.411440 0.649846 0.420318
Si Si8 0.831550 0.941494 0.771991
O O1 0.843759 0.511996 0.795680
O O2 0.063323 0.452743 0.570260
O O3 0.051251 0.571338 0.419436
O O4 0.987505 0.598053 0.789552
O O5 0.839401 0.364753 0.706837
O O6 0.937229 0.244422 0.418762
O O7 0.076365 0.324120 0.410647
O O8 0.189520 0.035162 0.284390
O O9 0.032280 0.092729 0.290168
O O10 0.963800 0.982997 0.558510
O O11 0.137554 0.943763 0.126457
O O12 0.180691 0.346248 0.558495
O O13 0.293203 0.383200 0.176160
O O14 0.768852 0.917043 0.705027
O O15 0.751178 0.996505 0.487239
O O16 0.363208 0.638431 0.323235
#
# Coordination Sequence:
#
# PCOD9139786 Si02
#       8
#     4   4   4   4   4   4   4   4
#     4  11  21  40  67  97 131 180 229 273 325 411
#     4  11  27  44  67 102 143 177 221 288 355 395
#     4  12  22  41  69  95 132 180 231 269 327 416
#     4  11  22  41  69  99 129 179 230 276 326 411
#     4  12  20  37  69 103 128 163 242 280 318 389
#     4  11  24  40  65  97 132 184 228 268 330 414
#     4  12  25  44  70 100 140 179 223 288 349 398
#     4  12  21  39  70 105 127 176 232 286 324 402
#
# _framework density 20.243039
#
# number of rings (size 3 to 8) (size 9 to 14) (size 15 to 20)
#    0.000    0.500    7.500    2.250    3.500    0.000 
#    0.000    2.500    0.000    0.000    0.000    0.000 
#    0.000    0.000    0.000    0.000    0.000    0.000 
#
# Total GULP energy -89145.051625 kJ/mol
# GULP energy per Si atom -5571.565727 kJ/mol
# Density = 2.019696 g / cm^3
# Si number density = 20.243039 Si / 1000 Ang^3
#
#
#
# Elastic Constant Matrix: (Units=GPa)
#
#
# Indices 1 2 3 4 5 6 
#
# 1 164.6560 37.8782 35.3800 0.0000 23.6431 0.0000
# 2 37.8782 69.6261 20.4993 0.0000 6.1177 0.0000
# 3 35.3800 20.4993 84.5639 0.0000 0.5020 0.0000
# 4 0.0000 0.0000 0.0000 9.7086 0.0000 0.8137
# 5 23.6431 6.1177 0.5020 0.0000 37.9113 0.0000
# 6 0.0000 0.0000 0.0000 0.8137 0.0000 13.4333
#
#
#
# Elastic Compliance Matrix: (Units=1/GPa)
#
#
# Indices 1 2 3 4 5 6 
#
# 1 0.007995 -0.003212 -0.002540 0.000000 -0.004434 0.000000
# 2 -0.003212 0.016987 -0.002770 0.000000 -0.000701 0.000000
# 3 -0.002540 -0.002770 0.013548 0.000000 0.001852 0.000000
# 4 0.000000 0.000000 0.000000 0.103527 0.000000 -0.006271
# 5 -0.004434 -0.000701 0.001852 0.000000 0.029231 0.000000
# 6 0.000000 0.000000 0.000000 -0.006271 0.000000 0.074822
#
#
# Mechanical properties :
#
#
# Convention : Reuss Voigt Hill
#
# Bulk Modulus (GPa) = 46.54037 56.26232 51.40135
# Shear Modulus (GPa) = 18.49693 27.21655 22.85674
#
# Velocity S-wave (km/s) = 3.02610 3.67071 3.36388
# Velocity P-wave (km/s) = 5.93720 6.76899 6.36669
#
# Compressibility (1/GPa) = 0.02148672
#
# Stress axis : x y z
#
# Youngs Moduli (GPa) = 125.08551 58.86891 73.80903
#
# Poissons Ratio (x) = 0.18908 0.18746
# Poissons Ratio (y) = 0.40176 0.20444
# Poissons Ratio (z) = 0.31770 0.16306
#
# Static dielectric constant tensor:
#      x y z
#    x 1.801790 0.000000 0.005820 
#    y 0.000000 1.753670 0.000000 
#    z 0.005820 0.000000 1.763080 
# 
# From -- ./inp_files/7872.got.cif
#   From: 2010.05.17/outbox.cif.g08.bks.cpg/sg9_4_cif.got.tgz:7872.got - 2010.06.03 20:04:27.
