data_PCOD9139968
_publ_section_title
;
Structure prediction by ZEFSAII (Michael W. Deem and Ramdas Pophale) SiO2 
 PCOD9139968
Probable space group: C C
;
_chemical_formula_sum "Si O2"
_cell_formula_units_Z 32
_cell_length_a 12.052771
_cell_length_b 9.084098
_cell_length_c 13.803397
_cell_angle_alpha 90.000000
_cell_angle_beta 111.780166
_cell_angle_gamma 90.000000
_cell_volume 1403.427799
_symmetry_space_group_name_H-M "C C"
_symmetry_group_IT_number 9
_symmetry_cell_setting 'monoclinic'
loop_
_space_group_symop_operation_xyz
x,y,z
x,-y,1/2+z
1/2+x,1/2+y,z
1/2+x,1/2-y,1/2+z
loop_
_atom_site_type_symbol
_atom_site_label
_atom_site_fract_x
_atom_site_fract_y
_atom_site_fract_z
Si Si1 0.461320 0.769819 0.526810
Si Si2 0.248906 0.697612 0.574336
Si Si3 0.207264 0.412629 0.672019
Si Si4 0.594111 0.741709 0.381926
Si Si5 0.338740 0.915216 0.959663
Si Si6 0.364048 0.069858 0.239326
Si Si7 0.421727 0.760258 0.162855
Si Si8 0.132256 0.414974 0.855497
O O1 0.380939 0.666393 0.568983
O O2 0.592404 0.815086 0.607032
O O3 0.490033 0.717671 0.427241
O O4 0.383408 0.920438 0.497237
O O5 0.194990 0.577898 0.629769
O O6 0.271092 0.842108 0.644529
O O7 0.166540 0.693558 0.452752
O O8 0.322439 0.358961 0.652215
O O9 0.218688 0.409215 0.791457
O O10 0.705160 0.637422 0.442015
O O11 0.542740 0.718602 0.257275
O O12 0.628509 0.916711 0.395287
O O13 0.343408 0.906427 0.845704
O O14 0.422658 0.808333 0.051381
O O15 0.501325 0.121236 0.271915
O O16 0.371366 0.903060 0.205212
#
# Coordination Sequence:
#
# PCOD9139968 Si02
#       8
#     4   4   4   4   4   4   4   4
#     4  12  22  45  73  98 145 184 235 293 361 420
#     4  12  24  43  74 106 135 190 238 290 359 427
#     4  12  24  45  72  98 146 187 237 295 358 424
#     4  11  23  45  71 102 140 192 237 292 365 419
#     4  12  22  42  74  99 142 191 233 294 363 424
#     4  11  24  42  71 106 136 188 246 286 359 427
#     4  11  23  45  70 100 141 192 233 298 365 420
#     4  11  22  43  73  99 143 190 231 300 354 417
#
# _framework density 22.801317000000001
#
# number of rings (size 3 to 8) (size 9 to 14) (size 15 to 20)
#    0.000    0.500    7.500    2.250    0.000    1.000 
#    4.500    0.000   13.750    0.000    0.000    0.000 
#    0.000    0.000    0.000    0.000    0.000    0.000 
#
# Total GULP energy -89389.057713 kJ/mol
# GULP energy per Si atom -5586.816107 kJ/mol
# Density = 2.274942 g / cm^3
# Si number density = 22.801317 Si / 1000 Ang^3
#
#
#
# Elastic Constant Matrix: (Units=GPa)
#
#
# Indices 1 2 3 4 5 6 
#
# 1 44.6962 11.9257 3.2518 0.0000 5.5511 0.0000
# 2 11.9257 20.5709 17.2139 0.0000 12.0781 0.0000
# 3 3.2518 17.2139 108.9154 0.0000 -11.3676 0.0000
# 4 0.0000 0.0000 0.0000 20.1153 0.0000 5.6730
# 5 5.5511 12.0781 -11.3676 0.0000 51.8356 0.0000
# 6 0.0000 0.0000 0.0000 5.6730 0.0000 39.1825
#
#
#
# Elastic Compliance Matrix: (Units=1/GPa)
#
#
# Indices 1 2 3 4 5 6 
#
# 1 0.026968 -0.018808 0.002378 0.000000 0.002016 0.000000
# 2 -0.018808 0.084293 -0.014943 0.000000 -0.020904 0.000000
# 3 0.002378 -0.014943 0.012086 0.000000 0.005877 0.000000
# 4 0.000000 0.000000 0.000000 0.051830 0.000000 -0.007504
# 5 0.002016 -0.020904 0.005877 0.000000 0.025236 0.000000
# 6 0.000000 0.000000 0.000000 -0.007504 0.000000 0.026608
#
#
# Mechanical properties :
#
#
# Convention : Reuss Voigt Hill
#
# Bulk Modulus (GPa) = 16.50112 26.55171 21.52642
# Shear Modulus (GPa) = 16.13080 31.67943 23.90511
#
# Velocity S-wave (km/s) = 2.66268 3.73147 3.24143
# Velocity P-wave (km/s) = 4.08727 5.49866 4.84464
#
# Compressibility (1/GPa) = 0.06060194
#
# Stress axis : x y z
#
# Youngs Moduli (GPa) = 37.08079 11.86334 82.74358
#
# Poissons Ratio (x) = 0.22312 -0.19674
# Poissons Ratio (y) = 0.69740 1.23640
# Poissons Ratio (z) = -0.08817 0.17727
#
# Static dielectric constant tensor:
#      x y z
#    x 1.878800 0.000000 -0.031560 
#    y 0.000000 1.859130 0.000000 
#    z -0.031560 0.000000 1.894800 
# 
# From -- ./inp_files/24406.got.cif
#   From: 2010.05.17/outbox.cif.g08.bks.cpg/sg9_13_cif.got.tgz:24406.got - 2010.06.03 20:04:27.
