data_PCOD9139171
_publ_section_title
;
Structure prediction by ZEFSAII (Michael W. Deem and Ramdas Pophale) SiO2 
 PCOD9139171
Probable space group: C C
;
_chemical_formula_sum "Si O2"
_cell_formula_units_Z 28
_cell_length_a 9.143070
_cell_length_b 26.704169
_cell_length_c 8.943976
_cell_angle_alpha 90.000000
_cell_angle_beta 146.207813
_cell_angle_gamma 90.000000
_cell_volume 1214.559786
_symmetry_space_group_name_H-M "C C"
_symmetry_group_IT_number 9
_symmetry_cell_setting 'monoclinic'
loop_
_space_group_symop_operation_xyz
x,y,z
x,-y,1/2+z
1/2+x,1/2+y,z
1/2+x,1/2-y,1/2+z
loop_
_atom_site_type_symbol
_atom_site_label
_atom_site_fract_x
_atom_site_fract_y
_atom_site_fract_z
Si Si1 0.851350 0.782887 0.209620
Si Si2 0.599888 0.618303 0.401092
Si Si3 0.571340 0.126588 0.598346
Si Si4 0.829654 0.589207 0.120096
Si Si5 0.467578 0.717156 0.461753
Si Si6 0.444518 0.452516 0.503381
Si Si7 0.413841 0.433915 0.029416
O O1 0.779489 0.829773 0.252274
O O2 0.102159 0.754094 0.487082
O O3 0.898855 0.797442 0.075388
O O4 0.481980 0.669256 0.366757
O O5 0.475999 0.590790 0.153274
O O6 0.553111 0.578585 0.492170
O O7 0.895270 0.629280 0.596240
O O8 0.390061 0.131262 0.295207
O O9 0.703153 0.071136 0.704588
O O10 0.701093 0.546129 0.115621
O O11 0.107963 0.581161 0.276519
O O12 0.599188 0.594987 0.804565
O O13 0.245318 0.754618 0.212286
O O14 0.410656 0.506243 0.547266
#
# Coordination Sequence:
#
# PCOD9139171 Si02
#       7
#     4   4   4   4   4   4   4
#     4  10  24  45  75 105 140 191 246 297 363 448
#     4  11  28  44  74 111 150 192 240 307 377 426
#     4  11  26  48  72 108 151 187 248 300 375 439
#     4  11  26  46  71  98 136 196 238 298 349 437
#     4  10  24  46  72 106 144 186 243 298 362 440
#     4  11  27  47  69 107 148 192 248 302 366 440
#     4  12  27  46  75 101 145 196 253 298 364 428
#
# _framework density 23.053621
#
# number of rings (size 3 to 8) (size 9 to 14) (size 15 to 20)
#    0.000    1.143    1.429    1.714   14.000    3.429 
#    0.000    0.000    0.000    0.000    0.000    0.000 
#    0.000    0.000    0.000    0.000    0.000    0.000 
#
# Total GULP energy -78215.168828 kJ/mol
# GULP energy per Si atom -5586.797773 kJ/mol
# Density = 2.300115 g / cm^3
# Si number density = 23.053621 Si / 1000 Ang^3
#
#
#
# Elastic Constant Matrix: (Units=GPa)
#
#
# Indices 1 2 3 4 5 6 
#
# 1 111.1298 32.5467 25.4428 0.0000 14.6147 0.0000
# 2 32.5467 118.3985 30.3811 0.0000 7.3783 0.0000
# 3 25.4428 30.3811 113.6552 0.0000 16.3298 0.0000
# 4 0.0000 0.0000 0.0000 20.4117 0.0000 -1.9723
# 5 14.6147 7.3783 16.3298 0.0000 31.9624 0.0000
# 6 0.0000 0.0000 0.0000 -1.9723 0.0000 40.2951
#
#
#
# Elastic Compliance Matrix: (Units=1/GPa)
#
#
# Indices 1 2 3 4 5 6 
#
# 1 0.010432 -0.002336 -0.001190 0.000000 -0.003622 0.000000
# 2 -0.002336 0.009617 -0.002031 0.000000 -0.000114 0.000000
# 3 -0.001190 -0.002031 0.010212 0.000000 -0.004204 0.000000
# 4 0.000000 0.000000 0.000000 0.049224 0.000000 0.002409
# 5 -0.003622 -0.000114 -0.004204 0.000000 0.035117 0.000000
# 6 0.000000 0.000000 0.000000 0.002409 0.000000 0.024935
#
#
# Mechanical properties :
#
#
# Convention : Reuss Voigt Hill
#
# Bulk Modulus (GPa) = 52.23417 57.76940 55.00179
# Shear Modulus (GPa) = 31.84024 35.52137 33.68081
#
# Velocity S-wave (km/s) = 3.72040 3.92958 3.82642
# Velocity P-wave (km/s) = 6.41576 6.76032 6.59029
#
# Compressibility (1/GPa) = 0.01914456
#
# Stress axis : x y z
#
# Youngs Moduli (GPa) = 95.86226 103.98660 97.92386
#
# Poissons Ratio (x) = 0.24296 0.11655
# Poissons Ratio (y) = 0.22397 0.19891
# Poissons Ratio (z) = 0.11410 0.21122
#
# Static dielectric constant tensor:
#      x y z
#    x 1.875580 0.000000 -0.011940 
#    y 0.000000 1.842560 0.000000 
#    z -0.011940 0.000000 1.923590 
# 
# From -- ./inp_files/6406.got.cif
#   From: 2010.05.17/outbox.cif.g08.bks.cpg/sg9_4_cif.got.tgz:6406.got - 2010.06.03 20:04:27.
