data_PCOD9139174
_publ_section_title
;
Structure prediction by ZEFSAII (Michael W. Deem and Ramdas Pophale) SiO2 
 PCOD9139174
Probable space group: C C
;
_chemical_formula_sum "Si O2"
_cell_formula_units_Z 28
_cell_length_a 19.942531
_cell_length_b 5.012042
_cell_length_c 22.422971
_cell_angle_alpha 90.000000
_cell_angle_beta 154.360547
_cell_angle_gamma 90.000000
_cell_volume 969.798899
_symmetry_space_group_name_H-M "C C"
_symmetry_group_IT_number 9
_symmetry_cell_setting 'monoclinic'
loop_
_space_group_symop_operation_xyz
x,y,z
x,-y,1/2+z
1/2+x,1/2+y,z
1/2+x,1/2-y,1/2+z
loop_
_atom_site_type_symbol
_atom_site_label
_atom_site_fract_x
_atom_site_fract_y
_atom_site_fract_z
Si Si1 0.004780 0.400585 0.325200
Si Si2 0.150531 0.389739 0.321341
Si Si3 0.752587 0.834513 0.714306
Si Si4 0.402313 0.238227 0.066460
Si Si5 0.578165 0.649295 0.034880
Si Si6 0.251684 0.242585 0.064776
Si Si7 0.812609 0.508392 0.373032
O O1 0.049974 0.281513 0.296629
O O2 0.169511 0.469691 0.488725
O O3 0.886733 0.259335 0.275744
O O4 0.907925 0.668075 0.226221
O O5 0.320154 0.482500 0.481445
O O6 0.167818 0.179541 0.281892
O O7 0.064230 0.655182 0.227227
O O8 0.609466 0.636716 0.586464
O O9 0.787673 0.739734 0.809259
O O10 0.699291 0.131559 0.657162
O O11 0.283783 0.146317 0.023755
O O12 0.395843 0.077819 0.000318
O O13 0.617299 0.616948 0.996980
O O14 0.417956 0.784331 0.921256
#
# Coordination Sequence:
#
# PCOD9139174 Si02
#       7
#     4   4   4   4   4   4   4
#     4   9  19  46  70 111 148 203 259 323 382 468
#     4  10  24  47  73 116 152 212 263 327 397 472
#     4  11  26  47  73 109 153 206 256 322 391 467
#     4  10  24  45  76 106 157 203 261 328 394 471
#     4  11  26  47  75 107 154 201 264 318 393 462
#     4   9  19  46  72 108 144 199 259 318 385 456
#     4  12  26  44  73 113 158 206 260 328 398 480
#
# _framework density 28.871966
#
# number of rings (size 3 to 8) (size 9 to 14) (size 15 to 20)
#    0.000    1.714    1.429    0.857    6.000    1.143 
#   30.857    0.000    0.000    0.000    0.000    0.000 
#    0.000    0.000    0.000    0.000    0.000    0.000 
#
# Total GULP energy -78353.156722 kJ/mol
# GULP energy per Si atom -5596.654052 kJ/mol
# Density = 2.880625 g / cm^3
# Si number density = 28.871966 Si / 1000 Ang^3
#
#
#
# Elastic Constant Matrix: (Units=GPa)
#
#
# Indices 1 2 3 4 5 6 
#
# 1 203.0601 74.2225 80.0459 -0.0002 8.1451 -0.0010
# 2 74.2225 79.2218 33.4389 0.0039 5.1712 0.0064
# 3 80.0459 33.4389 114.6669 0.0015 -1.1920 0.0010
# 4 -0.0002 0.0039 0.0015 48.7328 -0.0002 8.8711
# 5 8.1451 5.1712 -1.1920 -0.0002 46.4820 0.0000
# 6 -0.0010 0.0064 0.0010 8.8711 0.0000 26.2345
#
#
#
# Elastic Compliance Matrix: (Units=1/GPa)
#
#
# Indices 1 2 3 4 5 6 
#
# 1 0.009142 -0.006617 -0.004462 0.000000 -0.000980 0.000002
# 2 -0.006617 0.019322 -0.001026 -0.000001 -0.001016 -0.000005
# 3 -0.004462 -0.001026 0.012147 0.000000 0.001208 0.000000
# 4 0.000000 -0.000001 0.000000 0.021866 0.000000 -0.007394
# 5 -0.000980 -0.001016 0.001208 0.000000 0.021830 0.000000
# 6 0.000002 -0.000005 0.000000 -0.007394 0.000000 0.040618
#
#
# Mechanical properties :
#
#
# Convention : Reuss Voigt Hill
#
# Bulk Modulus (GPa) = 60.97308 85.81815 73.39561
# Shear Modulus (GPa) = 32.34118 38.23928 35.29023
#
# Velocity S-wave (km/s) = 3.35051 3.64324 3.49993
# Velocity P-wave (km/s) = 6.01100 6.89099 6.46599
#
# Compressibility (1/GPa) = 0.01640068
#
# Stress axis : x y z
#
# Youngs Moduli (GPa) = 109.38909 51.75470 82.32231
#
# Poissons Ratio (x) = 0.34248 0.36732
# Poissons Ratio (y) = 0.72388 0.08444
# Poissons Ratio (z) = 0.48809 0.05309
#
# Static dielectric constant tensor:
#      x y z
#    x 2.165610 0.000000 0.029980 
#    y 0.000000 2.236450 0.000000 
#    z 0.029980 0.000000 2.435530 
# 
# From -- ./inp_files/35898.got.cif
#   From: 2010.05.17/outbox.cif.g08.bks.cpg/sg9_18_cif.got.tgz:35898.got - 2010.06.03 20:04:27.
