data_PCOD9139515
_publ_section_title
;
Structure prediction by ZEFSAII (Michael W. Deem and Ramdas Pophale) SiO2 
 PCOD9139515
Probable space group: C C
;
_chemical_formula_sum "Si O2"
_cell_formula_units_Z 28
_cell_length_a 9.419130
_cell_length_b 11.364058
_cell_length_c 13.273053
_cell_angle_alpha 90.000000
_cell_angle_beta 135.251563
_cell_angle_gamma 90.000000
_cell_volume 1000.195398
_symmetry_space_group_name_H-M "C C"
_symmetry_group_IT_number 9
_symmetry_cell_setting 'monoclinic'
loop_
_space_group_symop_operation_xyz
x,y,z
x,-y,1/2+z
1/2+x,1/2+y,z
1/2+x,1/2-y,1/2+z
loop_
_atom_site_type_symbol
_atom_site_label
_atom_site_fract_x
_atom_site_fract_y
_atom_site_fract_z
Si Si1 0.760610 0.690396 0.729610
Si Si2 0.694484 0.158313 0.892037
Si Si3 0.747206 0.924232 0.634334
Si Si4 0.053619 0.005006 0.520641
Si Si5 0.311399 0.103272 0.977980
Si Si6 0.797261 0.671167 0.281509
Si Si7 0.751590 0.827500 0.074248
O O1 0.806770 0.830215 0.748502
O O2 0.737251 0.652279 0.833477
O O3 0.353656 0.784100 0.571109
O O4 0.958495 0.632188 0.777558
O O5 0.733501 0.282779 0.858652
O O6 0.751049 0.158423 0.037726
O O7 0.835465 0.057981 0.912803
O O8 0.520420 0.959031 0.554259
O O9 0.840338 0.043763 0.638723
O O10 0.158776 0.974198 0.467313
O O11 0.182322 0.936308 0.672880
O O12 0.079618 0.137855 0.570519
O O13 0.728697 0.222402 0.675035
O O14 0.038471 0.658184 0.408525
#
# Coordination Sequence:
#
# PCOD9139515 Si02
#       7
#     4   4   4   4   4   4   4
#     4  11  27  48  74 119 165 207 280 346 414 500
#     4  11  24  48  70 114 152 208 267 342 406 489
#     4  11  27  46  74 115 163 209 266 347 413 493
#     4  11  25  48  81 111 157 219 269 341 419 498
#     4  10  25  48  72 115 157 213 274 337 413 495
#     4  11  22  46  77 111 145 205 280 322 409 494
#     4  11  26  46  80 113 155 213 272 335 412 497
#
# _framework density 27.994527999999999
#
# number of rings (size 3 to 8) (size 9 to 14) (size 15 to 20)
#    0.000    1.143    2.857    2.571    8.000    2.286 
#    2.571    1.429    0.000    0.000    0.000    0.000 
#    0.000    0.000    0.000    0.000    0.000    0.000 
#
# Total GULP energy -78414.612038 kJ/mol
# GULP energy per Si atom -5601.043717 kJ/mol
# Density = 2.793081 g / cm^3
# Si number density = 27.994528 Si / 1000 Ang^3
#
#
#
# Elastic Constant Matrix: (Units=GPa)
#
#
# Indices 1 2 3 4 5 6 
#
# 1 156.4563 29.4125 8.6978 0.0000 -2.7291 0.0000
# 2 29.4125 125.9160 19.9015 0.0000 -9.5785 0.0000
# 3 8.6978 19.9015 98.7943 0.0000 -4.6412 0.0000
# 4 0.0000 0.0000 0.0000 27.9455 0.0000 -9.7356
# 5 -2.7291 -9.5785 -4.6412 0.0000 45.9747 0.0000
# 6 0.0000 0.0000 0.0000 -9.7356 0.0000 55.1464
#
#
#
# Elastic Compliance Matrix: (Units=1/GPa)
#
#
# Indices 1 2 3 4 5 6 
#
# 1 0.006693 -0.001515 -0.000282 0.000000 0.000053 0.000000
# 2 -0.001515 0.008657 -0.001537 0.000000 0.001559 0.000000
# 3 -0.000282 -0.001537 0.010490 0.000000 0.000722 0.000000
# 4 0.000000 0.000000 0.000000 0.038129 0.000000 0.006731
# 5 0.000053 0.001559 0.000722 0.000000 0.022152 0.000000
# 6 0.000000 0.000000 0.000000 0.006731 0.000000 0.019322
#
#
# Mechanical properties :
#
#
# Convention : Reuss Voigt Hill
#
# Bulk Modulus (GPa) = 52.15663 55.24334 53.69998
# Shear Modulus (GPa) = 42.19345 47.35698 44.77522
#
# Velocity S-wave (km/s) = 3.88648 4.11743 4.00362
# Velocity P-wave (km/s) = 6.22986 6.51005 6.37150
#
# Compressibility (1/GPa) = 0.01917302
#
# Stress axis : x y z
#
# Youngs Moduli (GPa) = 149.41167 115.51089 95.32484
#
# Poissons Ratio (x) = 0.17498 0.02684
# Poissons Ratio (y) = 0.22633 0.14655
# Poissons Ratio (z) = 0.04207 0.17758
#
# Static dielectric constant tensor:
#      x y z
#    x 2.199180 0.000000 0.080630 
#    y 0.000000 2.170990 0.000000 
#    z 0.080630 0.000000 2.233490 
# 
# From -- ./inp_files/14477.got.cif
#   From: 2010.05.17/outbox.cif.g08.bks.cpg/sg9_8_cif.got.tgz:14477.got - 2010.06.03 20:04:27.
