data_PCOD9139801
_publ_section_title
;
Structure prediction by ZEFSAII (Michael W. Deem and Ramdas Pophale) SiO2 
 PCOD9139801
Probable space group: C C
;
_chemical_formula_sum "Si O2"
_cell_formula_units_Z 32
_cell_length_a 10.296166
_cell_length_b 11.947764
_cell_length_c 14.682163
_cell_angle_alpha 90.000000
_cell_angle_beta 130.934964
_cell_angle_gamma 90.000000
_cell_volume 1364.457812
_symmetry_space_group_name_H-M "C C"
_symmetry_group_IT_number 9
_symmetry_cell_setting 'monoclinic'
loop_
_space_group_symop_operation_xyz
x,y,z
x,-y,1/2+z
1/2+x,1/2+y,z
1/2+x,1/2-y,1/2+z
loop_
_atom_site_type_symbol
_atom_site_label
_atom_site_fract_x
_atom_site_fract_y
_atom_site_fract_z
Si Si1 0.121830 0.087393 0.035770
Si Si2 0.975724 0.315630 0.774525
Si Si3 0.793193 0.074514 0.697598
Si Si4 0.023493 0.719721 0.024513
Si Si5 0.258851 0.973686 0.402279
Si Si6 0.968754 0.326842 0.976783
Si Si7 0.296324 0.659927 0.283869
Si Si8 0.990134 0.076745 0.623765
O O1 0.310492 0.118185 0.161715
O O2 0.039888 0.989791 0.057167
O O3 0.161272 0.055155 0.950206
O O4 0.997199 0.194342 0.993064
O O5 0.906271 0.188072 0.753610
O O6 0.018526 0.356022 0.895625
O O7 0.141826 0.325994 0.786766
O O8 0.600677 0.119834 0.608977
O O9 0.841295 0.028816 0.619047
O O10 0.819361 0.972229 0.777416
O O11 0.933690 0.598942 0.984995
O O12 0.962023 0.777492 0.902156
O O13 0.217714 0.709077 0.152475
O O14 0.942300 0.800055 0.065800
O O15 0.154962 0.932816 0.266115
O O16 0.292944 0.106318 0.411444
#
# Coordination Sequence:
#
# PCOD9139801 Si02
#       8
#     4   4   4   4   4   4   4   4
#     4  11  24  41  69  99 139 184 228 286 358 419
#     4  11  21  42  68 100 133 179 236 290 345 424
#     4  11  23  42  69  99 138 181 237 288 349 428
#     4  12  23  43  69 101 134 177 235 289 344 418
#     4  12  23  47  72 100 139 182 234 295 354 422
#     4  11  23  43  70 100 135 180 238 290 348 422
#     4  12  24  42  73 102 136 185 238 288 357 419
#     4  12  25  44  66 103 142 182 230 292 357 418
#
# _framework density 23.452541
#
# number of rings (size 3 to 8) (size 9 to 14) (size 15 to 20)
#    0.000    0.500    6.250    3.000    3.500    0.000 
#    2.250    0.000    2.750    0.000    0.000    0.000 
#    0.000    0.000    0.000    0.000    0.000    0.000 
#
# Total GULP energy -89373.131701 kJ/mol
# GULP energy per Si atom -5585.820731 kJ/mol
# Density = 2.339916 g / cm^3
# Si number density = 23.452541 Si / 1000 Ang^3
#
#
#
# Elastic Constant Matrix: (Units=GPa)
#
#
# Indices 1 2 3 4 5 6 
#
# 1 24.6884 33.5334 7.9535 0.0000 -4.4552 0.0000
# 2 33.5334 103.5724 28.2041 0.0000 -8.2564 0.0000
# 3 7.9535 28.2041 135.1871 0.0000 -3.2869 0.0000
# 4 0.0000 0.0000 0.0000 38.7514 0.0000 -2.4826
# 5 -4.4552 -8.2564 -3.2869 0.0000 27.2856 0.0000
# 6 0.0000 0.0000 0.0000 -2.4826 0.0000 42.0406
#
#
#
# Elastic Compliance Matrix: (Units=1/GPa)
#
#
# Indices 1 2 3 4 5 6 
#
# 1 0.072993 -0.023436 0.000714 0.000000 0.004913 0.000000
# 2 -0.023436 0.017987 -0.002341 0.000000 0.001334 0.000000
# 3 0.000714 -0.002341 0.007852 0.000000 0.000354 0.000000
# 4 0.000000 0.000000 0.000000 0.025904 0.000000 0.001530
# 5 0.004913 0.001334 0.000354 0.000000 0.037898 0.000000
# 6 0.000000 0.000000 0.000000 0.001530 0.000000 0.023877
#
#
# Mechanical properties :
#
#
# Convention : Reuss Voigt Hill
#
# Bulk Modulus (GPa) = 20.53097 44.75889 32.64493
# Shear Modulus (GPa) = 19.77289 34.53264 27.15277
#
# Velocity S-wave (km/s) = 2.90677 3.84141 3.40630
# Velocity P-wave (km/s) = 4.47650 6.22909 5.42405
#
# Compressibility (1/GPa) = 0.04870690
#
# Stress axis : x y z
#
# Youngs Moduli (GPa) = 13.69989 55.59658 127.35276
#
# Poissons Ratio (x) = 1.30295 -0.09098
# Poissons Ratio (y) = 0.32107 0.29818
# Poissons Ratio (z) = -0.00979 0.13017
#
# Static dielectric constant tensor:
#      x y z
#    x 1.869360 0.000000 0.043440 
#    y 0.000000 1.903380 0.000000 
#    z 0.043440 0.000000 1.994490 
# 
# From -- ./inp_files/20959.got.cif
#   From: 2010.05.17/outbox.cif.g08.bks.cpg/sg9_11_cif.got.tgz:20959.got - 2010.06.03 20:04:27.
