data_PCOD9139097
_publ_section_title
;
Structure prediction by ZEFSAII (Michael W. Deem and Ramdas Pophale) SiO2 
 PCOD9139097
Probable space group: C C
;
_chemical_formula_sum "Si O2"
_cell_formula_units_Z 20
_cell_length_a 5.681721
_cell_length_b 27.488278
_cell_length_c 4.902071
_cell_angle_alpha 90.000000
_cell_angle_beta 84.454903
_cell_angle_gamma 90.000000
_cell_volume 762.026304
_symmetry_space_group_name_H-M "C C"
_symmetry_group_IT_number 9
_symmetry_cell_setting 'monoclinic'
loop_
_space_group_symop_operation_xyz
x,y,z
x,-y,1/2+z
1/2+x,1/2+y,z
1/2+x,1/2-y,1/2+z
loop_
_atom_site_type_symbol
_atom_site_label
_atom_site_fract_x
_atom_site_fract_y
_atom_site_fract_z
Si Si1 0.076710 0.892695 0.327390
Si Si2 0.438209 0.533040 0.445300
Si Si3 0.569364 0.912861 0.250775
Si Si4 0.626496 0.191322 0.567240
Si Si5 0.414841 0.294126 0.534202
O O1 0.315067 0.916590 0.414716
O O2 0.062206 0.916468 0.023147
O O3 0.798187 0.905137 0.426118
O O4 0.087636 0.835233 0.390599
O O5 0.496352 0.508497 0.158226
O O6 0.161948 0.544788 0.542209
O O7 0.541423 0.863841 0.071298
O O8 0.485378 0.238381 0.488960
O O9 0.681407 0.199622 0.878735
O O10 0.860748 0.194073 0.353276
#
# Coordination Sequence:
#
# PCOD9139097 Si02
#       5
#     4   4   4   4   4
#     4   9  22  43  68  99 137 174 228 277 339 398
#     4  10  24  44  70  98 134 178 228 282 340 396
#     4   9  22  43  68  99 137 174 228 277 339 398
#     4  11  23  41  66 100 138 181 224 275 336 405
#     4  11  23  41  66 100 138 181 224 275 336 405
#
# _framework density 26.245813999999999
#
# number of rings (size 3 to 8) (size 9 to 14) (size 15 to 20)
#    1.200    0.800    0.000    2.400    2.800    4.800 
#    0.000    8.000    0.000    0.000    0.000    0.000 
#    0.000    0.000    0.000    0.000    0.000    0.000 
#
# Total GULP energy -55703.460551 kJ/mol
# GULP energy per Si atom -5570.346055 kJ/mol
# Density = 2.618608 g / cm^3
# Si number density = 26.245814 Si / 1000 Ang^3
#
#
#
# Elastic Constant Matrix: (Units=GPa)
#
#
# Indices 1 2 3 4 5 6 
#
# 1 129.4983 20.8880 18.3538 0.0000 -7.7229 0.0000
# 2 20.8880 151.4549 50.3839 0.0000 -18.0394 0.0000
# 3 18.3538 50.3839 82.9738 0.0000 -17.1821 0.0000
# 4 0.0000 0.0000 0.0000 46.1843 0.0000 1.8872
# 5 -7.7229 -18.0394 -17.1821 0.0000 17.7564 0.0000
# 6 0.0000 0.0000 0.0000 1.8872 0.0000 48.3914
#
#
#
# Elastic Compliance Matrix: (Units=1/GPa)
#
#
# Indices 1 2 3 4 5 6 
#
# 1 0.008074 -0.000528 -0.001062 0.000000 0.001947 0.000000
# 2 -0.000528 0.008597 -0.004180 0.000000 0.004460 0.000000
# 3 -0.001062 -0.004180 0.017321 0.000000 0.012052 0.000000
# 4 0.000000 0.000000 0.000000 0.021687 0.000000 -0.000846
# 5 0.001947 0.004460 0.012052 0.000000 0.073358 0.000000
# 6 0.000000 0.000000 0.000000 -0.000846 0.000000 0.020698
#
#
# Mechanical properties :
#
#
# Convention : Reuss Voigt Hill
#
# Bulk Modulus (GPa) = 44.54057 60.35314 52.44686
# Shear Modulus (GPa) = 29.62802 40.75318 35.19060
#
# Velocity S-wave (km/s) = 3.36351 3.94477 3.66568
# Velocity P-wave (km/s) = 5.66495 6.61767 6.15975
#
# Compressibility (1/GPa) = 0.02245144
#
# Stress axis : x y z
#
# Youngs Moduli (GPa) = 123.85487 116.31640 57.73368
#
# Poissons Ratio (x) = 0.06145 0.06131
# Poissons Ratio (y) = 0.06544 0.24133
# Poissons Ratio (z) = 0.13152 0.48622
#
# Static dielectric constant tensor:
#      x y z
#    x 2.153370 0.000000 -0.030820 
#    y 0.000000 2.116350 0.000000 
#    z -0.030820 0.000000 2.009750 
# 
# From -- ./inp_files/262.got.cif
#   From: 2010.05.17/outbox.cif.g08.bks.cpg/sg9_1_cif.got.tgz:262.got - 2010.06.03 20:04:27.
