data_PCOD9139052
_publ_section_title
;
Structure prediction by ZEFSAII (Michael W. Deem and Ramdas Pophale) SiO2 
 PCOD9139052
Probable space group: C C
;
_chemical_formula_sum "Si O2"
_cell_formula_units_Z 24
_cell_length_a 4.925062
_cell_length_b 16.271381
_cell_length_c 13.025008
_cell_angle_alpha 90.000000
_cell_angle_beta 65.165666
_cell_angle_gamma 90.000000
_cell_volume 947.268669
_symmetry_space_group_name_H-M "C C"
_symmetry_group_IT_number 9
_symmetry_cell_setting 'monoclinic'
loop_
_space_group_symop_operation_xyz
x,y,z
x,-y,1/2+z
1/2+x,1/2+y,z
1/2+x,1/2-y,1/2+z
loop_
_atom_site_type_symbol
_atom_site_label
_atom_site_fract_x
_atom_site_fract_y
_atom_site_fract_z
Si Si1 0.576690 0.507834 0.545860
Si Si2 0.751659 0.026226 0.915483
Si Si3 0.840772 0.267039 0.147339
Si Si4 0.221772 0.823141 0.945279
Si Si5 0.161231 0.313130 0.296607
Si Si6 0.280871 0.598181 0.249838
O O1 0.497897 0.452855 0.459924
O O2 0.530668 0.602857 0.524390
O O3 0.337554 0.476583 0.664660
O O4 0.926281 0.495318 0.516451
O O5 0.699382 0.100905 0.847645
O O6 0.878202 0.944876 0.839492
O O7 0.484799 0.279492 0.211269
O O8 0.933626 0.175496 0.170166
O O9 0.967829 0.318808 0.223567
O O10 0.892452 0.285226 0.018524
O O11 0.067196 0.753174 0.900513
O O12 0.457154 0.869206 0.833562
#
# Coordination Sequence:
#
# PCOD9139052 Si02
#       6
#     4   4   4   4   4   4
#     4  11  24  42  66  95 132 178 222 280 345 406
#     4  11  24  42  67  98 132 175 226 282 343 408
#     4  11  24  42  68  98 135 182 226 283 347 408
#     4  10  24  45  70 101 140 182 231 286 344 412
#     4  11  24  43  68 101 136 178 231 285 344 412
#     4  10  24  44  67  97 135 175 226 280 337 408
#
# _framework density 25.335999000000001
#
# number of rings (size 3 to 8) (size 9 to 14) (size 15 to 20)
#    0.000    1.333    0.000    4.000    0.000   16.000 
#    0.000    0.000    0.000    0.000    0.000    0.000 
#    0.000    0.000    0.000    0.000    0.000    0.000 
#
# Total GULP energy -66989.687104 kJ/mol
# GULP energy per Si atom -5582.473925 kJ/mol
# Density = 2.527833 g / cm^3
# Si number density = 25.335999 Si / 1000 Ang^3
#
#
#
# Elastic Constant Matrix: (Units=GPa)
#
#
# Indices 1 2 3 4 5 6 
#
# 1 86.3947 7.1720 57.3643 0.0000 24.6764 0.0000
# 2 7.1720 107.1994 59.6596 0.0000 -15.6438 0.0000
# 3 57.3643 59.6596 120.5594 0.0000 2.2734 0.0000
# 4 0.0000 0.0000 0.0000 29.1965 0.0000 18.5243
# 5 24.6764 -15.6438 2.2734 0.0000 18.2579 0.0000
# 6 0.0000 0.0000 0.0000 18.5243 0.0000 14.2125
#
#
#
# Elastic Compliance Matrix: (Units=1/GPa)
#
#
# Indices 1 2 3 4 5 6 
#
# 1 0.035048 -0.000285 -0.015674 0.000000 -0.045661 0.000000
# 2 -0.000285 0.016069 -0.008102 0.000000 0.015163 0.000000
# 3 -0.015674 -0.008102 0.019540 0.000000 0.011809 0.000000
# 4 0.000000 0.000000 0.000000 0.197933 0.000000 -0.257982
# 5 -0.045661 0.015163 0.011809 0.000000 0.128005 0.000000
# 6 0.000000 0.000000 0.000000 -0.257982 0.000000 0.406611
#
#
# Mechanical properties :
#
#
# Convention : Reuss Voigt Hill
#
# Bulk Modulus (GPa) = 44.37851 62.50505 53.44178
# Shear Modulus (GPa) = 5.82181 24.99723 15.40952
#
# Velocity S-wave (km/s) = 1.51751 3.14447 2.46886
# Velocity P-wave (km/s) = 4.54142 6.15692 5.40981
#
# Compressibility (1/GPa) = 0.02253343
#
# Stress axis : x y z
#
# Youngs Moduli (GPa) = 28.53246 62.23008 51.17822
#
# Poissons Ratio (x) = 0.01774 0.80218
# Poissons Ratio (y) = 0.00813 0.41466
# Poissons Ratio (z) = 0.44723 0.50421
#
# Static dielectric constant tensor:
#      x y z
#    x 1.968240 0.000000 -0.002710 
#    y 0.000000 2.366270 0.000000 
#    z -0.002710 0.000000 2.128700 
# 
# From -- ./inp_files/12948.got.cif
#   From: 2010.05.17/outbox.cif.g08.bks.cpg/sg9_7_cif.got.tgz:12948.got - 2010.06.03 20:04:27.
