data_PCOD9139194
_publ_section_title
;
Structure prediction by ZEFSAII (Michael W. Deem and Ramdas Pophale) SiO2 
 PCOD9139194
Probable space group: C C
;
_chemical_formula_sum "Si O2"
_cell_formula_units_Z 28
_cell_length_a 15.397419
_cell_length_b 16.899147
_cell_length_c 6.801417
_cell_angle_alpha 90.000000
_cell_angle_beta 141.986917
_cell_angle_gamma 90.000000
_cell_volume 1089.885794
_symmetry_space_group_name_H-M "C C"
_symmetry_group_IT_number 9
_symmetry_cell_setting 'monoclinic'
loop_
_space_group_symop_operation_xyz
x,y,z
x,-y,1/2+z
1/2+x,1/2+y,z
1/2+x,1/2-y,1/2+z
loop_
_atom_site_type_symbol
_atom_site_label
_atom_site_fract_x
_atom_site_fract_y
_atom_site_fract_z
Si Si1 0.532460 0.436033 0.182090
Si Si2 0.998873 0.467111 0.491988
Si Si3 0.744859 0.136999 0.288466
Si Si4 0.939322 0.257338 0.842374
Si Si5 0.820823 0.395678 0.892198
Si Si6 0.160257 0.622110 0.680520
Si Si7 0.987727 0.887042 0.668797
O O1 0.664467 0.409150 0.542540
O O2 0.533608 0.530029 0.158627
O O3 0.383086 0.417874 0.015738
O O4 0.538284 0.391568 0.983722
O O5 0.127664 0.403290 0.717654
O O6 0.085113 0.537024 0.522963
O O7 0.912729 0.530031 0.472407
O O8 0.868653 0.408152 0.200029
O O9 0.814699 0.217954 0.491740
O O10 0.682205 0.138128 0.955896
O O11 0.873292 0.315302 0.887674
O O12 0.025468 0.189012 0.109627
O O13 0.051615 0.309693 0.923604
O O14 0.317267 0.619391 0.877302
#
# Coordination Sequence:
#
# PCOD9139194 Si02
#       7
#     4   4   4   4   4   4   4
#     4  11  24  44  72 106 136 190 243 291 351 425
#     4  11  21  45  70  99 136 191 241 280 349 441
#     4  11  23  44  76  99 141 191 244 286 353 438
#     4  11  26  42  69 106 148 177 235 299 368 409
#     4  11  26  44  69 105 145 179 237 301 361 414
#     4  10  24  46  69 105 136 190 236 292 348 429
#     4  11  24  43  73 100 142 184 236 291 348 432
#
# _framework density 25.690767000000001
#
# number of rings (size 3 to 8) (size 9 to 14) (size 15 to 20)
#    0.000    1.143    4.286    1.714    8.000    0.000 
#    0.000    2.857    0.000    0.000    0.000    0.000 
#    0.000    0.000    0.000    0.000    0.000    0.000 
#
# Total GULP energy -78269.105320 kJ/mol
# GULP energy per Si atom -5590.650380 kJ/mol
# Density = 2.563229 g / cm^3
# Si number density = 25.690767 Si / 1000 Ang^3
#
#
#
# Elastic Constant Matrix: (Units=GPa)
#
#
# Indices 1 2 3 4 5 6 
#
# 1 54.5038 27.9054 11.3923 0.0000 6.0222 0.0000
# 2 27.9054 169.6377 69.8447 0.0000 4.4991 0.0000
# 3 11.3923 69.8447 145.7265 0.0000 22.8177 0.0000
# 4 0.0000 0.0000 0.0000 56.1071 0.0000 15.5232
# 5 6.0222 4.4991 22.8177 0.0000 25.5533 0.0000
# 6 0.0000 0.0000 0.0000 15.5232 0.0000 88.2170
#
#
#
# Elastic Compliance Matrix: (Units=1/GPa)
#
#
# Indices 1 2 3 4 5 6 
#
# 1 0.020569 -0.003628 0.000918 0.000000 -0.005029 0.000000
# 2 -0.003628 0.008087 -0.004073 0.000000 0.003068 0.000000
# 3 0.000918 -0.004073 0.010072 0.000000 -0.008493 0.000000
# 4 0.000000 0.000000 0.000000 0.018735 0.000000 -0.003297
# 5 -0.005029 0.003068 -0.008493 0.000000 0.047363 0.000000
# 6 0.000000 0.000000 0.000000 -0.003297 0.000000 0.011916
#
#
# Mechanical properties :
#
#
# Convention : Reuss Voigt Hill
#
# Bulk Modulus (GPa) = 39.74126 65.35030 52.54578
# Shear Modulus (GPa) = 36.05023 51.35720 43.70372
#
# Velocity S-wave (km/s) = 3.75004 4.47593 4.12897
# Velocity P-wave (km/s) = 5.85262 7.22526 6.57486
#
# Compressibility (1/GPa) = 0.02516277
#
# Stress axis : x y z
#
# Youngs Moduli (GPa) = 48.61767 123.65022 99.28177
#
# Poissons Ratio (x) = 0.44864 -0.09118
# Poissons Ratio (y) = 0.17640 0.40436
# Poissons Ratio (z) = -0.04465 0.50361
#
# Static dielectric constant tensor:
#      x y z
#    x 2.184160 0.000000 -0.210250 
#    y 0.000000 1.957340 0.000000 
#    z -0.210250 0.000000 2.203440 
# 
# From -- ./inp_files/11786.got.cif
#   From: 2010.05.17/outbox.cif.g08.bks.cpg/sg9_6_cif.got.tgz:11786.got - 2010.06.03 20:04:27.
