data_PCOD9139316
_publ_section_title
;
Structure prediction by ZEFSAII (Michael W. Deem and Ramdas Pophale) SiO2 
 PCOD9139316
Probable space group: C C
;
_chemical_formula_sum "Si O2"
_cell_formula_units_Z 24
_cell_length_a 5.078253
_cell_length_b 13.293172
_cell_length_c 14.279811
_cell_angle_alpha 90.000000
_cell_angle_beta 76.025394
_cell_angle_gamma 90.000000
_cell_volume 935.443328
_symmetry_space_group_name_H-M "C C"
_symmetry_group_IT_number 9
_symmetry_cell_setting 'monoclinic'
loop_
_space_group_symop_operation_xyz
x,y,z
x,-y,1/2+z
1/2+x,1/2+y,z
1/2+x,1/2-y,1/2+z
loop_
_atom_site_type_symbol
_atom_site_label
_atom_site_fract_x
_atom_site_fract_y
_atom_site_fract_z
Si Si1 0.212620 0.812053 0.557790
Si Si2 0.623831 0.758366 0.258133
Si Si3 0.353810 0.377813 0.929378
Si Si4 0.023667 0.438653 0.387249
Si Si5 0.289741 0.074243 0.723895
Si Si6 0.374608 0.497654 0.607912
O O1 0.295152 0.776517 0.654707
O O2 0.195418 0.716869 0.490119
O O3 0.425632 0.886861 0.490282
O O4 0.945922 0.881162 0.588016
O O5 0.701472 0.852633 0.318181
O O6 0.358671 0.806866 0.227717
O O7 0.058490 0.964156 0.177405
O O8 0.162946 0.456845 0.894071
O O9 0.463822 0.437962 0.009797
O O10 0.550846 0.329289 0.835693
O O11 0.779408 0.454618 0.334184
O O12 0.566493 0.024636 0.659055
#
# Coordination Sequence:
#
# PCOD9139316 Si02
#       6
#     4   4   4   4   4   4
#     4  11  23  43  74 116 148 206 260 314 393 462
#     4   9  22  46  72 113 147 204 256 316 390 462
#     4  11  22  49  74 111 157 201 261 325 383 467
#     4   9  22  45  73 111 149 202 255 316 385 454
#     4  10  24  49  75 109 157 197 254 315 386 452
#     4  12  25  48  74 112 158 200 252 322 383 457
#
# _framework density 25.656282000000001
#
# number of rings (size 3 to 8) (size 9 to 14) (size 15 to 20)
#    1.000    0.667    1.667    2.000    0.000    2.667 
#   12.000    5.000    0.000    0.000    0.000    0.000 
#    0.000    0.000    0.000    0.000    0.000    0.000 
#
# Total GULP energy -67138.607121 kJ/mol
# GULP energy per Si atom -5594.883927 kJ/mol
# Density = 2.559789 g / cm^3
# Si number density = 25.656282 Si / 1000 Ang^3
#
#
#
# Elastic Constant Matrix: (Units=GPa)
#
#
# Indices 1 2 3 4 5 6 
#
# 1 73.2932 18.9264 36.5340 0.0000 9.0214 0.0000
# 2 18.9264 157.1654 50.5760 0.0000 1.8483 0.0000
# 3 36.5340 50.5760 189.9513 0.0000 -9.1235 0.0000
# 4 0.0000 0.0000 0.0000 62.9659 0.0000 -3.1883
# 5 9.0214 1.8483 -9.1235 0.0000 45.5313 0.0000
# 6 0.0000 0.0000 0.0000 -3.1883 0.0000 27.1773
#
#
#
# Elastic Compliance Matrix: (Units=1/GPa)
#
#
# Indices 1 2 3 4 5 6 
#
# 1 0.015817 -0.000903 -0.002979 0.000000 -0.003694 0.000000
# 2 -0.000903 0.007030 -0.001720 0.000000 -0.000451 0.000000
# 3 -0.002979 -0.001720 0.006389 0.000000 0.001940 0.000000
# 4 0.000000 0.000000 0.000000 0.015977 0.000000 0.001874
# 5 -0.003694 -0.000451 0.001940 0.000000 0.023102 0.000000
# 6 0.000000 0.000000 0.000000 0.001874 0.000000 0.037015
#
#
# Mechanical properties :
#
#
# Convention : Reuss Voigt Hill
#
# Bulk Modulus (GPa) = 55.45655 70.27585 62.86620
# Shear Modulus (GPa) = 40.80190 48.09312 44.44751
#
# Velocity S-wave (km/s) = 3.99222 4.33427 4.16675
# Velocity P-wave (km/s) = 6.55077 7.24559 6.90692
#
# Compressibility (1/GPa) = 0.01803213
#
# Stress axis : x y z
#
# Youngs Moduli (GPa) = 63.22463 142.24365 156.52785
#
# Poissons Ratio (x) = 0.12838 0.46633
# Poissons Ratio (y) = 0.05706 0.26922
# Poissons Ratio (z) = 0.18836 0.24465
#
# Static dielectric constant tensor:
#      x y z
#    x 2.090740 0.000000 -0.040840 
#    y 0.000000 2.023070 0.000000 
#    z -0.040840 0.000000 2.009990 
# 
# From -- ./inp_files/21675.got.cif
#   From: 2010.05.17/outbox.cif.g08.bks.cpg/sg9_11_cif.got.tgz:21675.got - 2010.06.03 20:04:27.
