data_PCOD9139807
_publ_section_title
;
Structure prediction by ZEFSAII (Michael W. Deem and Ramdas Pophale) SiO2 
 PCOD9139807
Probable space group: C C
;
_chemical_formula_sum "Si O2"
_cell_formula_units_Z 32
_cell_length_a 14.066693
_cell_length_b 16.180145
_cell_length_c 8.887091
_cell_angle_alpha 90.000000
_cell_angle_beta 133.816900
_cell_angle_gamma 90.000000
_cell_volume 1459.500047
_symmetry_space_group_name_H-M "C C"
_symmetry_group_IT_number 9
_symmetry_cell_setting 'monoclinic'
loop_
_space_group_symop_operation_xyz
x,y,z
x,-y,1/2+z
1/2+x,1/2+y,z
1/2+x,1/2-y,1/2+z
loop_
_atom_site_type_symbol
_atom_site_label
_atom_site_fract_x
_atom_site_fract_y
_atom_site_fract_z
Si Si1 0.770290 0.938101 0.188810
Si Si2 0.404431 0.046652 0.458050
Si Si3 0.518425 0.344888 0.336330
Si Si4 0.648082 0.075947 0.226898
Si Si5 0.944589 0.716954 0.009343
Si Si6 0.177128 0.275044 0.233301
Si Si7 0.939122 0.712005 0.661297
Si Si8 0.275866 0.083461 0.000323
O O1 0.914001 0.897589 0.318508
O O2 0.692060 0.871103 0.205575
O O3 0.755879 0.031005 0.238132
O O4 0.700550 0.936012 0.951581
O O5 0.442892 0.115642 0.621695
O O6 0.520173 0.981167 0.562555
O O7 0.287971 0.997160 0.411318
O O8 0.361325 0.078588 0.247685
O O9 0.601632 0.276318 0.521424
O O10 0.627609 0.403396 0.385747
O O11 0.451841 0.295522 0.125954
O O12 0.586019 0.168000 0.149700
O O13 0.906209 0.733105 0.795568
O O14 0.838843 0.657117 0.972383
O O15 0.324156 0.245140 0.427009
O O16 0.084160 0.258546 0.274301
#
# Coordination Sequence:
#
# PCOD9139807 Si02
#       8
#     4   4   4   4   4   4   4   4
#     4  12  25  44  71 104 141 191 230 292 362 428
#     4  11  21  42  69  99 128 186 237 291 336 422
#     4  12  25  46  69 102 147 187 227 293 372 425
#     4  11  23  42  71 100 137 179 241 284 349 426
#     4  11  25  44  73 104 134 188 235 296 349 429
#     4  12  24  45  72 101 141 189 232 296 361 427
#     4  12  25  42  72 105 141 179 244 293 352 424
#     4  11  24  43  71  97 139 181 240 283 351 421
#
# _framework density 21.925318000000001
#
# number of rings (size 3 to 8) (size 9 to 14) (size 15 to 20)
#    0.000    0.500    5.000    5.250    1.750    1.000 
#    0.000    0.000    0.000    0.000    0.000    0.000 
#    0.000    0.000    0.000    0.000    0.000    0.000 
#
# Total GULP energy -89414.851254 kJ/mol
# GULP energy per Si atom -5588.428203 kJ/mol
# Density = 2.187541 g / cm^3
# Si number density = 21.925318 Si / 1000 Ang^3
#
#
#
# Elastic Constant Matrix: (Units=GPa)
#
#
# Indices 1 2 3 4 5 6 
#
# 1 112.4688 18.4414 15.8987 0.0000 14.2538 0.0000
# 2 18.4414 30.1300 -11.3605 0.0000 9.0759 0.0000
# 3 15.8987 -11.3605 46.0726 0.0000 -6.9198 0.0000
# 4 0.0000 0.0000 0.0000 7.7492 0.0000 -1.2369
# 5 14.2538 9.0759 -6.9198 0.0000 37.8995 0.0000
# 6 0.0000 0.0000 0.0000 -1.2369 0.0000 43.5930
#
#
#
# Elastic Compliance Matrix: (Units=1/GPa)
#
#
# Indices 1 2 3 4 5 6 
#
# 1 0.011702 -0.008615 -0.006697 0.000000 -0.003561 0.000000
# 2 -0.008615 0.045019 0.013306 0.000000 -0.005111 0.000000
# 3 -0.006697 0.013306 0.027963 0.000000 0.004438 0.000000
# 4 0.000000 0.000000 0.000000 0.129632 0.000000 0.003678
# 5 -0.003561 -0.005111 0.004438 0.000000 0.029759 0.000000
# 6 0.000000 0.000000 0.000000 0.003678 0.000000 0.023044
#
#
# Mechanical properties :
#
#
# Convention : Reuss Voigt Hill
#
# Bulk Modulus (GPa) = 12.39586 26.07005 19.23296
# Shear Modulus (GPa) = 16.77726 28.89448 22.83587
#
# Velocity S-wave (km/s) = 2.76923 3.63417 3.23077
# Velocity P-wave (km/s) = 3.98632 5.43376 4.76532
#
# Compressibility (1/GPa) = 0.08067208
#
# Stress axis : x y z
#
# Youngs Moduli (GPa) = 85.45616 22.21284 35.76100
#
# Poissons Ratio (x) = 0.19136 0.23950
# Poissons Ratio (y) = 0.73619 -0.47583
# Poissons Ratio (z) = 0.57231 -0.29556
#
# Static dielectric constant tensor:
#      x y z
#    x 1.827420 0.000000 0.008780 
#    y 0.000000 1.863650 0.000000 
#    z 0.008780 0.000000 1.772340 
# 
# From -- ./inp_files/9955.got.cif
#   From: 2010.05.17/outbox.cif.g08.bks.cpg/sg9_5_cif.got.tgz:9955.got - 2010.06.03 20:04:27.
