data_PCOD9139409
_publ_section_title
;
Structure prediction by ZEFSAII (Michael W. Deem and Ramdas Pophale) SiO2 
 PCOD9139409
Probable space group: C C
;
_chemical_formula_sum "Si O2"
_cell_formula_units_Z 28
_cell_length_a 14.032509
_cell_length_b 11.469585
_cell_length_c 9.360742
_cell_angle_alpha 90.000000
_cell_angle_beta 59.746555
_cell_angle_gamma 90.000000
_cell_volume 1301.394988
_symmetry_space_group_name_H-M "C C"
_symmetry_group_IT_number 9
_symmetry_cell_setting 'monoclinic'
loop_
_space_group_symop_operation_xyz
x,y,z
x,-y,1/2+z
1/2+x,1/2+y,z
1/2+x,1/2-y,1/2+z
loop_
_atom_site_type_symbol
_atom_site_label
_atom_site_fract_x
_atom_site_fract_y
_atom_site_fract_z
Si Si1 0.220080 0.763082 0.868110
Si Si2 0.128013 0.597105 0.172000
Si Si3 0.686751 0.499591 0.227958
Si Si4 0.832705 0.163881 0.216143
Si Si5 0.885382 0.365861 0.967365
Si Si6 0.187826 0.337140 0.089399
Si Si7 0.570283 0.613127 0.062479
O O1 0.182774 0.885878 0.829024
O O2 0.328678 0.797611 0.876985
O O3 0.225991 0.682055 0.723672
O O4 0.142333 0.695656 0.039264
O O5 0.229251 0.617021 0.204611
O O6 0.142207 0.466746 0.101543
O O7 0.010151 0.605830 0.336337
O O8 0.611347 0.521498 0.148637
O O9 0.640429 0.397740 0.363750
O O10 0.807267 0.473669 0.071731
O O11 0.791536 0.181100 0.407367
O O12 0.942963 0.087778 0.128828
O O13 0.874110 0.281301 0.110358
O O14 0.098841 0.238808 0.110526
#
# Coordination Sequence:
#
# PCOD9139409 Si02
#       7
#     4   4   4   4   4   4   4
#     4  10  25  44  70 105 139 181 236 290 348 416
#     4  11  26  48  70 104 144 188 231 289 356 419
#     4  11  23  46  72 106 133 184 241 289 344 412
#     4  11  25  43  69 103 142 186 227 287 359 415
#     4  11  24  46  76  99 143 185 238 289 343 424
#     4  11  24  46  66 106 142 179 237 286 360 414
#     4  11  25  43  73  99 141 183 236 288 348 422
#
# _framework density 21.515374000000001
#
# number of rings (size 3 to 8) (size 9 to 14) (size 15 to 20)
#    0.000    1.143    2.857    1.714    4.000    8.000 
#    2.571    0.000    0.000    0.000    0.000    0.000 
#    0.000    0.000    0.000    0.000    0.000    0.000 
#
# Total GULP energy -78231.127618 kJ/mol
# GULP energy per Si atom -5587.937687 kJ/mol
# Density = 2.146640 g / cm^3
# Si number density = 21.515374 Si / 1000 Ang^3
#
#
#
# Elastic Constant Matrix: (Units=GPa)
#
#
# Indices 1 2 3 4 5 6 
#
# 1 101.4210 36.6582 86.1897 0.0000 -26.7864 0.0000
# 2 36.6582 92.5107 43.2432 0.0000 -2.2411 0.0000
# 3 86.1897 43.2432 159.4949 0.0000 -9.2802 0.0000
# 4 0.0000 0.0000 0.0000 14.7332 0.0000 5.1827
# 5 -26.7864 -2.2411 -9.2802 0.0000 18.7923 0.0000
# 6 0.0000 0.0000 0.0000 5.1827 0.0000 10.9208
#
#
#
# Elastic Compliance Matrix: (Units=1/GPa)
#
#
# Indices 1 2 3 4 5 6 
#
# 1 0.037622 -0.006342 -0.015994 0.000000 0.044972 0.000000
# 2 -0.006342 0.013448 -0.000671 0.000000 -0.007768 0.000000
# 3 -0.015994 -0.000671 0.014171 0.000000 -0.015880 0.000000
# 4 0.000000 0.000000 0.000000 0.081476 0.000000 -0.038666
# 5 0.044972 -0.007768 -0.015880 0.000000 0.108547 0.000000
# 6 0.000000 0.000000 0.000000 -0.038666 0.000000 0.109918
#
#
# Mechanical properties :
#
#
# Convention : Reuss Voigt Hill
#
# Bulk Modulus (GPa) = 52.01239 76.17874 64.09557
# Shear Modulus (GPa) = 11.97302 21.37829 16.67566
#
# Velocity S-wave (km/s) = 2.36156 3.15561 2.78701
# Velocity P-wave (km/s) = 5.62698 6.98288 6.34128
#
# Compressibility (1/GPa) = 0.01922619
#
# Stress axis : x y z
#
# Youngs Moduli (GPa) = 26.58007 74.35982 70.56693
#
# Poissons Ratio (x) = 0.47161 1.12868
# Poissons Ratio (y) = 0.16858 0.04734
# Poissons Ratio (z) = 0.42513 0.04988
#
# Static dielectric constant tensor:
#      x y z
#    x 1.790590 0.000000 0.022850 
#    y 0.000000 1.816990 0.000000 
#    z 0.022850 0.000000 1.768940 
# 
# From -- ./inp_files/9049.got.cif
#   From: 2010.05.17/outbox.cif.g08.bks.cpg/sg9_5_cif.got.tgz:9049.got - 2010.06.03 20:04:27.
