data_PCOD9139539
_publ_section_title
;
Structure prediction by ZEFSAII (Michael W. Deem and Ramdas Pophale) SiO2 
 PCOD9139539
Probable space group: C C
;
_chemical_formula_sum "Si O2"
_cell_formula_units_Z 28
_cell_length_a 8.915830
_cell_length_b 15.183976
_cell_length_c 9.386051
_cell_angle_alpha 90.000000
_cell_angle_beta 58.646628
_cell_angle_gamma 90.000000
_cell_volume 1085.113357
_symmetry_space_group_name_H-M "C C"
_symmetry_group_IT_number 9
_symmetry_cell_setting 'monoclinic'
loop_
_space_group_symop_operation_xyz
x,y,z
x,-y,1/2+z
1/2+x,1/2+y,z
1/2+x,1/2-y,1/2+z
loop_
_atom_site_type_symbol
_atom_site_label
_atom_site_fract_x
_atom_site_fract_y
_atom_site_fract_z
Si Si1 0.119710 0.100671 0.815850
Si Si2 0.556465 0.008502 0.445853
Si Si3 0.966286 0.637332 0.795008
Si Si4 0.582424 0.690953 0.539807
Si Si5 0.614227 0.309408 0.585750
Si Si6 0.914562 0.925178 0.905358
Si Si7 0.945291 0.631504 0.237190
O O1 0.326664 0.097668 0.750813
O O2 0.092905 0.125231 0.667895
O O3 0.019751 0.011638 0.903830
O O4 0.054041 0.179002 0.951580
O O5 0.589162 0.931918 0.311544
O O6 0.458493 0.946412 0.613030
O O7 0.724416 0.047212 0.443564
O O8 0.489310 0.085709 0.369733
O O9 0.059710 0.718010 0.676704
O O10 0.430484 0.650332 0.515879
O O11 0.564445 0.788293 0.616380
O O12 0.821669 0.674323 0.977827
O O13 0.520041 0.386290 0.718669
O O14 0.256201 0.823094 0.857748
#
# Coordination Sequence:
#
# PCOD9139539 Si02
#       7
#     4   4   4   4   4   4   4
#     4  10  27  47  85 116 169 227 286 353 418 516
#     4  12  31  51  86 129 173 224 294 354 433 515
#     4  10  25  51  84 121 171 224 289 349 435 504
#     4  12  30  54  87 123 177 227 291 353 436 510
#     4  10  25  49  84 119 167 228 284 350 432 501
#     4  12  27  51  81 120 174 223 285 356 430 513
#     4  12  33  55  87 130 173 229 293 359 434 519
#
# _framework density 25.803754999999999
#
# number of rings (size 3 to 8) (size 9 to 14) (size 15 to 20)
#    0.857    0.000    0.000    3.429   16.000    1.143 
#    0.000    1.429    0.000    0.000    0.000    0.000 
#    0.000    0.000    0.000    0.000    0.000    0.000 
#
# Total GULP energy -78311.392098 kJ/mol
# GULP energy per Si atom -5593.670864 kJ/mol
# Density = 2.574502 g / cm^3
# Si number density = 25.803755 Si / 1000 Ang^3
#
#
#
# Elastic Constant Matrix: (Units=GPa)
#
#
# Indices 1 2 3 4 5 6 
#
# 1 128.1706 73.3298 61.0175 0.0000 7.4997 0.0000
# 2 73.3298 192.9060 76.9383 0.0000 -6.9840 0.0000
# 3 61.0175 76.9383 165.6943 0.0000 11.1192 0.0000
# 4 0.0000 0.0000 0.0000 68.4535 0.0000 2.4526
# 5 7.4997 -6.9840 11.1192 0.0000 44.0537 0.0000
# 6 0.0000 0.0000 0.0000 2.4526 0.0000 20.3594
#
#
#
# Elastic Compliance Matrix: (Units=1/GPa)
#
#
# Indices 1 2 3 4 5 6 
#
# 1 0.010905 -0.003259 -0.002384 0.000000 -0.001771 0.000000
# 2 -0.003259 0.007477 -0.002430 0.000000 0.002353 0.000000
# 3 -0.002384 -0.002430 0.008178 0.000000 -0.002044 0.000000
# 4 0.000000 0.000000 0.000000 0.014672 0.000000 -0.001767
# 5 -0.001771 0.002353 -0.002044 0.000000 0.023890 0.000000
# 6 0.000000 0.000000 0.000000 -0.001767 0.000000 0.049330
#
#
# Mechanical properties :
#
#
# Convention : Reuss Voigt Hill
#
# Bulk Modulus (GPa) = 96.00744 101.03801 98.52272
# Shear Modulus (GPa) = 37.29435 44.93901 41.11668
#
# Velocity S-wave (km/s) = 3.80584 4.17774 3.99612
# Velocity P-wave (km/s) = 7.52331 7.90649 7.71728
#
# Compressibility (1/GPa) = 0.01041586
#
# Stress axis : x y z
#
# Youngs Moduli (GPa) = 91.70116 133.74566 122.27363
#
# Poissons Ratio (x) = 0.43584 0.29147
# Poissons Ratio (y) = 0.29883 0.29709
# Poissons Ratio (z) = 0.21859 0.32496
#
# Static dielectric constant tensor:
#      x y z
#    x 2.036750 0.000000 -0.014110 
#    y 0.000000 2.009740 0.000000 
#    z -0.014110 0.000000 2.125210 
# 
# From -- ./inp_files/7365.got.cif
#   From: 2010.05.17/outbox.cif.g08.bks.cpg/sg9_4_cif.got.tgz:7365.got - 2010.06.03 20:04:27.
