data_PCOD9139000
_publ_section_title
;
Structure prediction by ZEFSAII (Michael W. Deem and Ramdas Pophale) SiO2 
 PCOD9139000
Probable space group: C C
;
_chemical_formula_sum "Si O2"
_cell_formula_units_Z 32
_cell_length_a 6.347482
_cell_length_b 27.903481
_cell_length_c 8.113636
_cell_angle_alpha 90.000000
_cell_angle_beta 89.274988
_cell_angle_gamma 90.000000
_cell_volume 1436.946547
_symmetry_space_group_name_H-M "C C"
_symmetry_group_IT_number 9
_symmetry_cell_setting 'monoclinic'
loop_
_space_group_symop_operation_xyz
x,y,z
x,-y,1/2+z
1/2+x,1/2+y,z
1/2+x,1/2-y,1/2+z
loop_
_atom_site_type_symbol
_atom_site_label
_atom_site_fract_x
_atom_site_fract_y
_atom_site_fract_z
Si Si1 0.982170 0.349229 0.445350
Si Si2 0.738788 0.227142 0.804747
Si Si3 0.158641 0.034537 0.565477
Si Si4 0.842407 0.980861 0.803209
Si Si5 0.537180 0.957900 0.535742
Si Si6 0.898632 0.799231 0.964698
Si Si7 0.262050 0.140591 0.612342
Si Si8 0.007212 0.314705 0.806246
O O1 0.836931 0.338447 0.287184
O O2 0.923980 0.329612 0.627122
O O3 0.202848 0.323800 0.392357
O O4 0.989508 0.406139 0.464481
O O5 0.742713 0.220451 0.608140
O O6 0.553074 0.259761 0.884856
O O7 0.945436 0.259006 0.832485
O O8 0.261208 0.083389 0.624517
O O9 0.977939 0.016143 0.688255
O O10 0.331888 0.992153 0.550606
O O11 0.026534 0.045942 0.400932
O O12 0.669923 0.951050 0.703173
O O13 0.700265 0.013651 0.920764
O O14 0.756715 0.820088 0.820622
O O15 0.038175 0.837913 0.060526
O O16 0.407666 0.155378 0.456536
#
# Coordination Sequence:
#
# PCOD9139000 Si02
#       8
#     4   4   4   4   4   4   4   4
#     4  12  26  46  74 106 145 190 247 296 366 437
#     4  11  25  47  71 105 145 186 242 304 364 437
#     4  11  24  46  70 102 148 187 241 306 365 434
#     4  10  24  43  70 101 140 194 238 289 371 434
#     4  11  25  45  71 105 144 192 241 301 364 438
#     4  11  26  47  74 104 144 192 241 302 372 435
#     4  11  27  47  72 109 145 190 243 306 365 441
#     4  11  27  47  74 106 139 197 241 300 371 430
#
# _framework density 22.269442999999999
#
# number of rings (size 3 to 8) (size 9 to 14) (size 15 to 20)
#    0.000    1.000    2.500    2.250   10.500    1.000 
#    2.250    0.000    0.000    0.000    0.000    0.000 
#    0.000    0.000    0.000    0.000    0.000    0.000 
#
# Total GULP energy -89337.961155 kJ/mol
# GULP energy per Si atom -5583.622572 kJ/mol
# Density = 2.221876 g / cm^3
# Si number density = 22.269443 Si / 1000 Ang^3
#
#
#
# Elastic Constant Matrix: (Units=GPa)
#
#
# Indices 1 2 3 4 5 6 
#
# 1 89.8919 30.9886 48.4469 0.0000 12.5316 0.0000
# 2 30.9886 88.0077 27.2739 0.0000 7.1679 0.0000
# 3 48.4469 27.2739 125.6365 0.0000 17.1552 0.0000
# 4 0.0000 0.0000 0.0000 28.0137 0.0000 4.3629
# 5 12.5316 7.1679 17.1552 0.0000 46.1285 0.0000
# 6 0.0000 0.0000 0.0000 4.3629 0.0000 18.3868
#
#
#
# Elastic Compliance Matrix: (Units=1/GPa)
#
#
# Indices 1 2 3 4 5 6 
#
# 1 0.015263 -0.003732 -0.004834 0.000000 -0.001769 0.000000
# 2 -0.003732 0.013135 -0.001340 0.000000 -0.000529 0.000000
# 3 -0.004834 -0.001340 0.010437 0.000000 -0.002360 0.000000
# 4 0.000000 0.000000 0.000000 0.037067 0.000000 -0.008795
# 5 -0.001769 -0.000529 -0.002360 0.000000 0.023119 0.000000
# 6 0.000000 0.000000 0.000000 -0.008795 0.000000 0.056474
#
#
# Mechanical properties :
#
#
# Convention : Reuss Voigt Hill
#
# Bulk Modulus (GPa) = 52.56939 57.43942 55.00441
# Shear Modulus (GPa) = 27.52594 31.62757 29.57676
#
# Velocity S-wave (km/s) = 3.51955 3.77267 3.64831
# Velocity P-wave (km/s) = 6.33827 6.69525 6.51920
#
# Compressibility (1/GPa) = 0.01902248
#
# Stress axis : x y z
#
# Youngs Moduli (GPa) = 65.51873 76.13158 95.81672
#
# Poissons Ratio (x) = 0.28414 0.46316
# Poissons Ratio (y) = 0.24453 0.12840
# Poissons Ratio (z) = 0.31670 0.10202
#
# Static dielectric constant tensor:
#      x y z
#    x 1.826990 0.000000 0.054880 
#    y 0.000000 1.804250 0.000000 
#    z 0.054880 0.000000 1.900140 
# 
# From -- ./inp_files/4382.got.cif
#   From: 2010.05.17/outbox.cif.g08.bks.cpg/sg9_3_cif.got.tgz:4382.got - 2010.06.03 20:04:27.
