data_PCOD9139172
_publ_section_title
;
Structure prediction by ZEFSAII (Michael W. Deem and Ramdas Pophale) SiO2 
 PCOD9139172
Probable space group: C C
;
_chemical_formula_sum "Si O2"
_cell_formula_units_Z 32
_cell_length_a 4.991780
_cell_length_b 18.374159
_cell_length_c 13.682639
_cell_angle_alpha 90.000000
_cell_angle_beta 76.124324
_cell_angle_gamma 90.000000
_cell_volume 1218.346346
_symmetry_space_group_name_H-M "C C"
_symmetry_group_IT_number 9
_symmetry_cell_setting 'monoclinic'
loop_
_space_group_symop_operation_xyz
x,y,z
x,-y,1/2+z
1/2+x,1/2+y,z
1/2+x,1/2-y,1/2+z
loop_
_atom_site_type_symbol
_atom_site_label
_atom_site_fract_x
_atom_site_fract_y
_atom_site_fract_z
Si Si1 0.032450 0.880325 0.863870
Si Si2 0.725477 0.777970 0.766984
Si Si3 0.920850 0.618583 0.976281
Si Si4 0.261902 0.484176 0.303098
Si Si5 0.650115 0.625308 0.687034
Si Si6 0.012024 0.583805 0.186085
Si Si7 0.193118 0.340967 0.075324
Si Si8 0.932224 0.218645 0.970329
O O1 0.303233 0.915796 0.796126
O O2 0.988085 0.811260 0.797396
O O3 0.809602 0.942583 0.858925
O O4 0.942990 0.858088 0.978765
O O5 0.757836 0.694818 0.736595
O O6 0.656024 0.836876 0.689777
O O7 0.499213 0.772128 0.873418
O O8 0.896444 0.582476 0.086540
O O9 0.129773 0.686569 0.977876
O O10 0.631667 0.648737 0.962560
O O11 0.057547 0.566967 0.882520
O O12 0.542617 0.439073 0.263083
O O13 0.197258 0.515011 0.199609
O O14 0.371898 0.654826 0.658431
O O15 0.923910 0.606506 0.601043
O O16 0.043498 0.266948 0.051427
#
# Coordination Sequence:
#
# PCOD9139172 Si02
#       8
#     4   4   4   4   4   4   4   4
#     4  10  27  48  72 105 154 203 246 313 384 465
#     4  10  24  45  75 110 154 192 253 322 388 452
#     4  12  28  48  77 111 150 204 254 316 385 459
#     4  11  29  49  73 111 152 199 261 317 372 466
#     4  12  27  45  79 112 147 196 257 321 377 450
#     4  11  27  50  77 108 157 210 249 312 400 464
#     4  11  27  46  77 109 150 194 251 312 388 457
#     4  11  25  47  74 114 150 192 251 321 382 453
#
# _framework density 26.265108000000001
#
# number of rings (size 3 to 8) (size 9 to 14) (size 15 to 20)
#    0.000    1.000    1.250    2.250   22.750    0.000 
#    0.000    0.000    0.000    0.000    0.000    0.000 
#    0.000    0.000    0.000    0.000    0.000    0.000 
#
# Total GULP energy -89420.826438 kJ/mol
# GULP energy per Si atom -5588.801652 kJ/mol
# Density = 2.620533 g / cm^3
# Si number density = 26.265108 Si / 1000 Ang^3
#
#
#
# Elastic Constant Matrix: (Units=GPa)
#
#
# Indices 1 2 3 4 5 6 
#
# 1 87.4503 18.5135 15.5452 0.0000 -6.5158 0.0000
# 2 18.5135 118.6970 34.5177 0.0000 13.5791 0.0000
# 3 15.5452 34.5177 87.3730 0.0000 -5.2329 0.0000
# 4 0.0000 0.0000 0.0000 20.3811 0.0000 3.4033
# 5 -6.5158 13.5791 -5.2329 0.0000 42.0182 0.0000
# 6 0.0000 0.0000 0.0000 3.4033 0.0000 37.3453
#
#
#
# Elastic Compliance Matrix: (Units=1/GPa)
#
#
# Indices 1 2 3 4 5 6 
#
# 1 0.012221 -0.001782 -0.001332 0.000000 0.002305 0.000000
# 2 -0.001782 0.010342 -0.004015 0.000000 -0.004119 0.000000
# 3 -0.001332 -0.004015 0.013434 0.000000 0.002764 0.000000
# 4 0.000000 0.000000 0.000000 0.049823 0.000000 -0.004540
# 5 0.002305 -0.004119 0.002764 0.000000 0.025832 0.000000
# 6 0.000000 0.000000 0.000000 -0.004540 0.000000 0.027191
#
#
# Mechanical properties :
#
#
# Convention : Reuss Voigt Hill
#
# Bulk Modulus (GPa) = 46.00407 47.85255 46.92831
# Shear Modulus (GPa) = 31.18225 34.94518 33.06371
#
# Velocity S-wave (km/s) = 3.44933 3.65153 3.55187
# Velocity P-wave (km/s) = 5.78076 6.00307 5.89296
#
# Compressibility (1/GPa) = 0.02173721
#
# Stress axis : x y z
#
# Youngs Moduli (GPa) = 81.82648 96.69668 74.43835
#
# Poissons Ratio (x) = 0.17236 0.09916
# Poissons Ratio (y) = 0.14586 0.29888
# Poissons Ratio (z) = 0.10900 0.38825
#
# Static dielectric constant tensor:
#      x y z
#    x 2.061780 0.000000 -0.061830 
#    y 0.000000 2.034620 0.000000 
#    z -0.061830 0.000000 2.167180 
# 
# From -- ./inp_files/22052.got.cif
#   From: 2010.05.17/outbox.cif.g08.bks.cpg/sg9_12_cif.got.tgz:22052.got - 2010.06.03 20:04:27.
