data_PCOD9139722
_publ_section_title
;
Structure prediction by ZEFSAII (Michael W. Deem and Ramdas Pophale) SiO2 
 PCOD9139722
Probable space group: C C
;
_chemical_formula_sum "Si O2"
_cell_formula_units_Z 32
_cell_length_a 22.682953
_cell_length_b 8.185713
_cell_length_c 9.072899
_cell_angle_alpha 90.000000
_cell_angle_beta 58.362613
_cell_angle_gamma 90.000000
_cell_volume 1434.260688
_symmetry_space_group_name_H-M "C C"
_symmetry_group_IT_number 9
_symmetry_cell_setting 'monoclinic'
loop_
_space_group_symop_operation_xyz
x,y,z
x,-y,1/2+z
1/2+x,1/2+y,z
1/2+x,1/2-y,1/2+z
loop_
_atom_site_type_symbol
_atom_site_label
_atom_site_fract_x
_atom_site_fract_y
_atom_site_fract_z
Si Si1 0.210170 0.517459 0.734070
Si Si2 0.652475 0.565075 0.003000
Si Si3 0.807195 0.004873 0.857395
Si Si4 0.807037 0.657513 0.747554
Si Si5 0.360251 0.149313 0.356770
Si Si6 0.020198 0.620094 0.192146
Si Si7 0.580564 0.186362 0.788889
Si Si8 0.127979 0.800989 0.235676
O O1 0.233131 0.529854 0.872045
O O2 0.283598 0.523355 0.555776
O O3 0.158239 0.652131 0.745021
O O4 0.168366 0.353080 0.750276
O O5 0.727223 0.651560 0.903811
O O6 0.625345 0.572157 0.872796
O O7 0.592710 0.650626 0.178646
O O8 0.666248 0.387285 0.050351
O O9 0.836876 0.833911 0.757918
O O10 0.849655 0.172803 0.795856
O O11 0.811774 0.643647 0.565137
O O12 0.843229 0.501235 0.772409
O O13 0.438159 0.126289 0.311292
O O14 0.052330 0.447441 0.207078
O O15 0.056154 0.743927 0.259433
O O16 0.038348 0.664906 0.997608
#
# Coordination Sequence:
#
# PCOD9139722 Si02
#       8
#     4   4   4   4   4   4   4   4
#     4  11  20  41  67 101 131 174 223 289 360 404
#     4  12  22  41  68 108 133 169 229 304 365 404
#     4  12  23  44  68 103 141 180 228 291 354 415
#     4  12  26  45  73 108 139 186 233 298 358 419
#     4  12  29  48  69 102 147 196 238 281 344 433
#     4  11  25  47  64  98 137 191 233 275 343 432
#     4  11  22  41  74  94 135 177 227 291 351 411
#     4  11  23  41  67 102 141 175 233 293 357 422
#
# _framework density 22.311145
#
# number of rings (size 3 to 8) (size 9 to 14) (size 15 to 20)
#    0.000    0.500    3.750    6.000    1.750    1.000 
#    6.750    0.000    0.000    0.000    0.000    0.000 
#    0.000    0.000    0.000    0.000    0.000    0.000 
#
# Total GULP energy -89371.505454 kJ/mol
# GULP energy per Si atom -5585.719091 kJ/mol
# Density = 2.226036 g / cm^3
# Si number density = 22.311145 Si / 1000 Ang^3
#
#
#
# Elastic Constant Matrix: (Units=GPa)
#
#
# Indices 1 2 3 4 5 6 
#
# 1 87.7492 41.1773 11.1440 0.0000 6.0613 0.0000
# 2 41.1773 111.7030 16.7633 0.0000 18.5792 0.0000
# 3 11.1440 16.7633 65.1497 0.0000 17.3337 0.0000
# 4 0.0000 0.0000 0.0000 28.7536 0.0000 13.7173
# 5 6.0613 18.5792 17.3337 0.0000 29.5693 0.0000
# 6 0.0000 0.0000 0.0000 13.7173 0.0000 27.5540
#
#
#
# Elastic Compliance Matrix: (Units=1/GPa)
#
#
# Indices 1 2 3 4 5 6 
#
# 1 0.013886 -0.005107 -0.001372 0.000000 0.001166 0.000000
# 2 -0.005107 0.011938 -0.000570 0.000000 -0.006120 0.000000
# 3 -0.001372 -0.000570 0.018436 0.000000 -0.010168 0.000000
# 4 0.000000 0.000000 0.000000 0.045611 0.000000 -0.022707
# 5 0.001166 -0.006120 -0.010168 0.000000 0.043386 0.000000
# 6 0.000000 0.000000 0.000000 -0.022707 0.000000 0.047597
#
#
# Mechanical properties :
#
#
# Convention : Reuss Voigt Hill
#
# Bulk Modulus (GPa) = 33.15266 44.75235 38.95250
# Shear Modulus (GPa) = 24.38963 30.20986 27.29975
#
# Velocity S-wave (km/s) = 3.30988 3.68370 3.50178
# Velocity P-wave (km/s) = 5.43126 6.18019 5.81779
#
# Compressibility (1/GPa) = 0.03016349
#
# Stress axis : x y z
#
# Youngs Moduli (GPa) = 72.01343 83.76298 54.24234
#
# Poissons Ratio (x) = 0.42779 0.07440
# Poissons Ratio (y) = 0.36778 0.03091
# Poissons Ratio (z) = 0.09877 0.04773
#
# Static dielectric constant tensor:
#      x y z
#    x 1.766610 0.000000 0.011600 
#    y 0.000000 1.887560 0.000000 
#    z 0.011600 0.000000 1.831170 
# 
# From -- ./inp_files/12052.got.cif
#   From: 2010.05.17/outbox.cif.g08.bks.cpg/sg9_7_cif.got.tgz:12052.got - 2010.06.03 20:04:27.
