data_PCOD9139223
_publ_section_title
;
Structure prediction by ZEFSAII (Michael W. Deem and Ramdas Pophale) SiO2 
 PCOD9139223
Probable space group: C C
;
_chemical_formula_sum "Si O2"
_cell_formula_units_Z 32
_cell_length_a 8.048047
_cell_length_b 25.476875
_cell_length_c 8.869770
_cell_angle_alpha 90.000000
_cell_angle_beta 141.953719
_cell_angle_gamma 90.000000
_cell_volume 1120.829705
_symmetry_space_group_name_H-M "C C"
_symmetry_group_IT_number 9
_symmetry_cell_setting 'monoclinic'
loop_
_space_group_symop_operation_xyz
x,y,z
x,-y,1/2+z
1/2+x,1/2+y,z
1/2+x,1/2-y,1/2+z
loop_
_atom_site_type_symbol
_atom_site_label
_atom_site_fract_x
_atom_site_fract_y
_atom_site_fract_z
Si Si1 0.720040 0.424591 0.485590
Si Si2 0.908637 0.544052 0.404241
Si Si3 0.930366 0.969929 0.749719
Si Si4 0.833639 0.709046 0.893702
Si Si5 0.086502 0.881062 0.086148
Si Si6 0.196265 0.365959 0.229004
Si Si7 0.592073 0.186062 0.354115
Si Si8 0.794448 0.224461 0.012779
O O1 0.647916 0.486585 0.456610
O O2 0.728386 0.417820 0.311424
O O3 0.458464 0.392873 0.348258
O O4 0.948151 0.422570 0.777087
O O5 0.137433 0.498208 0.554236
O O6 0.996752 0.584509 0.601989
O O7 0.583701 0.540097 0.200579
O O8 0.955726 0.917287 0.866018
O O9 0.783933 0.669343 0.714789
O O10 0.651697 0.752926 0.850780
O O11 0.133590 0.728709 0.057678
O O12 0.875378 0.670979 0.070691
O O13 0.853023 0.845687 0.991144
O O14 0.293368 0.333130 0.441044
O O15 0.067081 0.326148 0.012127
O O16 0.597851 0.257818 0.763193
#
# Coordination Sequence:
#
# PCOD9139223 Si02
#       8
#     4   4   4   4   4   4   4   4
#     4  10  24  46  72 111 151 200 267 332 409 494
#     4  11  25  49  76 114 156 207 272 338 415 504
#     4  11  26  47  78 110 158 205 267 335 413 491
#     4  12  23  43  71 105 155 206 266 332 398 493
#     4  11  24  45  76 112 149 208 260 335 409 489
#     4  10  26  43  72 110 154 211 268 338 409 498
#     4  11  23  42  70 108 152 201 269 327 402 479
#     4  12  27  45  71 110 157 212 277 341 413 498
#
# _framework density 28.550276
#
# number of rings (size 3 to 8) (size 9 to 14) (size 15 to 20)
#    0.000    1.000    2.500    2.250    3.500    8.000 
#    0.000    1.250    0.000    0.000    0.000    0.000 
#    0.000    0.000    0.000    0.000    0.000    0.000 
#
# Total GULP energy -89218.181553 kJ/mol
# GULP energy per Si atom -5576.136347 kJ/mol
# Density = 2.848529 g / cm^3
# Si number density = 28.550276 Si / 1000 Ang^3
#
#
#
# Elastic Constant Matrix: (Units=GPa)
#
#
# Indices 1 2 3 4 5 6 
#
# 1 45.1334 37.9888 2.0110 0.0000 3.1366 0.0000
# 2 37.9888 108.1686 38.4056 0.0000 -7.6759 0.0000
# 3 2.0110 38.4056 105.8173 0.0000 -4.2015 0.0000
# 4 0.0000 0.0000 0.0000 46.5099 0.0000 2.0725
# 5 3.1366 -7.6759 -4.2015 0.0000 47.1541 0.0000
# 6 0.0000 0.0000 0.0000 2.0725 0.0000 43.1027
#
#
#
# Elastic Compliance Matrix: (Units=1/GPa)
#
#
# Indices 1 2 3 4 5 6 
#
# 1 0.033695 -0.013590 0.004130 0.000000 -0.004086 0.000000
# 2 -0.013590 0.016185 -0.005495 0.000000 0.003049 0.000000
# 3 0.004130 -0.005495 0.011360 0.000000 -0.000157 0.000000
# 4 0.000000 0.000000 0.000000 0.021547 0.000000 -0.001036
# 5 -0.004086 0.003049 -0.000157 0.000000 0.021961 0.000000
# 6 0.000000 0.000000 0.000000 -0.001036 0.000000 0.023250
#
#
# Mechanical properties :
#
#
# Convention : Reuss Voigt Hill
#
# Bulk Modulus (GPa) = 31.91841 46.21446 39.06643
# Shear Modulus (GPa) = 29.69973 39.40092 34.55033
#
# Velocity S-wave (km/s) = 3.22881 3.71894 3.48251
# Velocity P-wave (km/s) = 5.01041 5.88752 5.46658
#
# Compressibility (1/GPa) = 0.03132988
#
# Stress axis : x y z
#
# Youngs Moduli (GPa) = 29.67788 61.78574 88.02927
#
# Poissons Ratio (x) = 0.83967 -0.36354
# Poissons Ratio (y) = 0.40332 0.48371
# Poissons Ratio (z) = -0.12256 0.33951
#
# Static dielectric constant tensor:
#      x y z
#    x 2.281960 0.000000 0.005170 
#    y 0.000000 2.474630 0.000000 
#    z 0.005170 0.000000 2.477370 
# 
# From -- ./inp_files/6459.got.cif
#   From: 2010.05.17/outbox.cif.g08.bks.cpg/sg9_4_cif.got.tgz:6459.got - 2010.06.03 20:04:27.
