data_PCOD9139212
_publ_section_title
;
Structure prediction by ZEFSAII (Michael W. Deem and Ramdas Pophale) SiO2 
 PCOD9139212
Probable space group: C C
;
_chemical_formula_sum "Si O2"
_cell_formula_units_Z 32
_cell_length_a 11.874495
_cell_length_b 8.138933
_cell_length_c 13.774213
_cell_angle_alpha 90.000000
_cell_angle_beta 84.527171
_cell_angle_gamma 90.000000
_cell_volume 1325.150413
_symmetry_space_group_name_H-M "C C"
_symmetry_group_IT_number 9
_symmetry_cell_setting 'monoclinic'
loop_
_space_group_symop_operation_xyz
x,y,z
x,-y,1/2+z
1/2+x,1/2+y,z
1/2+x,1/2-y,1/2+z
loop_
_atom_site_type_symbol
_atom_site_label
_atom_site_fract_x
_atom_site_fract_y
_atom_site_fract_z
Si Si1 0.602010 0.813540 0.140540
Si Si2 0.853634 0.316521 0.615373
Si Si3 0.075828 0.949840 0.797803
Si Si4 0.518114 0.883439 0.943684
Si Si5 0.869444 0.194615 0.825970
Si Si6 0.193907 0.566666 0.271426
Si Si7 0.248668 0.851856 0.147675
Si Si8 0.571870 0.738771 0.493601
O O1 0.730825 0.759989 0.106986
O O2 0.549933 0.697827 0.226253
O O3 0.615027 0.988343 0.193260
O O4 0.540041 0.798677 0.044221
O O5 0.879054 0.294248 0.726155
O O6 0.839215 0.513483 0.602683
O O7 0.948101 0.211272 0.551580
O O8 0.103883 0.873446 0.899762
O O9 0.173916 0.045406 0.732163
O O10 0.967970 0.061469 0.822143
O O11 0.399504 0.822502 0.908419
O O12 0.614638 0.842076 0.855350
O O13 0.546828 0.074852 0.960306
O O14 0.757695 0.082982 0.821018
O O15 0.278298 0.689251 0.207460
O O16 0.166912 0.792315 0.067214
#
# Coordination Sequence:
#
# PCOD9139212 Si02
#       8
#     4   4   4   4   4   4   4   4
#     4  10  24  46  71 102 148 192 239 308 370 440
#     4  10  25  47  71 108 144 187 258 300 366 454
#     4  11  24  44  73 104 148 194 241 305 378 431
#     4  12  25  45  75 102 150 190 245 307 377 439
#     4  11  26  45  72 106 145 190 248 303 371 442
#     4  11  23  48  71 109 147 193 243 306 369 449
#     4  11  24  48  78 103 156 199 244 312 377 439
#     4  12  25  45  75 110 146 197 252 309 376 442
#
# _framework density 24.148202000000001
#
# number of rings (size 3 to 8) (size 9 to 14) (size 15 to 20)
#    0.000    1.000    5.000    0.000    5.250    3.000 
#    2.250    0.000    0.000    0.000    0.000    0.000 
#    0.000    0.000    0.000    0.000    0.000    0.000 
#
# Total GULP energy -89415.398522 kJ/mol
# GULP energy per Si atom -5588.462408 kJ/mol
# Density = 2.409324 g / cm^3
# Si number density = 24.148202 Si / 1000 Ang^3
#
#
#
# Elastic Constant Matrix: (Units=GPa)
#
#
# Indices 1 2 3 4 5 6 
#
# 1 76.2758 27.9394 51.1070 0.0000 0.2556 0.0000
# 2 27.9394 78.0122 43.0846 0.0000 23.4999 0.0000
# 3 51.1070 43.0846 168.1126 0.0000 30.3841 0.0000
# 4 0.0000 0.0000 0.0000 27.7911 0.0000 -8.8266
# 5 0.2556 23.4999 30.3841 0.0000 27.1140 0.0000
# 6 0.0000 0.0000 0.0000 -8.8266 0.0000 38.8581
#
#
#
# Elastic Compliance Matrix: (Units=1/GPa)
#
#
# Indices 1 2 3 4 5 6 
#
# 1 0.020496 -0.007884 -0.006785 0.000000 0.014243 0.000000
# 2 -0.007884 0.021034 0.000361 0.000000 -0.018560 0.000000
# 3 -0.006785 0.000361 0.009986 0.000000 -0.011439 0.000000
# 4 0.000000 0.000000 0.000000 0.038780 0.000000 0.008809
# 5 0.014243 -0.018560 -0.011439 0.000000 0.065651 0.000000
# 6 0.000000 0.000000 0.000000 0.008809 0.000000 0.027736
#
#
# Mechanical properties :
#
#
# Convention : Reuss Voigt Hill
#
# Bulk Modulus (GPa) = 43.66800 62.96251 53.31526
# Shear Modulus (GPa) = 22.73420 32.10394 27.41907
#
# Velocity S-wave (km/s) = 3.07163 3.65012 3.37330
# Velocity P-wave (km/s) = 5.54098 6.62529 6.10725
#
# Compressibility (1/GPa) = 0.02290006
#
# Stress axis : x y z
#
# Youngs Moduli (GPa) = 48.78923 47.54255 100.14056
#
# Poissons Ratio (x) = 0.37482 0.67942
# Poissons Ratio (y) = 0.38465 -0.03611
# Poissons Ratio (z) = 0.33102 -0.01714
#
# Static dielectric constant tensor:
#      x y z
#    x 1.999720 0.000000 -0.039750 
#    y 0.000000 2.000070 0.000000 
#    z -0.039750 0.000000 1.907570 
# 
# From -- ./inp_files/17928.got.cif
#   From: 2010.05.17/outbox.cif.g08.bks.cpg/sg9_9_cif.got.tgz:17928.got - 2010.06.03 20:04:27.
