data_PCOD9139542
_publ_section_title
;
Structure prediction by ZEFSAII (Michael W. Deem and Ramdas Pophale) SiO2 
 PCOD9139542
Probable space group: C C
;
_chemical_formula_sum "Si O2"
_cell_formula_units_Z 32
_cell_length_a 9.889389
_cell_length_b 24.327675
_cell_length_c 9.856817
_cell_angle_alpha 90.000000
_cell_angle_beta 34.340513
_cell_angle_gamma 90.000000
_cell_volume 1337.736512
_symmetry_space_group_name_H-M "C C"
_symmetry_group_IT_number 9
_symmetry_cell_setting 'monoclinic'
loop_
_space_group_symop_operation_xyz
x,y,z
x,-y,1/2+z
1/2+x,1/2+y,z
1/2+x,1/2-y,1/2+z
loop_
_atom_site_type_symbol
_atom_site_label
_atom_site_fract_x
_atom_site_fract_y
_atom_site_fract_z
Si Si1 0.939560 0.313745 0.146890
Si Si2 0.695896 0.964308 0.611127
Si Si3 0.863698 0.454275 0.485471
Si Si4 0.886955 0.189051 0.095234
Si Si5 0.598974 0.157760 0.096032
Si Si6 0.646227 0.608285 0.411649
Si Si7 0.447364 0.504181 0.163933
Si Si8 0.676136 0.148521 0.714694
O O1 0.923294 0.249995 0.121861
O O2 0.661073 0.335466 0.364765
O O3 0.035724 0.316758 0.221025
O O4 0.165276 0.337406 0.868751
O O5 0.684134 0.901933 0.578037
O O6 0.902724 0.977556 0.547690
O O7 0.725197 0.000923 0.451732
O O8 0.465497 0.984741 0.885226
O O9 0.797955 0.430538 0.685675
O O10 0.637369 0.455672 0.575247
O O11 0.074017 0.412593 0.272230
O O12 0.764361 0.196186 0.049043
O O13 0.312857 0.151122 0.352936
O O14 0.630538 0.165216 0.908879
O O15 0.521100 0.560584 0.601783
O O16 0.461195 0.642206 0.472968
#
# Coordination Sequence:
#
# PCOD9139542 Si02
#       8
#     4   4   4   4   4   4   4   4
#     4  10  25  50  79 103 147 181 234 306 379 450
#     4  12  24  39  59  94 139 194 236 296 346 419
#     4  11  23  39  61  93 137 193 242 287 347 418
#     4  10  25  51  75 111 143 179 236 310 379 442
#     4  11  25  41  72 104 141 186 245 301 361 432
#     4  11  22  42  63  97 143 184 243 297 347 427
#     4  12  22  38  58  89 141 187 243 292 343 413
#     4  11  24  44  71 101 139 192 247 293 362 439
#
# _framework density 23.921004
#
# number of rings (size 3 to 8) (size 9 to 14) (size 15 to 20)
#    0.000    1.000    5.000    0.750    7.000    1.000 
#    0.000    5.000    0.000    0.000    0.000    0.000 
#    0.000    0.000    0.000    0.000    0.000    0.000 
#
# Total GULP energy -89212.527410 kJ/mol
# GULP energy per Si atom -5575.782963 kJ/mol
# Density = 2.386656 g / cm^3
# Si number density = 23.921004 Si / 1000 Ang^3
#
#
#
# Elastic Constant Matrix: (Units=GPa)
#
#
# Indices 1 2 3 4 5 6 
#
# 1 183.9707 25.6954 45.8060 0.0000 -8.0593 0.0000
# 2 25.6954 26.2729 6.6371 0.0000 1.0779 0.0000
# 3 45.8060 6.6371 105.6795 0.0000 -10.2964 0.0000
# 4 0.0000 0.0000 0.0000 9.6475 0.0000 1.8743
# 5 -8.0593 1.0779 -10.2964 0.0000 48.9464 0.0000
# 6 0.0000 0.0000 0.0000 1.8743 0.0000 49.6288
#
#
#
# Elastic Compliance Matrix: (Units=1/GPa)
#
#
# Indices 1 2 3 4 5 6 
#
# 1 0.006972 -0.006203 -0.002560 0.000000 0.000746 0.000000
# 2 -0.006203 0.044287 -0.000293 0.000000 -0.002058 0.000000
# 3 -0.002560 -0.000293 0.010771 0.000000 0.001851 0.000000
# 4 0.000000 0.000000 0.000000 0.104420 0.000000 -0.003944
# 5 0.000746 -0.002058 0.001851 0.000000 0.020988 0.000000
# 6 0.000000 0.000000 0.000000 -0.003944 0.000000 0.020299
#
#
# Mechanical properties :
#
#
# Convention : Reuss Voigt Hill
#
# Bulk Modulus (GPa) = 22.76967 52.46669 37.61818
# Shear Modulus (GPa) = 20.79106 37.49684 29.14395
#
# Velocity S-wave (km/s) = 2.95134 3.96350 3.49426
# Velocity P-wave (km/s) = 4.59927 6.55184 5.66039
#
# Compressibility (1/GPa) = 0.04391808
#
# Stress axis : x y z
#
# Youngs Moduli (GPa) = 143.43073 22.57998 92.84354
#
# Poissons Ratio (x) = 0.14006 0.23765
# Poissons Ratio (y) = 0.88966 0.02724
# Poissons Ratio (z) = 0.36714 0.00663
#
# Static dielectric constant tensor:
#      x y z
#    x 1.992070 0.000000 -0.056940 
#    y 0.000000 1.913390 0.000000 
#    z -0.056940 0.000000 2.062890 
# 
# From -- ./inp_files/6445.got.cif
#   From: 2010.05.17/outbox.cif.g08.bks.cpg/sg9_4_cif.got.tgz:6445.got - 2010.06.03 20:04:27.
