data_PCOD9139150
_publ_section_title
;
Structure prediction by ZEFSAII (Michael W. Deem and Ramdas Pophale) SiO2 
 PCOD9139150
Probable space group: C C
;
_chemical_formula_sum "Si O2"
_cell_formula_units_Z 32
_cell_length_a 6.716165
_cell_length_b 30.251229
_cell_length_c 9.117968
_cell_angle_alpha 90.000000
_cell_angle_beta 120.122553
_cell_angle_gamma 90.000000
_cell_volume 1602.342784
_symmetry_space_group_name_H-M "C C"
_symmetry_group_IT_number 9
_symmetry_cell_setting 'monoclinic'
loop_
_space_group_symop_operation_xyz
x,y,z
x,-y,1/2+z
1/2+x,1/2+y,z
1/2+x,1/2-y,1/2+z
loop_
_atom_site_type_symbol
_atom_site_label
_atom_site_fract_x
_atom_site_fract_y
_atom_site_fract_z
Si Si1 0.679590 0.715293 0.802480
Si Si2 0.406751 0.778645 0.894216
Si Si3 0.399659 0.280670 0.648288
Si Si4 0.865770 0.056676 0.665376
Si Si5 0.395470 0.054146 0.958838
Si Si6 0.724215 0.844360 0.174547
Si Si7 0.132006 0.509855 0.313497
Si Si8 0.593536 0.149259 0.969989
O O1 0.609213 0.756234 0.878671
O O2 0.797074 0.742304 0.713208
O O3 0.445872 0.685779 0.711087
O O4 0.873504 0.680385 0.918468
O O5 0.170683 0.788795 0.726089
O O6 0.319581 0.738894 0.964684
O O7 0.507772 0.819213 0.022288
O O8 0.289145 0.327790 0.640208
O O9 0.759023 0.105758 0.632470
O O10 0.812561 0.037163 0.482631
O O11 0.130189 0.060728 0.815501
O O12 0.753746 0.023621 0.744252
O O13 0.530432 0.099696 0.983928
O O14 0.490207 0.018167 0.879441
O O15 0.459241 0.038374 0.147080
O O16 0.676647 0.848214 0.331326
#
# Coordination Sequence:
#
# PCOD9139150 Si02
#       8
#     4   4   4   4   4   4   4   4
#     4  12  22  41  68  84 132 176 218 269 330 380
#     4  12  24  41  62  93 130 173 225 270 322 392
#     4  12  24  41  62  93 130 173 225 270 322 392
#     4  11  23  45  72  98 136 172 217 277 340 401
#     4  11  23  45  72  98 136 172 217 277 340 401
#     4  12  24  42  64  96 131 173 220 272 328 396
#     4  10  24  45  70 106 128 168 222 271 344 414
#     4  12  24  42  64  96 131 173 220 272 328 396
#
# _framework density 19.970756999999999
#
# number of rings (size 3 to 8) (size 9 to 14) (size 15 to 20)
#    0.000    0.500    7.500    1.500    0.000    1.000 
#    4.500    1.250    0.000    0.000    0.000    0.000 
#    0.000    0.000    0.000    0.000    0.000    0.000 
#
# Total GULP energy -89182.448690 kJ/mol
# GULP energy per Si atom -5573.903043 kJ/mol
# Density = 1.992530 g / cm^3
# Si number density = 19.970757 Si / 1000 Ang^3
#
#
#
# Elastic Constant Matrix: (Units=GPa)
#
#
# Indices 1 2 3 4 5 6 
#
# 1 65.9621 25.2262 18.5056 0.0000 3.0913 0.0000
# 2 25.2262 138.5799 47.5813 0.0000 6.4453 0.0000
# 3 18.5056 47.5813 75.5194 0.0000 6.4596 0.0000
# 4 0.0000 0.0000 0.0000 26.9064 0.0000 8.5696
# 5 3.0913 6.4453 6.4596 0.0000 24.3346 0.0000
# 6 0.0000 0.0000 0.0000 8.5696 0.0000 20.7531
#
#
#
# Elastic Compliance Matrix: (Units=1/GPa)
#
#
# Indices 1 2 3 4 5 6 
#
# 1 0.016759 -0.002075 -0.002726 0.000000 -0.000856 0.000000
# 2 -0.002075 0.009485 -0.005398 0.000000 -0.000816 0.000000
# 3 -0.002726 -0.005398 0.017557 0.000000 -0.002885 0.000000
# 4 0.000000 0.000000 0.000000 0.042794 0.000000 -0.017671
# 5 -0.000856 -0.000816 -0.002885 0.000000 0.042184 0.000000
# 6 0.000000 0.000000 0.000000 -0.017671 0.000000 0.055482
#
#
# Mechanical properties :
#
#
# Convention : Reuss Voigt Hill
#
# Bulk Modulus (GPa) = 42.72902 51.40972 47.06937
# Shear Modulus (GPa) = 23.53382 26.98206 25.25794
#
# Velocity S-wave (km/s) = 3.43653 3.67969 3.56019
# Velocity P-wave (km/s) = 6.09824 6.62207 6.36555
#
# Compressibility (1/GPa) = 0.02340330
#
# Stress axis : x y z
#
# Youngs Moduli (GPa) = 59.67078 105.42921 56.95619
#
# Poissons Ratio (x) = 0.21875 0.15527
# Poissons Ratio (y) = 0.12381 0.30744
# Poissons Ratio (z) = 0.16267 0.56909
#
# Static dielectric constant tensor:
#      x y z
#    x 1.733800 0.000000 0.007290 
#    y 0.000000 1.690620 0.000000 
#    z 0.007290 0.000000 1.762910 
# 
# From -- ./inp_files/4323.got.cif
#   From: 2010.05.17/outbox.cif.g08.bks.cpg/sg9_3_cif.got.tgz:4323.got - 2010.06.03 20:04:27.
