data_PCOD9139649
_publ_section_title
;
Structure prediction by ZEFSAII (Michael W. Deem and Ramdas Pophale) SiO2 
 PCOD9139649
Probable space group: C C
;
_chemical_formula_sum "Si O2"
_cell_formula_units_Z 32
_cell_length_a 8.982771
_cell_length_b 13.621487
_cell_length_c 10.814107
_cell_angle_alpha 90.000000
_cell_angle_beta 95.087450
_cell_angle_gamma 90.000000
_cell_volume 1317.987327
_symmetry_space_group_name_H-M "C C"
_symmetry_group_IT_number 9
_symmetry_cell_setting 'monoclinic'
loop_
_space_group_symop_operation_xyz
x,y,z
x,-y,1/2+z
1/2+x,1/2+y,z
1/2+x,1/2-y,1/2+z
loop_
_atom_site_type_symbol
_atom_site_label
_atom_site_fract_x
_atom_site_fract_y
_atom_site_fract_z
Si Si1 0.181120 0.547295 0.663630
Si Si2 0.056399 0.689112 0.479287
Si Si3 0.815066 0.654442 0.974940
Si Si4 0.635345 0.482113 0.036057
Si Si5 0.251795 0.233647 0.579843
Si Si6 0.987408 0.941824 0.771005
Si Si7 0.029698 0.648667 0.207132
Si Si8 0.070811 0.284956 0.328702
O O1 0.152861 0.592718 0.525259
O O2 0.333217 0.491652 0.711398
O O3 0.056810 0.465727 0.683393
O O4 0.155406 0.646155 0.739045
O O5 0.167057 0.780023 0.466324
O O6 0.980693 0.666573 0.342557
O O7 0.926615 0.717647 0.566624
O O8 0.773363 0.542021 0.991067
O O9 0.916432 0.666369 0.862580
O O10 0.912150 0.688809 0.099823
O O11 0.677232 0.372453 0.074112
O O12 0.519815 0.483281 0.911893
O O13 0.591517 0.531026 0.162155
O O14 0.186473 0.295782 0.688991
O O15 0.181523 0.285301 0.454490
O O16 0.023928 0.826176 0.792143
#
# Coordination Sequence:
#
# PCOD9139649 Si02
#       8
#     4   4   4   4   4   4   4   4
#     4  12  29  46  83 111 162 206 269 321 410 480
#     4  12  29  46  82 113 155 211 263 325 409 476
#     4  11  27  48  78 112 156 203 264 328 403 478
#     4  11  27  47  81 114 162 211 264 327 411 480
#     4  10  27  50  76 112 157 206 265 332 394 485
#     4  11  28  50  79 121 160 209 270 334 402 487
#     4  11  29  50  76 111 160 204 264 329 397 487
#     4  10  26  53  77 116 158 204 271 330 398 489
#
# _framework density 24.279442
#
# number of rings (size 3 to 8) (size 9 to 14) (size 15 to 20)
#    0.000    1.000    0.000    2.250   26.250    0.000 
#    0.000    0.000    0.000    0.000    0.000    0.000 
#    0.000    0.000    0.000    0.000    0.000    0.000 
#
# Total GULP energy -89509.738310 kJ/mol
# GULP energy per Si atom -5594.358644 kJ/mol
# Density = 2.422418 g / cm^3
# Si number density = 24.279442 Si / 1000 Ang^3
#
#
#
# Elastic Constant Matrix: (Units=GPa)
#
#
# Indices 1 2 3 4 5 6 
#
# 1 46.3353 -3.1565 -13.6604 0.0000 3.2680 0.0000
# 2 -3.1565 70.0205 5.2667 0.0000 -10.7928 0.0000
# 3 -13.6604 5.2667 70.9569 0.0000 -6.6678 0.0000
# 4 0.0000 0.0000 0.0000 32.4921 0.0000 -4.8434
# 5 3.2680 -10.7928 -6.6678 0.0000 32.0226 0.0000
# 6 0.0000 0.0000 0.0000 -4.8434 0.0000 33.5709
#
#
#
# Elastic Compliance Matrix: (Units=1/GPa)
#
#
# Indices 1 2 3 4 5 6 
#
# 1 0.022964 0.000517 0.004262 0.000000 -0.001282 0.000000
# 2 0.000517 0.015106 -0.000559 0.000000 0.004922 0.000000
# 3 0.004262 -0.000559 0.015194 0.000000 0.002540 0.000000
# 4 0.000000 0.000000 0.000000 0.031453 0.000000 0.004538
# 5 -0.001282 0.004922 0.002540 0.000000 0.033547 0.000000
# 6 0.000000 0.000000 0.000000 0.004538 0.000000 0.030442
#
#
# Mechanical properties :
#
#
# Convention : Reuss Voigt Hill
#
# Bulk Modulus (GPa) = 16.20657 18.24583 17.22620
# Shear Modulus (GPa) = 31.08813 32.87466 31.98139
#
# Velocity S-wave (km/s) = 3.58219 3.68368 3.63329
# Velocity P-wave (km/s) = 4.87842 5.06201 4.97106
#
# Compressibility (1/GPa) = 0.06170337
#
# Stress axis : x y z
#
# Youngs Moduli (GPa) = 43.54641 66.20086 65.81637
#
# Poissons Ratio (x) = -0.03423 -0.28052
# Poissons Ratio (y) = -0.02252 0.03680
# Poissons Ratio (z) = -0.18560 0.03702
#
# Static dielectric constant tensor:
#      x y z
#    x 1.987260 0.000000 0.040280 
#    y 0.000000 1.876110 0.000000 
#    z 0.040280 0.000000 1.950430 
# 
# From -- ./inp_files/14635.got.cif
#   From: 2010.05.17/outbox.cif.g08.bks.cpg/sg9_8_cif.got.tgz:14635.got - 2010.06.03 20:04:27.
