data_PCOD9139802
_publ_section_title
;
Structure prediction by ZEFSAII (Michael W. Deem and Ramdas Pophale) SiO2 
 PCOD9139802
Probable space group: C C
;
_chemical_formula_sum "Si O2"
_cell_formula_units_Z 32
_cell_length_a 7.351416
_cell_length_b 18.974807
_cell_length_c 11.103551
_cell_angle_alpha 90.000000
_cell_angle_beta 121.872178
_cell_angle_gamma 90.000000
_cell_volume 1315.329801
_symmetry_space_group_name_H-M "C C"
_symmetry_group_IT_number 9
_symmetry_cell_setting 'monoclinic'
loop_
_space_group_symop_operation_xyz
x,y,z
x,-y,1/2+z
1/2+x,1/2+y,z
1/2+x,1/2-y,1/2+z
loop_
_atom_site_type_symbol
_atom_site_label
_atom_site_fract_x
_atom_site_fract_y
_atom_site_fract_z
Si Si1 0.797150 0.992178 0.466210
Si Si2 0.199948 0.748993 0.481423
Si Si3 0.274228 0.788188 0.103781
Si Si4 0.240144 0.883577 0.331415
Si Si5 0.204744 0.627524 0.069985
Si Si6 0.791245 0.060172 0.711473
Si Si7 0.763227 0.225446 0.759694
Si Si8 0.930967 0.872230 0.903312
O O1 0.867768 0.914707 0.538662
O O2 0.697001 0.975599 0.299224
O O3 0.704230 0.029838 0.555061
O O4 0.958876 0.053335 0.479670
O O5 0.205514 0.822007 0.415121
O O6 0.315575 0.758630 0.648393
O O7 0.298356 0.683934 0.440746
O O8 0.942742 0.744910 0.411264
O O9 0.228846 0.838853 0.203475
O O10 0.168699 0.711173 0.049826
O O11 0.518168 0.764402 0.206731
O O12 0.161825 0.837211 0.964574
O O13 0.482397 0.906581 0.444337
O O14 0.052673 0.941032 0.285806
O O15 0.294714 0.616506 0.234842
O O16 0.757065 0.142624 0.722988
#
# Coordination Sequence:
#
# PCOD9139802 Si02
#       8
#     4   4   4   4   4   4   4   4
#     4  12  25  48  68 103 147 195 241 296 365 446
#     4  11  21  42  68 102 137 181 237 293 366 422
#     4  12  24  44  74 106 140 185 246 306 361 433
#     4  11  23  44  71 102 139 189 236 306 367 422
#     4  12  25  43  73 107 139 185 249 295 357 441
#     4  11  25  49  71 100 150 192 239 305 365 441
#     4  11  26  40  70 107 143 176 238 308 363 423
#     4  12  23  46  73  99 143 193 236 293 370 438
#
# _framework density 24.328499999999998
#
# number of rings (size 3 to 8) (size 9 to 14) (size 15 to 20)
#    0.000    0.500    6.250    2.250    7.000    0.000 
#    4.500    0.000    0.000    0.000    0.000    0.000 
#    0.000    0.000    0.000    0.000    0.000    0.000 
#
# Total GULP energy -89101.023917 kJ/mol
# GULP energy per Si atom -5568.813995 kJ/mol
# Density = 2.427313 g / cm^3
# Si number density = 24.328500 Si / 1000 Ang^3
#
#
#
# Elastic Constant Matrix: (Units=GPa)
#
#
# Indices 1 2 3 4 5 6 
#
# 1 58.8161 6.4711 18.1531 0.0000 8.2026 0.0000
# 2 6.4711 89.7767 24.7073 0.0000 -5.4275 0.0000
# 3 18.1531 24.7073 98.6672 0.0000 -7.9774 0.0000
# 4 0.0000 0.0000 0.0000 32.4167 0.0000 -5.0685
# 5 8.2026 -5.4275 -7.9774 0.0000 48.5213 0.0000
# 6 0.0000 0.0000 0.0000 -5.0685 0.0000 33.1620
#
#
#
# Elastic Compliance Matrix: (Units=1/GPa)
#
#
# Indices 1 2 3 4 5 6 
#
# 1 0.018712 -0.000588 -0.003605 0.000000 -0.003822 0.000000
# 2 -0.000588 0.012017 -0.002822 0.000000 0.000980 0.000000
# 3 -0.003605 -0.002822 0.011684 0.000000 0.002215 0.000000
# 4 0.000000 0.000000 0.000000 0.031604 0.000000 0.004830
# 5 -0.003822 0.000980 0.002215 0.000000 0.021729 0.000000
# 6 0.000000 0.000000 0.000000 0.004830 0.000000 0.030893
#
#
# Mechanical properties :
#
#
# Convention : Reuss Voigt Hill
#
# Bulk Modulus (GPa) = 35.23011 38.43589 36.83300
# Shear Modulus (GPa) = 33.30466 36.01525 34.65995
#
# Velocity S-wave (km/s) = 3.70396 3.85174 3.77857
# Velocity P-wave (km/s) = 5.72755 5.96776 5.84889
#
# Compressibility (1/GPa) = 0.02838481
#
# Stress axis : x y z
#
# Youngs Moduli (GPa) = 53.44074 83.21593 85.58768
#
# Poissons Ratio (x) = 0.04892 0.30850
# Poissons Ratio (y) = 0.03141 0.24151
# Poissons Ratio (z) = 0.19263 0.23482
#
# Static dielectric constant tensor:
#      x y z
#    x 2.184250 0.000000 0.073030 
#    y 0.000000 1.984720 0.000000 
#    z 0.073030 0.000000 2.011500 
# 
# From -- ./inp_files/5757.got.cif
#   From: 2010.05.17/outbox.cif.g08.bks.cpg/sg9_3_cif.got.tgz:5757.got - 2010.06.03 20:04:27.
