data_PCOD9139145
_publ_section_title
;
Structure prediction by ZEFSAII (Michael W. Deem and Ramdas Pophale) SiO2 
 PCOD9139145
Probable space group: C C
;
_chemical_formula_sum "Si O2"
_cell_formula_units_Z 32
_cell_length_a 5.153200
_cell_length_b 31.343075
_cell_length_c 8.385258
_cell_angle_alpha 90.000000
_cell_angle_beta 76.309159
_cell_angle_gamma 90.000000
_cell_volume 1315.881285
_symmetry_space_group_name_H-M "C C"
_symmetry_group_IT_number 9
_symmetry_cell_setting 'monoclinic'
loop_
_space_group_symop_operation_xyz
x,y,z
x,-y,1/2+z
1/2+x,1/2+y,z
1/2+x,1/2-y,1/2+z
loop_
_atom_site_type_symbol
_atom_site_label
_atom_site_fract_x
_atom_site_fract_y
_atom_site_fract_z
Si Si1 0.487750 0.734177 0.161410
Si Si2 0.357541 0.920442 0.651470
Si Si3 0.809435 0.058405 0.847729
Si Si4 0.544545 0.638722 0.649551
Si Si5 0.992107 0.856983 0.796430
Si Si6 0.856278 0.516487 0.727020
Si Si7 0.501240 0.091587 0.485397
Si Si8 0.961250 0.223713 0.801553
O O1 0.396315 0.687070 0.231703
O O2 0.714153 0.751712 0.251077
O O3 0.230676 0.763604 0.173424
O O4 0.568394 0.730946 0.965503
O O5 0.636446 0.921539 0.516173
O O6 0.170701 0.880672 0.632699
O O7 0.280336 0.970098 0.674775
O O8 0.349927 0.908425 0.839274
O O9 0.880198 0.094775 0.706167
O O10 0.615444 0.022281 0.801176
O O11 0.095613 0.037812 0.845959
O O12 0.558028 0.657871 0.469137
O O13 0.853120 0.624155 0.627020
O O14 0.420741 0.673581 0.781817
O O15 0.780975 0.893012 0.879538
O O16 0.948496 0.545774 0.566435
#
# Coordination Sequence:
#
# PCOD9139145 Si02
#       8
#     4   4   4   4   4   4   4   4
#     4  12  29  49  77 113 159 194 261 313 391 460
#     4  11  27  40  72 103 145 193 251 315 371 452
#     4  11  26  44  70 104 141 192 244 313 369 450
#     4  10  24  46  73 102 149 193 255 299 392 449
#     4  11  25  46  71 104 149 199 246 316 383 456
#     4  11  25  46  67 103 145 195 252 303 378 449
#     4  10  24  45  70 101 146 198 237 310 376 443
#     4  12  28  50  78 116 148 208 248 323 380 471
#
# _framework density 24.318303
#
# number of rings (size 3 to 8) (size 9 to 14) (size 15 to 20)
#    0.000    1.000    1.250    3.000   14.000    2.000 
#    0.000    0.000    0.000    0.000    0.000    0.000 
#    0.000    0.000    0.000    0.000    0.000    0.000 
#
# Total GULP energy -89089.703494 kJ/mol
# GULP energy per Si atom -5568.106468 kJ/mol
# Density = 2.426295 g / cm^3
# Si number density = 24.318303 Si / 1000 Ang^3
#
#
#
# Elastic Constant Matrix: (Units=GPa)
#
#
# Indices 1 2 3 4 5 6 
#
# 1 415.6895 44.7171 -39.1368 0.0000 -617.6559 0.0000
# 2 44.7171 73.5180 19.1443 0.0000 -71.0588 0.0000
# 3 -39.1368 19.1443 78.1610 0.0000 93.6834 0.0000
# 4 0.0000 0.0000 0.0000 59.5000 0.0000 -9.6193
# 5 -617.6559 -71.0588 93.6834 0.0000 1176.2205 0.0000
# 6 0.0000 0.0000 0.0000 -9.6193 0.0000 25.2520
#
#
#
# Elastic Compliance Matrix: (Units=1/GPa)
#
#
# Indices 1 2 3 4 5 6 
#
# 1 0.011152 -0.000714 -0.001336 0.000000 0.005920 0.000000
# 2 -0.000714 0.016568 -0.005711 0.000000 0.001081 0.000000
# 3 -0.001336 -0.005711 0.016338 0.000000 -0.002348 0.000000
# 4 0.000000 0.000000 0.000000 0.017910 0.000000 0.006822
# 5 0.005920 0.001081 -0.002348 0.000000 0.004211 0.000000
# 6 0.000000 0.000000 0.000000 0.006822 0.000000 0.042200
#
#
# Mechanical properties :
#
#
# Convention : Reuss Voigt Hill
#
# Bulk Modulus (GPa) = 35.04299 68.53529 51.78914
# Shear Modulus (GPa) = 37.47736 288.37075 162.92405
#
# Velocity S-wave (km/s) = 3.92997 10.90134 8.19402
# Velocity P-wave (km/s) = 5.91897 13.66368 10.52925
#
# Compressibility (1/GPa) = 0.02853638
#
# Stress axis : x y z
#
# Youngs Moduli (GPa) = 89.66773 60.35607 61.20619
#
# Poissons Ratio (x) = 0.04308 0.08178
# Poissons Ratio (y) = 0.06401 0.34956
# Poissons Ratio (z) = 0.11981 0.34471
#
# Static dielectric constant tensor:
#      x y z
#    x 2.188420 0.000000 -0.182720 
#    y 0.000000 1.458490 0.000000 
#    z -0.182720 0.000000 -1.689600 
# 
# From -- ./inp_files/4488.got.cif
#   From: 2010.05.17/outbox.cif.g08.bks.cpg/sg9_3_cif.got.tgz:4488.got - 2010.06.03 20:04:27.
