data_PCOD9139431
_publ_section_title
;
Structure prediction by ZEFSAII (Michael W. Deem and Ramdas Pophale) SiO2 
 PCOD9139431
Probable space group: C C
;
_chemical_formula_sum "Si O2"
_cell_formula_units_Z 32
_cell_length_a 7.046440
_cell_length_b 11.696727
_cell_length_c 17.184522
_cell_angle_alpha 90.000000
_cell_angle_beta 84.392975
_cell_angle_gamma 90.000000
_cell_volume 1409.576557
_symmetry_space_group_name_H-M "C C"
_symmetry_group_IT_number 9
_symmetry_cell_setting 'monoclinic'
loop_
_space_group_symop_operation_xyz
x,y,z
x,-y,1/2+z
1/2+x,1/2+y,z
1/2+x,1/2-y,1/2+z
loop_
_atom_site_type_symbol
_atom_site_label
_atom_site_fract_x
_atom_site_fract_y
_atom_site_fract_z
Si Si1 0.916990 0.953646 0.652510
Si Si2 0.482393 0.979974 0.157254
Si Si3 0.952777 0.792903 0.512911
Si Si4 0.464958 0.754332 0.264994
Si Si5 0.681196 0.398990 0.062043
Si Si6 0.306799 0.121896 0.299725
Si Si7 0.501659 0.498241 0.911446
Si Si8 0.675478 0.170824 0.389310
O O1 0.920051 0.868023 0.724996
O O2 0.005584 0.871836 0.582716
O O3 0.702131 0.987237 0.640967
O O4 0.040677 0.069748 0.639685
O O5 0.464348 0.859123 0.204878
O O6 0.371723 0.966756 0.080615
O O7 0.382432 0.075259 0.214805
O O8 0.945775 0.874854 0.438376
O O9 0.114926 0.706298 0.478601
O O10 0.759796 0.728049 0.544133
O O11 0.673620 0.732885 0.293020
O O12 0.306333 0.763047 0.338598
O O13 0.580676 0.437058 0.986749
O O14 0.485292 0.144539 0.348415
O O15 0.168739 0.026528 0.343492
O O16 0.311250 0.437740 0.890579
#
# Coordination Sequence:
#
# PCOD9139431 Si02
#       8
#     4   4   4   4   4   4   4   4
#     4  11  25  43  64 101 135 174 229 279 328 410
#     4  12  25  43  70 101 137 181 221 280 348 397
#     4  11  24  45  67  96 135 179 220 281 337 400
#     4  11  24  44  68 101 135 175 224 278 337 407
#     4  11  24  44  66 100 137 174 228 276 334 407
#     4  11  23  45  72 101 134 177 226 282 336 407
#     4  10  25  45  68  99 136 172 230 282 328 411
#     4  11  24  47  69  99 137 178 230 278 346 399
#
# _framework density 22.701853
#
# number of rings (size 3 to 8) (size 9 to 14) (size 15 to 20)
#    0.000    1.000    5.000    0.750    3.500    3.000 
#    6.750    0.000    0.000    0.000    0.000    0.000 
#    0.000    0.000    0.000    0.000    0.000    0.000 
#
# Total GULP energy -89354.428909 kJ/mol
# GULP energy per Si atom -5584.651807 kJ/mol
# Density = 2.265018 g / cm^3
# Si number density = 22.701853 Si / 1000 Ang^3
#
#
#
# Elastic Constant Matrix: (Units=GPa)
#
#
# Indices 1 2 3 4 5 6 
#
# 1 143.1009 24.8419 22.4650 0.0000 8.4075 0.0000
# 2 24.8419 56.4555 4.8353 0.0000 -8.5696 0.0000
# 3 22.4650 4.8353 64.0989 0.0000 -4.4425 0.0000
# 4 0.0000 0.0000 0.0000 42.0365 0.0000 -4.3125
# 5 8.4075 -8.5696 -4.4425 0.0000 40.8832 0.0000
# 6 0.0000 0.0000 0.0000 -4.3125 0.0000 26.5311
#
#
#
# Elastic Compliance Matrix: (Units=1/GPa)
#
#
# Indices 1 2 3 4 5 6 
#
# 1 0.008255 -0.003818 -0.002799 0.000000 -0.002802 0.000000
# 2 -0.003818 0.020142 0.000167 0.000000 0.005025 0.000000
# 3 -0.002799 0.000167 0.016738 0.000000 0.002429 0.000000
# 4 0.000000 0.000000 0.000000 0.024192 0.000000 0.003932
# 5 -0.002802 0.005025 0.002429 0.000000 0.026354 0.000000
# 6 0.000000 0.000000 0.000000 0.003932 0.000000 0.038331
#
#
# Mechanical properties :
#
#
# Convention : Reuss Voigt Hill
#
# Bulk Modulus (GPa) = 31.02349 40.88219 35.95284
# Shear Modulus (GPa) = 31.71460 35.99101 33.85280
#
# Velocity S-wave (km/s) = 3.74171 3.98600 3.86578
# Velocity P-wave (km/s) = 5.68880 6.26352 5.98306
#
# Compressibility (1/GPa) = 0.03223364
#
# Stress axis : x y z
#
# Youngs Moduli (GPa) = 121.13935 49.64857 59.74516
#
# Poissons Ratio (x) = 0.18956 0.16725
# Poissons Ratio (y) = 0.46251 -0.00998
# Poissons Ratio (z) = 0.33911 -0.00829
#
# Static dielectric constant tensor:
#      x y z
#    x 1.826260 0.000000 -0.007560 
#    y 0.000000 1.888130 0.000000 
#    z -0.007560 0.000000 1.872340 
# 
# From -- ./inp_files/32014.got.cif
#   From: 2010.05.17/outbox.cif.g08.bks.cpg/sg9_17_cif.got.tgz:32014.got - 2010.06.03 20:04:27.
