data_PCOD9139255
_publ_section_title
;
Structure prediction by ZEFSAII (Michael W. Deem and Ramdas Pophale) SiO2 
 PCOD9139255
Probable space group: C C
;
_chemical_formula_sum "Si O2"
_cell_formula_units_Z 24
_cell_length_a 23.733600
_cell_length_b 5.060517
_cell_length_c 10.763719
_cell_angle_alpha 90.000000
_cell_angle_beta 45.747096
_cell_angle_gamma 90.000000
_cell_volume 925.967073
_symmetry_space_group_name_H-M "C C"
_symmetry_group_IT_number 9
_symmetry_cell_setting 'monoclinic'
loop_
_space_group_symop_operation_xyz
x,y,z
x,-y,1/2+z
1/2+x,1/2+y,z
1/2+x,1/2-y,1/2+z
loop_
_atom_site_type_symbol
_atom_site_label
_atom_site_fract_x
_atom_site_fract_y
_atom_site_fract_z
Si Si1 0.367750 0.095454 0.298590
Si Si2 0.541185 0.106377 0.939128
Si Si3 0.739931 0.061143 0.929657
Si Si4 0.291538 0.913597 0.658631
Si Si5 0.083089 0.873632 0.223770
Si Si6 0.139803 0.205462 0.947857
O O1 0.318010 0.370852 0.384981
O O2 0.343876 0.936850 0.457404
O O3 0.334204 0.979022 0.218906
O O4 0.459038 0.126324 0.136262
O O5 0.534918 0.888178 0.836316
O O6 0.603342 0.952484 0.931694
O O7 0.563877 0.392712 0.850357
O O8 0.768421 0.123439 0.744286
O O9 0.687462 0.804743 0.997302
O O10 0.672831 0.268331 0.074174
O O11 0.207959 0.055063 0.769714
O O12 0.073052 0.012641 0.105142
#
# Coordination Sequence:
#
# PCOD9139255 Si02
#       6
#     4   4   4   4   4   4
#     4  10  24  47  69 109 151 195 244 317 378 446
#     4  12  28  44  76 109 154 190 250 318 382 444
#     4   9  22  44  75 102 145 195 249 306 357 460
#     4   9  23  44  72 104 143 195 248 298 375 446
#     4  11  25  46  71 107 145 196 253 298 381 444
#     4  11  24  43  81 107 148 197 262 307 375 454
#
# _framework density 25.918848000000001
#
# number of rings (size 3 to 8) (size 9 to 14) (size 15 to 20)
#    1.000    0.667    1.667    1.000    9.333    1.333 
#    3.000    0.000    0.000    0.000    0.000    0.000 
#    0.000    0.000    0.000    0.000    0.000    0.000 
#
# Total GULP energy -66973.144354 kJ/mol
# GULP energy per Si atom -5581.095363 kJ/mol
# Density = 2.585986 g / cm^3
# Si number density = 25.918848 Si / 1000 Ang^3
#
#
#
# Elastic Constant Matrix: (Units=GPa)
#
#
# Indices 1 2 3 4 5 6 
#
# 1 70.8751 12.0162 47.0867 -0.0002 1.7653 0.0006
# 2 12.0162 108.0236 38.5814 -0.0009 -0.4586 0.0033
# 3 47.0867 38.5814 212.8189 0.0000 -0.9334 0.0000
# 4 -0.0002 -0.0009 0.0000 27.2478 -0.0001 8.9666
# 5 1.7653 -0.4586 -0.9334 -0.0001 49.0059 -0.0001
# 6 0.0006 0.0033 0.0000 8.9666 -0.0001 27.9638
#
#
#
# Elastic Compliance Matrix: (Units=1/GPa)
#
#
# Indices 1 2 3 4 5 6 
#
# 1 0.016596 -0.000574 -0.003571 0.000000 -0.000671 0.000000
# 2 -0.000574 0.009918 -0.001671 0.000001 0.000082 -0.000001
# 3 -0.003571 -0.001671 0.005793 0.000000 0.000223 0.000000
# 4 0.000000 0.000001 0.000000 0.041030 0.000000 -0.013156
# 5 -0.000671 0.000082 0.000223 0.000000 0.020435 0.000000
# 6 0.000000 -0.000001 0.000000 -0.013156 0.000000 0.039979
#
#
# Mechanical properties :
#
#
# Convention : Reuss Voigt Hill
#
# Bulk Modulus (GPa) = 48.36471 65.23177 56.79824
# Shear Modulus (GPa) = 32.83590 40.44572 36.64081
#
# Velocity S-wave (km/s) = 3.56318 3.95457 3.76396
# Velocity P-wave (km/s) = 5.96899 6.78777 6.39151
#
# Compressibility (1/GPa) = 0.02067623
#
# Stress axis : x y z
#
# Youngs Moduli (GPa) = 60.25702 100.82562 172.62981
#
# Poissons Ratio (x) = 0.05783 0.61642
# Poissons Ratio (y) = 0.03456 0.28842
# Poissons Ratio (z) = 0.21516 0.16846
#
# Static dielectric constant tensor:
#      x y z
#    x 2.154180 0.000000 0.115940 
#    y 0.000000 2.183930 0.000000 
#    z 0.115940 0.000000 2.007020 
# 
# From -- ./inp_files/21325.got.cif
#   From: 2010.05.17/outbox.cif.g08.bks.cpg/sg9_11_cif.got.tgz:21325.got - 2010.06.03 20:04:27.
