data_PCOD9139287
_publ_section_title
;
Structure prediction by ZEFSAII (Michael W. Deem and Ramdas Pophale) SiO2 
 PCOD9139287
Probable space group: C C
;
_chemical_formula_sum "Si O2"
_cell_formula_units_Z 20
_cell_length_a 9.787458
_cell_length_b 7.327637
_cell_length_c 21.993410
_cell_angle_alpha 90.000000
_cell_angle_beta 31.588507
_cell_angle_gamma 90.000000
_cell_volume 826.236542
_symmetry_space_group_name_H-M "C C"
_symmetry_group_IT_number 9
_symmetry_cell_setting 'monoclinic'
loop_
_space_group_symop_operation_xyz
x,y,z
x,-y,1/2+z
1/2+x,1/2+y,z
1/2+x,1/2-y,1/2+z
loop_
_atom_site_type_symbol
_atom_site_label
_atom_site_fract_x
_atom_site_fract_y
_atom_site_fract_z
Si Si1 0.308950 0.692037 0.535110
Si Si2 0.946359 0.905713 0.845899
Si Si3 0.391404 0.640304 0.634770
Si Si4 0.381824 0.876323 0.024485
Si Si5 0.244682 0.240498 0.712335
O O1 0.416732 0.642216 0.428166
O O2 0.421859 0.597136 0.551862
O O3 0.997638 0.662213 0.651253
O O4 0.356377 0.905836 0.527939
O O5 0.191445 0.802664 0.723796
O O6 0.993950 0.122823 0.824404
O O7 0.690193 0.841431 0.906324
O O8 0.671273 0.692264 0.556021
O O9 0.264674 0.458074 0.712728
O O10 0.288479 0.805524 0.125025
#
# Coordination Sequence:
#
# PCOD9139287 Si02
#       5
#     4   4   4   4   4
#     4  10  24  48  69 108 140 186 242 291 351 426
#     4  11  25  49  73 103 148 194 228 294 368 408
#     4  11  25  49  73 104 147 185 240 297 350 423
#     4  10  24  48  69 105 147 178 244 298 338 433
#     4  10  24  48  70 100 146 185 236 298 347 422
#
# _framework density 24.206142
#
# number of rings (size 3 to 8) (size 9 to 14) (size 15 to 20)
#    0.000    1.600    2.000    0.000    5.600    0.000 
#   28.800    0.000    0.000    0.000    0.000    0.000 
#    0.000    0.000    0.000    0.000    0.000    0.000 
#
# Total GULP energy -55966.563691 kJ/mol
# GULP energy per Si atom -5596.656369 kJ/mol
# Density = 2.415105 g / cm^3
# Si number density = 24.206142 Si / 1000 Ang^3
#
#
#
# Elastic Constant Matrix: (Units=GPa)
#
#
# Indices 1 2 3 4 5 6 
#
# 1 168.7773 6.2195 68.6278 -0.0001 -38.2643 0.0000
# 2 6.2195 85.8058 34.8615 0.0000 -3.3181 0.0000
# 3 68.6278 34.8615 103.6185 -0.0013 -17.5354 -0.0003
# 4 -0.0001 0.0000 -0.0013 35.9135 0.0000 -2.9881
# 5 -38.2643 -3.3181 -17.5354 0.0000 31.5042 0.0001
# 6 0.0000 0.0000 -0.0003 -2.9881 0.0001 29.9966
#
#
#
# Elastic Compliance Matrix: (Units=1/GPa)
#
#
# Indices 1 2 3 4 5 6 
#
# 1 0.010460 0.002048 -0.005995 0.000000 0.009583 0.000000
# 2 0.002048 0.013943 -0.005937 0.000000 0.000651 0.000000
# 3 -0.005995 -0.005937 0.015766 0.000001 0.000869 0.000000
# 4 0.000000 0.000000 0.000001 0.028077 0.000000 0.002797
# 5 0.009583 0.000651 0.000869 0.000000 0.043933 0.000000
# 6 0.000000 0.000000 0.000000 0.002797 0.000000 0.033616
#
#
# Mechanical properties :
#
#
# Convention : Reuss Voigt Hill
#
# Bulk Modulus (GPa) = 49.01842 64.17990 56.59916
# Shear Modulus (GPa) = 29.00843 36.04905 32.52874
#
# Velocity S-wave (km/s) = 3.46553 3.86327 3.66979
# Velocity P-wave (km/s) = 6.02558 6.81698 6.43346
#
# Compressibility (1/GPa) = 0.02040049
#
# Stress axis : x y z
#
# Youngs Moduli (GPa) = 95.60454 71.71972 63.42824
#
# Poissons Ratio (x) = -0.14689 0.38025
# Poissons Ratio (y) = -0.19580 0.37659
# Poissons Ratio (z) = 0.57314 0.42582
#
# Static dielectric constant tensor:
#      x y z
#    x 1.929840 0.000000 -0.011620 
#    y 0.000000 1.930740 0.000000 
#    z -0.011620 0.000000 1.900700 
# 
# From -- ./inp_files/14043.got.cif
#   From: 2010.05.17/outbox.cif.g08.bks.cpg/sg9_8_cif.got.tgz:14043.got - 2010.06.03 20:04:27.
