data_PCOD9139645
_publ_section_title
;
Structure prediction by ZEFSAII (Michael W. Deem and Ramdas Pophale) SiO2 
 PCOD9139645
Probable space group: C C
;
_chemical_formula_sum "Si O2"
_cell_formula_units_Z 32
_cell_length_a 23.300378
_cell_length_b 5.644611
_cell_length_c 23.998183
_cell_angle_alpha 90.000000
_cell_angle_beta 23.272233
_cell_angle_gamma 90.000000
_cell_volume 1247.046832
_symmetry_space_group_name_H-M "C C"
_symmetry_group_IT_number 9
_symmetry_cell_setting 'monoclinic'
loop_
_space_group_symop_operation_xyz
x,y,z
x,-y,1/2+z
1/2+x,1/2+y,z
1/2+x,1/2-y,1/2+z
loop_
_atom_site_type_symbol
_atom_site_label
_atom_site_fract_x
_atom_site_fract_y
_atom_site_fract_z
Si Si1 0.043920 0.845114 0.473320
Si Si2 0.502072 0.885996 0.732223
Si Si3 0.405907 0.060645 0.504085
Si Si4 0.825045 0.138216 0.976154
Si Si5 0.886006 0.779141 0.173311
Si Si6 0.167369 0.501815 0.437624
Si Si7 0.413838 0.609979 0.297278
Si Si8 0.668801 0.298908 0.769628
O O1 0.175273 0.694828 0.381474
O O2 0.933971 0.668526 0.540203
O O3 0.095838 0.016803 0.377650
O O4 0.979900 0.982823 0.583149
O O5 0.653680 0.895442 0.629720
O O6 0.499584 0.630696 0.702692
O O7 0.477398 0.137184 0.725548
O O8 0.368364 0.847160 0.894125
O O9 0.388732 0.278701 0.477328
O O10 0.546476 0.897156 0.365884
O O11 0.253431 0.917921 0.642481
O O12 0.900702 0.920068 0.876287
O O13 0.761892 0.784547 0.329827
O O14 0.803728 0.789359 0.187127
O O15 0.001487 0.577816 0.084680
O O16 0.252908 0.583038 0.415445
#
# Coordination Sequence:
#
# PCOD9139645 Si02
#       8
#     4   4   4   4   4   4   4   4
#     4  12  24  42  72 111 153 198 255 315 392 486
#     4  10  26  52  77 112 155 196 267 330 397 471
#     4  12  27  47  75 111 150 211 253 333 394 481
#     4  10  28  49  79 112 151 202 271 329 395 466
#     4  12  24  46  67 109 153 194 252 315 389 478
#     4  12  27  43  79 106 154 204 256 323 401 478
#     4  10  28  50  79 112 155 204 267 330 402 468
#     4  12  24  47  70 111 157 197 259 319 400 482
#
# _framework density 25.660626000000001
#
# number of rings (size 3 to 8) (size 9 to 14) (size 15 to 20)
#    0.750    0.000    5.000    0.750    7.000    3.000 
#    0.000    0.000    0.000    0.000    0.000    0.000 
#    0.000    0.000    0.000    0.000    0.000    0.000 
#
# Total GULP energy -89408.246668 kJ/mol
# GULP energy per Si atom -5588.015417 kJ/mol
# Density = 2.560222 g / cm^3
# Si number density = 25.660626 Si / 1000 Ang^3
#
#
#
# Elastic Constant Matrix: (Units=GPa)
#
#
# Indices 1 2 3 4 5 6 
#
# 1 103.7461 36.2340 30.7874 -0.0213 -12.5508 -0.0184
# 2 36.2340 129.6762 43.2301 -0.0099 -20.0716 -0.0443
# 3 30.7874 43.2301 125.7208 -0.0498 -18.3777 0.0215
# 4 -0.0213 -0.0099 -0.0498 28.8718 0.0203 -1.4376
# 5 -12.5508 -20.0716 -18.3777 0.0203 31.1903 0.0252
# 6 -0.0184 -0.0443 0.0215 -1.4376 0.0252 33.2070
#
#
#
# Elastic Compliance Matrix: (Units=1/GPa)
#
#
# Indices 1 2 3 4 5 6 
#
# 1 0.011166 -0.002247 -0.001659 0.000003 0.002070 0.000003
# 2 -0.002247 0.009696 -0.002193 -0.000004 0.004044 0.000010
# 3 -0.001659 -0.002193 0.009641 0.000012 0.003602 -0.000012
# 4 0.000003 -0.000004 0.000012 0.034711 -0.000019 0.001503
# 5 0.002070 0.004044 0.003602 -0.000019 0.037618 -0.000025
# 6 0.000003 0.000010 -0.000012 0.001503 -0.000025 0.030179
#
#
# Mechanical properties :
#
#
# Convention : Reuss Voigt Hill
#
# Bulk Modulus (GPa) = 54.62719 64.40512 59.51616
# Shear Modulus (GPa) = 33.04440 35.24662 34.14551
#
# Velocity S-wave (km/s) = 3.59241 3.71019 3.65178
# Velocity P-wave (km/s) = 6.20820 6.59601 6.40504
#
# Compressibility (1/GPa) = 0.01830590
#
# Stress axis : x y z
#
# Youngs Moduli (GPa) = 89.55452 103.13371 103.72318
#
# Poissons Ratio (x) = 0.23169 0.17212
# Poissons Ratio (y) = 0.20119 0.22745
# Poissons Ratio (z) = 0.14861 0.22616
#
# Static dielectric constant tensor:
#      x y z
#    x 2.032200 -0.000060 0.029490 
#    y -0.000060 2.077670 0.000110 
#    z 0.029490 0.000110 1.978630 
# 
# From -- ./inp_files/37729.got.cif
#   From: 2010.05.17/outbox.cif.g08.bks.cpg/sg9_19_cif.got.tgz:37729.got - 2010.06.03 20:04:27.
