data_PCOD9139654
_publ_section_title
;
Structure prediction by ZEFSAII (Michael W. Deem and Ramdas Pophale) SiO2 
 PCOD9139654
Probable space group: C C
;
_chemical_formula_sum "Si O2"
_cell_formula_units_Z 32
_cell_length_a 11.551960
_cell_length_b 7.786444
_cell_length_c 23.679693
_cell_angle_alpha 90.000000
_cell_angle_beta 38.978150
_cell_angle_gamma 90.000000
_cell_volume 1339.794248
_symmetry_space_group_name_H-M "C C"
_symmetry_group_IT_number 9
_symmetry_cell_setting 'monoclinic'
loop_
_space_group_symop_operation_xyz
x,y,z
x,-y,1/2+z
1/2+x,1/2+y,z
1/2+x,1/2-y,1/2+z
loop_
_atom_site_type_symbol
_atom_site_label
_atom_site_fract_x
_atom_site_fract_y
_atom_site_fract_z
Si Si1 0.542300 0.309032 0.816550
Si Si2 0.555641 0.296295 0.168280
Si Si3 0.150392 0.315606 0.905919
Si Si4 0.029290 0.737973 0.046858
Si Si5 0.784152 0.361773 0.249470
Si Si6 0.654274 0.924888 0.176936
Si Si7 0.389983 0.140688 0.594856
Si Si8 0.661857 0.195751 0.881143
O O1 0.351473 0.344882 0.857500
O O2 0.693523 0.462752 0.759126
O O3 0.613072 0.136701 0.757450
O O4 0.523369 0.287241 0.890763
O O5 0.557654 0.302652 0.099988
O O6 0.704677 0.428686 0.135113
O O7 0.357831 0.308388 0.273833
O O8 0.645145 0.120818 0.159138
O O9 0.151857 0.209212 0.847874
O O10 0.085952 0.504816 0.914667
O O11 0.014827 0.248828 0.005335
O O12 0.844472 0.828129 0.093676
O O13 0.007123 0.531797 0.063392
O O14 0.173710 0.766105 0.940566
O O15 0.834445 0.263975 0.173421
O O16 0.976154 0.363984 0.209553
#
# Coordination Sequence:
#
# PCOD9139654 Si02
#       8
#     4   4   4   4   4   4   4   4
#     4  11  22  46  67  96 137 175 230 283 348 412
#     4  12  25  45  67 102 140 179 236 287 345 413
#     4  10  27  42  66 103 133 180 229 286 351 412
#     4  11  25  47  65  99 140 185 225 290 352 406
#     4  11  22  44  71  95 140 176 223 292 348 402
#     4  11  21  43  72  94 135 179 225 282 353 406
#     4  11  24  45  67  99 135 179 230 278 346 415
#     4  11  24  44  69  98 138 183 228 288 343 410
#
# _framework density 23.884264000000002
#
# number of rings (size 3 to 8) (size 9 to 14) (size 15 to 20)
#    0.000    1.000    5.000    0.750    5.250    4.000 
#    2.250    0.000    0.000    0.000    0.000    0.000 
#    0.000    0.000    0.000    0.000    0.000    0.000 
#
# Total GULP energy -89191.803780 kJ/mol
# GULP energy per Si atom -5574.487736 kJ/mol
# Density = 2.382990 g / cm^3
# Si number density = 23.884264 Si / 1000 Ang^3
#
#
#
# Elastic Constant Matrix: (Units=GPa)
#
#
# Indices 1 2 3 4 5 6 
#
# 1 110.7597 20.1805 71.9858 0.0000 46.4037 -0.0001
# 2 20.1805 31.9184 8.8515 0.0000 13.1120 -0.0001
# 3 71.9858 8.8515 146.6878 0.0000 46.9984 0.0000
# 4 0.0000 0.0000 0.0000 21.7936 0.0000 0.9747
# 5 46.4037 13.1120 46.9984 0.0000 41.9756 0.0000
# 6 -0.0001 -0.0001 0.0000 0.9747 0.0000 37.6198
#
#
#
# Elastic Compliance Matrix: (Units=1/GPa)
#
#
# Indices 1 2 3 4 5 6 
#
# 1 0.018709 -0.004719 -0.004276 0.000000 -0.014421 0.000000
# 2 -0.004719 0.037605 0.003335 0.000000 -0.010264 0.000000
# 3 -0.004276 0.003335 0.011748 0.000000 -0.009468 0.000000
# 4 0.000000 0.000000 0.000000 0.045938 0.000000 -0.001190
# 5 -0.014421 -0.010264 -0.009468 0.000000 0.053573 0.000000
# 6 0.000000 0.000000 0.000000 -0.001190 0.000000 0.026613
#
#
# Mechanical properties :
#
#
# Convention : Reuss Voigt Hill
#
# Bulk Modulus (GPa) = 17.62339 54.60017 36.11178
# Shear Modulus (GPa) = 22.27952 32.83434 27.55693
#
# Velocity S-wave (km/s) = 3.05751 3.71175 3.40040
# Velocity P-wave (km/s) = 4.45636 6.42491 5.52895
#
# Compressibility (1/GPa) = 0.05674278
#
# Stress axis : x y z
#
# Youngs Moduli (GPa) = 53.44888 26.59205 85.11986
#
# Poissons Ratio (x) = 0.12549 0.36400
# Poissons Ratio (y) = 0.25223 -0.28390
# Poissons Ratio (z) = 0.22856 -0.08869
#
# Static dielectric constant tensor:
#      x y z
#    x 1.994620 0.000000 -0.038440 
#    y 0.000000 2.008280 0.000000 
#    z -0.038440 0.000000 2.066750 
# 
# From -- ./inp_files/29911.got.cif
#   From: 2010.05.17/outbox.cif.g08.bks.cpg/sg9_15_cif.got.tgz:29911.got - 2010.06.03 20:04:27.
