data_PCOD9139551
_publ_section_title
;
Structure prediction by ZEFSAII (Michael W. Deem and Ramdas Pophale) SiO2 
 PCOD9139551
Probable space group: C C
;
_chemical_formula_sum "Si O2"
_cell_formula_units_Z 20
_cell_length_a 17.647224
_cell_length_b 6.759337
_cell_length_c 12.044177
_cell_angle_alpha 90.000000
_cell_angle_beta 27.061304
_cell_angle_gamma 90.000000
_cell_volume 653.604699
_symmetry_space_group_name_H-M "C C"
_symmetry_group_IT_number 9
_symmetry_cell_setting 'monoclinic'
loop_
_space_group_symop_operation_xyz
x,y,z
x,-y,1/2+z
1/2+x,1/2+y,z
1/2+x,1/2-y,1/2+z
loop_
_atom_site_type_symbol
_atom_site_label
_atom_site_fract_x
_atom_site_fract_y
_atom_site_fract_z
Si Si1 0.416570 0.127651 0.708800
Si Si2 0.049835 0.106502 0.222408
Si Si3 0.472637 0.325807 0.067065
Si Si4 0.294159 0.099682 0.632651
Si Si5 0.140236 0.327570 0.630274
O O1 0.480649 0.904800 0.597769
O O2 0.361434 0.198201 0.658432
O O3 0.243000 0.131297 0.001912
O O4 0.210194 0.741424 0.159131
O O5 0.945711 0.150411 0.468775
O O6 0.020282 0.224806 0.148138
O O7 0.056179 0.871352 0.191253
O O8 0.651547 0.437430 0.844890
O O9 0.300087 0.394989 0.351835
O O10 0.478360 0.033502 0.346430
#
# Coordination Sequence:
#
# PCOD9139551 Si02
#       5
#     4   4   4   4   4
#     4  11  25  52  86 128 180 232 295 370 450 529
#     4  10  25  51  82 133 177 231 294 365 454 535
#     4  10  26  49  89 130 184 230 294 371 449 533
#     4  11  25  53  89 139 177 237 300 375 447 535
#     4  10  25  51  92 132 182 236 297 371 454 532
#
# _framework density 30.599532
#
# number of rings (size 3 to 8) (size 9 to 14) (size 15 to 20)
#    0.000    1.600    0.000    1.200   14.000    0.000 
#    7.200    2.000    8.800    0.000    0.000    0.000 
#    0.000    0.000    0.000    0.000    0.000    0.000 
#
# Total GULP energy -56031.820993 kJ/mol
# GULP energy per Si atom -5603.182099 kJ/mol
# Density = 3.052989 g / cm^3
# Si number density = 30.599532 Si / 1000 Ang^3
#
#
#
# Elastic Constant Matrix: (Units=GPa)
#
#
# Indices 1 2 3 4 5 6 
#
# 1 223.0498 104.9168 127.3002 -0.0003 1.7007 0.0000
# 2 104.9168 164.1038 101.4254 -0.0018 5.2333 0.0007
# 3 127.3002 101.4254 314.4125 -0.0007 -17.1186 0.0004
# 4 -0.0003 -0.0018 -0.0007 68.8907 0.0003 -7.1236
# 5 1.7007 5.2333 -17.1186 0.0003 83.0946 0.0000
# 6 0.0000 0.0007 0.0004 -7.1236 0.0000 62.0783
#
#
#
# Elastic Compliance Matrix: (Units=1/GPa)
#
#
# Indices 1 2 3 4 5 6 
#
# 1 0.007126 -0.003439 -0.001792 0.000000 -0.000298 0.000000
# 2 -0.003439 0.009353 -0.001672 0.000000 -0.000863 0.000000
# 3 -0.001792 -0.001672 0.004504 0.000000 0.001070 0.000000
# 4 0.000000 0.000000 0.000000 0.014690 0.000000 0.001686
# 5 -0.000298 -0.000863 0.001070 0.000000 0.012315 0.000000
# 6 0.000000 0.000000 0.000000 0.001686 0.000000 0.016302
#
#
# Mechanical properties :
#
#
# Convention : Reuss Voigt Hill
#
# Bulk Modulus (GPa) = 139.32950 152.09455 145.71202
# Shear Modulus (GPa) = 62.12126 67.34097 64.73111
#
# Velocity S-wave (km/s) = 4.51059 4.69627 4.60437
# Velocity P-wave (km/s) = 8.52991 8.90053 8.71719
#
# Compressibility (1/GPa) = 0.00717723
#
# Stress axis : x y z
#
# Youngs Moduli (GPa) = 140.33459 106.91781 222.03882
#
# Poissons Ratio (x) = 0.36765 0.39792
# Poissons Ratio (y) = 0.48256 0.37123
# Poissons Ratio (z) = 0.25150 0.17876
#
# Static dielectric constant tensor:
#      x y z
#    x 2.453460 0.000000 0.100260 
#    y 0.000000 2.473150 0.000000 
#    z 0.100260 0.000000 2.537860 
# 
# From -- ./inp_files/4866.got.cif
#   From: 2010.05.17/outbox.cif.g08.bks.cpg/sg9_3_cif.got.tgz:4866.got - 2010.06.03 20:04:27.
