data_PCOD9139246
_publ_section_title
;
Structure prediction by ZEFSAII (Michael W. Deem and Ramdas Pophale) SiO2 
 PCOD9139246
Probable space group: C C
;
_chemical_formula_sum "Si O2"
_cell_formula_units_Z 16
_cell_length_a 6.474195
_cell_length_b 17.891733
_cell_length_c 4.996980
_cell_angle_alpha 90.000000
_cell_angle_beta 66.765380
_cell_angle_gamma 90.000000
_cell_volume 531.878818
_symmetry_space_group_name_H-M "C C"
_symmetry_group_IT_number 9
_symmetry_cell_setting 'monoclinic'
loop_
_space_group_symop_operation_xyz
x,y,z
x,-y,1/2+z
1/2+x,1/2+y,z
1/2+x,1/2-y,1/2+z
loop_
_atom_site_type_symbol
_atom_site_label
_atom_site_fract_x
_atom_site_fract_y
_atom_site_fract_z
Si Si1 0.338700 0.272125 0.692470
Si Si2 0.531535 0.447627 0.331898
Si Si3 0.180946 0.169268 0.363983
Si Si4 0.523958 0.053285 0.976132
O O1 0.603404 0.240827 0.487659
O O2 0.242421 0.250067 0.450656
O O3 0.448669 0.336610 0.820479
O O4 0.563773 0.485793 0.600099
O O5 0.275083 0.423118 0.423194
O O6 0.667893 0.378223 0.147278
O O7 0.371732 0.125650 0.103367
O O8 0.494821 0.984231 0.201264
#
# Coordination Sequence:
#
# PCOD9139246 Si02
#       4
#     4   4   4   4
#     4  12  32  54  80 122 168 232 290 346 424 512
#     4  10  24  46  81 124 162 217 281 359 434 508
#     4  12  28  50  84 116 174 220 284 360 420 528
#     4  10  24  46  81 124 162 217 281 359 434 508
#
# _framework density 30.082039999999999
#
# number of rings (size 3 to 8) (size 9 to 14) (size 15 to 20)
#    0.000    1.000    0.000    3.000   14.000    2.000 
#    0.000    0.000    0.000    0.000    0.000    0.000 
#    0.000    0.000    0.000    0.000    0.000    0.000 
#
# Total GULP energy -44625.339713 kJ/mol
# GULP energy per Si atom -5578.167464 kJ/mol
# Density = 3.001357 g / cm^3
# Si number density = 30.082040 Si / 1000 Ang^3
#
#
#
# Elastic Constant Matrix: (Units=GPa)
#
#
# Indices 1 2 3 4 5 6 
#
# 1 136.9938 42.5744 65.1001 0.0000 14.2892 0.0000
# 2 42.5744 117.0380 40.9386 0.0000 18.9194 0.0000
# 3 65.1001 40.9386 151.1557 0.0000 6.9450 0.0000
# 4 0.0000 0.0000 0.0000 1024.4728 0.0000 -669.3623
# 5 14.2892 18.9194 6.9450 0.0000 101.1951 0.0000
# 6 0.0000 0.0000 0.0000 -669.3623 0.0000 522.4404
#
#
#
# Elastic Compliance Matrix: (Units=1/GPa)
#
#
# Indices 1 2 3 4 5 6 
#
# 1 0.009752 -0.002179 -0.003576 0.000000 -0.000724 0.000000
# 2 -0.002179 0.010189 -0.001753 0.000000 -0.001477 0.000000
# 3 -0.003576 -0.001753 0.008620 0.000000 0.000241 0.000000
# 4 0.000000 0.000000 0.000000 0.005993 0.000000 0.007678
# 5 -0.000724 -0.001477 0.000241 0.000000 0.010244 0.000000
# 6 0.000000 0.000000 0.000000 0.007678 0.000000 0.011751
#
#
# Mechanical properties :
#
#
# Convention : Reuss Voigt Hill
#
# Bulk Modulus (GPa) = 73.83984 78.04598 75.94291
# Shear Modulus (GPa) = 65.71993 346.72662 206.22327
#
# Velocity S-wave (km/s) = 4.67914 10.74758 8.28869
# Velocity P-wave (km/s) = 7.33429 13.41696 10.81218
#
# Compressibility (1/GPa) = 0.01354283
#
# Stress axis : x y z
#
# Youngs Moduli (GPa) = 102.54322 98.14541 116.01271
#
# Poissons Ratio (x) = 0.21389 0.41492
# Poissons Ratio (y) = 0.22348 0.20338
# Poissons Ratio (z) = 0.36674 0.17206
#
# Static dielectric constant tensor:
#      x y z
#    x 2.515050 0.000000 0.009420 
#    y 0.000000 2.373280 0.000000 
#    z 0.009420 0.000000 2.533510 
# 
# From -- ./inp_files/211.got.cif
#   From: 2010.05.17/outbox.cif.g08.bks.cpg/sg9_1_cif.got.tgz:211.got - 2010.06.03 20:04:27.
