data_PCOD9139906
_publ_section_title
;
Structure prediction by ZEFSAII (Michael W. Deem and Ramdas Pophale) SiO2 
 PCOD9139906
Probable space group: C C
;
_chemical_formula_sum "Si O2"
_cell_formula_units_Z 24
_cell_length_a 14.872130
_cell_length_b 13.092351
_cell_length_c 5.022492
_cell_angle_alpha 90.000000
_cell_angle_beta 105.530622
_cell_angle_gamma 90.000000
_cell_volume 942.228304
_symmetry_space_group_name_H-M "C C"
_symmetry_group_IT_number 9
_symmetry_cell_setting 'monoclinic'
loop_
_space_group_symop_operation_xyz
x,y,z
x,-y,1/2+z
1/2+x,1/2+y,z
1/2+x,1/2-y,1/2+z
loop_
_atom_site_type_symbol
_atom_site_label
_atom_site_fract_x
_atom_site_fract_y
_atom_site_fract_z
Si Si1 0.814960 0.871417 0.150920
Si Si2 0.074904 0.223418 0.195722
Si Si3 0.517611 0.560250 0.725994
Si Si4 0.611526 0.055802 0.480426
Si Si5 0.367453 0.247633 0.705817
Si Si6 0.236238 0.075295 0.521190
O O1 0.906552 0.933700 0.146583
O O2 0.828287 0.825547 0.453511
O O3 0.723647 0.938028 0.047865
O O4 0.819880 0.776831 0.947690
O O5 0.979022 0.232624 0.290818
O O6 0.164987 0.171016 0.405766
O O7 0.090451 0.336443 0.097199
O O8 0.055224 0.157336 0.912730
O O9 0.544481 0.530697 0.450098
O O10 0.578186 0.968474 0.657781
O O11 0.335916 0.133929 0.602423
O O12 0.227661 0.011949 0.788737
#
# Coordination Sequence:
#
# PCOD9139906 Si02
#       6
#     4   4   4   4   4   4
#     4  11  22  45  71 102 142 188 241 307 378 441
#     4  11  27  47  75 110 154 201 254 321 376 464
#     4  11  22  40  68 106 140 180 233 304 375 441
#     4  12  27  44  71 104 143 197 252 307 370 451
#     4  11  25  46  75 103 150 202 241 306 386 456
#     4  12  27  48  78 115 153 200 255 315 389 465
#
# _framework density 25.471536
#
# number of rings (size 3 to 8) (size 9 to 14) (size 15 to 20)
#    0.000    0.667    1.667    6.000    0.000    8.000 
#    0.000    0.000    0.000    0.000    0.000    0.000 
#    0.000    0.000    0.000    0.000    0.000    0.000 
#
# Total GULP energy -67219.669175 kJ/mol
# GULP energy per Si atom -5601.639098 kJ/mol
# Density = 2.541356 g / cm^3
# Si number density = 25.471536 Si / 1000 Ang^3
#
#
#
# Elastic Constant Matrix: (Units=GPa)
#
#
# Indices 1 2 3 4 5 6 
#
# 1 57.5317 34.5964 27.4407 0.0000 -6.2082 0.0000
# 2 34.5964 116.3739 15.0345 0.0000 -1.4277 0.0000
# 3 27.4407 15.0345 87.9972 0.0000 -6.0497 0.0000
# 4 0.0000 0.0000 0.0000 39.0207 0.0000 -3.6801
# 5 -6.2082 -1.4277 -6.0497 0.0000 25.1967 0.0000
# 6 0.0000 0.0000 0.0000 -3.6801 0.0000 52.5430
#
#
#
# Elastic Compliance Matrix: (Units=1/GPa)
#
#
# Indices 1 2 3 4 5 6 
#
# 1 0.024754 -0.006491 -0.006321 0.000000 0.004214 0.000000
# 2 -0.006491 0.010489 0.000166 0.000000 -0.000965 0.000000
# 3 -0.006321 0.000166 0.013422 0.000000 0.001675 0.000000
# 4 0.000000 0.000000 0.000000 0.025798 0.000000 0.001807
# 5 0.004214 -0.000965 0.001675 0.000000 0.041073 0.000000
# 6 0.000000 0.000000 0.000000 0.001807 0.000000 0.019159
#
#
# Mechanical properties :
#
#
# Convention : Reuss Voigt Hill
#
# Bulk Modulus (GPa) = 42.78293 46.22733 44.50513
# Shear Modulus (GPa) = 29.80117 35.67416 32.73767
#
# Velocity S-wave (km/s) = 3.42421 3.74645 3.58895
# Velocity P-wave (km/s) = 5.69793 6.07475 5.88935
#
# Compressibility (1/GPa) = 0.02337381
#
# Stress axis : x y z
#
# Youngs Moduli (GPa) = 40.39679 95.33423 74.50543
#
# Poissons Ratio (x) = 0.61880 0.47092
# Poissons Ratio (y) = 0.26221 -0.01234
# Poissons Ratio (z) = 0.25533 -0.01579
#
# Static dielectric constant tensor:
#      x y z
#    x 2.037350 0.000000 0.005690 
#    y 0.000000 2.035560 0.000000 
#    z 0.005690 0.000000 1.974890 
# 
# From -- ./inp_files/2869.got.cif
#   From: 2010.05.17/outbox.cif.g08.bks.cpg/sg9_2_cif.got.tgz:2869.got - 2010.06.03 20:04:27.
