data_PCOD9139904
_publ_section_title
;
Structure prediction by ZEFSAII (Michael W. Deem and Ramdas Pophale) SiO2 
 PCOD9139904
Probable space group: C C
;
_chemical_formula_sum "Si O2"
_cell_formula_units_Z 20
_cell_length_a 9.768093
_cell_length_b 14.750209
_cell_length_c 9.223590
_cell_angle_alpha 90.000000
_cell_angle_beta 137.390267
_cell_angle_gamma 90.000000
_cell_volume 899.699049
_symmetry_space_group_name_H-M "C C"
_symmetry_group_IT_number 9
_symmetry_cell_setting 'monoclinic'
loop_
_space_group_symop_operation_xyz
x,y,z
x,-y,1/2+z
1/2+x,1/2+y,z
1/2+x,1/2-y,1/2+z
loop_
_atom_site_type_symbol
_atom_site_label
_atom_site_fract_x
_atom_site_fract_y
_atom_site_fract_z
Si Si1 0.416340 0.559590 0.011900
Si Si2 0.284205 0.893405 0.674510
Si Si3 0.556374 0.622017 0.700528
Si Si4 0.123853 0.682792 0.277412
Si Si5 0.136476 0.480319 0.565573
O O1 0.602514 0.629121 0.144197
O O2 0.544474 0.465649 0.090530
O O3 0.294567 0.553517 0.066791
O O4 0.247254 0.553335 0.756120
O O5 0.156680 0.910338 0.427747
O O6 0.439383 0.814745 0.747092
O O7 0.441199 0.971995 0.843727
O O8 0.320314 0.648725 0.514938
O O9 0.659476 0.717426 0.740341
O O10 0.082038 0.605905 0.124197
#
# Coordination Sequence:
#
# PCOD9139904 Si02
#       5
#     4   4   4   4   4
#     4  11  23  40  65  99 133 172 225 273 320 405
#     4  12  21  39  67  98 129 179 213 282 313 399
#     4  11  22  40  67  99 128 172 226 260 335 389
#     4  11  23  41  68  98 130 175 222 273 322 403
#     4  11  23  40  63 102 132 168 228 270 328 388
#
# _framework density 22.229655999999999
#
# number of rings (size 3 to 8) (size 9 to 14) (size 15 to 20)
#    0.000    0.800    8.000    1.200    0.000    0.000 
#    0.000    0.000    8.800    2.400    0.000    0.000 
#    0.000    0.000    0.000    0.000    0.000    0.000 
#
# Total GULP energy -55698.718963 kJ/mol
# GULP energy per Si atom -5569.871896 kJ/mol
# Density = 2.217906 g / cm^3
# Si number density = 22.229656 Si / 1000 Ang^3
#
#
#
# Elastic Constant Matrix: (Units=GPa)
#
#
# Indices 1 2 3 4 5 6 
#
# 1 123.1855 -7.4272 14.9599 0.0000 17.6986 0.0000
# 2 -7.4272 68.2625 21.8925 0.0000 -4.8661 0.0000
# 3 14.9599 21.8925 135.0190 0.0000 11.6013 0.0000
# 4 0.0000 0.0000 0.0000 40.4202 0.0000 4.3291
# 5 17.6986 -4.8661 11.6013 0.0000 35.6287 0.0000
# 6 0.0000 0.0000 0.0000 4.3291 0.0000 14.8043
#
#
#
# Elastic Compliance Matrix: (Units=1/GPa)
#
#
# Indices 1 2 3 4 5 6 
#
# 1 0.008846 0.000929 -0.000786 0.000000 -0.004011 0.000000
# 2 0.000929 0.015871 -0.002904 0.000000 0.002652 0.000000
# 3 -0.000786 -0.002904 0.008194 0.000000 -0.002674 0.000000
# 4 0.000000 0.000000 0.000000 0.025540 0.000000 -0.007468
# 5 -0.004011 0.002652 -0.002674 0.000000 0.031293 0.000000
# 6 0.000000 0.000000 0.000000 -0.007468 0.000000 0.069732
#
#
# Mechanical properties :
#
#
# Convention : Reuss Voigt Hill
#
# Bulk Modulus (GPa) = 36.51303 42.81302 39.66303
# Shear Modulus (GPa) = 28.71459 37.97342 33.34400
#
# Velocity S-wave (km/s) = 3.59796 4.13756 3.87716
# Velocity P-wave (km/s) = 5.80701 6.49054 6.15827
#
# Compressibility (1/GPa) = 0.02738748
#
# Stress axis : x y z
#
# Youngs Moduli (GPa) = 113.05065 63.00886 122.03871
#
# Poissons Ratio (x) = -0.05851 0.09592
# Poissons Ratio (y) = -0.10497 0.35441
# Poissons Ratio (z) = 0.08885 0.18298
#
# Static dielectric constant tensor:
#      x y z
#    x 1.892700 0.000000 0.034830 
#    y 0.000000 1.928870 0.000000 
#    z 0.034830 0.000000 1.816460 
# 
# From -- ./inp_files/5163.got.cif
#   From: 2010.05.17/outbox.cif.g08.bks.cpg/sg9_3_cif.got.tgz:5163.got - 2010.06.03 20:04:27.
