data_PCOD9139621
_publ_section_title
;
Structure prediction by ZEFSAII (Michael W. Deem and Ramdas Pophale) SiO2 
 PCOD9139621
Probable space group: C C
;
_chemical_formula_sum "Si O2"
_cell_formula_units_Z 32
_cell_length_a 14.045621
_cell_length_b 16.057521
_cell_length_c 10.196053
_cell_angle_alpha 90.000000
_cell_angle_beta 39.025245
_cell_angle_gamma 90.000000
_cell_volume 1447.969880
_symmetry_space_group_name_H-M "C C"
_symmetry_group_IT_number 9
_symmetry_cell_setting 'monoclinic'
loop_
_space_group_symop_operation_xyz
x,y,z
x,-y,1/2+z
1/2+x,1/2+y,z
1/2+x,1/2-y,1/2+z
loop_
_atom_site_type_symbol
_atom_site_label
_atom_site_fract_x
_atom_site_fract_y
_atom_site_fract_z
Si Si1 0.049280 0.322609 0.928180
Si Si2 0.168046 0.020164 0.756151
Si Si3 0.537244 0.725336 0.317852
Si Si4 0.353480 0.556996 0.523253
Si Si5 0.171329 0.522333 0.451512
Si Si6 0.808944 0.341072 0.666653
Si Si7 0.705370 0.675509 0.873416
Si Si8 0.919761 0.599954 0.310388
O O1 0.144238 0.389978 0.908440
O O2 0.131814 0.234593 0.842327
O O3 0.020517 0.356983 0.814035
O O4 0.884848 0.315417 0.171952
O O5 0.161495 0.080411 0.889666
O O6 0.269645 0.067942 0.542397
O O7 0.254311 0.934599 0.695996
O O8 0.003733 0.998936 0.877876
O O9 0.413949 0.651486 0.457423
O O10 0.660367 0.714173 0.300783
O O11 0.445221 0.810469 0.427840
O O12 0.633538 0.708708 0.084171
O O13 0.264759 0.536185 0.484875
O O14 0.254105 0.536725 0.757377
O O15 0.013048 0.478182 0.654547
O O16 0.873305 0.339328 0.743517
#
# Coordination Sequence:
#
# PCOD9139621 Si02
#       8
#     4   4   4   4   4   4   4   4
#     4  11  27  45  72 108 140 199 244 310 363 447
#     4  10  26  48  74 106 145 201 239 302 372 453
#     4  11  27  45  74 110 141 189 239 313 366 445
#     4  11  27  45  76 107 144 188 250 301 371 436
#     4  12  26  47  73 107 148 194 244 311 365 445
#     4  11  27  44  72 105 149 187 241 301 378 434
#     4  11  25  47  76 104 146 190 252 299 371 442
#     4  11  25  47  71 103 149 196 243 299 380 442
#
# _framework density 22.099906000000001
#
# number of rings (size 3 to 8) (size 9 to 14) (size 15 to 20)
#    0.000    1.000    1.250    3.000   19.250    2.000 
#    0.000    0.000    0.000    0.000    0.000    0.000 
#    0.000    0.000    0.000    0.000    0.000    0.000 
#
# Total GULP energy -89612.999902 kJ/mol
# GULP energy per Si atom -5600.812494 kJ/mol
# Density = 2.204961 g / cm^3
# Si number density = 22.099906 Si / 1000 Ang^3
#
#
#
# Elastic Constant Matrix: (Units=GPa)
#
#
# Indices 1 2 3 4 5 6 
#
# 1 126.9323 18.4199 21.4275 -0.0001 12.2843 0.0002
# 2 18.4199 53.7558 2.5095 -0.0002 -5.7811 0.0003
# 3 21.4275 2.5095 66.3986 -0.0001 11.5285 0.0002
# 4 -0.0001 -0.0002 -0.0001 33.8666 0.0002 -9.4406
# 5 12.2843 -5.7811 11.5285 0.0002 25.1338 -0.0003
# 6 0.0002 0.0003 0.0002 -9.4406 -0.0003 27.6510
#
#
#
# Elastic Compliance Matrix: (Units=1/GPa)
#
#
# Indices 1 2 3 4 5 6 
#
# 1 0.009156 -0.003507 -0.002070 0.000000 -0.004332 0.000000
# 2 -0.003507 0.020577 -0.000832 0.000000 0.006828 0.000000
# 3 -0.002070 -0.000832 0.016969 0.000000 -0.006963 0.000000
# 4 0.000000 0.000000 0.000000 0.032633 0.000000 0.011142
# 5 -0.004332 0.006828 -0.006963 0.000000 0.046669 0.000000
# 6 0.000000 0.000000 0.000000 0.011142 0.000000 0.039969
#
#
# Mechanical properties :
#
#
# Convention : Reuss Voigt Hill
#
# Bulk Modulus (GPa) = 29.51102 36.86671 33.18886
# Shear Modulus (GPa) = 26.30400 30.97894 28.64147
#
# Velocity S-wave (km/s) = 3.45372 3.74808 3.60391
# Velocity P-wave (km/s) = 5.41171 5.95390 5.68927
#
# Compressibility (1/GPa) = 0.03388565
#
# Stress axis : x y z
#
# Youngs Moduli (GPa) = 109.22099 48.59703 58.93118
#
# Poissons Ratio (x) = 0.17041 0.12199
# Poissons Ratio (y) = 0.38299 0.04901
# Poissons Ratio (z) = 0.22608 0.04042
#
# Static dielectric constant tensor:
#      x y z
#    x 1.808850 0.000000 0.025400 
#    y 0.000000 1.804410 0.000000 
#    z 0.025400 0.000000 1.801830 
# 
# From -- ./inp_files/9935.got.cif
#   From: 2010.05.17/outbox.cif.g08.bks.cpg/sg9_5_cif.got.tgz:9935.got - 2010.06.03 20:04:27.
