data_PCOD9139125
_publ_section_title
;
Structure prediction by ZEFSAII (Michael W. Deem and Ramdas Pophale) SiO2 
 PCOD9139125
Probable space group: C C
;
_chemical_formula_sum "Si O2"
_cell_formula_units_Z 24
_cell_length_a 5.168525
_cell_length_b 25.067238
_cell_length_c 7.790437
_cell_angle_alpha 90.000000
_cell_angle_beta 75.632219
_cell_angle_gamma 90.000000
_cell_volume 977.764963
_symmetry_space_group_name_H-M "C C"
_symmetry_group_IT_number 9
_symmetry_cell_setting 'monoclinic'
loop_
_space_group_symop_operation_xyz
x,y,z
x,-y,1/2+z
1/2+x,1/2+y,z
1/2+x,1/2-y,1/2+z
loop_
_atom_site_type_symbol
_atom_site_label
_atom_site_fract_x
_atom_site_fract_y
_atom_site_fract_z
Si Si1 0.568100 0.380523 0.654840
Si Si2 0.191137 0.564699 0.464069
Si Si3 0.286511 0.200973 0.563368
Si Si4 0.727032 0.520927 0.335452
Si Si5 0.744012 0.400158 0.246710
Si Si6 0.885505 0.776272 0.854855
O O1 0.289007 0.401106 0.783544
O O2 0.750317 0.428692 0.701233
O O3 0.629856 0.378618 0.444240
O O4 0.569295 0.320889 0.729199
O O5 0.452585 0.534009 0.478370
O O6 0.978042 0.524214 0.418737
O O7 0.060079 0.596296 0.643608
O O8 0.166226 0.141320 0.608758
O O9 0.582301 0.203152 0.433536
O O10 0.343273 0.225814 0.740317
O O11 0.061296 0.233472 0.496440
O O12 0.684236 0.462637 0.269107
#
# Coordination Sequence:
#
# PCOD9139125 Si02
#       6
#     4   4   4   4   4   4
#     4  10  25  45  73 106 145 197 248 312 372 453
#     4  10  24  45  63 102 146 188 248 306 363 445
#     4  12  27  49  78 110 153 200 252 329 380 466
#     4  10  24  45  67 103 149 195 245 312 361 458
#     4  12  24  46  74 109 148 203 249 310 391 443
#     4  12  26  52  75 112 153 195 262 317 389 459
#
# _framework density 24.545777999999999
#
# number of rings (size 3 to 8) (size 9 to 14) (size 15 to 20)
#    1.000    0.000    1.667    4.000    2.333    1.333 
#    6.000    0.000    0.000    0.000    0.000    0.000 
#    0.000    0.000    0.000    0.000    0.000    0.000 
#
# Total GULP energy -66859.423528 kJ/mol
# GULP energy per Si atom -5571.618627 kJ/mol
# Density = 2.448991 g / cm^3
# Si number density = 24.545778 Si / 1000 Ang^3
#
#
#
# Elastic Constant Matrix: (Units=GPa)
#
#
# Indices 1 2 3 4 5 6 
#
# 1 120.3534 15.1567 30.9084 0.0000 4.6856 0.0000
# 2 15.1567 98.5847 13.9891 0.0000 -3.8490 0.0000
# 3 30.9084 13.9891 130.2097 0.0000 -30.1819 0.0000
# 4 0.0000 0.0000 0.0000 32.4310 0.0000 -7.8322
# 5 4.6856 -3.8490 -30.1819 0.0000 38.7325 0.0000
# 6 0.0000 0.0000 0.0000 -7.8322 0.0000 26.5981
#
#
#
# Elastic Compliance Matrix: (Units=1/GPa)
#
#
# Indices 1 2 3 4 5 6 
#
# 1 0.009338 -0.001160 -0.002905 0.000000 -0.003509 0.000000
# 2 -0.001160 0.010446 -0.000700 0.000000 0.000633 0.000000
# 3 -0.002905 -0.000700 0.010386 0.000000 0.008375 0.000000
# 4 0.000000 0.000000 0.000000 0.033195 0.000000 0.009775
# 5 -0.003509 0.000633 0.008375 0.000000 0.032832 0.000000
# 6 0.000000 0.000000 0.000000 0.009775 0.000000 0.040475
#
#
# Mechanical properties :
#
#
# Convention : Reuss Voigt Hill
#
# Bulk Modulus (GPa) = 48.45329 52.13958 50.29644
# Shear Modulus (GPa) = 32.66212 38.82524 35.74368
#
# Velocity S-wave (km/s) = 3.65178 3.98143 3.82017
# Velocity P-wave (km/s) = 6.12891 6.51334 6.32405
#
# Compressibility (1/GPa) = 0.02063843
#
# Stress axis : x y z
#
# Youngs Moduli (GPa) = 107.09300 95.73029 96.28302
#
# Poissons Ratio (x) = 0.11108 0.27972
# Poissons Ratio (y) = 0.12427 0.06741
# Poissons Ratio (z) = 0.31112 0.06702
#
# Static dielectric constant tensor:
#      x y z
#    x 1.929490 0.000000 0.006620 
#    y 0.000000 2.026010 0.000000 
#    z 0.006620 0.000000 2.030150 
# 
# From -- ./inp_files/4066.got.cif
#   From: 2010.05.17/outbox.cif.g08.bks.cpg/sg9_3_cif.got.tgz:4066.got - 2010.06.03 20:04:27.
