data_PCOD9139957
_publ_section_title
;
Structure prediction by ZEFSAII (Michael W. Deem and Ramdas Pophale) SiO2 
 PCOD9139957
Probable space group: C C
;
_chemical_formula_sum "Si O2"
_cell_formula_units_Z 32
_cell_length_a 16.764278
_cell_length_b 11.270720
_cell_length_c 13.397661
_cell_angle_alpha 90.000000
_cell_angle_beta 34.483397
_cell_angle_gamma 90.000000
_cell_volume 1433.211746
_symmetry_space_group_name_H-M "C C"
_symmetry_group_IT_number 9
_symmetry_cell_setting 'monoclinic'
loop_
_space_group_symop_operation_xyz
x,y,z
x,-y,1/2+z
1/2+x,1/2+y,z
1/2+x,1/2-y,1/2+z
loop_
_atom_site_type_symbol
_atom_site_label
_atom_site_fract_x
_atom_site_fract_y
_atom_site_fract_z
Si Si1 0.145460 0.869083 0.118290
Si Si2 0.365247 0.297046 0.293980
Si Si3 0.204721 0.306388 0.990119
Si Si4 0.214430 0.499515 0.820033
Si Si5 0.430971 0.894328 0.560194
Si Si6 0.450221 0.703378 0.382614
Si Si7 0.721192 0.559870 0.885956
Si Si8 0.003459 0.031466 0.949273
O O1 0.997136 0.848832 0.216107
O O2 0.100580 0.890026 0.277530
O O3 0.250630 0.762045 0.985268
O O4 0.215536 0.984370 0.993984
O O5 0.288798 0.392558 0.302562
O O6 0.426295 0.194666 0.159053
O O7 0.160986 0.408666 0.958981
O O8 0.328130 0.347226 0.937538
O O9 0.259965 0.193769 0.870260
O O10 0.075316 0.255131 0.186860
O O11 0.337982 0.439992 0.627652
O O12 0.086378 0.552070 0.888962
O O13 0.390389 0.813378 0.508448
O O14 0.324410 0.997215 0.700833
O O15 0.505997 0.601543 0.400004
O O16 0.568894 0.546957 0.991116
#
# Coordination Sequence:
#
# PCOD9139957 Si02
#       8
#     4   4   4   4   4   4   4   4
#     4  11  23  43  71 101 135 180 228 287 340 411
#     4  11  22  43  69  99 137 178 230 285 347 398
#     4  12  26  44  68 100 146 178 218 289 357 406
#     4  12  24  44  67 103 139 181 227 286 348 410
#     4  11  24  41  72 102 132 173 239 294 325 402
#     4  12  23  43  70 105 129 178 243 278 328 416
#     4  11  24  45  68 100 143 179 223 284 357 400
#     4  12  24  43  73 100 133 185 232 273 346 423
#
# _framework density 22.327475
#
# number of rings (size 3 to 8) (size 9 to 14) (size 15 to 20)
#    0.000    0.500    5.000    3.750    1.750    1.000 
#    0.000    2.500    0.000    0.000    0.000    0.000 
#    0.000    0.000    0.000    0.000    0.000    0.000 
#
# Total GULP energy -89542.588445 kJ/mol
# GULP energy per Si atom -5596.411778 kJ/mol
# Density = 2.227666 g / cm^3
# Si number density = 22.327475 Si / 1000 Ang^3
#
#
#
# Elastic Constant Matrix: (Units=GPa)
#
#
# Indices 1 2 3 4 5 6 
#
# 1 40.4465 2.0101 -11.4758 0.0000 0.1434 0.0000
# 2 2.0101 46.3467 -11.1260 0.0000 6.4228 0.0000
# 3 -11.4758 -11.1260 84.1020 0.0000 12.4702 0.0000
# 4 0.0000 0.0000 0.0000 34.8156 0.0000 4.6168
# 5 0.1434 6.4228 12.4702 0.0000 36.9129 0.0000
# 6 0.0000 0.0000 0.0000 4.6168 0.0000 22.7959
#
#
#
# Elastic Compliance Matrix: (Units=1/GPa)
#
#
# Indices 1 2 3 4 5 6 
#
# 1 0.025784 -0.000040 0.003713 0.000000 -0.001347 0.000000
# 2 -0.000040 0.023247 0.003863 0.000000 -0.005350 0.000000
# 3 0.003713 0.003863 0.013696 0.000000 -0.005313 0.000000
# 4 0.000000 0.000000 0.000000 0.029515 0.000000 -0.005978
# 5 -0.001347 -0.005350 -0.005313 0.000000 0.029822 0.000000
# 6 0.000000 0.000000 0.000000 -0.005978 0.000000 0.045078
#
#
# Mechanical properties :
#
#
# Convention : Reuss Voigt Hill
#
# Bulk Modulus (GPa) = 12.85374 14.41242 13.63308
# Shear Modulus (GPa) = 28.08923 31.67068 29.87995
#
# Velocity S-wave (km/s) = 3.55076 3.77033 3.66219
# Velocity P-wave (km/s) = 4.75183 5.04211 4.89912
#
# Compressibility (1/GPa) = 0.07779835
#
# Stress axis : x y z
#
# Youngs Moduli (GPa) = 38.78344 43.01619 73.01484
#
# Poissons Ratio (x) = 0.00173 -0.27108
# Poissons Ratio (y) = 0.00156 -0.28207
# Poissons Ratio (z) = -0.14399 -0.16618
#
# Static dielectric constant tensor:
#      x y z
#    x 1.824050 0.000000 0.016500 
#    y 0.000000 1.805480 0.000000 
#    z 0.016500 0.000000 1.829520 
# 
# From -- ./inp_files/9052.got.cif
#   From: 2010.05.17/outbox.cif.g08.bks.cpg/sg9_5_cif.got.tgz:9052.got - 2010.06.03 20:04:27.
