data_PCOD9139953
_publ_section_title
;
Structure prediction by ZEFSAII (Michael W. Deem and Ramdas Pophale) SiO2 
 PCOD9139953
Probable space group: C C
;
_chemical_formula_sum "Si O2"
_cell_formula_units_Z 32
_cell_length_a 15.321338
_cell_length_b 11.776519
_cell_length_c 9.446245
_cell_angle_alpha 90.000000
_cell_angle_beta 46.148093
_cell_angle_gamma 90.000000
_cell_volume 1229.102600
_symmetry_space_group_name_H-M "C C"
_symmetry_group_IT_number 9
_symmetry_cell_setting 'monoclinic'
loop_
_space_group_symop_operation_xyz
x,y,z
x,-y,1/2+z
1/2+x,1/2+y,z
1/2+x,1/2-y,1/2+z
loop_
_atom_site_type_symbol
_atom_site_label
_atom_site_fract_x
_atom_site_fract_y
_atom_site_fract_z
Si Si1 0.636290 0.077197 0.419850
Si Si2 0.385728 0.492880 0.537675
Si Si3 0.778556 0.545967 0.665609
Si Si4 0.603012 0.750147 0.172549
Si Si5 0.017062 0.805121 0.060767
Si Si6 0.444173 0.241917 0.587180
Si Si7 0.413295 0.082964 0.236103
Si Si8 0.083953 0.012128 0.092378
O O1 0.741812 0.015579 0.217153
O O2 0.680417 0.154773 0.503883
O O3 0.562747 0.168360 0.405348
O O4 0.536312 0.990594 0.594206
O O5 0.436263 0.598501 0.573486
O O6 0.424524 0.367232 0.550679
O O7 0.449253 0.510825 0.314477
O O8 0.820279 0.543599 0.459052
O O9 0.849416 0.442803 0.659836
O O10 0.834037 0.660862 0.670433
O O11 0.640552 0.538850 0.871686
O O12 0.582047 0.763664 0.361481
O O13 0.641587 0.619073 0.110101
O O14 0.939372 0.714113 0.229895
O O15 0.103796 0.876105 0.066252
O O16 0.479193 0.244898 0.715715
#
# Coordination Sequence:
#
# PCOD9139953 Si02
#       8
#     4   4   4   4   4   4   4   4
#     4   9  21  44  67  95 137 182 236 285 352 421
#     4  11  22  43  67 106 138 181 232 300 357 417
#     4  11  25  44  73  96 145 183 244 286 348 434
#     4   9  20  41  68  96 137 184 230 289 351 422
#     4  11  23  42  65 101 146 174 243 287 354 425
#     4   9  20  43  70  98 135 190 234 279 358 422
#     4  11  25  45  68 104 133 195 234 292 353 415
#     4  11  24  42  66 104 137 185 229 294 359 414
#
# _framework density 26.035256
#
# number of rings (size 3 to 8) (size 9 to 14) (size 15 to 20)
#    0.750    1.000    1.250    2.250    3.500    1.000 
#    9.000    3.750    0.000    0.000    0.000    0.000 
#    0.000    0.000    0.000    0.000    0.000    0.000 
#
# Total GULP energy -89239.906753 kJ/mol
# GULP energy per Si atom -5577.494172 kJ/mol
# Density = 2.597600 g / cm^3
# Si number density = 26.035256 Si / 1000 Ang^3
#
#
#
# Elastic Constant Matrix: (Units=GPa)
#
#
# Indices 1 2 3 4 5 6 
#
# 1 59.4173 33.9511 40.0879 0.0000 -9.3029 0.0000
# 2 33.9511 149.8675 45.6990 0.0000 -20.9366 0.0000
# 3 40.0879 45.6990 189.1882 0.0000 -15.7294 0.0000
# 4 0.0000 0.0000 0.0000 43.2949 0.0000 0.9692
# 5 -9.3029 -20.9366 -15.7294 0.0000 41.2330 0.0000
# 6 0.0000 0.0000 0.0000 0.9692 0.0000 36.2429
#
#
#
# Elastic Compliance Matrix: (Units=1/GPa)
#
#
# Indices 1 2 3 4 5 6 
#
# 1 0.021530 -0.003554 -0.003563 0.000000 0.001694 0.000000
# 2 -0.003554 0.008193 -0.000978 0.000000 0.002985 0.000000
# 3 -0.003563 -0.000978 0.006371 0.000000 0.001130 0.000000
# 4 0.000000 0.000000 0.000000 0.023111 0.000000 -0.000618
# 5 0.001694 0.002985 0.001130 0.000000 0.026581 0.000000
# 6 0.000000 0.000000 0.000000 -0.000618 0.000000 0.027608
#
#
# Mechanical properties :
#
#
# Convention : Reuss Voigt Hill
#
# Bulk Modulus (GPa) = 50.24094 70.88322 60.56208
# Shear Modulus (GPa) = 36.70567 42.73649 39.72108
#
# Velocity S-wave (km/s) = 3.75886 4.05592 3.91021
# Velocity P-wave (km/s) = 6.17883 7.01562 6.61048
#
# Compressibility (1/GPa) = 0.01990409
#
# Stress axis : x y z
#
# Youngs Moduli (GPa) = 46.44691 122.05632 156.96697
#
# Poissons Ratio (x) = 0.43384 0.55922
# Poissons Ratio (y) = 0.16509 0.15346
# Poissons Ratio (z) = 0.16548 0.11933
#
# Static dielectric constant tensor:
#      x y z
#    x 2.260950 0.000000 -0.003800 
#    y 0.000000 2.033090 0.000000 
#    z -0.003800 0.000000 2.017230 
# 
# From -- ./inp_files/20895.got.cif
#   From: 2010.05.17/outbox.cif.g08.bks.cpg/sg9_11_cif.got.tgz:20895.got - 2010.06.03 20:04:27.
