data_PCOD9139894
_publ_section_title
;
Structure prediction by ZEFSAII (Michael W. Deem and Ramdas Pophale) SiO2 
 PCOD9139894
Probable space group: C C
;
_chemical_formula_sum "Si O2"
_cell_formula_units_Z 32
_cell_length_a 11.298725
_cell_length_b 16.017117
_cell_length_c 10.124577
_cell_angle_alpha 90.000000
_cell_angle_beta 133.569309
_cell_angle_gamma 90.000000
_cell_volume 1327.558706
_symmetry_space_group_name_H-M "C C"
_symmetry_group_IT_number 9
_symmetry_cell_setting 'monoclinic'
loop_
_space_group_symop_operation_xyz
x,y,z
x,-y,1/2+z
1/2+x,1/2+y,z
1/2+x,1/2-y,1/2+z
loop_
_atom_site_type_symbol
_atom_site_label
_atom_site_fract_x
_atom_site_fract_y
_atom_site_fract_z
Si Si1 0.166360 0.044317 0.772520
Si Si2 0.232500 0.168839 0.062995
Si Si3 0.245587 0.292417 0.584702
Si Si4 0.510391 0.687581 0.507806
Si Si5 0.468137 0.391895 0.565782
Si Si6 0.659644 0.998755 0.744005
Si Si7 0.999117 0.558320 0.867562
Si Si8 0.085041 0.681893 0.300831
O O1 0.217610 0.099039 0.937280
O O2 0.031769 0.099900 0.593846
O O3 0.322901 0.043173 0.795779
O O4 0.081194 0.956205 0.736200
O O5 0.200094 0.260562 0.977802
O O6 0.418505 0.164011 0.253291
O O7 0.091844 0.148125 0.057644
O O8 0.166886 0.201627 0.532041
O O9 0.371191 0.321020 0.570412
O O10 0.084807 0.351096 0.448487
O O11 0.350235 0.303317 0.798284
O O12 0.529435 0.758531 0.635427
O O13 0.323450 0.448460 0.392050
O O14 0.617029 0.994974 0.556605
O O15 0.655300 0.904824 0.800604
O O16 0.519147 0.038834 0.729003
#
# Coordination Sequence:
#
# PCOD9139894 Si02
#       8
#     4   4   4   4   4   4   4   4
#     4  11  24  39  68  98 130 177 224 277 330 409
#     4  11  25  42  65  99 131 174 224 274 334 403
#     4  11  23  43  65 100 136 176 227 280 344 403
#     4  11  22  39  71  96 129 176 232 277 328 407
#     4  11  28  42  66 100 140 177 217 284 350 403
#     4  11  24  43  69  97 138 180 228 280 340 407
#     4  11  23  42  68  98 136 179 230 281 340 402
#     4  11  23  42  70  96 130 175 230 273 334 406
#
# _framework density 24.104393999999999
#
# number of rings (size 3 to 8) (size 9 to 14) (size 15 to 20)
#    0.000    1.000    2.500    3.750    8.750    1.000 
#    0.000    2.500    0.000    0.000    0.000    0.000 
#    0.000    0.000    0.000    0.000    0.000    0.000 
#
# Total GULP energy -89474.031730 kJ/mol
# GULP energy per Si atom -5592.126983 kJ/mol
# Density = 2.404953 g / cm^3
# Si number density = 24.104394 Si / 1000 Ang^3
#
#
#
# Elastic Constant Matrix: (Units=GPa)
#
#
# Indices 1 2 3 4 5 6 
#
# 1 118.0545 17.1678 -1.1801 0.0000 32.4660 0.0000
# 2 17.1678 59.6588 2.8033 0.0000 -0.6380 0.0000
# 3 -1.1801 2.8033 50.9473 0.0000 24.1752 0.0000
# 4 0.0000 0.0000 0.0000 20.3770 0.0000 5.3946
# 5 32.4660 -0.6380 24.1752 0.0000 41.3814 0.0000
# 6 0.0000 0.0000 0.0000 5.3946 0.0000 37.8266
#
#
#
# Elastic Compliance Matrix: (Units=1/GPa)
#
#
# Indices 1 2 3 4 5 6 
#
# 1 0.013295 -0.004345 0.007648 0.000000 -0.014966 0.000000
# 2 -0.004345 0.018262 -0.003952 0.000000 0.006000 0.000000
# 3 0.007648 -0.003952 0.031682 0.000000 -0.024570 0.000000
# 4 0.000000 0.000000 0.000000 0.051000 0.000000 -0.007273
# 5 -0.014966 0.006000 -0.024570 0.000000 0.050353 0.000000
# 6 0.000000 0.000000 0.000000 -0.007273 0.000000 0.027474
#
#
# Mechanical properties :
#
#
# Convention : Reuss Voigt Hill
#
# Bulk Modulus (GPa) = 16.14454 29.58251 22.86353
# Shear Modulus (GPa) = 23.36323 33.90828 28.63576
#
# Velocity S-wave (km/s) = 3.11666 3.75470 3.45046
# Velocity P-wave (km/s) = 4.43438 5.57641 5.03786
#
# Compressibility (1/GPa) = 0.06194044
#
# Stress axis : x y z
#
# Youngs Moduli (GPa) = 75.21782 54.75766 31.56395
#
# Poissons Ratio (x) = 0.23793 -0.24142
# Poissons Ratio (y) = 0.32684 0.12475
# Poissons Ratio (z) = -0.57530 0.21643
#
# Static dielectric constant tensor:
#      x y z
#    x 1.984910 0.000000 0.017660 
#    y 0.000000 1.965260 0.000000 
#    z 0.017660 0.000000 1.907080 
# 
# From -- ./inp_files/7489.got.cif
#   From: 2010.05.17/outbox.cif.g08.bks.cpg/sg9_4_cif.got.tgz:7489.got - 2010.06.03 20:04:27.
