data_PCOD9139386
_publ_section_title
;
Structure prediction by ZEFSAII (Michael W. Deem and Ramdas Pophale) SiO2 
 PCOD9139386
Probable space group: C C
;
_chemical_formula_sum "Si O2"
_cell_formula_units_Z 28
_cell_length_a 10.830718
_cell_length_b 11.910750
_cell_length_c 9.310565
_cell_angle_alpha 90.000000
_cell_angle_beta 59.895028
_cell_angle_gamma 90.000000
_cell_volume 1039.064890
_symmetry_space_group_name_H-M "C C"
_symmetry_group_IT_number 9
_symmetry_cell_setting 'monoclinic'
loop_
_space_group_symop_operation_xyz
x,y,z
x,-y,1/2+z
1/2+x,1/2+y,z
1/2+x,1/2-y,1/2+z
loop_
_atom_site_type_symbol
_atom_site_label
_atom_site_fract_x
_atom_site_fract_y
_atom_site_fract_z
Si Si1 0.752810 0.461750 0.773260
Si Si2 0.041523 0.345728 0.220436
Si Si3 0.593490 0.310401 0.329721
Si Si4 0.798402 0.301499 0.530436
Si Si5 0.971841 0.889713 0.093900
Si Si6 0.065206 0.559749 0.037039
Si Si7 0.305930 0.623407 0.112855
O O1 0.695693 0.587185 0.820361
O O2 0.774097 0.430034 0.592955
O O3 0.914387 0.418660 0.717597
O O4 0.618860 0.395002 0.915440
O O5 0.144916 0.247243 0.123641
O O6 0.061282 0.429618 0.078309
O O7 0.064892 0.402849 0.368825
O O8 0.890159 0.292654 0.336852
O O9 0.530866 0.359291 0.215446
O O10 0.446071 0.302856 0.502635
O O11 0.685110 0.197650 0.261584
O O12 0.880883 0.215369 0.589315
O O13 0.875405 0.004256 0.130730
O O14 0.213174 0.599197 0.021790
#
# Coordination Sequence:
#
# PCOD9139386 Si02
#       7
#     4   4   4   4   4   4   4
#     4  10  25  43  68 106 147 195 253 322 395 481
#     4  11  24  44  76 109 149 200 262 320 405 474
#     4  11  26  47  72 108 149 199 252 329 398 482
#     4  11  21  44  72 107 144 202 253 322 383 487
#     4  11  23  44  73 104 147 197 256 317 388 486
#     4  11  25  45  76 113 149 203 260 334 396 487
#     4  11  26  47  75 107 149 200 262 322 405 477
#
# _framework density 26.947306000000001
#
# number of rings (size 3 to 8) (size 9 to 14) (size 15 to 20)
#    0.000    1.143    2.857    2.571    8.000    0.000 
#    2.571    1.429    0.000    0.000    0.000    0.000 
#    0.000    0.000    0.000    0.000    0.000    0.000 
#
# Total GULP energy -78072.263965 kJ/mol
# GULP energy per Si atom -5576.590283 kJ/mol
# Density = 2.688597 g / cm^3
# Si number density = 26.947306 Si / 1000 Ang^3
#
#
#
# Elastic Constant Matrix: (Units=GPa)
#
#
# Indices 1 2 3 4 5 6 
#
# 1 167.2070 43.5005 65.1693 0.0000 -34.0227 0.0000
# 2 43.5005 90.5237 52.2050 0.0000 -15.5982 0.0000
# 3 65.1693 52.2050 181.8888 0.0000 -48.7090 0.0000
# 4 0.0000 0.0000 0.0000 1.3447 0.0000 -74.6402
# 5 -34.0227 -15.5982 -48.7090 0.0000 48.1417 0.0000
# 6 0.0000 0.0000 0.0000 -74.6402 0.0000 -34.5358
#
#
#
# Elastic Compliance Matrix: (Units=1/GPa)
#
#
# Indices 1 2 3 4 5 6 
#
# 1 0.007789 -0.002481 -0.001125 0.000000 0.003563 0.000000
# 2 -0.002481 0.014041 -0.003282 0.000000 -0.000524 0.000000
# 3 -0.001125 -0.003282 0.008703 0.000000 0.006948 0.000000
# 4 0.000000 0.000000 0.000000 0.006148 0.000000 -0.013287
# 5 0.003563 -0.000524 0.006948 0.000000 0.030150 0.000000
# 6 0.000000 0.000000 0.000000 -0.013287 0.000000 -0.000239
#
#
# Mechanical properties :
#
#
# Convention : Reuss Voigt Hill
#
# Bulk Modulus (GPa) = 59.66542 84.59656 72.13099
# Shear Modulus (GPa) = 58.17179 21.57310 39.87244
#
# Velocity S-wave (km/s) = 4.65125 2.83250 3.85079
# Velocity P-wave (km/s) = 7.14388 6.49299 6.82620
#
# Compressibility (1/GPa) = 0.01676013
#
# Stress axis : x y z
#
# Youngs Moduli (GPa) = 128.38095 71.21988 114.89940
#
# Poissons Ratio (x) = 0.17666 0.12923
# Poissons Ratio (y) = 0.31845 0.37705
# Poissons Ratio (z) = 0.14439 0.23371
#
# Static dielectric constant tensor:
#      x y z
#    x 2.392290 0.000000 0.071100 
#    y 0.000000 2.177400 0.000000 
#    z 0.071100 0.000000 2.079650 
# 
# From -- ./inp_files/16379.got.cif
#   From: 2010.05.17/outbox.cif.g08.bks.cpg/sg9_9_cif.got.tgz:16379.got - 2010.06.03 20:04:27.
