data_PCOD9139595
_publ_section_title
;
Structure prediction by ZEFSAII (Michael W. Deem and Ramdas Pophale) SiO2 
 PCOD9139595
Probable space group: C C
;
_chemical_formula_sum "Si O2"
_cell_formula_units_Z 28
_cell_length_a 27.584878
_cell_length_b 5.664508
_cell_length_c 9.620614
_cell_angle_alpha 90.000000
_cell_angle_beta 128.271514
_cell_angle_gamma 90.000000
_cell_volume 1180.191294
_symmetry_space_group_name_H-M "C C"
_symmetry_group_IT_number 9
_symmetry_cell_setting 'monoclinic'
loop_
_space_group_symop_operation_xyz
x,y,z
x,-y,1/2+z
1/2+x,1/2+y,z
1/2+x,1/2-y,1/2+z
loop_
_atom_site_type_symbol
_atom_site_label
_atom_site_fract_x
_atom_site_fract_y
_atom_site_fract_z
Si Si1 0.391300 0.767418 0.857360
Si Si2 0.018875 0.414913 0.001771
Si Si3 0.087257 0.677629 0.344519
Si Si4 0.734624 0.729971 0.391707
Si Si5 0.854669 0.991969 0.036517
Si Si6 0.617805 0.311175 0.829312
Si Si7 0.291773 0.901292 0.273115
O O1 0.383455 0.554072 0.736159
O O2 0.325998 0.899101 0.743764
O O3 0.446757 0.925212 0.902182
O O4 0.395447 0.672134 0.020837
O O5 0.054806 0.635690 0.135351
O O6 0.047179 0.208350 0.150524
O O7 0.036927 0.345980 0.877641
O O8 0.125851 0.431779 0.431182
O O9 0.123377 0.926505 0.401589
O O10 0.661038 0.736848 0.271494
O O11 0.752805 0.506943 0.329935
O O12 0.750591 0.721088 0.584168
O O13 0.783307 0.921492 0.421887
O O14 0.846445 0.752086 0.936262
#
# Coordination Sequence:
#
# PCOD9139595 Si02
#       7
#     4   4   4   4   4   4   4
#     4  11  25  44  70 102 137 182 228 291 346 425
#     4  10  27  45  71 103 144 183 239 290 357 417
#     4  10  26  46  69 106 139 184 239 280 361 406
#     4  11  25  42  70  97 141 178 236 284 351 414
#     4  11  24  44  66 105 135 184 228 285 354 416
#     4  10  27  45  73 105 139 190 232 296 348 422
#     4  11  24  42  65 100 137 181 226 284 347 414
#
# _framework density 23.724964
#
# number of rings (size 3 to 8) (size 9 to 14) (size 15 to 20)
#    0.857    0.571    2.857    0.000   10.000    1.143 
#    0.000    0.000    0.000    0.000    0.000    0.000 
#    0.000    0.000    0.000    0.000    0.000    0.000 
#
# Total GULP energy -78010.696527 kJ/mol
# GULP energy per Si atom -5572.192609 kJ/mol
# Density = 2.367097 g / cm^3
# Si number density = 23.724964 Si / 1000 Ang^3
#
#
#
# Elastic Constant Matrix: (Units=GPa)
#
#
# Indices 1 2 3 4 5 6 
#
# 1 97.1554 19.5812 7.3670 0.0000 -20.3004 0.0000
# 2 19.5812 105.5662 7.4149 0.0000 -17.0543 0.0000
# 3 7.3670 7.4149 58.8242 0.0000 -17.0613 0.0000
# 4 0.0000 0.0000 0.0000 20.7489 0.0000 -6.7553
# 5 -20.3004 -17.0543 -17.0613 0.0000 26.8838 0.0000
# 6 0.0000 0.0000 0.0000 -6.7553 0.0000 16.9883
#
#
#
# Elastic Compliance Matrix: (Units=1/GPa)
#
#
# Indices 1 2 3 4 5 6 
#
# 1 0.012381 -0.000827 0.001364 0.000000 0.009690 0.000000
# 2 -0.000827 0.010637 0.000660 0.000000 0.006542 0.000000
# 3 0.001364 0.000660 0.021038 0.000000 0.014801 0.000000
# 4 0.000000 0.000000 0.000000 0.055363 0.000000 0.022015
# 5 0.009690 0.006542 0.014801 0.000000 0.058057 0.000000
# 6 0.000000 0.000000 0.000000 0.022015 0.000000 0.067618
#
#
# Mechanical properties :
#
#
# Convention : Reuss Voigt Hill
#
# Bulk Modulus (GPa) = 21.52804 36.69689 29.11247
# Shear Modulus (GPa) = 20.99230 28.06971 24.53101
#
# Velocity S-wave (km/s) = 2.97782 3.44340 3.21904
# Velocity P-wave (km/s) = 4.57350 5.59558 5.11016
#
# Compressibility (1/GPa) = 0.04645105
#
# Stress axis : x y z
#
# Youngs Moduli (GPa) = 80.77075 94.01483 47.53196
#
# Poissons Ratio (x) = 0.07774 -0.06484
# Poissons Ratio (y) = 0.06679 -0.03138
# Poissons Ratio (z) = -0.11019 -0.06208
#
# Static dielectric constant tensor:
#      x y z
#    x 1.883380 0.000000 0.042220 
#    y 0.000000 1.938150 0.000000 
#    z 0.042220 0.000000 1.928870 
# 
# From -- ./inp_files/12316.got.cif
#   From: 2010.05.17/outbox.cif.g08.bks.cpg/sg9_7_cif.got.tgz:12316.got - 2010.06.03 20:04:27.
