data_PCOD9139753
_publ_section_title
;
Structure prediction by ZEFSAII (Michael W. Deem and Ramdas Pophale) SiO2 
 PCOD9139753
Probable space group: C C
;
_chemical_formula_sum "Si O2"
_cell_formula_units_Z 24
_cell_length_a 7.022897
_cell_length_b 29.189190
_cell_length_c 9.075095
_cell_angle_alpha 90.000000
_cell_angle_beta 33.357804
_cell_angle_gamma 90.000000
_cell_volume 1022.930668
_symmetry_space_group_name_H-M "C C"
_symmetry_group_IT_number 9
_symmetry_cell_setting 'monoclinic'
loop_
_space_group_symop_operation_xyz
x,y,z
x,-y,1/2+z
1/2+x,1/2+y,z
1/2+x,1/2-y,1/2+z
loop_
_atom_site_type_symbol
_atom_site_label
_atom_site_fract_x
_atom_site_fract_y
_atom_site_fract_z
Si Si1 0.376980 0.366089 0.298420
Si Si2 0.938338 0.045802 0.229590
Si Si3 0.730809 0.224498 0.578523
Si Si4 0.578533 0.365919 0.832180
Si Si5 0.643380 0.544547 0.769054
Si Si6 0.228908 0.775688 0.046034
O O1 0.426381 0.410859 0.364170
O O2 0.641922 0.325296 0.167528
O O3 0.979073 0.349483 0.569433
O O4 0.466444 0.378518 0.071118
O O5 0.531995 0.050576 0.459101
O O6 0.055519 0.090517 0.242423
O O7 0.989661 0.000929 0.295724
O O8 0.144483 0.040634 0.944472
O O9 0.819055 0.175074 0.455216
O O10 0.361421 0.236624 0.882873
O O11 0.979353 0.225417 0.562751
O O12 0.097792 0.737067 0.242875
#
# Coordination Sequence:
#
# PCOD9139753 Si02
#       6
#     4   4   4   4   4   4
#     4  11  21  36  60  89 119 152 194 240 287 337
#     4  12  25  43  64  87 117 151 192 239 293 351
#     4   9  16  28  50  82 115 148 190 236 275 322
#     4  11  21  36  60  89 119 152 194 240 287 337
#     4  12  25  43  64  87 117 151 192 239 293 351
#     4   9  16  28  50  82 115 148 190 236 275 322
#
# _framework density 23.462
#
# number of rings (size 3 to 8) (size 9 to 14) (size 15 to 20)
#    0.000    1.333    0.000   10.000    0.000    0.000 
#    0.000    0.000    0.000    6.000    0.000    0.000 
#    0.000    0.000    0.000    0.000    0.000    0.000 
#
# Total GULP energy -67169.942951 kJ/mol
# GULP energy per Si atom -5597.495246 kJ/mol
# Density = 2.340860 g / cm^3
# Si number density = 23.462000 Si / 1000 Ang^3
#
#
#
# Elastic Constant Matrix: (Units=GPa)
#
#
# Indices 1 2 3 4 5 6 
#
# 1 60.1160 19.1012 8.7771 0.0000 4.7391 0.0000
# 2 19.1012 166.4283 24.1659 0.0000 20.2951 0.0000
# 3 8.7771 24.1659 110.9882 0.0000 7.6146 0.0000
# 4 0.0000 0.0000 0.0000 34.6806 0.0000 9.1508
# 5 4.7391 20.2951 7.6146 0.0000 34.8092 0.0000
# 6 0.0000 0.0000 0.0000 9.1508 0.0000 -14.6147
#
#
#
# Elastic Compliance Matrix: (Units=1/GPa)
#
#
# Indices 1 2 3 4 5 6 
#
# 1 0.017408 -0.001722 -0.000922 0.000000 -0.001164 0.000000
# 2 -0.001722 0.006791 -0.001104 0.000000 -0.003484 0.000000
# 3 -0.000922 -0.001104 0.009412 0.000000 -0.001290 0.000000
# 4 0.000000 0.000000 0.000000 0.024746 0.000000 0.015494
# 5 -0.001164 -0.003484 -0.001290 0.000000 0.031200 0.000000
# 6 0.000000 0.000000 0.000000 0.015494 0.000000 -0.058723
#
#
# Mechanical properties :
#
#
# Convention : Reuss Voigt Hill
#
# Bulk Modulus (GPa) = 38.29049 49.06898 43.67973
# Shear Modulus (GPa) = 106.30485 30.00758 68.15622
#
# Velocity S-wave (km/s) = 6.73853 3.58017 5.39562
# Velocity P-wave (km/s) = 8.76922 6.16845 7.58120
#
# Compressibility (1/GPa) = 0.02611615
#
# Stress axis : x y z
#
# Youngs Moduli (GPa) = 57.44465 147.24716 106.25151
#
# Poissons Ratio (x) = 0.25358 0.09794
# Poissons Ratio (y) = 0.09893 0.11725
# Poissons Ratio (z) = 0.05295 0.16249
#
# Static dielectric constant tensor:
#      x y z
#    x 1.928480 0.000000 0.001660 
#    y 0.000000 1.892550 0.000000 
#    z 0.001660 0.000000 1.830880 
# 
# From -- ./inp_files/6539.got.cif
#   From: 2010.05.17/outbox.cif.g08.bks.cpg/sg9_4_cif.got.tgz:6539.got - 2010.06.03 20:04:27.
