data_PCOD9139766
_publ_section_title
;
Structure prediction by ZEFSAII (Michael W. Deem and Ramdas Pophale) SiO2 
 PCOD9139766
Probable space group: C C
;
_chemical_formula_sum "Si O2"
_cell_formula_units_Z 24
_cell_length_a 26.762757
_cell_length_b 11.050924
_cell_length_c 20.963446
_cell_angle_alpha 90.000000
_cell_angle_beta 10.383845
_cell_angle_gamma 90.000000
_cell_volume 1117.500336
_symmetry_space_group_name_H-M "C C"
_symmetry_group_IT_number 9
_symmetry_cell_setting 'monoclinic'
loop_
_space_group_symop_operation_xyz
x,y,z
x,-y,1/2+z
1/2+x,1/2+y,z
1/2+x,1/2-y,1/2+z
loop_
_atom_site_type_symbol
_atom_site_label
_atom_site_fract_x
_atom_site_fract_y
_atom_site_fract_z
Si Si1 0.867240 0.395328 0.333960
Si Si2 0.584927 0.830890 0.261176
Si Si3 0.312778 0.079172 0.762503
Si Si4 0.753534 0.512921 0.597616
Si Si5 0.212644 0.372437 0.241234
Si Si6 0.018143 0.163876 0.003713
O O1 0.754638 0.277396 0.514031
O O2 0.709846 0.405890 0.464226
O O3 0.826762 0.511990 0.430501
O O4 0.192798 0.372593 0.911837
O O5 0.293447 0.767190 0.650322
O O6 0.718876 0.881979 0.156682
O O7 0.497768 0.932531 0.321357
O O8 0.532492 0.190385 0.483793
O O9 0.438922 0.944947 0.602752
O O10 0.130573 0.107063 0.928892
O O11 0.460941 0.442111 0.964127
O O12 0.691716 0.619043 0.724744
#
# Coordination Sequence:
#
# PCOD9139766 Si02
#       6
#     4   4   4   4   4   4
#     4  11  24  38  66 106 128 165 231 277 314 397
#     4  11  22  36  66  96 127 166 224 269 325 379
#     4  12  24  39  66  97 136 171 226 268 336 389
#     4  11  23  39  64  96 136 168 217 272 339 385
#     4  11  21  38  62  98 127 174 213 274 329 390
#     4  12  24  42  64  99 138 176 213 278 333 398
#
# _framework density 21.476503999999998
#
# number of rings (size 3 to 8) (size 9 to 14) (size 15 to 20)
#    0.000    0.667    8.333    1.000    2.333    0.000 
#    0.000    0.000    0.000   12.000    0.000    0.000 
#    0.000    0.000    0.000    0.000    0.000    0.000 
#
# Total GULP energy -66855.517828 kJ/mol
# GULP energy per Si atom -5571.293152 kJ/mol
# Density = 2.142762 g / cm^3
# Si number density = 21.476504 Si / 1000 Ang^3
#
#
#
# Elastic Constant Matrix: (Units=GPa)
#
#
# Indices 1 2 3 4 5 6 
#
# 1 141.1239 32.1161 16.4405 0.0022 -1.9845 0.0008
# 2 32.1161 42.2446 15.5913 0.0267 23.2573 -0.0149
# 3 16.4405 15.5913 50.1653 0.1103 1.4242 -0.0487
# 4 0.0022 0.0267 0.1103 29.2710 -0.0119 5.6305
# 5 -1.9845 23.2573 1.4242 -0.0119 43.5592 0.0202
# 6 0.0008 -0.0149 -0.0487 5.6305 0.0202 30.8330
#
#
#
# Elastic Compliance Matrix: (Units=1/GPa)
#
#
# Indices 1 2 3 4 5 6 
#
# 1 0.009603 -0.010680 -0.000002 0.000014 0.006140 -0.000012
# 2 -0.010680 0.051189 -0.011630 -0.000019 -0.027437 0.000028
# 3 -0.000002 -0.011630 0.023395 -0.000084 0.005445 0.000043
# 4 0.000014 -0.000019 -0.000084 0.035408 0.000026 -0.006466
# 5 0.006140 -0.027437 0.005445 0.000026 0.037708 -0.000034
# 6 -0.000012 0.000028 0.000043 -0.006466 -0.000034 0.033614
#
#
# Mechanical properties :
#
#
# Convention : Reuss Voigt Hill
#
# Bulk Modulus (GPa) = 25.27686 40.20331 32.74008
# Shear Modulus (GPa) = 20.10221 32.02503 26.06362
#
# Velocity S-wave (km/s) = 3.06275 3.86575 3.48744
# Velocity P-wave (km/s) = 4.92974 6.21978 5.61195
#
# Compressibility (1/GPa) = 0.03956188
#
# Stress axis : x y z
#
# Youngs Moduli (GPa) = 104.13323 19.53557 42.74394
#
# Poissons Ratio (x) = 0.20864 0.00009
# Poissons Ratio (y) = 1.11216 0.49712
# Poissons Ratio (z) = 0.00023 0.22720
#
# Static dielectric constant tensor:
#      x y z
#    x 1.836580 -0.000020 -0.010060 
#    y -0.000020 1.821400 0.000030 
#    z -0.010060 0.000030 1.892310 
# 
# From -- ./inp_files/36211.got.cif
#   From: 2010.05.17/outbox.cif.g08.bks.cpg/sg9_19_cif.got.tgz:36211.got - 2010.06.03 20:04:27.
