data_PCOD9139617
_publ_section_title
;
Structure prediction by ZEFSAII (Michael W. Deem and Ramdas Pophale) SiO2 
 PCOD9139617
Probable space group: C C
;
_chemical_formula_sum "Si O2"
_cell_formula_units_Z 28
_cell_length_a 22.121964
_cell_length_b 6.065426
_cell_length_c 25.231001
_cell_angle_alpha 90.000000
_cell_angle_beta 159.122205
_cell_angle_gamma 90.000000
_cell_volume 1206.501382
_symmetry_space_group_name_H-M "C C"
_symmetry_group_IT_number 9
_symmetry_cell_setting 'monoclinic'
loop_
_space_group_symop_operation_xyz
x,y,z
x,-y,1/2+z
1/2+x,1/2+y,z
1/2+x,1/2-y,1/2+z
loop_
_atom_site_type_symbol
_atom_site_label
_atom_site_fract_x
_atom_site_fract_y
_atom_site_fract_z
Si Si1 0.935810 0.923195 0.569620
Si Si2 0.260138 0.950787 0.689632
Si Si3 0.997476 0.542013 0.284751
Si Si4 0.126003 0.424804 0.152402
Si Si5 0.425763 0.250505 0.916059
Si Si6 0.829041 0.693780 0.037722
Si Si7 0.111971 0.197260 0.316251
O O1 0.741951 0.873069 0.397652
O O2 0.052429 0.775820 0.627858
O O3 0.969273 0.841854 0.656728
O O4 0.946409 0.182305 0.590320
O O5 0.367057 0.915791 0.724181
O O6 0.213453 0.714447 0.676562
O O7 0.369985 0.095208 0.821442
O O8 0.089543 0.094311 0.540177
O O9 0.178908 0.656307 0.439283
O O10 0.034077 0.282926 0.306977
O O11 0.929249 0.613050 0.171043
O O12 0.268534 0.580931 0.295964
O O13 0.981213 0.582800 0.008468
O O14 0.728283 0.509875 0.923052
#
# Coordination Sequence:
#
# PCOD9139617 Si02
#       7
#     4   4   4   4   4   4   4
#     4  11  26  46  73 100 143 187 245 303 365 445
#     4  11  26  45  73 109 152 194 246 308 366 443
#     4  11  26  43  74 103 149 190 248 300 366 437
#     4  11  26  51  74 108 147 193 251 312 371 451
#     4  10  26  48  71 112 141 200 249 296 389 424
#     4  11  24  46  71 110 139 197 241 303 374 429
#     4  11  24  47  66 106 141 189 240 302 361 437
#
# _framework density 23.207597
#
# number of rings (size 3 to 8) (size 9 to 14) (size 15 to 20)
#    0.000    1.143    2.857    0.857   10.000    3.429 
#    2.571    0.000    0.000    0.000    0.000    0.000 
#    0.000    0.000    0.000    0.000    0.000    0.000 
#
# Total GULP energy -78225.472981 kJ/mol
# GULP energy per Si atom -5587.533784 kJ/mol
# Density = 2.315478 g / cm^3
# Si number density = 23.207597 Si / 1000 Ang^3
#
#
#
# Elastic Constant Matrix: (Units=GPa)
#
#
# Indices 1 2 3 4 5 6 
#
# 1 135.0512 70.0511 40.6731 0.0004 18.7061 -0.0009
# 2 70.0511 114.2122 43.0752 0.0017 4.3463 0.0031
# 3 40.6731 43.0752 134.2394 0.0003 -2.5709 0.0007
# 4 0.0004 0.0017 0.0003 50.3812 0.0001 4.5521
# 5 18.7061 4.3463 -2.5709 0.0001 21.9938 -0.0006
# 6 -0.0009 0.0031 0.0007 4.5521 -0.0006 29.9343
#
#
#
# Elastic Compliance Matrix: (Units=1/GPa)
#
#
# Indices 1 2 3 4 5 6 
#
# 1 0.012865 -0.006799 -0.001904 0.000000 -0.009821 0.000001
# 2 -0.006799 0.013676 -0.002275 0.000000 0.002814 -0.000001
# 3 -0.001904 -0.002275 0.008816 0.000000 0.003100 0.000000
# 4 0.000000 0.000000 0.000000 0.020125 0.000000 -0.003060
# 5 -0.009821 0.002814 0.003100 0.000000 0.053626 0.000001
# 6 0.000001 -0.000001 0.000000 -0.003060 0.000001 0.033872
#
#
# Mechanical properties :
#
#
# Convention : Reuss Voigt Hill
#
# Bulk Modulus (GPa) = 74.61909 76.78905 75.70407
# Shear Modulus (GPa) = 29.51539 35.77542 32.64540
#
# Velocity S-wave (km/s) = 3.57010 3.93050 3.75463
# Velocity P-wave (km/s) = 7.01547 7.33200 7.17548
#
# Compressibility (1/GPa) = 0.01340140
#
# Stress axis : x y z
#
# Youngs Moduli (GPa) = 77.73101 73.11910 113.43406
#
# Poissons Ratio (x) = 0.49711 0.21603
# Poissons Ratio (y) = 0.52846 0.25803
# Poissons Ratio (z) = 0.14804 0.16633
#
# Static dielectric constant tensor:
#      x y z
#    x 1.839570 0.000000 0.011360 
#    y 0.000000 2.032250 0.000000 
#    z 0.011360 0.000000 1.823370 
# 
# From -- ./inp_files/11924.got.cif
#   From: 2010.05.17/outbox.cif.g08.bks.cpg/sg9_6_cif.got.tgz:11924.got - 2010.06.03 20:04:27.
