data_PCOD9139773
_publ_section_title
;
Structure prediction by ZEFSAII (Michael W. Deem and Ramdas Pophale) SiO2 
 PCOD9139773
Probable space group: C C
;
_chemical_formula_sum "Si O2"
_cell_formula_units_Z 20
_cell_length_a 8.451198
_cell_length_b 22.460022
_cell_length_c 9.395444
_cell_angle_alpha 90.000000
_cell_angle_beta 148.611468
_cell_angle_gamma 90.000000
_cell_volume 928.857463
_symmetry_space_group_name_H-M "C C"
_symmetry_group_IT_number 9
_symmetry_cell_setting 'monoclinic'
loop_
_space_group_symop_operation_xyz
x,y,z
x,-y,1/2+z
1/2+x,1/2+y,z
1/2+x,1/2-y,1/2+z
loop_
_atom_site_type_symbol
_atom_site_label
_atom_site_fract_x
_atom_site_fract_y
_atom_site_fract_z
Si Si1 0.625000 0.625259 0.613470
Si Si2 0.085691 0.105406 0.126600
Si Si3 0.467382 0.903949 0.652700
Si Si4 0.245697 0.211784 0.463474
Si Si5 0.929401 0.544931 0.617820
O O1 0.304179 0.618161 0.443749
O O2 0.616221 0.684699 0.511201
O O3 0.696547 0.572270 0.555178
O O4 0.882651 0.619341 0.930561
O O5 0.210412 0.116260 0.065449
O O6 0.185084 0.160551 0.301950
O O7 0.279354 0.052725 0.348094
O O8 0.736685 0.084371 0.863494
O O9 0.483381 0.975384 0.675607
O O10 0.580504 0.231118 0.768559
#
# Coordination Sequence:
#
# PCOD9139773 Si02
#       5
#     4   4   4   4   4
#     4  11  24  39  62  93 121 160 209 245 298 368
#     4  11  24  39  62  93 122 161 208 244 298 369
#     4  12  22  38  61  96 131 154 191 257 304 354
#     4  11  23  45  66  82 114 166 213 257 304 361
#     4  11  21  39  61  90 130 171 193 227 300 384
#
# _framework density 21.531828999999998
#
# number of rings (size 3 to 8) (size 9 to 14) (size 15 to 20)
#    0.000    0.800    0.000   10.800    0.000    0.000 
#    0.000    6.000    0.000    0.000    0.000    0.000 
#    0.000    0.000    0.000    0.000    0.000    0.000 
#
# Total GULP energy -55854.497343 kJ/mol
# GULP energy per Si atom -5585.449734 kJ/mol
# Density = 2.148282 g / cm^3
# Si number density = 21.531829 Si / 1000 Ang^3
#
#
#
# Elastic Constant Matrix: (Units=GPa)
#
#
# Indices 1 2 3 4 5 6 
#
# 1 78.5298 6.6414 11.1655 0.0000 -9.3714 0.0000
# 2 6.6414 49.7120 9.4415 0.0000 -0.2685 0.0000
# 3 11.1655 9.4415 100.0033 0.0000 0.8590 0.0000
# 4 0.0000 0.0000 0.0000 3.0244 0.0000 10.1578
# 5 -9.3714 -0.2685 0.8590 0.0000 33.3780 0.0000
# 6 0.0000 0.0000 0.0000 10.1578 0.0000 11.0458
#
#
#
# Elastic Compliance Matrix: (Units=1/GPa)
#
#
# Indices 1 2 3 4 5 6 
#
# 1 0.013517 -0.001520 -0.001399 0.000000 0.003819 0.000000
# 2 -0.001520 0.020656 -0.001779 0.000000 -0.000215 0.000000
# 3 -0.001399 -0.001779 0.010330 0.000000 -0.000673 0.000000
# 4 0.000000 0.000000 0.000000 -0.158309 0.000000 0.145582
# 5 0.003819 -0.000215 -0.000673 0.000000 0.031048 0.000000
# 6 0.000000 0.000000 0.000000 0.145582 0.000000 -0.043346
#
#
# Mechanical properties :
#
#
# Convention : Reuss Voigt Hill
#
# Bulk Modulus (GPa) = 28.48303 31.41578 29.94940
# Shear Modulus (GPa) = -47.61522 22.88943 -12.36290
#
# Velocity S-wave (km/s) = -4.70764 3.26398 -2.39878
# Velocity P-wave (km/s) = 4.03635 5.36906 2.50347
#
# Compressibility (1/GPa) = 0.03510862
#
# Stress axis : x y z
#
# Youngs Moduli (GPa) = 73.98028 48.41324 96.80991
#
# Poissons Ratio (x) = 0.07357 0.13539
# Poissons Ratio (y) = 0.11242 0.17219
# Poissons Ratio (z) = 0.10346 0.08611
#
# Static dielectric constant tensor:
#      x y z
#    x 1.771520 0.000000 -0.004610 
#    y 0.000000 1.816830 0.000000 
#    z -0.004610 0.000000 1.738800 
# 
# From -- ./inp_files/577.got.cif
#   From: 2010.05.17/outbox.cif.g08.bks.cpg/sg9_1_cif.got.tgz:577.got - 2010.06.03 20:04:27.
