data_PCOD9139437
_publ_section_title
;
Structure prediction by ZEFSAII (Michael W. Deem and Ramdas Pophale) SiO2 
 PCOD9139437
Probable space group: C C
;
_chemical_formula_sum "Si O2"
_cell_formula_units_Z 32
_cell_length_a 10.910673
_cell_length_b 11.143838
_cell_length_c 10.457903
_cell_angle_alpha 90.000000
_cell_angle_beta 76.626915
_cell_angle_gamma 90.000000
_cell_volume 1237.064329
_symmetry_space_group_name_H-M "C C"
_symmetry_group_IT_number 9
_symmetry_cell_setting 'monoclinic'
loop_
_space_group_symop_operation_xyz
x,y,z
x,-y,1/2+z
1/2+x,1/2+y,z
1/2+x,1/2-y,1/2+z
loop_
_atom_site_type_symbol
_atom_site_label
_atom_site_fract_x
_atom_site_fract_y
_atom_site_fract_z
Si Si1 0.691420 0.289846 0.353680
Si Si2 0.334089 0.017970 0.257020
Si Si3 0.483481 0.021864 0.478569
Si Si4 0.302423 0.575655 0.195148
Si Si5 0.566365 0.634981 0.378500
Si Si6 0.670586 0.162081 0.990161
Si Si7 0.539494 0.264961 0.614941
Si Si8 0.930958 0.895667 0.331133
O O1 0.797973 0.376779 0.272372
O O2 0.744602 0.156561 0.323176
O O3 0.659258 0.318175 0.508907
O O4 0.560514 0.320457 0.309856
O O5 0.416997 0.047131 0.360895
O O6 0.199460 0.077191 0.310382
O O7 0.396270 0.045121 0.105618
O O8 0.522460 0.139531 0.547915
O O9 0.599650 0.935335 0.422201
O O10 0.421253 0.650948 0.114090
O O11 0.367241 0.451259 0.218044
O O12 0.193228 0.590924 0.116813
O O13 0.591020 0.715206 0.498357
O O14 0.545874 0.726579 0.265391
O O15 0.468414 0.523834 0.393164
O O16 0.812282 0.181492 0.907347
#
# Coordination Sequence:
#
# PCOD9139437 Si02
#       8
#     4   4   4   4   4   4   4   4
#     4  11  23  45  74 100 140 188 231 300 353 421
#     4  11  25  46  71 104 138 190 240 289 361 432
#     4  12  26  42  71 104 145 182 237 297 359 429
#     4  11  24  43  70 101 137 181 236 289 353 424
#     4  10  25  46  72 101 137 183 238 293 354 434
#     4  12  26  44  68 101 145 180 234 297 353 426
#     4  11  22  45  70  99 140 179 233 292 359 425
#     4  10  25  45  70 104 136 185 239 285 360 423
#
# _framework density 25.867692000000002
#
# number of rings (size 3 to 8) (size 9 to 14) (size 15 to 20)
#    0.000    1.000    2.500    3.000    7.000    1.000 
#    2.250    0.000    0.000    0.000    0.000    0.000 
#    0.000    0.000    0.000    0.000    0.000    0.000 
#
# Total GULP energy -89370.833809 kJ/mol
# GULP energy per Si atom -5585.677113 kJ/mol
# Density = 2.580882 g / cm^3
# Si number density = 25.867692 Si / 1000 Ang^3
#
#
#
# Elastic Constant Matrix: (Units=GPa)
#
#
# Indices 1 2 3 4 5 6 
#
# 1 111.3800 26.9824 27.3804 0.0000 9.1815 0.0000
# 2 26.9824 59.4442 9.4479 0.0000 -0.2627 0.0000
# 3 27.3804 9.4479 78.3839 0.0000 7.6389 0.0000
# 4 0.0000 0.0000 0.0000 33.4733 0.0000 -2.8411
# 5 9.1815 -0.2627 7.6389 0.0000 41.4890 0.0000
# 6 0.0000 0.0000 0.0000 -2.8411 0.0000 52.3962
#
#
#
# Elastic Compliance Matrix: (Units=1/GPa)
#
#
# Indices 1 2 3 4 5 6 
#
# 1 0.010990 -0.004502 -0.003112 0.000000 -0.001887 0.000000
# 2 -0.004502 0.019005 -0.000842 0.000000 0.001272 0.000000
# 3 -0.003112 -0.000842 0.014133 0.000000 -0.001919 0.000000
# 4 0.000000 0.000000 0.000000 0.030013 0.000000 0.001627
# 5 -0.001887 0.001272 -0.001919 0.000000 0.024882 0.000000
# 6 0.000000 0.000000 0.000000 0.001627 0.000000 0.019174
#
#
# Mechanical properties :
#
#
# Convention : Reuss Voigt Hill
#
# Bulk Modulus (GPa) = 36.74343 41.86994 39.30668
# Shear Modulus (GPa) = 34.67862 37.83152 36.25507
#
# Velocity S-wave (km/s) = 3.66541 3.82841 3.74780
# Velocity P-wave (km/s) = 5.67000 5.98027 5.82720
#
# Compressibility (1/GPa) = 0.02721575
#
# Stress axis : x y z
#
# Youngs Moduli (GPa) = 90.99538 52.61639 70.75464
#
# Poissons Ratio (x) = 0.23688 0.22020
# Poissons Ratio (y) = 0.40966 0.05958
# Poissons Ratio (z) = 0.28320 0.04431
#
# Static dielectric constant tensor:
#      x y z
#    x 2.048170 0.000000 0.039610 
#    y 0.000000 2.073900 0.000000 
#    z 0.039610 0.000000 2.167950 
# 
# From -- ./inp_files/16262.got.cif
#   From: 2010.05.17/outbox.cif.g08.bks.cpg/sg9_9_cif.got.tgz:16262.got - 2010.06.03 20:04:27.
