data_PCOD9139583
_publ_section_title
;
Structure prediction by ZEFSAII (Michael W. Deem and Ramdas Pophale) SiO2 
 PCOD9139583
Probable space group: C C
;
_chemical_formula_sum "Si O2"
_cell_formula_units_Z 28
_cell_length_a 22.275970
_cell_length_b 4.954925
_cell_length_c 9.934921
_cell_angle_alpha 90.000000
_cell_angle_beta 106.150541
_cell_angle_gamma 90.000000
_cell_volume 1053.297229
_symmetry_space_group_name_H-M "C C"
_symmetry_group_IT_number 9
_symmetry_cell_setting 'monoclinic'
loop_
_space_group_symop_operation_xyz
x,y,z
x,-y,1/2+z
1/2+x,1/2+y,z
1/2+x,1/2-y,1/2+z
loop_
_atom_site_type_symbol
_atom_site_label
_atom_site_fract_x
_atom_site_fract_y
_atom_site_fract_z
Si Si1 0.985040 0.631065 0.665590
Si Si2 0.584559 0.805093 0.434094
Si Si3 0.304830 0.485208 0.768010
Si Si4 0.402407 0.364152 0.126173
Si Si5 0.692733 0.214922 0.533144
Si Si6 0.792956 0.501866 0.922393
Si Si7 0.100537 0.953969 0.681417
O O1 0.961623 0.328170 0.643545
O O2 0.015256 0.638602 0.835656
O O3 0.042842 0.749194 0.615677
O O4 0.928923 0.841246 0.602574
O O5 0.587610 0.722644 0.590620
O O6 0.601507 0.554406 0.343358
O O7 0.638961 0.021099 0.439382
O O8 0.371979 0.565787 0.751160
O O9 0.249362 0.545042 0.631320
O O10 0.298132 0.166233 0.785932
O O11 0.296709 0.685240 0.891592
O O12 0.348814 0.168583 0.030226
O O13 0.728919 0.413140 0.454511
O O14 0.661798 0.349583 0.645242
#
# Coordination Sequence:
#
# PCOD9139583 Si02
#       7
#     4   4   4   4   4   4   4
#     4  10  26  45  76 108 151 200 254 317 385 465
#     4  10  26  46  72 114 154 205 252 320 383 466
#     4  11  26  46  75 108 147 201 254 328 382 462
#     4  11  24  50  70 111 143 198 258 314 390 456
#     4  11  26  44  74 105 159 196 263 314 394 457
#     4  11  26  45  75 106 149 200 257 324 386 456
#     4  10  26  44  74 110 153 204 256 315 386 464
#
# _framework density 26.583186999999999
#
# number of rings (size 3 to 8) (size 9 to 14) (size 15 to 20)
#    0.857    0.571    0.000    2.571   10.000    6.857 
#    0.000    0.000    0.000    0.000    0.000    0.000 
#    0.000    0.000    0.000    0.000    0.000    0.000 
#
# Total GULP energy -78181.954260 kJ/mol
# GULP energy per Si atom -5584.425304 kJ/mol
# Density = 2.652268 g / cm^3
# Si number density = 26.583187 Si / 1000 Ang^3
#
#
#
# Elastic Constant Matrix: (Units=GPa)
#
#
# Indices 1 2 3 4 5 6 
#
# 1 138.0323 29.7680 13.3948 0.0000 -9.6620 0.0000
# 2 29.7680 141.4451 17.7303 0.0000 -1.2995 0.0000
# 3 13.3948 17.7303 57.1528 0.0000 11.5762 0.0000
# 4 0.0000 0.0000 0.0000 37.1392 0.0000 0.9138
# 5 -9.6620 -1.2995 11.5762 0.0000 37.3035 0.0000
# 6 0.0000 0.0000 0.0000 0.9138 0.0000 40.2181
#
#
#
# Elastic Compliance Matrix: (Units=1/GPa)
#
#
# Indices 1 2 3 4 5 6 
#
# 1 0.007918 -0.001398 -0.001950 0.000000 0.002607 0.000000
# 2 -0.001398 0.007640 -0.002159 0.000000 0.000574 0.000000
# 3 -0.001950 -0.002159 0.019998 0.000000 -0.006786 0.000000
# 4 0.000000 0.000000 0.000000 0.026941 0.000000 -0.000612
# 5 0.002607 0.000574 -0.006786 0.000000 0.029608 0.000000
# 6 0.000000 0.000000 0.000000 -0.000612 0.000000 0.024878
#
#
# Mechanical properties :
#
#
# Convention : Reuss Voigt Hill
#
# Bulk Modulus (GPa) = 40.74571 50.93514 45.84042
# Shear Modulus (GPa) = 36.71662 41.31463 39.01562
#
# Velocity S-wave (km/s) = 3.72048 3.94657 3.83519
# Velocity P-wave (km/s) = 5.81522 6.32214 6.07397
#
# Compressibility (1/GPa) = 0.02454246
#
# Stress axis : x y z
#
# Youngs Moduli (GPa) = 126.29586 130.89063 50.00444
#
# Poissons Ratio (x) = 0.18298 0.09751
# Poissons Ratio (y) = 0.17656 0.10795
# Poissons Ratio (z) = 0.24629 0.28256
#
# Static dielectric constant tensor:
#      x y z
#    x 2.053840 0.000000 0.054480 
#    y 0.000000 2.070130 0.000000 
#    z 0.054480 0.000000 2.207360 
# 
# From -- ./inp_files/19739.got.cif
#   From: 2010.05.17/outbox.cif.g08.bks.cpg/sg9_10_cif.got.tgz:19739.got - 2010.06.03 20:04:27.
