data_PCOD9139396
_publ_section_title
;
Structure prediction by ZEFSAII (Michael W. Deem and Ramdas Pophale) SiO2 
 PCOD9139396
Probable space group: C C
;
_chemical_formula_sum "Si O2"
_cell_formula_units_Z 32
_cell_length_a 15.552885
_cell_length_b 11.662196
_cell_length_c 11.379798
_cell_angle_alpha 90.000000
_cell_angle_beta 142.929145
_cell_angle_gamma 90.000000
_cell_volume 1244.230024
_symmetry_space_group_name_H-M "C C"
_symmetry_group_IT_number 9
_symmetry_cell_setting 'monoclinic'
loop_
_space_group_symop_operation_xyz
x,y,z
x,-y,1/2+z
1/2+x,1/2+y,z
1/2+x,1/2-y,1/2+z
loop_
_atom_site_type_symbol
_atom_site_label
_atom_site_fract_x
_atom_site_fract_y
_atom_site_fract_z
Si Si1 0.226010 0.654339 0.729550
Si Si2 0.995458 0.156802 0.324088
Si Si3 0.227790 0.992261 0.192069
Si Si4 0.031367 0.514385 0.110658
Si Si5 0.181114 0.651107 0.937160
Si Si6 0.979869 0.992525 0.574429
Si Si7 0.559229 0.254093 0.210083
Si Si8 0.329988 0.178226 0.137754
O O1 0.227040 0.708951 0.861668
O O2 0.285333 0.737515 0.696064
O O3 0.077066 0.584202 0.566702
O O4 0.336413 0.550046 0.859387
O O5 0.045773 0.280793 0.336719
O O6 0.132006 0.116380 0.549941
O O7 0.994317 0.064200 0.217170
O O8 0.826429 0.154651 0.171448
O O9 0.360896 0.982987 0.424625
O O10 0.290080 0.053979 0.145275
O O11 0.104647 0.057912 0.128576
O O12 0.066165 0.647426 0.128933
O O13 0.119326 0.470809 0.321779
O O14 0.980949 0.129155 0.588874
O O15 0.479807 0.206279 0.240466
O O16 0.716604 0.292637 0.413346
#
# Coordination Sequence:
#
# PCOD9139396 Si02
#       8
#     4   4   4   4   4   4   4   4
#     4   9  22  43  71  99 135 186 247 297 348 425
#     4  11  24  46  72 105 138 189 242 302 357 431
#     4  12  26  42  70 109 140 187 245 295 364 436
#     4  10  25  44  66 105 143 189 233 301 365 430
#     4   9  24  44  74  98 142 190 242 298 361 426
#     4  11  24  44  69 100 146 186 232 300 369 424
#     4  12  25  44  68 101 150 184 228 299 377 426
#     4  12  24  41  72 105 132 187 251 296 343 442
#
# _framework density 25.718716000000001
#
# number of rings (size 3 to 8) (size 9 to 14) (size 15 to 20)
#    0.750    0.500    1.250    3.750    5.250    1.000 
#    0.000    2.500    0.000    0.000    0.000    0.000 
#    0.000    0.000    0.000    0.000    0.000    0.000 
#
# Total GULP energy -89313.006823 kJ/mol
# GULP energy per Si atom -5582.062926 kJ/mol
# Density = 2.566018 g / cm^3
# Si number density = 25.718716 Si / 1000 Ang^3
#
#
#
# Elastic Constant Matrix: (Units=GPa)
#
#
# Indices 1 2 3 4 5 6 
#
# 1 74.9776 10.8755 16.7013 0.0000 8.8780 0.0000
# 2 10.8755 88.5386 7.3977 0.0000 1.1713 0.0000
# 3 16.7013 7.3977 114.1005 0.0000 29.5234 0.0000
# 4 0.0000 0.0000 0.0000 30.1961 0.0000 7.7681
# 5 8.8780 1.1713 29.5234 0.0000 30.2302 0.0000
# 6 0.0000 0.0000 0.0000 7.7681 0.0000 37.1254
#
#
#
# Elastic Compliance Matrix: (Units=1/GPa)
#
#
# Indices 1 2 3 4 5 6 
#
# 1 0.014186 -0.001602 -0.001219 0.000000 -0.002914 0.000000
# 2 -0.001602 0.011540 -0.000695 0.000000 0.000703 0.000000
# 3 -0.001219 -0.000695 0.011894 0.000000 -0.011231 0.000000
# 4 0.000000 0.000000 0.000000 0.035001 0.000000 -0.007324
# 5 -0.002914 0.000703 -0.011231 0.000000 0.044876 0.000000
# 6 0.000000 0.000000 0.000000 -0.007324 0.000000 0.028468
#
#
# Mechanical properties :
#
#
# Convention : Reuss Voigt Hill
#
# Bulk Modulus (GPa) = 32.69321 38.61838 35.65580
# Shear Modulus (GPa) = 30.63848 35.68648 33.16248
#
# Velocity S-wave (km/s) = 3.45525 3.72905 3.59476
# Velocity P-wave (km/s) = 5.35330 5.79563 5.57885
#
# Compressibility (1/GPa) = 0.03058739
#
# Stress axis : x y z
#
# Youngs Moduli (GPa) = 70.49109 86.65417 84.07886
#
# Poissons Ratio (x) = 0.13883 0.10246
# Poissons Ratio (y) = 0.11294 0.05848
# Poissons Ratio (z) = 0.08590 0.06027
#
# Static dielectric constant tensor:
#      x y z
#    x 2.111440 0.000000 -0.072170 
#    y 0.000000 2.026190 0.000000 
#    z -0.072170 0.000000 2.011600 
# 
# From -- ./inp_files/26855.got.cif
#   From: 2010.05.17/outbox.cif.g08.bks.cpg/sg9_14_cif.got.tgz:26855.got - 2010.06.03 20:04:27.
