data_PCOD9139891
_publ_section_title
;
Structure prediction by ZEFSAII (Michael W. Deem and Ramdas Pophale) SiO2 
 PCOD9139891
Probable space group: C C
;
_chemical_formula_sum "Si O2"
_cell_formula_units_Z 32
_cell_length_a 21.848226
_cell_length_b 5.437959
_cell_length_c 21.112915
_cell_angle_alpha 90.000000
_cell_angle_beta 28.878062
_cell_angle_gamma 90.000000
_cell_volume 1211.434415
_symmetry_space_group_name_H-M "C C"
_symmetry_group_IT_number 9
_symmetry_cell_setting 'monoclinic'
loop_
_space_group_symop_operation_xyz
x,y,z
x,-y,1/2+z
1/2+x,1/2+y,z
1/2+x,1/2-y,1/2+z
loop_
_atom_site_type_symbol
_atom_site_label
_atom_site_fract_x
_atom_site_fract_y
_atom_site_fract_z
Si Si1 0.520530 0.143518 0.199680
Si Si2 0.248699 0.348049 0.772231
Si Si3 0.331619 0.914710 0.009240
Si Si4 0.612196 0.737174 0.477281
Si Si5 0.059461 0.119519 0.793733
Si Si6 0.989407 0.975563 0.482762
Si Si7 0.260811 0.591449 0.503247
Si Si8 0.302712 0.145499 0.844620
O O1 0.540635 0.357784 0.233783
O O2 0.608426 0.923440 0.146885
O O3 0.380123 0.055687 0.313171
O O4 0.567996 0.168371 0.084936
O O5 0.207157 0.588778 0.851028
O O6 0.345207 0.389520 0.626670
O O7 0.343443 0.212582 0.737064
O O8 0.115459 0.203280 0.878230
O O9 0.303792 0.664931 0.993904
O O10 0.209699 0.910145 0.164991
O O11 0.314302 0.171723 0.989604
O O12 0.479003 0.860360 0.890617
O O13 0.506276 0.680568 0.521375
O O14 0.669623 0.477567 0.449045
O O15 0.003508 0.935370 0.897465
O O16 0.296300 0.626530 0.397706
#
# Coordination Sequence:
#
# PCOD9139891 Si02
#       8
#     4   4   4   4   4   4   4   4
#     4  11  23  42  75 109 154 197 261 326 402 472
#     4  11  24  45  75 105 149 199 264 325 403 478
#     4  11  26  46  74 107 157 197 255 311 397 464
#     4  11  24  45  69 113 147 206 262 326 399 476
#     4  11  25  48  73 111 151 206 256 325 390 477
#     4  11  26  49  75 105 154 207 265 330 399 486
#     4  11  24  44  68 113 151 198 241 324 387 468
#     4  11  22  39  69 105 145 192 248 327 389 465
#
# _framework density 26.414964999999999
#
# number of rings (size 3 to 8) (size 9 to 14) (size 15 to 20)
#    0.000    1.000    2.500    3.750    3.500    2.000 
#   11.250    0.000    0.000    0.000    0.000    0.000 
#    0.000    0.000    0.000    0.000    0.000    0.000 
#
# Total GULP energy -89089.797004 kJ/mol
# GULP energy per Si atom -5568.112313 kJ/mol
# Density = 2.635484 g / cm^3
# Si number density = 26.414965 Si / 1000 Ang^3
#
#
#
# Elastic Constant Matrix: (Units=GPa)
#
#
# Indices 1 2 3 4 5 6 
#
# 1 142.3265 35.6194 30.6727 -0.2654 9.1512 0.3565
# 2 35.6194 74.0223 4.3670 -0.3754 15.0461 0.4815
# 3 30.6727 4.3670 168.0584 -0.3711 26.0402 0.5359
# 4 -0.2654 -0.3754 -0.3711 11.3390 0.1577 -3.0270
# 5 9.1512 15.0461 26.0402 0.1577 33.0452 -0.2128
# 6 0.3565 0.4815 0.5359 -3.0270 -0.2128 36.8834
#
#
#
# Elastic Compliance Matrix: (Units=1/GPa)
#
#
# Indices 1 2 3 4 5 6 
#
# 1 0.008326 -0.004069 -0.001531 -0.000001 0.000753 -0.000001
# 2 -0.004069 0.016967 0.001511 0.000570 -0.007793 -0.000202
# 3 -0.001531 0.001511 0.007100 0.000297 -0.005861 -0.000118
# 4 -0.000001 0.000570 0.000297 0.090204 -0.000876 0.007386
# 5 0.000753 -0.007793 -0.005861 -0.000876 0.038226 0.000328
# 6 -0.000001 -0.000202 -0.000118 0.007386 0.000328 0.027725
#
#
# Mechanical properties :
#
#
# Convention : Reuss Voigt Hill
#
# Bulk Modulus (GPa) = 41.29647 58.41393 49.85520
# Shear Modulus (GPa) = 24.41459 37.17006 30.79232
#
# Velocity S-wave (km/s) = 3.04348 3.75528 3.41796
# Velocity P-wave (km/s) = 5.29321 6.40038 5.87294
#
# Compressibility (1/GPa) = 0.02421515
#
# Stress axis : x y z
#
# Youngs Moduli (GPa) = 120.10712 58.93903 140.85372
#
# Poissons Ratio (x) = 0.23984 0.21558
# Poissons Ratio (y) = 0.48874 -0.21287
# Poissons Ratio (z) = 0.18383 -0.08907
#
# Static dielectric constant tensor:
#      x y z
#    x 2.294520 -0.000100 0.027530 
#    y -0.000100 2.153490 0.000150 
#    z 0.027530 0.000150 2.216880 
# 
# From -- ./inp_files/34466.got.cif
#   From: 2010.05.17/outbox.cif.g08.bks.cpg/sg9_18_cif.got.tgz:34466.got - 2010.06.03 20:04:27.
