data_PCOD9139039
_publ_section_title
;
Structure prediction by ZEFSAII (Michael W. Deem and Ramdas Pophale) SiO2 
 PCOD9139039
Probable space group: C C
;
_chemical_formula_sum "Si O2"
_cell_formula_units_Z 20
_cell_length_a 24.686877
_cell_length_b 4.776482
_cell_length_c 10.897891
_cell_angle_alpha 90.000000
_cell_angle_beta 146.360773
_cell_angle_gamma 90.000000
_cell_volume 711.863089
_symmetry_space_group_name_H-M "C C"
_symmetry_group_IT_number 9
_symmetry_cell_setting 'monoclinic'
loop_
_space_group_symop_operation_xyz
x,y,z
x,-y,1/2+z
1/2+x,1/2+y,z
1/2+x,1/2-y,1/2+z
loop_
_atom_site_type_symbol
_atom_site_label
_atom_site_fract_x
_atom_site_fract_y
_atom_site_fract_z
Si Si1 0.205280 0.442514 0.619250
Si Si2 0.495694 0.937514 0.655801
Si Si3 0.521187 0.557486 0.037559
Si Si4 0.863233 0.782849 0.578405
Si Si5 0.730773 0.562486 0.001008
O O1 0.207824 0.125295 0.578370
O O2 0.092903 0.536054 0.422392
O O3 0.242953 0.626334 0.573646
O O4 0.276248 0.525280 0.862157
O O5 0.518643 0.125295 0.578439
O O6 0.406514 0.078480 0.556377
O O7 0.483514 0.626334 0.583163
O O8 0.633564 0.463946 0.234417
O O9 0.450219 0.474720 0.794652
O O10 0.819952 0.578480 0.600432
#
# Coordination Sequence:
#
# PCOD9139039 Si02
#       5
#     4   4   4   4   4
#     4  10  24  44  65  97 138 174 218 277 334 394
#     4  10  24  44  65  97 138 174 218 277 334 394
#     4  10  24  44  65  97 138 174 218 277 334 394
#     4  12  24  42  76 102 128 182 232 270 332 402
#     4  10  24  44  65  97 138 174 218 277 334 394
#
# _framework density 28.095289000000001
#
# number of rings (size 3 to 8) (size 9 to 14) (size 15 to 20)
#    0.000    1.600    0.000    2.400    0.000   16.000 
#    0.000    0.000    0.000    0.000    0.000    0.000 
#    0.000    0.000    0.000    0.000    0.000    0.000 
#
# Total GULP energy -56268.482710 kJ/mol
# GULP energy per Si atom -5626.848271 kJ/mol
# Density = 2.803134 g / cm^3
# Si number density = 28.095289 Si / 1000 Ang^3
#
#
#
# Elastic Constant Matrix: (Units=GPa)
#
#
# Indices 1 2 3 4 5 6 
#
# 1 66.3923 6.2568 -1.6328 0.0000 0.7525 0.0000
# 2 6.2568 116.5699 19.5030 0.0000 1.2442 0.0000
# 3 -1.6328 19.5030 215.2139 0.0000 1.6910 0.0000
# 4 0.0000 0.0000 0.0000 52.4367 0.0000 3.3897
# 5 0.7525 1.2442 1.6910 0.0000 34.3824 0.0000
# 6 0.0000 0.0000 0.0000 3.3897 0.0000 22.1809
#
#
#
# Elastic Compliance Matrix: (Units=1/GPa)
#
#
# Indices 1 2 3 4 5 6 
#
# 1 0.015150 -0.000842 0.000194 0.000000 -0.000311 0.000000
# 2 -0.000842 0.008760 -0.000798 0.000000 -0.000259 0.000000
# 3 0.000194 -0.000798 0.004722 0.000000 -0.000208 0.000000
# 4 0.000000 0.000000 0.000000 0.019261 0.000000 -0.002943
# 5 -0.000311 -0.000259 -0.000208 0.000000 0.029111 0.000000
# 6 0.000000 0.000000 0.000000 -0.002943 0.000000 0.045534
#
#
# Mechanical properties :
#
#
# Convention : Reuss Voigt Hill
#
# Bulk Modulus (GPa) = 38.85275 49.60335 44.22805
# Shear Modulus (GPa) = 37.31060 46.73661 42.02361
#
# Velocity S-wave (km/s) = 3.64813 4.08303 3.87169
# Velocity P-wave (km/s) = 5.62175 6.31838 5.98022
#
# Compressibility (1/GPa) = 0.02573820
#
# Stress axis : x y z
#
# Youngs Moduli (GPa) = 66.00817 114.15445 211.77583
#
# Poissons Ratio (x) = 0.09615 -0.04102
# Poissons Ratio (y) = 0.05559 0.16904
# Poissons Ratio (z) = -0.01279 0.09112
#
# Static dielectric constant tensor:
#      x y z
#    x 2.126740 0.000000 -0.031660 
#    y 0.000000 2.059290 0.000000 
#    z -0.031660 0.000000 2.169030 
# 
# From -- ./inp_files/12888.got.cif
#   From: 2010.05.17/outbox.cif.g08.bks.cpg/sg9_7_cif.got.tgz:12888.got - 2010.06.03 20:04:27.
