data_PCOD9139826
_publ_section_title
;
Structure prediction by ZEFSAII (Michael W. Deem and Ramdas Pophale) SiO2 
 PCOD9139826
Probable space group: C C
;
_chemical_formula_sum "Si O2"
_cell_formula_units_Z 32
_cell_length_a 18.401689
_cell_length_b 7.191530
_cell_length_c 11.786111
_cell_angle_alpha 90.000000
_cell_angle_beta 128.132427
_cell_angle_gamma 90.000000
_cell_volume 1226.861521
_symmetry_space_group_name_H-M "C C"
_symmetry_group_IT_number 9
_symmetry_cell_setting 'monoclinic'
loop_
_space_group_symop_operation_xyz
x,y,z
x,-y,1/2+z
1/2+x,1/2+y,z
1/2+x,1/2-y,1/2+z
loop_
_atom_site_type_symbol
_atom_site_label
_atom_site_fract_x
_atom_site_fract_y
_atom_site_fract_z
Si Si1 0.897340 0.715037 0.629750
Si Si2 0.524572 0.758724 0.589711
Si Si3 0.002758 0.156832 0.016934
Si Si4 0.603074 0.650315 0.904977
Si Si5 0.823336 0.601545 0.947523
Si Si6 0.212011 0.203554 0.216954
Si Si7 0.756019 0.992015 0.446297
Si Si8 0.594057 0.795378 0.425769
O O1 0.827832 0.542816 0.557103
O O2 0.840597 0.901812 0.600446
O O3 0.987418 0.675792 0.788618
O O4 0.935990 0.746827 0.539296
O O5 0.487627 0.561877 0.508246
O O6 0.592715 0.837018 0.559239
O O7 0.430490 0.867562 0.519895
O O8 0.580033 0.718337 0.758163
O O9 0.014277 0.210503 0.897110
O O10 0.107405 0.182624 0.163071
O O11 0.778745 0.797557 0.935757
O O12 0.689748 0.724324 0.062469
O O13 0.611125 0.425443 0.920746
O O14 0.766449 0.485615 0.798739
O O15 0.253843 0.374767 0.325719
O O16 0.663888 0.924180 0.423452
#
# Coordination Sequence:
#
# PCOD9139826 Si02
#       8
#     4   4   4   4   4   4   4   4
#     4  11  22  46  78 112 163 209 267 351 417 489
#     4  11  21  43  76 113 156 218 273 330 423 512
#     4   9  18  41  74 105 151 209 265 342 411 491
#     4   9  19  41  78 111 156 216 273 336 412 507
#     4  11  25  42  77 118 161 212 281 336 425 501
#     4   9  21  42  76 113 160 208 279 341 418 489
#     4  11  22  45  79 119 163 211 272 358 405 504
#     4  11  22  42  80 115 164 217 268 342 423 487
#
# _framework density 26.082812000000001
#
# number of rings (size 3 to 8) (size 9 to 14) (size 15 to 20)
#    0.750    1.000    3.750    0.000    0.000    2.000 
#    2.250    1.250   11.000    0.000    0.000    1.750 
#    0.000    0.000    0.000    0.000    0.000    0.000 
#
# Total GULP energy -89521.856016 kJ/mol
# GULP energy per Si atom -5595.116001 kJ/mol
# Density = 2.602345 g / cm^3
# Si number density = 26.082812 Si / 1000 Ang^3
#
#
#
# Elastic Constant Matrix: (Units=GPa)
#
#
# Indices 1 2 3 4 5 6 
#
# 1 106.6034 31.9490 65.3750 0.0000 -19.2853 0.0000
# 2 31.9490 157.8878 53.4386 0.0000 -2.5340 0.0000
# 3 65.3750 53.4386 156.5835 0.0000 -9.5544 0.0000
# 4 0.0000 0.0000 0.0000 35.1715 0.0000 11.5866
# 5 -19.2853 -2.5340 -9.5544 0.0000 51.7357 0.0000
# 6 0.0000 0.0000 0.0000 11.5866 0.0000 30.0119
#
#
#
# Elastic Compliance Matrix: (Units=1/GPa)
#
#
# Indices 1 2 3 4 5 6 
#
# 1 0.013506 -0.000953 -0.005066 0.000000 0.004052 0.000000
# 2 -0.000953 0.007229 -0.002093 0.000000 -0.000388 0.000000
# 3 -0.005066 -0.002093 0.009198 0.000000 -0.000292 0.000000
# 4 0.000000 0.000000 0.000000 0.032575 0.000000 -0.012576
# 5 0.004052 -0.000388 -0.000292 0.000000 0.020767 0.000000
# 6 0.000000 0.000000 0.000000 -0.012576 0.000000 0.038175
#
#
# Mechanical properties :
#
#
# Convention : Reuss Voigt Hill
#
# Bulk Modulus (GPa) = 72.94851 80.28888 76.61869
# Shear Modulus (GPa) = 35.15089 41.40463 38.27776
#
# Velocity S-wave (km/s) = 3.67504 3.98858 3.83501
# Velocity P-wave (km/s) = 6.78503 7.21532 7.00348
#
# Compressibility (1/GPa) = 0.01370830
#
# Stress axis : x y z
#
# Youngs Moduli (GPa) = 74.03914 138.34047 108.71946
#
# Poissons Ratio (x) = 0.13187 0.55082
# Poissons Ratio (y) = 0.07058 0.22751
# Poissons Ratio (z) = 0.37512 0.28950
#
# Static dielectric constant tensor:
#      x y z
#    x 2.100230 0.000000 -0.021330 
#    y 0.000000 2.071450 0.000000 
#    z -0.021330 0.000000 2.064420 
# 
# From -- ./inp_files/26678.got.cif
#   From: 2010.05.17/outbox.cif.g08.bks.cpg/sg9_14_cif.got.tgz:26678.got - 2010.06.03 20:04:27.
