data_PCOD9139817
_publ_section_title
;
Structure prediction by ZEFSAII (Michael W. Deem and Ramdas Pophale) SiO2 
 PCOD9139817
Probable space group: C C
;
_chemical_formula_sum "Si O2"
_cell_formula_units_Z 32
_cell_length_a 14.294772
_cell_length_b 8.555642
_cell_length_c 22.421571
_cell_angle_alpha 90.000000
_cell_angle_beta 148.005542
_cell_angle_gamma 90.000000
_cell_volume 1452.908785
_symmetry_space_group_name_H-M "C C"
_symmetry_group_IT_number 9
_symmetry_cell_setting 'monoclinic'
loop_
_space_group_symop_operation_xyz
x,y,z
x,-y,1/2+z
1/2+x,1/2+y,z
1/2+x,1/2-y,1/2+z
loop_
_atom_site_type_symbol
_atom_site_label
_atom_site_fract_x
_atom_site_fract_y
_atom_site_fract_z
Si Si1 0.639940 0.530031 0.133140
Si Si2 0.437084 0.129507 0.941018
Si Si3 0.212899 0.871361 0.537012
Si Si4 0.594866 0.669368 0.416904
Si Si5 0.714986 0.169657 0.192937
Si Si6 0.092839 0.319053 0.756200
Si Si7 0.352387 0.206796 0.343530
Si Si8 0.241528 0.595778 0.899407
O O1 0.685512 0.573019 0.090154
O O2 0.715807 0.360227 0.191907
O O3 0.714867 0.663703 0.217261
O O4 0.428118 0.521275 0.019390
O O5 0.526485 0.246159 0.940733
O O6 0.242678 0.193344 0.853231
O O7 0.412490 0.959656 0.901308
O O8 0.569472 0.120668 0.067446
O O9 0.391783 0.770962 0.635091
O O10 0.033213 0.787661 0.420025
O O11 0.223727 0.028064 0.503348
O O12 0.412466 0.611413 0.287957
O O13 0.679089 0.792655 0.418070
O O14 0.660523 0.116627 0.229183
O O15 0.104955 0.458032 0.810465
O O16 0.273814 0.306177 0.356029
#
# Coordination Sequence:
#
# PCOD9139817 Si02
#       8
#     4   4   4   4   4   4   4   4
#     4  11  21  45  69  93 139 179 224 286 339 400
#     4  11  23  44  69  99 132 179 229 275 347 402
#     4  11  26  44  67 101 136 181 226 282 341 406
#     4  11  24  44  68  97 130 185 225 274 341 406
#     4  11  21  43  70  95 135 178 225 280 337 409
#     4  11  24  43  70  98 135 179 225 275 342 406
#     4  11  25  43  65 103 135 176 226 282 344 402
#     4  11  26  42  68 102 136 179 226 284 339 409
#
# _framework density 22.024781999999998
#
# number of rings (size 3 to 8) (size 9 to 14) (size 15 to 20)
#    0.000    1.000    5.000    3.000    3.500    5.000 
#    2.250    0.000    0.000    0.000    0.000    0.000 
#    0.000    0.000    0.000    0.000    0.000    0.000 
#
# Total GULP energy -89473.823263 kJ/mol
# GULP energy per Si atom -5592.113954 kJ/mol
# Density = 2.197465 g / cm^3
# Si number density = 22.024782 Si / 1000 Ang^3
#
#
#
# Elastic Constant Matrix: (Units=GPa)
#
#
# Indices 1 2 3 4 5 6 
#
# 1 34.3717 -4.1511 12.6920 0.0000 2.5855 0.0000
# 2 -4.1511 60.9425 5.2605 0.0000 -10.1228 0.0000
# 3 12.6920 5.2605 109.8816 0.0001 -7.9525 0.0000
# 4 0.0000 0.0000 0.0001 31.5576 0.0000 -0.0199
# 5 2.5855 -10.1228 -7.9525 0.0000 38.1062 0.0000
# 6 0.0000 0.0000 0.0000 -0.0199 0.0000 25.2334
#
#
#
# Elastic Compliance Matrix: (Units=1/GPa)
#
#
# Indices 1 2 3 4 5 6 
#
# 1 0.030937 0.002047 -0.003842 0.000000 -0.002357 0.000000
# 2 0.002047 0.017329 -0.000754 0.000000 0.004307 0.000000
# 3 -0.003842 -0.000754 0.009732 0.000000 0.002091 0.000000
# 4 0.000000 0.000000 0.000000 0.031688 0.000000 0.000025
# 5 -0.002357 0.004307 0.002091 0.000000 0.027983 0.000000
# 6 0.000000 0.000000 0.000000 0.000025 0.000000 0.039630
#
#
# Mechanical properties :
#
#
# Convention : Reuss Voigt Hill
#
# Bulk Modulus (GPa) = 18.90364 25.86651 22.38507
# Shear Modulus (GPa) = 27.77315 31.73908 29.75611
#
# Velocity S-wave (km/s) = 3.55490 3.80025 3.67962
# Velocity P-wave (km/s) = 5.04493 5.57007 5.31399
#
# Compressibility (1/GPa) = 0.05289987
#
# Stress axis : x y z
#
# Youngs Moduli (GPa) = 32.32382 57.70701 102.75441
#
# Poissons Ratio (x) = -0.11815 0.39478
# Poissons Ratio (y) = -0.06618 0.07752
# Poissons Ratio (z) = 0.12419 0.04353
#
# Static dielectric constant tensor:
#      x y z
#    x 1.802470 0.000000 0.009360 
#    y 0.000000 1.801110 0.000000 
#    z 0.009360 0.000000 1.832150 
# 
# From -- ./inp_files/25719.got.cif
#   From: 2010.05.17/outbox.cif.g08.bks.cpg/sg9_13_cif.got.tgz:25719.got - 2010.06.03 20:04:27.
