data_PCOD9139974
_publ_section_title
;
Structure prediction by ZEFSAII (Michael W. Deem and Ramdas Pophale) SiO2 
 PCOD9139974
Probable space group: C C
;
_chemical_formula_sum "Si O2"
_cell_formula_units_Z 32
_cell_length_a 12.379814
_cell_length_b 14.043298
_cell_length_c 11.971031
_cell_angle_alpha 90.000000
_cell_angle_beta 40.845824
_cell_angle_gamma 90.000000
_cell_volume 1361.161584
_symmetry_space_group_name_H-M "C C"
_symmetry_group_IT_number 9
_symmetry_cell_setting 'monoclinic'
loop_
_space_group_symop_operation_xyz
x,y,z
x,-y,1/2+z
1/2+x,1/2+y,z
1/2+x,1/2-y,1/2+z
loop_
_atom_site_type_symbol
_atom_site_label
_atom_site_fract_x
_atom_site_fract_y
_atom_site_fract_z
Si Si1 0.928030 0.110148 0.431550
Si Si2 0.956887 0.261048 0.576800
Si Si3 0.342033 0.126847 0.464658
Si Si4 0.311262 0.674704 0.886934
Si Si5 0.746562 0.558010 0.310923
Si Si6 0.271817 0.855209 0.267376
Si Si7 0.932341 0.848638 0.669834
Si Si8 0.705584 0.956062 0.671625
O O1 0.948523 0.217421 0.461159
O O2 0.941402 0.111957 0.288173
O O3 0.077037 0.051549 0.374301
O O4 0.757864 0.064751 0.610143
O O5 0.838068 0.350617 0.687637
O O6 0.132290 0.296739 0.480402
O O7 0.912373 0.172338 0.693417
O O8 0.387226 0.233389 0.389816
O O9 0.234616 0.079567 0.451534
O O10 0.245601 0.142389 0.654553
O O11 0.512710 0.067992 0.337421
O O12 0.280714 0.594034 0.001165
O O13 0.848521 0.460108 0.225027
O O14 0.376613 0.762035 0.213350
O O15 0.106249 0.853784 0.469648
O O16 0.799494 0.908856 0.702745
#
# Coordination Sequence:
#
# PCOD9139974 Si02
#       8
#     4   4   4   4   4   4   4   4
#     4  12  29  48  78 113 165 204 254 327 405 462
#     4  11  24  47  77 109 149 194 268 319 382 448
#     4  11  25  47  77 110 147 197 274 321 381 458
#     4  11  22  43  77 105 145 192 265 322 369 455
#     4  11  26  49  78 113 146 214 258 323 386 471
#     4  12  28  48  77 108 165 203 259 324 392 470
#     4  12  30  47  73 116 160 207 255 322 401 466
#     4  12  26  47  77 114 149 205 261 322 386 478
#
# _framework density 23.509332000000001
#
# number of rings (size 3 to 8) (size 9 to 14) (size 15 to 20)
#    0.000    0.500    7.500    0.750    7.000    3.000 
#    0.000    0.000    0.000    0.000    0.000    0.000 
#    0.000    0.000    0.000    0.000    0.000    0.000 
#
# Total GULP energy -89484.346117 kJ/mol
# GULP energy per Si atom -5592.771632 kJ/mol
# Density = 2.345582 g / cm^3
# Si number density = 23.509332 Si / 1000 Ang^3
#
#
#
# Elastic Constant Matrix: (Units=GPa)
#
#
# Indices 1 2 3 4 5 6 
#
# 1 119.0133 34.3572 61.1044 -0.0001 15.7532 0.0001
# 2 34.3572 101.0797 25.0638 0.0000 6.8422 0.0000
# 3 61.1044 25.0638 98.1737 -0.0001 12.4104 0.0001
# 4 -0.0001 0.0000 -0.0001 39.3946 0.0001 -1.1613
# 5 15.7532 6.8422 12.4104 0.0001 43.7505 -0.0001
# 6 0.0001 0.0000 0.0001 -1.1613 -0.0001 12.4368
#
#
#
# Elastic Compliance Matrix: (Units=1/GPa)
#
#
# Indices 1 2 3 4 5 6 
#
# 1 0.013158 -0.002518 -0.007258 0.000000 -0.002285 0.000000
# 2 -0.002518 0.011080 -0.001200 0.000000 -0.000486 0.000000
# 3 -0.007258 -0.001200 0.015201 0.000000 -0.001511 0.000000
# 4 0.000000 0.000000 0.000000 0.025454 0.000000 0.002377
# 5 -0.002285 -0.000486 -0.001511 0.000000 0.024184 0.000000
# 6 0.000000 0.000000 0.000000 0.002377 0.000000 0.080628
#
#
# Mechanical properties :
#
#
# Convention : Reuss Voigt Hill
#
# Bulk Modulus (GPa) = 57.18721 62.14637 59.66679
# Shear Modulus (GPa) = 25.31815 32.29913 28.80864
#
# Velocity S-wave (km/s) = 3.28524 3.71062 3.50439
# Velocity P-wave (km/s) = 6.22644 6.69704 6.46602
#
# Compressibility (1/GPa) = 0.01748643
#
# Stress axis : x y z
#
# Youngs Moduli (GPa) = 75.99731 90.25673 65.78552
#
# Poissons Ratio (x) = 0.22728 0.47748
# Poissons Ratio (y) = 0.19137 0.07894
# Poissons Ratio (z) = 0.55160 0.10830
#
# Static dielectric constant tensor:
#      x y z
#    x 1.882630 0.000000 0.000920 
#    y 0.000000 1.917770 0.000000 
#    z 0.000920 0.000000 1.920800 
# 
# From -- ./inp_files/7663.got.cif
#   From: 2010.05.17/outbox.cif.g08.bks.cpg/sg9_4_cif.got.tgz:7663.got - 2010.06.03 20:04:27.
