data_PCOD9139301
_publ_section_title
;
Structure prediction by ZEFSAII (Michael W. Deem and Ramdas Pophale) SiO2 
 PCOD9139301
Probable space group: C C
;
_chemical_formula_sum "Si O2"
_cell_formula_units_Z 24
_cell_length_a 11.758431
_cell_length_b 9.317594
_cell_length_c 20.640854
_cell_angle_alpha 90.000000
_cell_angle_beta 157.191193
_cell_angle_gamma 90.000000
_cell_volume 876.655106
_symmetry_space_group_name_H-M "C C"
_symmetry_group_IT_number 9
_symmetry_cell_setting 'monoclinic'
loop_
_space_group_symop_operation_xyz
x,y,z
x,-y,1/2+z
1/2+x,1/2+y,z
1/2+x,1/2-y,1/2+z
loop_
_atom_site_type_symbol
_atom_site_label
_atom_site_fract_x
_atom_site_fract_y
_atom_site_fract_z
Si Si1 0.048390 0.739698 0.258840
Si Si2 0.509907 0.432764 0.417912
Si Si3 0.635535 0.654767 0.230093
Si Si4 0.672579 0.981782 0.576896
Si Si5 0.310933 0.299111 0.759887
Si Si6 0.983679 0.942400 0.040738
O O1 0.245647 0.762107 0.297706
O O2 0.209574 0.666287 0.404934
O O3 0.898270 0.885561 0.202650
O O4 0.803945 0.641734 0.096415
O O5 0.268803 0.308223 0.279871
O O6 0.553144 0.576037 0.396724
O O7 0.403342 0.502657 0.428710
O O8 0.363633 0.636342 0.137146
O O9 0.512861 0.573477 0.103328
O O10 0.901997 0.561115 0.400360
O O11 0.594427 0.903435 0.603360
O O12 0.279761 0.152515 0.702656
#
# Coordination Sequence:
#
# PCOD9139301 Si02
#       6
#     4   4   4   4   4   4
#     4  10  24  48  72 107 151 201 243 313 392 437
#     4  10  27  46  73 108 142 198 253 313 378 453
#     4  11  26  48  73 111 149 198 254 311 386 449
#     4  11  25  46  77 112 150 201 250 313 377 456
#     4  11  25  44  74 104 146 196 249 300 383 454
#     4  11  25  48  71 104 150 200 243 318 382 455
#
# _framework density 27.376785999999999
#
# number of rings (size 3 to 8) (size 9 to 14) (size 15 to 20)
#    0.000    1.333    1.667    1.000   14.000    2.667 
#    0.000    0.000    0.000    0.000    0.000    0.000 
#    0.000    0.000    0.000    0.000    0.000    0.000 
#
# Total GULP energy -66965.042883 kJ/mol
# GULP energy per Si atom -5580.420240 kJ/mol
# Density = 2.731447 g / cm^3
# Si number density = 27.376786 Si / 1000 Ang^3
#
#
#
# Elastic Constant Matrix: (Units=GPa)
#
#
# Indices 1 2 3 4 5 6 
#
# 1 49.7579 30.1280 15.9367 0.0036 -3.6554 0.0011
# 2 30.1280 165.1129 45.2831 0.0053 -0.4515 0.0014
# 3 15.9367 45.2831 105.0037 0.0284 10.0642 0.0080
# 4 0.0036 0.0053 0.0284 48.3716 0.0062 -6.7460
# 5 -3.6554 -0.4515 10.0642 0.0062 45.7443 0.0008
# 6 0.0011 0.0014 0.0080 -6.7460 0.0008 33.0195
#
#
#
# Elastic Compliance Matrix: (Units=1/GPa)
#
#
# Indices 1 2 3 4 5 6 
#
# 1 0.023155 -0.003623 -0.002171 0.000000 0.002292 0.000000
# 2 -0.003623 0.007460 -0.002704 0.000001 0.000379 0.000001
# 3 -0.002171 -0.002704 0.011276 -0.000006 -0.002681 -0.000004
# 4 0.000000 0.000001 -0.000006 0.021280 -0.000002 0.004348
# 5 0.002292 0.000379 -0.002681 -0.000002 0.022637 0.000000
# 6 0.000000 0.000001 -0.000004 0.004348 0.000000 0.031173
#
#
# Mechanical properties :
#
#
# Convention : Reuss Voigt Hill
#
# Bulk Modulus (GPa) = 40.16964 55.84114 48.00539
# Shear Modulus (GPa) = 35.14287 40.66218 37.90253
#
# Velocity S-wave (km/s) = 3.58673 3.85811 3.72489
# Velocity P-wave (km/s) = 5.64425 6.34730 6.00607
#
# Compressibility (1/GPa) = 0.02489442
#
# Stress axis : x y z
#
# Youngs Moduli (GPa) = 43.18713 134.04623 88.68430
#
# Poissons Ratio (x) = 0.48569 0.19258
# Poissons Ratio (y) = 0.15648 0.23977
# Poissons Ratio (z) = 0.09378 0.36241
#
# Static dielectric constant tensor:
#      x y z
#    x 2.279050 0.000000 0.082400 
#    y 0.000000 2.319010 -0.000020 
#    z 0.082400 -0.000020 2.372020 
# 
# From -- ./inp_files/17530.got.cif
#   From: 2010.05.17/outbox.cif.g08.bks.cpg/sg9_9_cif.got.tgz:17530.got - 2010.06.03 20:04:27.
