data_PCOD9139794
_publ_section_title
;
Structure prediction by ZEFSAII (Michael W. Deem and Ramdas Pophale) SiO2 
 PCOD9139794
Probable space group: C C
;
_chemical_formula_sum "Si O2"
_cell_formula_units_Z 28
_cell_length_a 18.064566
_cell_length_b 6.448921
_cell_length_c 22.989487
_cell_angle_alpha 90.000000
_cell_angle_beta 24.523184
_cell_angle_gamma 90.000000
_cell_volume 1111.619686
_symmetry_space_group_name_H-M "C C"
_symmetry_group_IT_number 9
_symmetry_cell_setting 'monoclinic'
loop_
_space_group_symop_operation_xyz
x,y,z
x,-y,1/2+z
1/2+x,1/2+y,z
1/2+x,1/2-y,1/2+z
loop_
_atom_site_type_symbol
_atom_site_label
_atom_site_fract_x
_atom_site_fract_y
_atom_site_fract_z
Si Si1 0.826590 0.088784 0.093010
Si Si2 0.492262 0.924235 0.096243
Si Si3 0.521650 0.359189 0.347492
Si Si4 0.159141 0.916126 0.429633
Si Si5 0.322215 0.421703 0.763467
Si Si6 0.713793 0.250104 0.741975
Si Si7 0.322110 0.320531 0.372535
O O1 0.713362 0.246825 0.214138
O O2 0.719978 0.877361 0.176636
O O3 0.876766 0.207596 0.998717
O O4 0.012577 0.012375 0.987738
O O5 0.506997 0.646168 0.091936
O O6 0.377002 0.099236 0.143278
O O7 0.635107 0.854206 0.937706
O O8 0.649035 0.048350 0.018312
O O9 0.550680 0.596676 0.345096
O O10 0.455319 0.312871 0.330815
O O11 0.332768 0.857494 0.259971
O O12 0.257247 0.100465 0.394807
O O13 0.224920 0.578822 0.786005
O O14 0.403169 0.554484 0.759564
#
# Coordination Sequence:
#
# PCOD9139794 Si02
#       7
#     4   4   4   4   4   4   4
#     4  12  25  48  76 112 157 207 267 333 393 493
#     4  11  21  41  70 104 136 193 261 317 393 465
#     4  12  30  46  76 116 166 208 264 334 420 477
#     4  11  22  42  70 102 139 202 264 313 388 467
#     4  11  23  41  74 104 146 197 276 328 383 488
#     4  12  23  45  76 112 146 206 264 335 393 485
#     4  11  26  45  70 108 156 207 260 336 402 483
#
# _framework density 25.188469000000001
#
# number of rings (size 3 to 8) (size 9 to 14) (size 15 to 20)
#    0.000    0.571    4.286    3.429    2.000    8.000 
#    0.000    0.000    0.000    0.000    0.000    0.000 
#    0.000    0.000    0.000    0.000    0.000    0.000 
#
# Total GULP energy -77986.753731 kJ/mol
# GULP energy per Si atom -5570.482409 kJ/mol
# Density = 2.513114 g / cm^3
# Si number density = 25.188469 Si / 1000 Ang^3
#
#
#
# Elastic Constant Matrix: (Units=GPa)
#
#
# Indices 1 2 3 4 5 6 
#
# 1 128.2891 70.9449 38.0709 -0.0001 23.5937 0.0011
# 2 70.9449 159.4325 90.3349 0.0016 22.8875 -0.0073
# 3 38.0709 90.3349 189.8505 -0.0015 51.4927 -0.0024
# 4 -0.0001 0.0016 -0.0015 68.0573 -0.0001 8.9055
# 5 23.5937 22.8875 51.4927 -0.0001 45.3443 -0.0022
# 6 0.0011 -0.0073 -0.0024 8.9055 -0.0022 23.6267
#
#
#
# Elastic Compliance Matrix: (Units=1/GPa)
#
#
# Indices 1 2 3 4 5 6 
#
# 1 0.011058 -0.005085 0.001541 0.000000 -0.004937 -0.000003
# 2 -0.005085 0.010932 -0.004918 -0.000001 0.002712 0.000004
# 3 0.001541 -0.004918 0.009888 0.000001 -0.009548 -0.000002
# 4 0.000000 -0.000001 0.000001 0.015456 -0.000001 -0.005826
# 5 -0.004937 0.002712 -0.009548 -0.000001 0.034096 0.000003
# 6 -0.000003 0.000004 -0.000002 -0.005826 0.000003 0.044521
#
#
# Mechanical properties :
#
#
# Convention : Reuss Voigt Hill
#
# Bulk Modulus (GPa) = 66.86856 97.36375 82.11615
# Shear Modulus (GPa) = 33.81620 45.95375 39.88498
#
# Velocity S-wave (km/s) = 3.66803 4.27593 3.98359
# Velocity P-wave (km/s) = 6.67414 7.94456 7.33690
#
# Compressibility (1/GPa) = 0.01495471
#
# Stress axis : x y z
#
# Youngs Moduli (GPa) = 90.43632 91.47528 101.13317
#
# Poissons Ratio (x) = 0.46514 -0.15587
# Poissons Ratio (y) = 0.45986 0.49733
# Poissons Ratio (z) = -0.13938 0.44984
#
# Static dielectric constant tensor:
#      x y z
#    x 1.892960 0.000000 0.113310 
#    y 0.000000 2.075980 0.000020 
#    z 0.113310 0.000020 2.149660 
# 
# From -- ./inp_files/34659.got.cif
#   From: 2010.05.17/outbox.cif.g08.bks.cpg/sg9_18_cif.got.tgz:34659.got - 2010.06.03 20:04:27.
