data_PCOD9139701
_publ_section_title
;
Structure prediction by ZEFSAII (Michael W. Deem and Ramdas Pophale) SiO2 
 PCOD9139701
Probable space group: C C
;
_chemical_formula_sum "Si O2"
_cell_formula_units_Z 32
_cell_length_a 16.496903
_cell_length_b 17.110019
_cell_length_c 13.448690
_cell_angle_alpha 90.000000
_cell_angle_beta 155.496547
_cell_angle_gamma 90.000000
_cell_volume 1574.407978
_symmetry_space_group_name_H-M "C C"
_symmetry_group_IT_number 9
_symmetry_cell_setting 'monoclinic'
loop_
_space_group_symop_operation_xyz
x,y,z
x,-y,1/2+z
1/2+x,1/2+y,z
1/2+x,1/2-y,1/2+z
loop_
_atom_site_type_symbol
_atom_site_label
_atom_site_fract_x
_atom_site_fract_y
_atom_site_fract_z
Si Si1 0.935900 0.313203 0.498630
Si Si2 0.407764 0.525509 0.826530
Si Si3 0.317604 0.313981 0.593859
Si Si4 0.082451 0.439499 0.796502
Si Si5 0.200241 0.011000 0.982068
Si Si6 0.499267 0.351819 0.995741
Si Si7 0.337511 0.553377 0.962564
Si Si8 0.419200 0.150704 0.752062
O O1 0.723782 0.351700 0.277477
O O2 0.981035 0.335047 0.435039
O O3 0.079166 0.355971 0.735835
O O4 0.914023 0.218512 0.469294
O O5 0.238910 0.542763 0.558053
O O6 0.605103 0.537599 0.981402
O O7 0.363460 0.572887 0.876298
O O8 0.412874 0.438098 0.881928
O O9 0.356784 0.365657 0.542984
O O10 0.299442 0.221336 0.567391
O O11 0.121183 0.351027 0.418698
O O12 0.482252 0.321851 0.862802
O O13 0.143080 0.504953 0.780366
O O14 0.873925 0.444882 0.619544
O O15 0.017689 0.999412 0.703976
O O16 0.297403 0.927415 0.110817
#
# Coordination Sequence:
#
# PCOD9139701 Si02
#       8
#     4   4   4   4   4   4   4   4
#     4  11  23  35  62  96 130 170 210 271 340 391
#     4  11  24  41  63  90 135 172 219 270 330 400
#     4  11  20  37  58 100 129 166 209 284 327 395
#     4  11  25  40  61  94 134 172 222 267 333 401
#     4  11  21  40  57  96 129 168 214 272 329 402
#     4  11  20  38  58  96 128 166 213 270 328 387
#     4  11  23  38  63  91 128 175 217 267 338 387
#     4  11  20  35  64  93 135 157 218 271 339 387
#
# _framework density 20.325099000000002
#
# number of rings (size 3 to 8) (size 9 to 14) (size 15 to 20)
#    0.000    1.000    5.000    4.500    5.250    0.000 
#    0.000    0.000    0.000    3.000    0.000    0.000 
#    0.000    0.000    0.000    0.000    0.000    0.000 
#
# Total GULP energy -89161.530902 kJ/mol
# GULP energy per Si atom -5572.595681 kJ/mol
# Density = 2.027884 g / cm^3
# Si number density = 20.325099 Si / 1000 Ang^3
#
#
#
# Elastic Constant Matrix: (Units=GPa)
#
#
# Indices 1 2 3 4 5 6 
#
# 1 151.6466 47.7437 53.8443 0.0000 -4.9995 0.0000
# 2 47.7437 81.3700 31.5109 0.0000 -9.7202 0.0000
# 3 53.8443 31.5109 72.2617 0.0000 -0.7212 0.0000
# 4 0.0000 0.0000 0.0000 23.7091 0.0000 1.6304
# 5 -4.9995 -9.7202 -0.7212 0.0000 27.9336 0.0000
# 6 0.0000 0.0000 0.0000 1.6304 0.0000 26.2782
#
#
#
# Elastic Compliance Matrix: (Units=1/GPa)
#
#
# Indices 1 2 3 4 5 6 
#
# 1 0.009730 -0.003436 -0.005748 0.000000 0.000398 0.000000
# 2 -0.003436 0.016726 -0.004683 0.000000 0.005085 0.000000
# 3 -0.005748 -0.004683 0.020142 0.000000 -0.002138 0.000000
# 4 0.000000 0.000000 0.000000 0.042359 0.000000 -0.002628
# 5 0.000398 0.005085 -0.002138 0.000000 0.037584 0.000000
# 6 0.000000 0.000000 0.000000 -0.002628 0.000000 0.038217
#
#
# Mechanical properties :
#
#
# Convention : Reuss Voigt Hill
#
# Bulk Modulus (GPa) = 53.00727 63.49738 58.25232
# Shear Modulus (GPa) = 25.15336 27.06280 26.10808
#
# Velocity S-wave (km/s) = 3.52170 3.65293 3.58791
# Velocity P-wave (km/s) = 6.53244 7.00718 6.77397
#
# Compressibility (1/GPa) = 0.01886534
#
# Stress axis : x y z
#
# Youngs Moduli (GPa) = 102.77578 59.78613 49.64669
#
# Poissons Ratio (x) = 0.20540 0.28537
# Poissons Ratio (y) = 0.35310 0.23250
# Poissons Ratio (z) = 0.59075 0.27998
#
# Static dielectric constant tensor:
#      x y z
#    x 1.785700 0.000000 0.058010 
#    y 0.000000 1.833670 0.000000 
#    z 0.058010 0.000000 1.763710 
# 
# From -- ./inp_files/18560.got.cif
#   From: 2010.05.17/outbox.cif.g08.bks.cpg/sg9_10_cif.got.tgz:18560.got - 2010.06.03 20:04:27.
