data_PCOD9139076
_publ_section_title
;
Structure prediction by ZEFSAII (Michael W. Deem and Ramdas Pophale) SiO2 
 PCOD9139076
Probable space group: C C
;
_chemical_formula_sum "Si O2"
_cell_formula_units_Z 32
_cell_length_a 15.254116
_cell_length_b 7.142102
_cell_length_c 16.742002
_cell_angle_alpha 90.000000
_cell_angle_beta 128.436648
_cell_angle_gamma 90.000000
_cell_volume 1428.717576
_symmetry_space_group_name_H-M "C C"
_symmetry_group_IT_number 9
_symmetry_cell_setting 'monoclinic'
loop_
_space_group_symop_operation_xyz
x,y,z
x,-y,1/2+z
1/2+x,1/2+y,z
1/2+x,1/2-y,1/2+z
loop_
_atom_site_type_symbol
_atom_site_label
_atom_site_fract_x
_atom_site_fract_y
_atom_site_fract_z
Si Si1 0.736020 0.508454 0.588070
Si Si2 0.366359 0.242131 0.938838
Si Si3 0.017395 0.061929 0.065353
Si Si4 0.333194 0.818826 0.889587
Si Si5 0.144086 0.179614 0.882021
Si Si6 0.583953 0.677952 0.268889
Si Si7 0.398289 0.760107 0.755223
Si Si8 0.874941 0.816834 0.752808
O O1 0.637094 0.447487 0.591587
O O2 0.680087 0.470213 0.470563
O O3 0.842119 0.368674 0.650852
O O4 0.784107 0.705493 0.647758
O O5 0.249027 0.299473 0.913498
O O6 0.366438 0.281113 0.843071
O O7 0.365156 0.016902 0.946929
O O8 0.466593 0.352227 0.038393
O O9 0.025907 0.184566 0.150168
O O10 0.926856 0.167504 0.960211
O O11 0.209810 0.746333 0.842335
O O12 0.337810 0.848235 0.797544
O O13 0.030999 0.285196 0.840756
O O14 0.106373 0.046189 0.788356
O O15 0.497315 0.740153 0.287489
O O16 0.370533 0.540116 0.736497
#
# Coordination Sequence:
#
# PCOD9139076 Si02
#       8
#     4   4   4   4   4   4   4   4
#     4  12  24  44  69  99 141 180 225 283 337 402
#     4  11  24  44  67 100 138 179 224 282 337 396
#     4  12  24  44  69  99 141 180 225 283 337 402
#     4  11  22  46  70  98 138 180 225 277 342 402
#     4  10  24  44  68  99 139 178 228 280 333 409
#     4  10  24  44  68  99 139 178 228 280 333 409
#     4  11  22  46  70  98 138 180 225 277 342 402
#     4  11  24  44  67 100 138 179 224 282 337 396
#
# _framework density 22.397711000000001
#
# number of rings (size 3 to 8) (size 9 to 14) (size 15 to 20)
#    0.000    1.000    5.000    1.500    7.000    2.000 
#    0.000    0.000    0.000    0.000    0.000    0.000 
#    0.000    0.000    0.000    0.000    0.000    0.000 
#
# Total GULP energy -89308.920458 kJ/mol
# GULP energy per Si atom -5581.807529 kJ/mol
# Density = 2.234673 g / cm^3
# Si number density = 22.397711 Si / 1000 Ang^3
#
#
#
# Elastic Constant Matrix: (Units=GPa)
#
#
# Indices 1 2 3 4 5 6 
#
# 1 137.1247 11.1200 35.1542 0.0000 19.2678 0.0000
# 2 11.1200 81.3209 23.1248 0.0000 9.8979 0.0000
# 3 35.1542 23.1248 94.4718 0.0000 20.1621 0.0000
# 4 0.0000 0.0000 0.0000 41.8544 0.0000 4.1678
# 5 19.2678 9.8979 20.1621 0.0000 27.9715 0.0000
# 6 0.0000 0.0000 0.0000 4.1678 0.0000 23.4471
#
#
#
# Elastic Compliance Matrix: (Units=1/GPa)
#
#
# Indices 1 2 3 4 5 6 
#
# 1 0.008461 -0.000005 -0.002250 0.000000 -0.004204 0.000000
# 2 -0.000005 0.013401 -0.002679 0.000000 -0.002807 0.000000
# 3 -0.002250 -0.002679 0.013644 0.000000 -0.007337 0.000000
# 4 0.000000 0.000000 0.000000 0.024323 0.000000 -0.004323
# 5 -0.004204 -0.002807 -0.007337 0.000000 0.044929 0.000000
# 6 0.000000 0.000000 0.000000 -0.004323 0.000000 0.043418
#
#
# Mechanical properties :
#
#
# Convention : Reuss Voigt Hill
#
# Bulk Modulus (GPa) = 39.00586 50.19060 44.59823
# Shear Modulus (GPa) = 30.01391 34.88917 32.45154
#
# Velocity S-wave (km/s) = 3.66463 3.95107 3.81054
# Velocity P-wave (km/s) = 5.94634 6.57815 6.27021
#
# Compressibility (1/GPa) = 0.02563718
#
# Stress axis : x y z
#
# Youngs Moduli (GPa) = 118.19504 74.61982 73.29251
#
# Poissons Ratio (x) = 0.00041 0.16488
# Poissons Ratio (y) = 0.00065 0.19637
# Poissons Ratio (z) = 0.26590 0.19992
#
# Static dielectric constant tensor:
#      x y z
#    x 1.862410 0.000000 -0.004160 
#    y 0.000000 1.838640 0.000000 
#    z -0.004160 0.000000 1.790690 
# 
# From -- ./inp_files/30595.got.cif
#   From: 2010.05.17/outbox.cif.g08.bks.cpg/sg9_16_cif.got.tgz:30595.got - 2010.06.03 20:04:27.
