data_PCOD9139234
_publ_section_title
;
Structure prediction by ZEFSAII (Michael W. Deem and Ramdas Pophale) SiO2 
 PCOD9139234
Probable space group: C C
;
_chemical_formula_sum "Si O2"
_cell_formula_units_Z 32
_cell_length_a 17.157105
_cell_length_b 9.818832
_cell_length_c 9.379367
_cell_angle_alpha 90.000000
_cell_angle_beta 125.807145
_cell_angle_gamma 90.000000
_cell_volume 1281.425408
_symmetry_space_group_name_H-M "C C"
_symmetry_group_IT_number 9
_symmetry_cell_setting 'monoclinic'
loop_
_space_group_symop_operation_xyz
x,y,z
x,-y,1/2+z
1/2+x,1/2+y,z
1/2+x,1/2-y,1/2+z
loop_
_atom_site_type_symbol
_atom_site_label
_atom_site_fract_x
_atom_site_fract_y
_atom_site_fract_z
Si Si1 0.936260 0.425333 0.228440
Si Si2 0.086528 0.073218 0.506363
Si Si3 0.350752 0.773811 0.598898
Si Si4 0.674042 0.727569 0.118908
Si Si5 0.562598 0.034017 0.592539
Si Si6 0.775103 0.246702 0.197488
Si Si7 0.957089 0.028322 0.635004
Si Si8 0.751968 0.916009 0.424024
O O1 0.891211 0.577015 0.172969
O O2 0.851762 0.323116 0.177616
O O3 0.011033 0.423500 0.440085
O O4 0.991402 0.409724 0.138282
O O5 0.134431 0.923497 0.569723
O O6 0.022842 0.074364 0.295391
O O7 0.173520 0.177626 0.595393
O O8 0.016983 0.085537 0.567160
O O9 0.256408 0.753978 0.591487
O O10 0.320630 0.755658 0.402036
O O11 0.426805 0.653477 0.704678
O O12 0.592344 0.842113 0.020570
O O13 0.720971 0.772027 0.320040
O O14 0.661928 0.992172 0.777446
O O15 0.758498 0.103105 0.100535
O O16 0.856268 0.960702 0.483797
#
# Coordination Sequence:
#
# PCOD9139234 Si02
#       8
#     4   4   4   4   4   4   4   4
#     4  12  25  48  74 113 145 197 249 310 366 437
#     4  12  25  46  70 107 143 190 238 290 364 431
#     4  12  26  46  74 109 149 189 247 303 369 433
#     4  10  24  46  74 102 145 197 233 296 368 437
#     4  10  27  44  75 106 147 192 246 300 372 428
#     4  12  27  46  78 110 148 186 250 312 360 437
#     4  12  27  46  72 104 147 190 236 293 362 436
#     4  10  27  48  73 105 148 195 237 298 373 435
#
# _framework density 24.972190999999999
#
# number of rings (size 3 to 8) (size 9 to 14) (size 15 to 20)
#    0.750    0.000    2.500    3.750    7.000    2.000 
#    0.000    0.000    0.000    0.000    0.000    0.000 
#    0.000    0.000    0.000    0.000    0.000    0.000 
#
# Total GULP energy -89675.383165 kJ/mol
# GULP energy per Si atom -5604.711448 kJ/mol
# Density = 2.491535 g / cm^3
# Si number density = 24.972191 Si / 1000 Ang^3
#
#
#
# Elastic Constant Matrix: (Units=GPa)
#
#
# Indices 1 2 3 4 5 6 
#
# 1 187.9107 17.8042 25.0224 0.0000 2.1828 0.0000
# 2 17.8042 54.1541 8.8952 0.0000 18.3727 0.0000
# 3 25.0224 8.8952 109.3896 0.0000 24.5225 0.0000
# 4 0.0000 0.0000 0.0000 35.4485 0.0000 7.7694
# 5 2.1828 18.3727 24.5225 0.0000 42.8026 0.0000
# 6 0.0000 0.0000 0.0000 7.7694 0.0000 32.5111
#
#
#
# Elastic Compliance Matrix: (Units=1/GPa)
#
#
# Indices 1 2 3 4 5 6 
#
# 1 0.005701 -0.002130 -0.001458 0.000000 0.001459 0.000000
# 2 -0.002130 0.022422 0.000915 0.000000 -0.010040 0.000000
# 3 -0.001458 0.000915 0.010868 0.000000 -0.006545 0.000000
# 4 0.000000 0.000000 0.000000 0.029769 0.000000 -0.007114
# 5 0.001459 -0.010040 -0.006545 0.000000 0.031348 0.000000
# 6 0.000000 0.000000 0.000000 -0.007114 0.000000 0.032459
#
#
# Mechanical properties :
#
#
# Convention : Reuss Voigt Hill
#
# Bulk Modulus (GPa) = 29.72235 50.54424 40.13329
# Shear Modulus (GPa) = 33.52852 42.13463 37.83158
#
# Velocity S-wave (km/s) = 3.66817 4.11209 3.89646
# Velocity P-wave (km/s) = 5.46522 6.54445 6.02903
#
# Compressibility (1/GPa) = 0.03364472
#
# Stress axis : x y z
#
# Youngs Moduli (GPa) = 175.41915 44.59922 92.01418
#
# Poissons Ratio (x) = 0.09498 0.13414
# Poissons Ratio (y) = 0.37357 -0.08415
# Poissons Ratio (z) = 0.25573 -0.04079
#
# Static dielectric constant tensor:
#      x y z
#    x 1.911460 0.000000 0.013270 
#    y 0.000000 1.971100 0.000000 
#    z 0.013270 0.000000 1.993090 
# 
# From -- ./inp_files/9317.got.cif
#   From: 2010.05.17/outbox.cif.g08.bks.cpg/sg9_5_cif.got.tgz:9317.got - 2010.06.03 20:04:27.
