data_PCOD9139476
_publ_section_title
;
Structure prediction by ZEFSAII (Michael W. Deem and Ramdas Pophale) SiO2 
 PCOD9139476
Probable space group: C C
;
_chemical_formula_sum "Si O2"
_cell_formula_units_Z 32
_cell_length_a 6.891077
_cell_length_b 17.378248
_cell_length_c 9.883423
_cell_angle_alpha 90.000000
_cell_angle_beta 107.487631
_cell_angle_gamma 90.000000
_cell_volume 1128.884546
_symmetry_space_group_name_H-M "C C"
_symmetry_group_IT_number 9
_symmetry_cell_setting 'monoclinic'
loop_
_space_group_symop_operation_xyz
x,y,z
x,-y,1/2+z
1/2+x,1/2+y,z
1/2+x,1/2-y,1/2+z
loop_
_atom_site_type_symbol
_atom_site_label
_atom_site_fract_x
_atom_site_fract_y
_atom_site_fract_z
Si Si1 0.872670 0.444620 0.901800
Si Si2 0.963840 0.341033 0.423957
Si Si3 0.005393 0.269844 0.201826
Si Si4 0.267748 0.169797 0.163633
Si Si5 0.606046 0.681528 0.499750
Si Si6 0.369576 0.411474 0.611626
Si Si7 0.738971 0.122935 0.599700
Si Si8 0.994878 0.027682 0.855904
O O1 0.870086 0.404263 0.753814
O O2 0.738484 0.522869 0.874719
O O3 0.723955 0.388201 0.955786
O O4 0.095558 0.446037 0.010716
O O5 0.979595 0.361139 0.271364
O O6 0.009027 0.248393 0.379850
O O7 0.148401 0.384212 0.531723
O O8 0.809733 0.328701 0.514290
O O9 0.278743 0.243385 0.260464
O O10 0.075190 0.308232 0.069503
O O11 0.749790 0.267858 0.125566
O O12 0.020201 0.164370 0.145878
O O13 0.412548 0.647126 0.531822
O O14 0.399160 0.454083 0.758774
O O15 0.464740 0.460759 0.508771
O O16 0.874536 0.094357 0.754074
#
# Coordination Sequence:
#
# PCOD9139476 Si02
#       8
#     4   4   4   4   4   4   4   4
#     4  10  25  46  72 108 147 197 252 309 376 451
#     4  12  24  41  73 108 144 195 241 307 392 449
#     4  11  23  42  68 108 146 185 245 311 373 460
#     4  11  24  43  70 110 149 187 247 313 381 458
#     4  11  23  42  71 106 147 189 241 308 388 448
#     4  11  26  48  72 107 151 199 256 318 374 455
#     4  11  24  46  75 107 148 195 246 313 384 446
#     4  11  25  50  75 100 154 201 260 313 372 455
#
# _framework density 28.346564000000001
#
# number of rings (size 3 to 8) (size 9 to 14) (size 15 to 20)
#    0.000    1.000    5.000    0.750    1.750    5.000 
#    0.000    6.250    0.000    0.000    0.000    0.000 
#    0.000    0.000    0.000    0.000    0.000    0.000 
#
# Total GULP energy -89121.832128 kJ/mol
# GULP energy per Si atom -5570.114508 kJ/mol
# Density = 2.828205 g / cm^3
# Si number density = 28.346564 Si / 1000 Ang^3
#
#
#
# Elastic Constant Matrix: (Units=GPa)
#
#
# Indices 1 2 3 4 5 6 
#
# 1 139.1310 29.3296 55.3763 0.0000 -5.1162 0.0000
# 2 29.3296 105.0374 27.7680 0.0000 -0.5679 0.0000
# 3 55.3763 27.7680 167.8159 0.0000 13.6750 0.0000
# 4 0.0000 0.0000 0.0000 57.2602 0.0000 -4.8475
# 5 -5.1162 -0.5679 13.6750 0.0000 61.7726 0.0000
# 6 0.0000 0.0000 0.0000 -4.8475 0.0000 42.8593
#
#
#
# Elastic Compliance Matrix: (Units=1/GPa)
#
#
# Indices 1 2 3 4 5 6 
#
# 1 0.008661 -0.001703 -0.002682 0.000000 0.001295 0.000000
# 2 -0.001703 0.010304 -0.001160 0.000000 0.000211 0.000000
# 3 -0.002682 -0.001160 0.007184 0.000000 -0.001823 0.000000
# 4 0.000000 0.000000 0.000000 0.017633 0.000000 0.001994
# 5 0.001295 0.000211 -0.001823 0.000000 0.016701 0.000000
# 6 0.000000 0.000000 0.000000 0.001994 0.000000 0.023558
#
#
# Mechanical properties :
#
#
# Convention : Reuss Voigt Hill
#
# Bulk Modulus (GPa) = 66.40075 70.77024 68.58549
# Shear Modulus (GPa) = 49.92449 52.34577 51.13513
#
# Velocity S-wave (km/s) = 4.20124 4.30191 4.25187
# Velocity P-wave (km/s) = 6.85634 7.04951 6.95359
#
# Compressibility (1/GPa) = 0.01506007
#
# Stress axis : x y z
#
# Youngs Moduli (GPa) = 115.45364 97.05261 139.18881
#
# Poissons Ratio (x) = 0.16523 0.37330
# Poissons Ratio (y) = 0.19656 0.16150
# Poissons Ratio (z) = 0.30965 0.11261
#
# Static dielectric constant tensor:
#      x y z
#    x 2.380200 0.000000 0.148950 
#    y 0.000000 2.954600 0.000000 
#    z 0.148950 0.000000 2.425220 
# 
# From -- ./inp_files/13540.got.cif
#   From: 2010.05.17/outbox.cif.g08.bks.cpg/sg9_7_cif.got.tgz:13540.got - 2010.06.03 20:04:27.
