data_PCOD9139044
_publ_section_title
;
Structure prediction by ZEFSAII (Michael W. Deem and Ramdas Pophale) SiO2 
 PCOD9139044
Probable space group: C C
;
_chemical_formula_sum "Si O2"
_cell_formula_units_Z 28
_cell_length_a 19.743931
_cell_length_b 12.855008
_cell_length_c 8.822290
_cell_angle_alpha 90.000000
_cell_angle_beta 144.004585
_cell_angle_gamma 90.000000
_cell_volume 1316.006857
_symmetry_space_group_name_H-M "C C"
_symmetry_group_IT_number 9
_symmetry_cell_setting 'monoclinic'
loop_
_space_group_symop_operation_xyz
x,y,z
x,-y,1/2+z
1/2+x,1/2+y,z
1/2+x,1/2-y,1/2+z
loop_
_atom_site_type_symbol
_atom_site_label
_atom_site_fract_x
_atom_site_fract_y
_atom_site_fract_z
Si Si1 0.649920 0.767828 0.681950
Si Si2 0.075389 0.068298 0.685336
Si Si3 0.699498 0.986674 0.858890
Si Si4 0.706436 0.404443 0.728978
Si Si5 0.351955 0.453174 0.396172
Si Si6 0.622127 0.214958 0.770603
Si Si7 0.355018 0.224988 0.300558
O O1 0.561056 0.677445 0.571459
O O2 0.654451 0.769410 0.507354
O O3 0.624063 0.887647 0.677284
O O4 0.764306 0.741256 0.995187
O O5 0.174461 0.005217 0.771585
O O6 0.116488 0.093337 0.928517
O O7 0.963499 0.998273 0.513813
O O8 0.823348 0.985173 0.997007
O O9 0.655154 0.102595 0.766686
O O10 0.733536 0.975447 0.094117
O O11 0.684204 0.307211 0.795840
O O12 0.821779 0.375134 0.843574
O O13 0.354921 0.329032 0.403986
O O14 0.486535 0.220655 0.491259
#
# Coordination Sequence:
#
# PCOD9139044 Si02
#       7
#     4   4   4   4   4   4   4
#     4  10  25  45  62 100 137 172 225 274 325 404
#     4  11  23  40  68 100 134 173 222 275 333 387
#     4  11  23  41  65  97 132 172 219 280 323 395
#     4  11  23  42  66  97 135 170 218 283 320 401
#     4  11  21  39  69  97 126 171 226 273 322 386
#     4  12  23  43  72  96 135 174 221 279 339 384
#     4  10  24  44  66  99 131 176 225 266 338 393
#
# _framework density 21.276484
#
# number of rings (size 3 to 8) (size 9 to 14) (size 15 to 20)
#    0.000    1.143    4.286    1.714    4.000    0.000 
#    5.143    1.429    0.000    0.000    0.000    0.000 
#    0.000    0.000    0.000    0.000    0.000    0.000 
#
# Total GULP energy -77961.550919 kJ/mol
# GULP energy per Si atom -5568.682208 kJ/mol
# Density = 2.122806 g / cm^3
# Si number density = 21.276484 Si / 1000 Ang^3
#
#
#
# Elastic Constant Matrix: (Units=GPa)
#
#
# Indices 1 2 3 4 5 6 
#
# 1 51.0690 16.6655 11.5892 0.0000 -15.4018 0.0000
# 2 16.6655 118.8025 2.7659 0.0000 -14.8893 0.0000
# 3 11.5892 2.7659 55.1532 0.0000 -25.9039 0.0000
# 4 0.0000 0.0000 0.0000 16.3407 0.0000 -5.0456
# 5 -15.4018 -14.8893 -25.9039 0.0000 37.2812 0.0000
# 6 0.0000 0.0000 0.0000 -5.0456 0.0000 35.1933
#
#
#
# Elastic Compliance Matrix: (Units=1/GPa)
#
#
# Indices 1 2 3 4 5 6 
#
# 1 0.022906 -0.002201 -0.000996 0.000000 0.007892 0.000000
# 2 -0.002201 0.009195 0.001928 0.000000 0.004103 0.000000
# 3 -0.000996 0.001928 0.027332 0.000000 0.019349 0.000000
# 4 0.000000 0.000000 0.000000 0.064031 0.000000 0.009180
# 5 0.007892 0.004103 0.019349 0.000000 0.045167 0.000000
# 6 0.000000 0.000000 0.000000 0.009180 0.000000 0.029731
#
#
# Mechanical properties :
#
#
# Convention : Reuss Voigt Hill
#
# Bulk Modulus (GPa) = 17.57607 31.89622 24.73614
# Shear Modulus (GPa) = 22.74131 30.69664 26.71897
#
# Velocity S-wave (km/s) = 3.27287 3.80248 3.54757
# Velocity P-wave (km/s) = 4.74984 5.85681 5.33213
#
# Compressibility (1/GPa) = 0.05689553
#
# Stress axis : x y z
#
# Youngs Moduli (GPa) = 43.65728 108.74974 36.58732
#
# Poissons Ratio (x) = 0.23935 0.03645
# Poissons Ratio (y) = 0.09609 -0.07056
# Poissons Ratio (z) = 0.04349 -0.20972
#
# Static dielectric constant tensor:
#      x y z
#    x 1.830350 0.000000 -0.005350 
#    y 0.000000 1.789060 0.000000 
#    z -0.005350 0.000000 1.780770 
# 
# From -- ./inp_files/6977.got.cif
#   From: 2010.05.17/outbox.cif.g08.bks.cpg/sg9_4_cif.got.tgz:6977.got - 2010.06.03 20:04:27.
