data_PCOD9139142
_publ_section_title
;
Structure prediction by ZEFSAII (Michael W. Deem and Ramdas Pophale) SiO2 
 PCOD9139142
Probable space group: C C
;
_chemical_formula_sum "Si O2"
_cell_formula_units_Z 32
_cell_length_a 16.605584
_cell_length_b 8.109081
_cell_length_c 18.689312
_cell_angle_alpha 90.000000
_cell_angle_beta 33.760166
_cell_angle_gamma 90.000000
_cell_volume 1398.535120
_symmetry_space_group_name_H-M "C C"
_symmetry_group_IT_number 9
_symmetry_cell_setting 'monoclinic'
loop_
_space_group_symop_operation_xyz
x,y,z
x,-y,1/2+z
1/2+x,1/2+y,z
1/2+x,1/2-y,1/2+z
loop_
_atom_site_type_symbol
_atom_site_label
_atom_site_fract_x
_atom_site_fract_y
_atom_site_fract_z
Si Si1 0.852660 0.287916 0.435580
Si Si2 0.861952 0.719410 0.634699
Si Si3 0.566949 0.406262 0.592598
Si Si4 0.412063 0.425372 0.330488
Si Si5 0.892798 0.347174 0.650125
Si Si6 0.835362 0.420021 0.849945
Si Si7 0.076587 0.779815 0.893713
Si Si8 0.551669 0.658174 0.871205
O O1 0.679611 0.325325 0.567117
O O2 0.909906 0.441421 0.344807
O O3 0.953839 0.287137 0.430156
O O4 0.858656 0.105315 0.396125
O O5 0.866355 0.522673 0.632368
O O6 0.696251 0.765198 0.774401
O O7 0.965885 0.789320 0.620295
O O8 0.918350 0.772636 0.515303
O O9 0.475446 0.535954 0.705552
O O10 0.681001 0.491112 0.455008
O O11 0.314033 0.261597 0.398837
O O12 0.526845 0.366935 0.305329
O O13 0.913795 0.392673 0.717334
O O14 0.745024 0.238547 0.754210
O O15 0.024836 0.270267 0.510223
O O16 0.070035 0.975304 0.888191
#
# Coordination Sequence:
#
# PCOD9139142 Si02
#       8
#     4   4   4   4   4   4   4   4
#     4   9  24  46  70 104 144 189 238 296 365 423
#     4  11  24  46  74 101 143 189 240 297 360 431
#     4  10  24  45  70 102 147 184 241 300 356 436
#     4  11  24  46  72 103 147 191 240 304 359 427
#     4  11  25  43  71 104 141 188 242 297 361 425
#     4  10  25  45  70 105 144 187 247 292 361 433
#     4  10  24  45  69 104 148 186 237 305 353 437
#     4  10  26  44  72 105 140 190 247 291 369 428
#
# _framework density 22.881086
#
# number of rings (size 3 to 8) (size 9 to 14) (size 15 to 20)
#    0.750    1.000    0.000    2.250   14.000    2.000 
#    2.250    0.000    0.000    0.000    0.000    0.000 
#    0.000    0.000    0.000    0.000    0.000    0.000 
#
# Total GULP energy -89251.450386 kJ/mol
# GULP energy per Si atom -5578.215649 kJ/mol
# Density = 2.282901 g / cm^3
# Si number density = 22.881086 Si / 1000 Ang^3
#
#
#
# Elastic Constant Matrix: (Units=GPa)
#
#
# Indices 1 2 3 4 5 6 
#
# 1 102.8721 31.3894 11.0387 0.0000 0.5341 0.0000
# 2 31.3894 92.5777 37.5848 0.0000 -8.8273 0.0000
# 3 11.0387 37.5848 153.3027 0.0001 -15.5816 0.0000
# 4 0.0000 0.0000 0.0001 36.0535 0.0000 0.0216
# 5 0.5341 -8.8273 -15.5816 0.0000 30.2673 0.0000
# 6 0.0000 0.0000 0.0000 0.0216 0.0000 30.8141
#
#
#
# Elastic Compliance Matrix: (Units=1/GPa)
#
#
# Indices 1 2 3 4 5 6 
#
# 1 0.010893 -0.003826 0.000022 0.000000 -0.001297 0.000000
# 2 -0.003826 0.013467 -0.002765 0.000000 0.002572 0.000000
# 3 0.000022 -0.002765 0.007510 0.000000 0.003060 0.000000
# 4 0.000000 0.000000 0.000000 0.027737 0.000000 -0.000019
# 5 -0.001297 0.002572 0.003060 0.000000 0.035387 0.000000
# 6 0.000000 0.000000 0.000000 -0.000019 0.000000 0.032453
#
#
# Mechanical properties :
#
#
# Convention : Reuss Voigt Hill
#
# Bulk Modulus (GPa) = 53.38427 56.53093 54.95760
# Shear Modulus (GPa) = 34.05375 37.34296 35.69835
#
# Velocity S-wave (km/s) = 3.86202 4.04424 3.95418
# Velocity P-wave (km/s) = 6.57790 6.82407 6.70211
#
# Compressibility (1/GPa) = 0.01873211
#
# Stress axis : x y z
#
# Youngs Moduli (GPa) = 91.80591 74.25826 133.15126
#
# Poissons Ratio (x) = 0.28409 -0.00290
# Poissons Ratio (y) = 0.35122 0.36812
# Poissons Ratio (z) = -0.00200 0.20530
#
# Static dielectric constant tensor:
#      x y z
#    x 1.881830 0.000000 -0.025560 
#    y 0.000000 1.853620 0.000000 
#    z -0.025560 0.000000 1.858570 
# 
# From -- ./inp_files/34036.got.cif
#   From: 2010.05.17/outbox.cif.g08.bks.cpg/sg9_18_cif.got.tgz:34036.got - 2010.06.03 20:04:27.
