data_PCOD9139940
_publ_section_title
;
Structure prediction by ZEFSAII (Michael W. Deem and Ramdas Pophale) SiO2 
 PCOD9139940
Probable space group: C C
;
_chemical_formula_sum "Si O2"
_cell_formula_units_Z 28
_cell_length_a 11.377257
_cell_length_b 13.313904
_cell_length_c 14.924202
_cell_angle_alpha 90.000000
_cell_angle_beta 31.267526
_cell_angle_gamma 90.000000
_cell_volume 1173.357990
_symmetry_space_group_name_H-M "C C"
_symmetry_group_IT_number 9
_symmetry_cell_setting 'monoclinic'
loop_
_space_group_symop_operation_xyz
x,y,z
x,-y,1/2+z
1/2+x,1/2+y,z
1/2+x,1/2-y,1/2+z
loop_
_atom_site_type_symbol
_atom_site_label
_atom_site_fract_x
_atom_site_fract_y
_atom_site_fract_z
Si Si1 0.980330 0.725505 0.843280
Si Si2 0.939671 0.875315 0.016672
Si Si3 0.334535 0.917698 0.184519
Si Si4 0.209650 0.035936 0.089017
Si Si5 0.363033 0.385532 0.560489
Si Si6 0.800365 0.842996 0.806754
Si Si7 0.396133 0.079932 0.298010
O O1 0.906185 0.746950 0.789737
O O2 0.950505 0.832083 0.909897
O O3 0.232205 0.685585 0.692744
O O4 0.825315 0.642752 0.991592
O O5 0.182806 0.856980 0.902306
O O6 0.882760 0.992810 0.057474
O O7 0.103822 0.858426 0.359922
O O8 0.261499 0.994284 0.152852
O O9 0.408015 0.984606 0.222536
O O10 0.546503 0.858343 0.006639
O O11 0.947241 0.057933 0.239533
O O12 0.321642 0.961532 0.943560
O O13 0.328475 0.342444 0.681899
O O14 0.138351 0.367198 0.648686
#
# Coordination Sequence:
#
# PCOD9139940 Si02
#       7
#     4   4   4   4   4   4   4
#     4  12  25  41  71 108 143 183 243 307 364 426
#     4  11  23  41  68 104 142 185 241 297 360 418
#     4  11  23  40  72 106 138 195 242 299 356 433
#     4  12  23  43  71 106 142 189 245 299 362 432
#     4  11  23  45  70 105 141 190 246 292 360 444
#     4  12  23  42  71 105 146 185 239 306 361 424
#     4  11  22  42  71 102 144 187 250 294 351 451
#
# _framework density 23.863136000000001
#
# number of rings (size 3 to 8) (size 9 to 14) (size 15 to 20)
#    0.000    0.571    7.143    3.429    0.000    0.000 
#    0.000    0.000    3.143    0.000    0.000    0.000 
#    0.000    0.000    0.000    0.000    0.000    0.000 
#
# Total GULP energy -78412.601410 kJ/mol
# GULP energy per Si atom -5600.900101 kJ/mol
# Density = 2.380882 g / cm^3
# Si number density = 23.863136 Si / 1000 Ang^3
#
#
#
# Elastic Constant Matrix: (Units=GPa)
#
#
# Indices 1 2 3 4 5 6 
#
# 1 127.6665 25.9663 66.6145 -0.0036 -14.7078 0.0007
# 2 25.9663 68.5997 42.0727 -0.0093 2.7861 0.0033
# 3 66.6145 42.0727 199.7940 -0.0147 -25.4958 0.0057
# 4 -0.0036 -0.0093 -0.0147 34.3595 0.0061 -10.3975
# 5 -14.7078 2.7861 -25.4958 0.0061 56.3113 -0.0011
# 6 0.0007 0.0033 0.0057 -10.3975 -0.0011 32.1687
#
#
#
# Elastic Compliance Matrix: (Units=1/GPa)
#
#
# Indices 1 2 3 4 5 6 
#
# 1 0.009815 -0.002164 -0.002628 -0.000001 0.001481 0.000000
# 2 -0.002164 0.017575 -0.003357 0.000004 -0.002954 0.000000
# 3 -0.002628 -0.003357 0.006922 0.000001 0.002614 0.000000
# 4 -0.000001 0.000004 0.000001 0.032259 -0.000003 0.010427
# 5 0.001481 -0.002954 0.002614 -0.000003 0.019475 -0.000001
# 6 0.000000 0.000000 0.000000 0.010427 -0.000001 0.034456
#
#
# Mechanical properties :
#
#
# Convention : Reuss Voigt Hill
#
# Bulk Modulus (GPa) = 55.50817 73.92972 64.71894
# Shear Modulus (GPa) = 35.01341 41.99500 38.50421
#
# Velocity S-wave (km/s) = 3.83464 4.19958 4.02125
# Velocity P-wave (km/s) = 6.55114 7.38670 6.98143
#
# Compressibility (1/GPa) = 0.01801537
#
# Stress axis : x y z
#
# Youngs Moduli (GPa) = 101.88801 56.89942 144.47389
#
# Poissons Ratio (x) = 0.12310 0.37965
# Poissons Ratio (y) = 0.22044 0.48494
# Poissons Ratio (z) = 0.26774 0.19099
#
# Static dielectric constant tensor:
#      x y z
#    x 1.897850 0.000000 -0.017210 
#    y 0.000000 1.903650 0.000000 
#    z -0.017210 0.000000 1.939970 
# 
# From -- ./inp_files/24896.got.cif
#   From: 2010.05.17/outbox.cif.g08.bks.cpg/sg9_13_cif.got.tgz:24896.got - 2010.06.03 20:04:27.
