data_PCOD9139538
_publ_section_title
;
Structure prediction by ZEFSAII (Michael W. Deem and Ramdas Pophale) SiO2 
 PCOD9139538
Probable space group: C C
;
_chemical_formula_sum "Si O2"
_cell_formula_units_Z 32
_cell_length_a 18.023929
_cell_length_b 7.161730
_cell_length_c 21.328135
_cell_angle_alpha 90.000000
_cell_angle_beta 26.150303
_cell_angle_gamma 90.000000
_cell_volume 1213.361945
_symmetry_space_group_name_H-M "C C"
_symmetry_group_IT_number 9
_symmetry_cell_setting 'monoclinic'
loop_
_space_group_symop_operation_xyz
x,y,z
x,-y,1/2+z
1/2+x,1/2+y,z
1/2+x,1/2-y,1/2+z
loop_
_atom_site_type_symbol
_atom_site_label
_atom_site_fract_x
_atom_site_fract_y
_atom_site_fract_z
Si Si1 0.530170 0.454338 0.711970
Si Si2 0.710878 0.460596 0.921093
Si Si3 0.548722 0.837597 0.423135
Si Si4 0.860032 0.096505 0.205006
Si Si5 0.009705 0.396662 0.598768
Si Si6 0.238408 0.699031 0.486727
Si Si7 0.109475 0.094553 0.846328
Si Si8 0.802662 0.629649 0.569181
O O1 0.420784 0.442093 0.730696
O O2 0.646111 0.269880 0.618145
O O3 0.658291 0.622685 0.625967
O O4 0.400761 0.428439 0.866491
O O5 0.751641 0.714247 0.778736
O O6 0.849632 0.391284 0.766405
O O7 0.533940 0.563769 0.035131
O O8 0.784311 0.611414 0.913818
O O9 0.728951 0.939330 0.283626
O O10 0.481996 0.882292 0.544738
O O11 0.573829 0.621132 0.389686
O O12 0.424150 0.948688 0.472120
O O13 0.932089 0.202048 0.977939
O O14 0.103927 0.584999 0.547308
O O15 0.139124 0.225212 0.508208
O O16 0.195448 0.110722 0.713417
#
# Coordination Sequence:
#
# PCOD9139538 Si02
#       8
#     4   4   4   4   4   4   4   4
#     4  11  25  51  79 118 160 216 269 343 413 490
#     4  11  27  42  71 120 162 205 260 342 408 478
#     4  11  27  47  80 120 163 216 277 336 414 494
#     4  10  25  49  83 120 163 208 281 342 414 480
#     4  12  26  43  73 120 159 212 268 339 407 488
#     4  11  25  49  77 112 167 210 270 336 415 479
#     4  11  29  55  83 120 166 220 277 346 407 502
#     4  11  30  54  82 118 168 221 278 332 426 499
#
# _framework density 26.373002
#
# number of rings (size 3 to 8) (size 9 to 14) (size 15 to 20)
#    0.000    1.000    2.500    0.750   14.000    1.000 
#    4.500    1.250    0.000    0.000    0.000    0.000 
#    0.000    0.000    0.000    0.000    0.000    0.000 
#
# Total GULP energy -89531.479860 kJ/mol
# GULP energy per Si atom -5595.717491 kJ/mol
# Density = 2.631298 g / cm^3
# Si number density = 26.373002 Si / 1000 Ang^3
#
#
#
# Elastic Constant Matrix: (Units=GPa)
#
#
# Indices 1 2 3 4 5 6 
#
# 1 97.6057 22.4880 26.3792 -0.0002 -28.6037 -0.0003
# 2 22.4880 164.2126 45.0780 -0.0009 -10.8728 0.0006
# 3 26.3792 45.0780 212.9327 -0.0020 -8.7659 0.0017
# 4 -0.0002 -0.0009 -0.0020 47.8550 0.0011 -0.8776
# 5 -28.6037 -10.8728 -8.7659 0.0011 35.6608 -0.0008
# 6 -0.0003 0.0006 0.0017 -0.8776 -0.0008 27.0548
#
#
#
# Elastic Compliance Matrix: (Units=1/GPa)
#
#
# Indices 1 2 3 4 5 6 
#
# 1 0.013841 -0.000897 -0.001090 0.000000 0.010561 0.000001
# 2 -0.000897 0.006621 -0.001250 0.000000 0.000992 0.000000
# 3 -0.001090 -0.001250 0.005096 0.000000 -0.000003 0.000000
# 4 0.000000 0.000000 0.000000 0.020909 -0.000001 0.000678
# 5 0.010561 0.000992 -0.000003 -0.000001 0.036815 0.000001
# 6 0.000001 0.000000 0.000000 0.000678 0.000001 0.036984
#
#
# Mechanical properties :
#
#
# Convention : Reuss Voigt Hill
#
# Bulk Modulus (GPa) = 52.39759 73.62681 63.01220
# Shear Modulus (GPa) = 37.56527 47.50117 42.53322
#
# Velocity S-wave (km/s) = 3.77819 4.24857 4.02027
# Velocity P-wave (km/s) = 6.24052 7.21424 6.74497
#
# Compressibility (1/GPa) = 0.01908485
#
# Stress axis : x y z
#
# Youngs Moduli (GPa) = 72.24654 151.02852 196.23911
#
# Poissons Ratio (x) = 0.13548 0.21392
# Poissons Ratio (y) = 0.06481 0.24525
# Poissons Ratio (z) = 0.07876 0.18875
#
# Static dielectric constant tensor:
#      x y z
#    x 2.211960 0.000000 0.037190 
#    y 0.000000 2.068700 0.000000 
#    z 0.037190 0.000000 2.106230 
# 
# From -- ./inp_files/34072.got.cif
#   From: 2010.05.17/outbox.cif.g08.bks.cpg/sg9_18_cif.got.tgz:34072.got - 2010.06.03 20:04:27.
