data_PCOD9139019
_publ_section_title
;
Structure prediction by ZEFSAII (Michael W. Deem and Ramdas Pophale) SiO2 
 PCOD9139019
Probable space group: C C
;
_chemical_formula_sum "Si O2"
_cell_formula_units_Z 32
_cell_length_a 9.758309
_cell_length_b 15.458660
_cell_length_c 9.346907
_cell_angle_alpha 90.000000
_cell_angle_beta 109.346258
_cell_angle_gamma 90.000000
_cell_volume 1330.368019
_symmetry_space_group_name_H-M "C C"
_symmetry_group_IT_number 9
_symmetry_cell_setting 'monoclinic'
loop_
_space_group_symop_operation_xyz
x,y,z
x,-y,1/2+z
1/2+x,1/2+y,z
1/2+x,1/2-y,1/2+z
loop_
_atom_site_type_symbol
_atom_site_label
_atom_site_fract_x
_atom_site_fract_y
_atom_site_fract_z
Si Si1 0.558500 0.562405 0.112800
Si Si2 0.547125 0.912985 0.427078
Si Si3 0.284378 0.541393 0.533231
Si Si4 0.211287 0.833017 0.890519
Si Si5 0.711535 0.830425 0.231276
Si Si6 0.758914 0.780488 0.955530
Si Si7 0.236130 0.971412 0.393399
Si Si8 0.587365 0.242325 0.121766
O O1 0.392632 0.536480 0.038093
O O2 0.587479 0.641575 0.230121
O O3 0.653917 0.566470 0.002544
O O4 0.624564 0.481082 0.224543
O O5 0.588305 0.867341 0.292340
O O6 0.377865 0.921272 0.395462
O O7 0.617138 0.854259 0.575119
O O8 0.623350 0.005135 0.461750
O O9 0.301150 0.588476 0.694405
O O10 0.301908 0.620569 0.430141
O O11 0.285706 0.747953 0.846175
O O12 0.143097 0.804363 0.015761
O O13 0.283757 0.927212 0.935176
O O14 0.660032 0.790425 0.062266
O O15 0.671350 0.739626 0.796497
O O16 0.912479 0.745019 0.064661
#
# Coordination Sequence:
#
# PCOD9139019 Si02
#       8
#     4   4   4   4   4   4   4   4
#     4  10  24  43  74 105 149 198 256 316 371 465
#     4  11  26  44  75 108 147 194 250 325 378 451
#     4  10  25  43  75 106 150 192 261 310 382 451
#     4   9  23  48  68 107 151 198 255 314 378 461
#     4   9  24  48  67 109 147 199 251 311 391 456
#     4  10  26  45  74 107 152 197 251 304 386 456
#     4  10  25  43  73 105 150 190 259 309 390 441
#     4  11  25  48  74 109 156 198 249 313 384 457
#
# _framework density 24.053497
#
# number of rings (size 3 to 8) (size 9 to 14) (size 15 to 20)
#    1.500    0.500    0.000    0.750    8.750    3.000 
#    4.500    0.000    0.000    0.000    0.000    0.000 
#    0.000    0.000    0.000    0.000    0.000    0.000 
#
# Total GULP energy -89219.441359 kJ/mol
# GULP energy per Si atom -5576.215085 kJ/mol
# Density = 2.399875 g / cm^3
# Si number density = 24.053497 Si / 1000 Ang^3
#
#
#
# Elastic Constant Matrix: (Units=GPa)
#
#
# Indices 1 2 3 4 5 6 
#
# 1 110.6863 12.4720 61.1327 0.0000 -12.2029 0.0000
# 2 12.4720 63.4328 9.2127 0.0000 -8.3397 0.0000
# 3 61.1327 9.2127 141.7035 0.0000 -19.8398 0.0000
# 4 0.0000 0.0000 0.0000 35.5103 0.0000 -11.5590
# 5 -12.2029 -8.3397 -19.8398 0.0000 34.2024 0.0000
# 6 0.0000 0.0000 0.0000 -11.5590 0.0000 28.2837
#
#
#
# Elastic Compliance Matrix: (Units=1/GPa)
#
#
# Indices 1 2 3 4 5 6 
#
# 1 0.012059 -0.001512 -0.004956 0.000000 0.001059 0.000000
# 2 -0.001512 0.016516 0.000073 0.000000 0.003530 0.000000
# 3 -0.004956 0.000073 0.009736 0.000000 0.003897 0.000000
# 4 0.000000 0.000000 0.000000 0.032482 0.000000 0.013275
# 5 0.001059 0.003530 0.003897 0.000000 0.032737 0.000000
# 6 0.000000 0.000000 0.000000 0.013275 0.000000 0.040781
#
#
# Mechanical properties :
#
#
# Convention : Reuss Voigt Hill
#
# Bulk Modulus (GPa) = 39.18466 53.49527 46.33996
# Shear Modulus (GPa) = 30.19203 35.13295 32.66249
#
# Velocity S-wave (km/s) = 3.54673 3.82595 3.68898
# Velocity P-wave (km/s) = 5.75312 6.46572 6.11980
#
# Compressibility (1/GPa) = 0.02552019
#
# Stress axis : x y z
#
# Youngs Moduli (GPa) = 82.92740 60.54917 102.71322
#
# Poissons Ratio (x) = 0.09155 0.50902
# Poissons Ratio (y) = 0.12538 -0.00747
# Poissons Ratio (z) = 0.41096 -0.00440
#
# Static dielectric constant tensor:
#      x y z
#    x 1.874790 0.000000 -0.009960 
#    y 0.000000 2.054570 0.000000 
#    z -0.009960 0.000000 1.888390 
# 
# From -- ./inp_files/23240.got.cif
#   From: 2010.05.17/outbox.cif.g08.bks.cpg/sg9_12_cif.got.tgz:23240.got - 2010.06.03 20:04:27.
