data_PCOD9139852
_publ_section_title
;
Structure prediction by ZEFSAII (Michael W. Deem and Ramdas Pophale) SiO2 
 PCOD9139852
Probable space group: C C
;
_chemical_formula_sum "Si O2"
_cell_formula_units_Z 32
_cell_length_a 8.364469
_cell_length_b 11.487047
_cell_length_c 22.085871
_cell_angle_alpha 90.000000
_cell_angle_beta 39.779188
_cell_angle_gamma 90.000000
_cell_volume 1357.770295
_symmetry_space_group_name_H-M "C C"
_symmetry_group_IT_number 9
_symmetry_cell_setting 'monoclinic'
loop_
_space_group_symop_operation_xyz
x,y,z
x,-y,1/2+z
1/2+x,1/2+y,z
1/2+x,1/2-y,1/2+z
loop_
_atom_site_type_symbol
_atom_site_label
_atom_site_fract_x
_atom_site_fract_y
_atom_site_fract_z
Si Si1 0.891100 0.529839 0.608130
Si Si2 0.635656 0.572045 0.562380
Si Si3 0.644068 0.062305 0.214959
Si Si4 0.315938 0.188587 0.388538
Si Si5 0.019604 0.920122 0.327892
Si Si6 0.347704 0.345194 0.939137
Si Si7 0.402457 0.820925 0.316583
Si Si8 0.406869 0.811564 0.668537
O O1 0.798235 0.516021 0.567196
O O2 0.681025 0.558717 0.719862
O O3 0.001674 0.404891 0.593229
O O4 0.098146 0.629822 0.549291
O O5 0.410951 0.481746 0.613435
O O6 0.773972 0.623588 0.463940
O O7 0.540550 0.688794 0.624414
O O8 0.539960 0.945232 0.276947
O O9 0.591018 0.155012 0.282758
O O10 0.477055 0.119735 0.209916
O O11 0.304075 0.326416 0.383964
O O12 0.083666 0.151316 0.414658
O O13 0.188241 0.856053 0.330994
O O14 0.901403 0.041842 0.382094
O O15 0.314932 0.231486 0.906368
O O16 0.619383 0.725380 0.238182
#
# Coordination Sequence:
#
# PCOD9139852 Si02
#       8
#     4   4   4   4   4   4   4   4
#     4  12  25  46  72 104 142 190 241 298 363 434
#     4  11  28  44  71 108 144 189 249 292 359 446
#     4  11  23  48  74 101 146 191 235 304 366 428
#     4  12  25  48  70 105 147 190 238 302 363 425
#     4  12  26  47  73 103 143 193 239 303 369 432
#     4  12  26  48  71 105 149 186 246 302 363 441
#     4  11  21  45  73  98 139 188 232 298 362 426
#     4  11  22  48  70 100 142 187 238 297 361 426
#
# _framework density 23.568052999999999
#
# number of rings (size 3 to 8) (size 9 to 14) (size 15 to 20)
#    0.000    0.500    5.000    3.000    5.250    1.000 
#    6.750    0.000    0.000    0.000    0.000    0.000 
#    0.000    0.000    0.000    0.000    0.000    0.000 
#
# Total GULP energy -89258.307264 kJ/mol
# GULP energy per Si atom -5578.644204 kJ/mol
# Density = 2.351441 g / cm^3
# Si number density = 23.568053 Si / 1000 Ang^3
#
#
#
# Elastic Constant Matrix: (Units=GPa)
#
#
# Indices 1 2 3 4 5 6 
#
# 1 53.9959 29.5804 12.5602 0.0000 10.7649 0.0001
# 2 29.5804 54.2853 18.3953 0.0001 32.8150 0.0001
# 3 12.5602 18.3953 85.4388 0.0002 10.9987 0.0002
# 4 0.0000 0.0001 0.0002 31.2188 0.0000 4.4637
# 5 10.7649 32.8150 10.9987 0.0000 12.8351 -0.0002
# 6 0.0001 0.0001 0.0002 4.4637 -0.0002 46.1068
#
#
#
# Elastic Compliance Matrix: (Units=1/GPa)
#
#
# Indices 1 2 3 4 5 6 
#
# 1 0.022212 0.001789 -0.000746 0.000000 -0.022564 0.000000
# 2 0.001789 -0.032265 -0.004206 0.000000 0.084594 0.000000
# 3 -0.000746 -0.004206 0.012650 0.000000 0.000539 0.000000
# 4 0.000000 0.000000 0.000000 0.032482 0.000000 -0.003145
# 5 -0.022564 0.084594 0.000539 0.000000 -0.119906 -0.000001
# 6 0.000000 0.000000 0.000000 -0.003145 -0.000001 0.021993
#
#
# Mechanical properties :
#
#
# Convention : Reuss Voigt Hill
#
# Bulk Modulus (GPa) = -268.14548 34.97686 -116.58431
# Shear Modulus (GPa) = -86.57896 26.91108 -29.83394
#
# Velocity S-wave (km/s) = -6.06758 3.38279 -3.56176
# Velocity P-wave (km/s) = 12.77142 5.48914 8.15410
#
# Compressibility (1/GPa) = -0.00372932
#
# Stress axis : x y z
#
# Youngs Moduli (GPa) = 45.02104 -30.99337 79.05055
#
# Poissons Ratio (x) = 0.05544 0.05896
# Poissons Ratio (y) = -0.08053 0.33250
# Poissons Ratio (z) = 0.03358 -0.13036
#
# Static dielectric constant tensor:
#      x y z
#    x 1.933410 0.000010 -0.026810 
#    y 0.000010 1.983010 0.000000 
#    z -0.026810 0.000000 1.968760 
# 
# From -- ./inp_files/35003.got.cif
#   From: 2010.05.17/outbox.cif.g08.bks.cpg/sg9_18_cif.got.tgz:35003.got - 2010.06.03 20:04:27.
