data_PCOD9139554
_publ_section_title
;
Structure prediction by ZEFSAII (Michael W. Deem and Ramdas Pophale) SiO2 
 PCOD9139554
Probable space group: C C
;
_chemical_formula_sum "Si O2"
_cell_formula_units_Z 20
_cell_length_a 5.477350
_cell_length_b 16.519867
_cell_length_c 8.983836
_cell_angle_alpha 90.000000
_cell_angle_beta 60.041727
_cell_angle_gamma 90.000000
_cell_volume 704.290678
_symmetry_space_group_name_H-M "C C"
_symmetry_group_IT_number 9
_symmetry_cell_setting 'monoclinic'
loop_
_space_group_symop_operation_xyz
x,y,z
x,-y,1/2+z
1/2+x,1/2+y,z
1/2+x,1/2-y,1/2+z
loop_
_atom_site_type_symbol
_atom_site_label
_atom_site_fract_x
_atom_site_fract_y
_atom_site_fract_z
Si Si1 0.230800 0.339903 0.293400
Si Si2 0.859612 0.621373 0.628564
Si Si3 0.114321 0.831400 0.788225
Si Si4 0.178012 0.616415 0.220679
Si Si5 0.439198 0.512372 0.903265
O O1 0.570488 0.328364 0.198151
O O2 0.101106 0.252792 0.381078
O O3 0.225905 0.429850 0.371180
O O4 0.082777 0.346060 0.178366
O O5 0.738563 0.542280 0.748626
O O6 0.987359 0.604931 0.427218
O O7 0.445784 0.850086 0.678283
O O8 0.932744 0.824473 0.691757
O O9 0.982738 0.916483 0.886814
O O10 0.351972 0.542830 0.093615
#
# Coordination Sequence:
#
# PCOD9139554 Si02
#       5
#     4   4   4   4   4
#     4  10  25  53  81 116 165 217 269 352 421 503
#     4  10  25  53  80 114 166 209 275 344 420 493
#     4  12  29  48  85 122 165 216 289 338 429 519
#     4  12  29  48  85 122 158 224 278 347 422 510
#     4  10  30  50  85 112 170 216 273 351 418 505
#
# _framework density 28.397369000000001
#
# number of rings (size 3 to 8) (size 9 to 14) (size 15 to 20)
#    1.200    0.000    0.000    2.400   11.200    4.800 
#    0.000    0.000    4.400    0.000    0.000    0.000 
#    0.000    0.000    0.000    0.000    0.000    0.000 
#
# Total GULP energy -55726.678802 kJ/mol
# GULP energy per Si atom -5572.667880 kJ/mol
# Density = 2.833274 g / cm^3
# Si number density = 28.397369 Si / 1000 Ang^3
#
#
#
# Elastic Constant Matrix: (Units=GPa)
#
#
# Indices 1 2 3 4 5 6 
#
# 1 237.8074 71.9125 20.4114 0.0000 6.8868 0.0000
# 2 71.9125 250.4169 68.6972 0.0000 10.6581 0.0000
# 3 20.4114 68.6972 70.4002 0.0000 24.6852 0.0000
# 4 0.0000 0.0000 0.0000 57.4434 0.0000 -3.2278
# 5 6.8868 10.6581 24.6852 0.0000 17.7320 0.0000
# 6 0.0000 0.0000 0.0000 -3.2278 0.0000 44.7422
#
#
#
# Elastic Compliance Matrix: (Units=1/GPa)
#
#
# Indices 1 2 3 4 5 6 
#
# 1 0.004638 -0.001464 0.000794 0.000000 -0.002027 0.000000
# 2 -0.001464 0.006578 -0.009392 0.000000 0.009689 0.000000
# 3 0.000794 -0.009392 0.041549 0.000000 -0.052505 0.000000
# 4 0.000000 0.000000 0.000000 0.017479 0.000000 0.001261
# 5 -0.002027 0.009689 -0.052505 0.000000 0.124452 0.000000
# 6 0.000000 0.000000 0.000000 0.001261 0.000000 0.022441
#
#
# Mechanical properties :
#
#
# Convention : Reuss Voigt Hill
#
# Bulk Modulus (GPa) = 30.63435 97.85188 64.24312
# Shear Modulus (GPa) = 20.14988 50.49042 35.32015
#
# Velocity S-wave (km/s) = 2.66666 4.22120 3.53056
# Velocity P-wave (km/s) = 4.50473 7.63485 6.26832
#
# Compressibility (1/GPa) = 0.03264309
#
# Stress axis : x y z
#
# Youngs Moduli (GPa) = 215.60077 152.02963 24.06799
#
# Poissons Ratio (x) = 0.22251 -0.01912
# Poissons Ratio (y) = 0.31555 0.22604
# Poissons Ratio (z) = -0.17125 1.42780
#
# Static dielectric constant tensor:
#      x y z
#    x 2.380950 0.000000 0.155900 
#    y 0.000000 2.208410 0.000000 
#    z 0.155900 0.000000 2.294380 
# 
# From -- ./inp_files/3660.got.cif
#   From: 2010.05.17/outbox.cif.g08.bks.cpg/sg9_2_cif.got.tgz:3660.got - 2010.06.03 20:04:27.
