data_PCOD9139988
_publ_section_title
;
Structure prediction by ZEFSAII (Michael W. Deem and Ramdas Pophale) SiO2 
 PCOD9139988
Probable space group: C C
;
_chemical_formula_sum "Si O2"
_cell_formula_units_Z 32
_cell_length_a 14.551644
_cell_length_b 10.037749
_cell_length_c 17.817656
_cell_angle_alpha 90.000000
_cell_angle_beta 31.793022
_cell_angle_gamma 90.000000
_cell_volume 1371.159036
_symmetry_space_group_name_H-M "C C"
_symmetry_group_IT_number 9
_symmetry_cell_setting 'monoclinic'
loop_
_space_group_symop_operation_xyz
x,y,z
x,-y,1/2+z
1/2+x,1/2+y,z
1/2+x,1/2-y,1/2+z
loop_
_atom_site_type_symbol
_atom_site_label
_atom_site_fract_x
_atom_site_fract_y
_atom_site_fract_z
Si Si1 0.451350 0.162726 0.554290
Si Si2 0.222013 0.676935 0.652329
Si Si3 0.501030 0.852945 0.540765
Si Si4 0.407202 0.010669 0.872748
Si Si5 0.415930 0.610436 0.369057
Si Si6 0.152243 0.100978 0.660194
Si Si7 0.806266 0.724179 0.814895
Si Si8 0.381679 0.773321 0.780193
O O1 0.281994 0.186028 0.620827
O O2 0.610782 0.256838 0.421621
O O3 0.420322 0.194859 0.663299
O O4 0.489602 0.004352 0.519512
O O5 0.394395 0.736020 0.571363
O O6 0.274593 0.644192 0.530118
O O7 0.079714 0.791534 0.764399
O O8 0.104028 0.550901 0.759821
O O9 0.408301 0.857340 0.686348
O O10 0.700661 0.805453 0.405020
O O11 0.400516 0.867141 0.839209
O O12 0.339526 0.112731 0.855535
O O13 0.271759 0.008724 0.035068
O O14 0.500711 0.465874 0.315177
O O15 0.347717 0.640679 0.332687
O O16 0.047207 0.176852 0.669256
#
# Coordination Sequence:
#
# PCOD9139988 Si02
#       8
#     4   4   4   4   4   4   4   4
#     4  12  27  46  72 105 144 181 245 292 363 423
#     4  11  24  43  78 105 141 182 248 297 346 434
#     4  12  26  48  72 109 142 191 244 304 352 434
#     4  11  25  49  71 103 143 191 240 286 372 434
#     4  11  22  44  73 103 138 191 233 288 363 424
#     4  12  27  46  69 102 150 189 234 297 365 432
#     4  11  24  45  72 103 137 185 231 299 344 438
#     4  12  27  47  71 104 151 190 237 299 373 421
#
# _framework density 23.33792
#
# number of rings (size 3 to 8) (size 9 to 14) (size 15 to 20)
#    0.000    0.500    3.750    5.250    5.250    0.000 
#    2.250    0.000    0.000    0.000    0.000    0.000 
#    0.000    0.000    0.000    0.000    0.000    0.000 
#
# Total GULP energy -89435.535259 kJ/mol
# GULP energy per Si atom -5589.720954 kJ/mol
# Density = 2.328480 g / cm^3
# Si number density = 23.337920 Si / 1000 Ang^3
#
#
#
# Elastic Constant Matrix: (Units=GPa)
#
#
# Indices 1 2 3 4 5 6 
#
# 1 82.1769 5.1581 26.0567 0.0004 -25.5632 -0.0001
# 2 5.1581 40.7988 28.0554 0.0007 -10.6653 -0.0002
# 3 26.0567 28.0554 102.8669 0.0013 -5.4376 -0.0005
# 4 0.0004 0.0007 0.0013 32.9555 -0.0005 -8.1682
# 5 -25.5632 -10.6653 -5.4376 -0.0005 43.1313 0.0002
# 6 -0.0001 -0.0002 -0.0005 -8.1682 0.0002 26.3872
#
#
#
# Elastic Compliance Matrix: (Units=1/GPa)
#
#
# Indices 1 2 3 4 5 6 
#
# 1 0.016586 0.003794 -0.004698 0.000000 0.010176 0.000000
# 2 0.003794 0.032941 -0.009459 0.000000 0.009201 0.000000
# 3 -0.004698 -0.009459 0.013309 0.000000 -0.003445 0.000000
# 4 0.000000 0.000000 0.000000 0.032865 0.000000 0.010174
# 5 0.010176 0.009201 -0.003445 0.000000 0.031057 0.000000
# 6 0.000000 0.000000 0.000000 0.010174 0.000000 0.041046
#
#
# Mechanical properties :
#
#
# Convention : Reuss Voigt Hill
#
# Bulk Modulus (GPa) = 23.74755 38.26478 31.00616
# Shear Modulus (GPa) = 24.68323 31.59962 28.14143
#
# Velocity S-wave (km/s) = 3.25567 3.68367 3.47626
# Velocity P-wave (km/s) = 4.93256 5.87572 5.42468
#
# Compressibility (1/GPa) = 0.04210961
#
# Stress axis : x y z
#
# Youngs Moduli (GPa) = 60.29212 30.35773 75.13758
#
# Poissons Ratio (x) = -0.11517 0.35300
# Poissons Ratio (y) = -0.22874 0.71070
# Poissons Ratio (z) = 0.28326 0.28714
#
# Static dielectric constant tensor:
#      x y z
#    x 1.901510 0.000000 -0.019330 
#    y 0.000000 1.980200 0.000000 
#    z -0.019330 0.000000 1.851280 
# 
# From -- ./inp_files/9148.got.cif
#   From: 2010.05.17/outbox.cif.g08.bks.cpg/sg9_5_cif.got.tgz:9148.got - 2010.06.03 20:04:27.
