data_PCOD9139330
_publ_section_title
;
Structure prediction by ZEFSAII (Michael W. Deem and Ramdas Pophale) SiO2 
 PCOD9139330
Probable space group: C C
;
_chemical_formula_sum "Si O2"
_cell_formula_units_Z 32
_cell_length_a 8.222088
_cell_length_b 16.375898
_cell_length_c 14.590805
_cell_angle_alpha 90.000000
_cell_angle_beta 38.236975
_cell_angle_gamma 90.000000
_cell_volume 1215.899817
_symmetry_space_group_name_H-M "C C"
_symmetry_group_IT_number 9
_symmetry_cell_setting 'monoclinic'
loop_
_space_group_symop_operation_xyz
x,y,z
x,-y,1/2+z
1/2+x,1/2+y,z
1/2+x,1/2-y,1/2+z
loop_
_atom_site_type_symbol
_atom_site_label
_atom_site_fract_x
_atom_site_fract_y
_atom_site_fract_z
Si Si1 0.954310 0.327056 0.342160
Si Si2 0.176882 0.425263 0.624200
Si Si3 0.483473 0.428093 0.047968
Si Si4 0.723853 0.158818 0.413171
Si Si5 0.143451 0.645710 0.944453
Si Si6 0.866155 0.424837 0.224320
Si Si7 0.449263 0.194155 0.349639
Si Si8 0.495103 0.503516 0.734447
O O1 0.925564 0.231748 0.340151
O O2 0.761242 0.365504 0.350586
O O3 0.227903 0.372571 0.192351
O O4 0.926905 0.334191 0.464087
O O5 0.400738 0.496495 0.517982
O O6 0.091987 0.375052 0.572303
O O7 0.954876 0.493739 0.739140
O O8 0.187020 0.356126 0.697003
O O9 0.582494 0.477414 0.093406
O O10 0.697182 0.359836 0.932426
O O11 0.580531 0.128092 0.569760
O O12 0.510581 0.187144 0.430700
O O13 0.897667 0.085737 0.297505
O O14 0.372005 0.715659 0.847808
O O15 0.242687 0.559407 0.863662
O O16 0.697048 0.460359 0.216951
#
# Coordination Sequence:
#
# PCOD9139330 Si02
#       8
#     4   4   4   4   4   4   4   4
#     4  10  27  47  72 105 151 190 247 306 362 436
#     4  11  26  46  74 106 147 195 244 301 379 436
#     4  10  24  50  73 110 148 189 245 307 373 441
#     4  12  25  49  73 113 148 194 245 303 376 439
#     4  11  27  44  72 104 150 194 246 301 367 435
#     4  11  25  45  76 106 149 193 243 306 369 441
#     4  12  27  45  77 110 149 191 247 309 370 444
#     4  11  23  48  73 106 148 188 247 305 366 440
#
# _framework density 26.317955999999999
#
# number of rings (size 3 to 8) (size 9 to 14) (size 15 to 20)
#    0.000    1.000    3.750    0.750   10.500    1.000 
#    0.000    0.000    0.000    0.000    0.000    0.000 
#    0.000    0.000    0.000    0.000    0.000    0.000 
#
# Total GULP energy -89332.626306 kJ/mol
# GULP energy per Si atom -5583.289144 kJ/mol
# Density = 2.625806 g / cm^3
# Si number density = 26.317956 Si / 1000 Ang^3
#
#
#
# Elastic Constant Matrix: (Units=GPa)
#
#
# Indices 1 2 3 4 5 6 
#
# 1 93.3430 50.6953 17.1762 -0.0024 28.5563 0.0042
# 2 50.6953 207.7800 33.3660 -0.0015 7.0117 0.0014
# 3 17.1762 33.3660 66.7242 -0.0050 14.0947 0.0033
# 4 -0.0024 -0.0015 -0.0050 32.9450 0.0017 -0.2008
# 5 28.5563 7.0117 14.0947 0.0017 50.8952 -0.0018
# 6 0.0042 0.0014 0.0033 -0.2008 -0.0018 35.7704
#
#
#
# Elastic Compliance Matrix: (Units=1/GPa)
#
#
# Indices 1 2 3 4 5 6 
#
# 1 0.015000 -0.003307 -0.000559 0.000001 -0.007806 -0.000002
# 2 -0.003307 0.005962 -0.002494 0.000000 0.001725 0.000000
# 3 -0.000559 -0.002494 0.017248 0.000003 -0.004119 -0.000002
# 4 0.000001 0.000000 0.000003 0.030355 -0.000002 0.000170
# 5 -0.007806 0.001725 -0.004119 -0.000002 0.024931 0.000002
# 6 -0.000002 0.000000 -0.000002 0.000170 0.000002 0.027957
#
#
# Mechanical properties :
#
#
# Convention : Reuss Voigt Hill
#
# Bulk Modulus (GPa) = 39.23044 63.36914 51.29979
# Shear Modulus (GPa) = 35.04596 41.69609 38.37103
#
# Velocity S-wave (km/s) = 3.65312 3.98467 3.82249
# Velocity P-wave (km/s) = 5.72122 6.73058 6.24632
#
# Compressibility (1/GPa) = 0.02549041
#
# Stress axis : x y z
#
# Youngs Moduli (GPa) = 66.66720 167.73155 57.97608
#
# Poissons Ratio (x) = 0.55462 0.03240
# Poissons Ratio (y) = 0.22044 0.14462
# Poissons Ratio (z) = 0.03726 0.41840
#
# Static dielectric constant tensor:
#      x y z
#    x 2.276500 0.000000 -0.141590 
#    y 0.000000 1.983250 0.000000 
#    z -0.141590 0.000000 2.227150 
# 
# From -- ./inp_files/23366.got.cif
#   From: 2010.05.17/outbox.cif.g08.bks.cpg/sg9_12_cif.got.tgz:23366.got - 2010.06.03 20:04:27.
