data_PCOD9139829
_publ_section_title
;
Structure prediction by ZEFSAII (Michael W. Deem and Ramdas Pophale) SiO2 
 PCOD9139829
Probable space group: C C
;
_chemical_formula_sum "Si O2"
_cell_formula_units_Z 28
_cell_length_a 8.629565
_cell_length_b 31.279261
_cell_length_c 8.321460
_cell_angle_alpha 90.000000
_cell_angle_beta 32.637382
_cell_angle_gamma 90.000000
_cell_volume 1211.411525
_symmetry_space_group_name_H-M "C C"
_symmetry_group_IT_number 9
_symmetry_cell_setting 'monoclinic'
loop_
_space_group_symop_operation_xyz
x,y,z
x,-y,1/2+z
1/2+x,1/2+y,z
1/2+x,1/2-y,1/2+z
loop_
_atom_site_type_symbol
_atom_site_label
_atom_site_fract_x
_atom_site_fract_y
_atom_site_fract_z
Si Si1 0.547870 0.350916 0.779660
Si Si2 0.514502 0.536585 0.619069
Si Si3 0.917911 0.522692 0.978763
Si Si4 0.013307 0.397619 0.174761
Si Si5 0.844993 0.779835 0.732884
Si Si6 0.430416 0.150444 0.436302
Si Si7 0.869780 0.133211 0.799159
O O1 0.855547 0.363451 0.433455
O O2 0.435385 0.305374 0.814746
O O3 0.459518 0.354322 0.041632
O O4 0.349354 0.387578 0.875069
O O5 0.711805 0.512884 0.578758
O O6 0.417010 0.582381 0.769119
O O7 0.226952 0.513383 0.795904
O O8 0.725398 0.543924 0.284846
O O9 0.971104 0.556525 0.789877
O O10 0.921408 0.388247 0.073154
O O11 0.640717 0.813760 0.822041
O O12 0.151012 0.762546 0.408123
O O13 0.097275 0.160053 0.705559
O O14 0.560079 0.140264 0.147678
#
# Coordination Sequence:
#
# PCOD9139829 Si02
#       7
#     4   4   4   4   4   4   4
#     4  11  22  42  73  97 129 181 230 279 338 409
#     4  12  27  46  70 100 145 188 235 306 351 409
#     4  12  25  48  67 101 140 189 237 302 357 406
#     4  11  21  44  68  94 133 184 236 273 337 417
#     4  11  23  45  69 100 137 173 222 279 347 428
#     4  11  25  40  72 103 132 182 224 280 346 426
#     4  12  23  45  67 103 140 177 236 287 340 407
#
# _framework density 23.113533
#
# number of rings (size 3 to 8) (size 9 to 14) (size 15 to 20)
#    0.000    0.571    2.857    6.857    2.000    0.000 
#    2.571    4.286    0.000    0.000    0.000    0.000 
#    0.000    0.000    0.000    0.000    0.000    0.000 
#
# Total GULP energy -78112.557661 kJ/mol
# GULP energy per Si atom -5579.468404 kJ/mol
# Density = 2.306093 g / cm^3
# Si number density = 23.113533 Si / 1000 Ang^3
#
#
#
# Elastic Constant Matrix: (Units=GPa)
#
#
# Indices 1 2 3 4 5 6 
#
# 1 91.4437 24.6463 22.7638 0.0000 -19.0547 0.0000
# 2 24.6463 75.5855 14.4442 0.0000 -1.0384 0.0000
# 3 22.7638 14.4442 132.9894 0.0000 -14.5430 0.0000
# 4 0.0000 0.0000 0.0000 34.1499 0.0000 -5.6776
# 5 -19.0547 -1.0384 -14.5430 0.0000 39.9418 0.0000
# 6 0.0000 0.0000 0.0000 -5.6776 0.0000 26.9595
#
#
#
# Elastic Compliance Matrix: (Units=1/GPa)
#
#
# Indices 1 2 3 4 5 6 
#
# 1 0.013586 -0.004113 -0.001231 0.000000 0.005926 0.000000
# 2 -0.004113 0.014757 -0.001116 0.000000 -0.001985 0.000000
# 3 -0.001231 -0.001116 0.008107 0.000000 0.002336 0.000000
# 4 0.000000 0.000000 0.000000 0.030345 0.000000 0.006391
# 5 0.005926 -0.001985 0.002336 0.000000 0.028662 0.000000
# 6 0.000000 0.000000 0.000000 0.006391 0.000000 0.038439
#
#
# Mechanical properties :
#
#
# Convention : Reuss Voigt Hill
#
# Bulk Modulus (GPa) = 42.49896 47.08079 44.78987
# Shear Modulus (GPa) = 32.32936 36.08784 34.20860
#
# Velocity S-wave (km/s) = 3.74400 3.95565 3.85128
# Velocity P-wave (km/s) = 6.09238 6.42468 6.26073
#
# Compressibility (1/GPa) = 0.02352999
#
# Stress axis : x y z
#
# Youngs Moduli (GPa) = 73.60776 67.76338 123.35571
#
# Poissons Ratio (x) = 0.27873 0.15181
# Poissons Ratio (y) = 0.30277 0.13764
# Poissons Ratio (z) = 0.09058 0.07561
#
# Static dielectric constant tensor:
#      x y z
#    x 1.944040 0.000000 -0.001860 
#    y 0.000000 1.853080 0.000000 
#    z -0.001860 0.000000 1.807370 
# 
# From -- ./inp_files/6547.got.cif
#   From: 2010.05.17/outbox.cif.g08.bks.cpg/sg9_4_cif.got.tgz:6547.got - 2010.06.03 20:04:27.
