data_PCOD9139568
_publ_section_title
;
Structure prediction by ZEFSAII (Michael W. Deem and Ramdas Pophale) SiO2 
 PCOD9139568
Probable space group: C C
;
_chemical_formula_sum "Si O2"
_cell_formula_units_Z 32
_cell_length_a 8.336810
_cell_length_b 6.097419
_cell_length_c 29.500936
_cell_angle_alpha 90.000000
_cell_angle_beta 121.924719
_cell_angle_gamma 90.000000
_cell_volume 1272.794425
_symmetry_space_group_name_H-M "C C"
_symmetry_group_IT_number 9
_symmetry_cell_setting 'monoclinic'
loop_
_space_group_symop_operation_xyz
x,y,z
x,-y,1/2+z
1/2+x,1/2+y,z
1/2+x,1/2-y,1/2+z
loop_
_atom_site_type_symbol
_atom_site_label
_atom_site_fract_x
_atom_site_fract_y
_atom_site_fract_z
Si Si1 0.171090 0.846609 0.731760
Si Si2 0.301099 0.410587 0.714693
Si Si3 0.160466 0.968381 0.376923
Si Si4 0.574419 0.149583 0.446067
Si Si5 0.882175 0.904535 0.531455
Si Si6 0.245663 0.977704 0.546211
Si Si7 0.818564 0.707215 0.808183
Si Si8 0.477167 0.662967 0.632309
O O1 0.261749 0.670484 0.711624
O O2 0.330737 0.974228 0.783744
O O3 0.034563 0.011784 0.682912
O O4 0.006819 0.796659 0.743880
O O5 0.226009 0.354152 0.754635
O O6 0.175151 0.294186 0.657635
O O7 0.102070 0.784184 0.404338
O O8 0.197584 0.849908 0.334341
O O9 0.358884 0.081230 0.419549
O O10 0.002455 0.157251 0.349968
O O11 0.665600 0.300245 0.498840
O O12 0.701567 0.934526 0.472406
O O13 0.885813 0.643858 0.542216
O O14 0.043723 0.061051 0.533620
O O15 0.889418 0.996864 0.583226
O O16 0.332743 0.865064 0.604251
#
# Coordination Sequence:
#
# PCOD9139568 Si02
#       8
#     4   4   4   4   4   4   4   4
#     4  11  26  48  75 109 149 194 244 306 367 444
#     4  11  26  48  75 109 149 194 244 306 367 444
#     4  12  28  48  80 106 150 198 248 310 372 436
#     4  11  28  47  72 112 144 197 250 309 370 442
#     4  11  25  46  73 105 148 193 244 306 367 444
#     4  11  25  46  73 105 148 193 244 306 367 444
#     4  11  28  51  76 112 150 195 252 307 372 440
#     4  10  26  40  74 104 148 186 248 294 374 434
#
# _framework density 25.141528999999998
#
# number of rings (size 3 to 8) (size 9 to 14) (size 15 to 20)
#    0.000    1.000    1.250    2.250   14.000    7.000 
#    0.000    0.000    0.000    0.000    0.000    0.000 
#    0.000    0.000    0.000    0.000    0.000    0.000 
#
# Total GULP energy -89138.466359 kJ/mol
# GULP energy per Si atom -5571.154147 kJ/mol
# Density = 2.508431 g / cm^3
# Si number density = 25.141529 Si / 1000 Ang^3
#
#
#
# Elastic Constant Matrix: (Units=GPa)
#
#
# Indices 1 2 3 4 5 6 
#
# 1 80.8619 28.7211 8.8844 0.0000 11.8123 0.0000
# 2 28.7211 56.2180 13.6767 0.0000 6.1615 0.0000
# 3 8.8844 13.6767 90.7328 0.0000 12.5943 0.0000
# 4 0.0000 0.0000 0.0000 38.4533 0.0000 4.9814
# 5 11.8123 6.1615 12.5943 0.0000 31.0726 0.0000
# 6 0.0000 0.0000 0.0000 4.9814 0.0000 35.1525
#
#
#
# Elastic Compliance Matrix: (Units=1/GPa)
#
#
# Indices 1 2 3 4 5 6 
#
# 1 0.015699 -0.007578 0.000238 0.000000 -0.004562 0.000000
# 2 -0.007578 0.022337 -0.002554 0.000000 -0.000513 0.000000
# 3 0.000238 -0.002554 0.012000 0.000000 -0.004448 0.000000
# 4 0.000000 0.000000 0.000000 0.026492 0.000000 -0.003754
# 5 -0.004562 -0.000513 -0.004448 0.000000 0.035822 0.000000
# 6 0.000000 0.000000 0.000000 -0.003754 0.000000 0.028980
#
#
# Mechanical properties :
#
#
# Convention : Reuss Voigt Hill
#
# Bulk Modulus (GPa) = 33.05910 36.70859 34.88384
# Shear Modulus (GPa) = 29.20572 32.70437 30.95504
#
# Velocity S-wave (km/s) = 3.41200 3.61059 3.51270
# Velocity P-wave (km/s) = 5.35724 5.65812 5.50973
#
# Compressibility (1/GPa) = 0.03024886
#
# Stress axis : x y z
#
# Youngs Moduli (GPa) = 63.69970 44.76867 83.33047
#
# Poissons Ratio (x) = 0.33927 -0.01986
# Poissons Ratio (y) = 0.48273 0.21280
# Poissons Ratio (z) = -0.01518 0.11433
#
# Static dielectric constant tensor:
#      x y z
#    x 2.423490 0.000000 -0.106050 
#    y 0.000000 2.137020 0.000000 
#    z -0.106050 0.000000 1.994610 
# 
# From -- ./inp_files/37129.got.cif
#   From: 2010.05.17/outbox.cif.g08.bks.cpg/sg9_19_cif.got.tgz:37129.got - 2010.06.03 20:04:27.
