data_PCOD9139993
_publ_section_title
;
Structure prediction by ZEFSAII (Michael W. Deem and Ramdas Pophale) SiO2 
 PCOD9139993
Probable space group: C C
;
_chemical_formula_sum "Si O2"
_cell_formula_units_Z 32
_cell_length_a 9.789473
_cell_length_b 10.100321
_cell_length_c 15.529167
_cell_angle_alpha 90.000000
_cell_angle_beta 110.110438
_cell_angle_gamma 90.000000
_cell_volume 1441.859259
_symmetry_space_group_name_H-M "C C"
_symmetry_group_IT_number 9
_symmetry_cell_setting 'monoclinic'
loop_
_space_group_symop_operation_xyz
x,y,z
x,-y,1/2+z
1/2+x,1/2+y,z
1/2+x,1/2-y,1/2+z
loop_
_atom_site_type_symbol
_atom_site_label
_atom_site_fract_x
_atom_site_fract_y
_atom_site_fract_z
Si Si1 0.774160 0.053072 0.180460
Si Si2 0.573355 0.968673 0.296697
Si Si3 0.153544 0.805695 0.890156
Si Si4 0.965940 0.196074 0.966136
Si Si5 0.189180 0.405918 0.001395
Si Si6 0.270568 0.849738 0.209555
Si Si7 0.556772 0.588068 0.803865
Si Si8 0.003677 0.892271 0.024390
O O1 0.826357 0.204002 0.197705
O O2 0.662594 0.024439 0.234713
O O3 0.914130 0.958270 0.220924
O O4 0.701559 0.023766 0.073053
O O5 0.616968 0.815350 0.320001
O O6 0.399536 0.957048 0.244644
O O7 0.622790 0.041975 0.396138
O O8 0.316837 0.770952 0.952873
O O9 0.044132 0.814043 0.946686
O O10 0.135978 0.951575 0.847930
O O11 0.091559 0.293228 0.022994
O O12 0.996888 0.170354 0.871471
O O13 0.971562 0.048139 0.003053
O O14 0.348294 0.342961 0.022709
O O15 0.178952 0.835758 0.277602
O O16 0.144514 0.885213 0.114592
#
# Coordination Sequence:
#
# PCOD9139993 Si02
#       8
#     4   4   4   4   4   4   4   4
#     4  12  26  47  71 103 143 185 237 293 354 418
#     4  12  25  46  74 103 142 187 238 290 355 420
#     4  11  22  44  74  98 138 182 233 293 354 414
#     4  11  25  45  72 100 139 183 237 289 356 418
#     4  12  26  48  73 104 146 188 233 297 353 419
#     4  12  27  44  71 102 143 184 235 289 355 422
#     4  11  23  45  69 102 137 185 230 292 351 418
#     4  11  26  45  68 104 140 182 235 291 354 419
#
# _framework density 22.193567000000002
#
# number of rings (size 3 to 8) (size 9 to 14) (size 15 to 20)
#    0.000    0.500    5.000    3.000    3.500    2.000 
#    4.500    0.000    0.000    0.000    0.000    0.000 
#    0.000    0.000    0.000    0.000    0.000    0.000 
#
# Total GULP energy -89455.245400 kJ/mol
# GULP energy per Si atom -5590.952837 kJ/mol
# Density = 2.214305 g / cm^3
# Si number density = 22.193567 Si / 1000 Ang^3
#
#
#
# Elastic Constant Matrix: (Units=GPa)
#
#
# Indices 1 2 3 4 5 6 
#
# 1 110.2212 22.7977 8.8204 0.0000 17.5062 0.0000
# 2 22.7977 62.0634 7.4161 0.0000 2.0261 0.0000
# 3 8.8204 7.4161 62.4716 0.0000 4.2507 0.0000
# 4 0.0000 0.0000 0.0000 21.4381 0.0000 6.0624
# 5 17.5062 2.0261 4.2507 0.0000 36.0698 0.0000
# 6 0.0000 0.0000 0.0000 6.0624 0.0000 34.7251
#
#
#
# Elastic Compliance Matrix: (Units=1/GPa)
#
#
# Indices 1 2 3 4 5 6 
#
# 1 0.010667 -0.003671 -0.000738 0.000000 -0.004884 0.000000
# 2 -0.003671 0.017625 -0.001641 0.000000 0.000985 0.000000
# 3 -0.000738 -0.001641 0.016407 0.000000 -0.001483 0.000000
# 4 0.000000 0.000000 0.000000 0.049068 0.000000 -0.008567
# 5 -0.004884 0.000985 -0.001483 0.000000 0.030214 0.000000
# 6 0.000000 0.000000 0.000000 -0.008567 0.000000 0.030293
#
#
# Mechanical properties :
#
#
# Convention : Reuss Voigt Hill
#
# Bulk Modulus (GPa) = 30.67531 34.75828 32.71679
# Shear Modulus (GPa) = 28.21041 31.49474 29.85258
#
# Velocity S-wave (km/s) = 3.56913 3.77117 3.67154
# Velocity P-wave (km/s) = 5.55307 5.88708 5.72251
#
# Compressibility (1/GPa) = 0.03259951
#
# Stress axis : x y z
#
# Youngs Moduli (GPa) = 93.75058 56.73830 60.94885
#
# Poissons Ratio (x) = 0.20826 0.04498
# Poissons Ratio (y) = 0.34411 0.10002
# Poissons Ratio (z) = 0.06919 0.09311
#
# Static dielectric constant tensor:
#      x y z
#    x 1.823330 0.000000 0.006040 
#    y 0.000000 1.773680 0.000000 
#    z 0.006040 0.000000 1.868520 
# 
# From -- ./inp_files/22913.got.cif
#   From: 2010.05.17/outbox.cif.g08.bks.cpg/sg9_12_cif.got.tgz:22913.got - 2010.06.03 20:04:27.
