data_PCOD9139148
_publ_section_title
;
Structure prediction by ZEFSAII (Michael W. Deem and Ramdas Pophale) SiO2 
 PCOD9139148
Probable space group: C C
;
_chemical_formula_sum "Si O2"
_cell_formula_units_Z 32
_cell_length_a 11.041696
_cell_length_b 23.884666
_cell_length_c 5.567881
_cell_angle_alpha 90.000000
_cell_angle_beta 121.162476
_cell_angle_gamma 90.000000
_cell_volume 1256.516313
_symmetry_space_group_name_H-M "C C"
_symmetry_group_IT_number 9
_symmetry_cell_setting 'monoclinic'
loop_
_space_group_symop_operation_xyz
x,y,z
x,-y,1/2+z
1/2+x,1/2+y,z
1/2+x,1/2-y,1/2+z
loop_
_atom_site_type_symbol
_atom_site_label
_atom_site_fract_x
_atom_site_fract_y
_atom_site_fract_z
Si Si1 0.417910 0.971553 0.977200
Si Si2 0.640754 0.372202 0.036961
Si Si3 0.897348 0.133437 0.915507
Si Si4 0.512412 0.269388 0.188697
Si Si5 0.600806 0.488546 0.187141
Si Si6 0.194871 0.536218 0.579564
Si Si7 0.365878 0.799641 0.169231
Si Si8 0.667193 0.788129 0.236897
O O1 0.245365 0.974320 0.804702
O O2 0.445222 0.018115 0.789179
O O3 0.541758 0.932561 0.988897
O O4 0.590977 0.312851 0.093873
O O5 0.636519 0.422681 0.219794
O O6 0.801920 0.361265 0.126863
O O7 0.529804 0.384020 0.711589
O O8 0.949264 0.186123 0.812280
O O9 0.817308 0.083054 0.703452
O O10 0.769511 0.162410 0.927706
O O11 0.615775 0.223538 0.412815
O O12 0.388328 0.234773 0.936041
O O13 0.525613 0.502448 0.356674
O O14 0.204043 0.503994 0.329820
O O15 0.520240 0.796022 0.219091
O O16 0.254187 0.767522 0.889395
#
# Coordination Sequence:
#
# PCOD9139148 Si02
#       8
#     4   4   4   4   4   4   4   4
#     4   8  16  38  64  88 136 172 224 300 348 408
#     4  12  27  45  74 106 144 198 243 298 379 441
#     4  12  27  45  74 106 144 198 243 298 379 441
#     4  12  24  46  72 102 154 186 246 304 368 450
#     4  10  24  45  70 103 146 189 247 306 364 439
#     4  10  24  45  70 103 146 189 247 306 364 439
#     4  12  24  46  71 105 147 187 242 305 367 443
#     4  12  24  46  71 105 147 187 242 305 367 443
#
# _framework density 25.46724
#
# number of rings (size 3 to 8) (size 9 to 14) (size 15 to 20)
#    0.000    1.000    5.000    0.750    3.500    4.000 
#    6.750    0.000    0.000    0.000    0.000    0.000 
#    0.000    0.000    0.000    0.000    0.000    0.000 
#
# Total GULP energy -89214.024833 kJ/mol
# GULP energy per Si atom -5575.876552 kJ/mol
# Density = 2.540928 g / cm^3
# Si number density = 25.467240 Si / 1000 Ang^3
#
#
#
# Elastic Constant Matrix: (Units=GPa)
#
#
# Indices 1 2 3 4 5 6 
#
# 1 103.9167 8.9546 23.6943 0.0000 19.7316 0.0000
# 2 8.9546 77.8703 20.1177 0.0000 8.2338 0.0000
# 3 23.6943 20.1177 126.7138 0.0000 -3.1254 0.0000
# 4 0.0000 0.0000 0.0000 40.2878 0.0000 6.4674
# 5 19.7316 8.2338 -3.1254 0.0000 41.2945 0.0000
# 6 0.0000 0.0000 0.0000 6.4674 0.0000 34.8896
#
#
#
# Elastic Compliance Matrix: (Units=1/GPa)
#
#
# Indices 1 2 3 4 5 6 
#
# 1 0.011178 -0.000137 -0.002204 0.000000 -0.005481 0.000000
# 2 -0.000137 0.013733 -0.002225 0.000000 -0.002841 0.000000
# 3 -0.002204 -0.002225 0.008710 0.000000 0.002156 0.000000
# 4 0.000000 0.000000 0.000000 0.025583 0.000000 -0.004742
# 5 -0.005481 -0.002841 0.002156 0.000000 0.027565 0.000000
# 6 0.000000 0.000000 0.000000 -0.004742 0.000000 0.029541
#
#
# Mechanical properties :
#
#
# Convention : Reuss Voigt Hill
#
# Bulk Modulus (GPa) = 40.83150 46.00379 43.41765
# Shear Modulus (GPa) = 37.42426 40.34334 38.88380
#
# Velocity S-wave (km/s) = 3.83757 3.98443 3.91169
# Velocity P-wave (km/s) = 5.97526 6.26663 6.12268
#
# Compressibility (1/GPa) = 0.02449089
#
# Stress axis : x y z
#
# Youngs Moduli (GPa) = 89.46145 72.81842 114.80704
#
# Poissons Ratio (x) = 0.00994 0.25300
# Poissons Ratio (y) = 0.01222 0.25543
# Poissons Ratio (z) = 0.19714 0.16201
#
# Static dielectric constant tensor:
#      x y z
#    x 2.204020 0.000000 -0.021410 
#    y 0.000000 2.047210 0.000000 
#    z -0.021410 0.000000 2.060780 
# 
# From -- ./inp_files/2203.got.cif
#   From: 2010.05.17/outbox.cif.g08.bks.cpg/sg9_2_cif.got.tgz:2203.got - 2010.06.03 20:04:27.
