data_PCOD9139395
_publ_section_title
;
Structure prediction by ZEFSAII (Michael W. Deem and Ramdas Pophale) SiO2 
 PCOD9139395
Probable space group: C C
;
_chemical_formula_sum "Si O2"
_cell_formula_units_Z 24
_cell_length_a 17.805990
_cell_length_b 6.060624
_cell_length_c 11.747649
_cell_angle_alpha 90.000000
_cell_angle_beta 51.003229
_cell_angle_gamma 90.000000
_cell_volume 985.273590
_symmetry_space_group_name_H-M "C C"
_symmetry_group_IT_number 9
_symmetry_cell_setting 'monoclinic'
loop_
_space_group_symop_operation_xyz
x,y,z
x,-y,1/2+z
1/2+x,1/2+y,z
1/2+x,1/2-y,1/2+z
loop_
_atom_site_type_symbol
_atom_site_label
_atom_site_fract_x
_atom_site_fract_y
_atom_site_fract_z
Si Si1 0.792660 0.659547 0.474940
Si Si2 0.059800 0.136355 0.368312
Si Si3 0.895582 0.476907 0.565435
Si Si4 0.490308 0.731929 0.796948
Si Si5 0.166188 0.460995 0.112405
Si Si6 0.208251 0.112696 0.881432
O O1 0.826097 0.452047 0.519321
O O2 0.709971 0.584069 0.471063
O O3 0.890690 0.745664 0.324518
O O4 0.747170 0.869270 0.580232
O O5 0.136579 0.309732 0.246565
O O6 0.969317 0.272037 0.508535
O O7 0.021741 0.014262 0.290795
O O8 0.121551 0.955962 0.380237
O O9 0.816741 0.577492 0.727135
O O10 0.959848 0.676544 0.452360
O O11 0.569328 0.900130 0.677820
O O12 0.195486 0.331749 0.969308
#
# Coordination Sequence:
#
# PCOD9139395 Si02
#       6
#     4   4   4   4   4   4
#     4  10  25  44  66 102 139 191 238 291 361 427
#     4  11  25  47  73 100 145 192 240 300 367 424
#     4   9  24  46  70 102 144 187 238 294 368 429
#     4   9  23  45  68  97 141 190 230 288 365 422
#     4  11  24  44  73 100 150 186 243 298 360 431
#     4  12  25  40  74 109 135 186 247 299 351 431
#
# _framework density 24.358716999999999
#
# number of rings (size 3 to 8) (size 9 to 14) (size 15 to 20)
#    1.000    0.667    0.000    3.000    4.667    9.333 
#    0.000    0.000    0.000    0.000    0.000    0.000 
#    0.000    0.000    0.000    0.000    0.000    0.000 
#
# Total GULP energy -66808.798829 kJ/mol
# GULP energy per Si atom -5567.399902 kJ/mol
# Density = 2.430328 g / cm^3
# Si number density = 24.358717 Si / 1000 Ang^3
#
#
#
# Elastic Constant Matrix: (Units=GPa)
#
#
# Indices 1 2 3 4 5 6 
#
# 1 66.1520 18.2968 16.7734 0.0002 -31.0581 0.0000
# 2 18.2968 74.8816 54.3530 -0.0011 -23.1591 0.0006
# 3 16.7734 54.3530 166.2704 -0.0003 -28.9790 0.0001
# 4 0.0002 -0.0011 -0.0003 43.6733 0.0002 -9.1438
# 5 -31.0581 -23.1591 -28.9790 0.0002 30.7150 0.0001
# 6 0.0000 0.0006 0.0001 -9.1438 0.0001 28.0200
#
#
#
# Elastic Compliance Matrix: (Units=1/GPa)
#
#
# Indices 1 2 3 4 5 6 
#
# 1 0.029832 0.001311 0.002384 0.000000 0.033403 0.000000
# 2 0.001311 0.020132 -0.004592 0.000000 0.012173 0.000000
# 3 0.002384 -0.004592 0.008487 0.000000 0.006956 0.000000
# 4 0.000000 0.000000 0.000000 0.024576 0.000000 0.008020
# 5 0.033403 0.012173 0.006956 0.000000 0.082075 -0.000001
# 6 0.000000 0.000000 0.000000 0.008020 -0.000001 0.038306
#
#
# Mechanical properties :
#
#
# Convention : Reuss Voigt Hill
#
# Bulk Modulus (GPa) = 17.64982 54.01671 35.83327
# Shear Modulus (GPa) = 22.31269 35.00703 28.65986
#
# Velocity S-wave (km/s) = 3.02984 3.79508 3.43385
# Velocity P-wave (km/s) = 4.41604 6.43640 5.51945
#
# Compressibility (1/GPa) = 0.05665779
#
# Stress axis : x y z
#
# Youngs Moduli (GPa) = 33.52071 49.67290 117.82585
#
# Poissons Ratio (x) = -0.06514 -0.28086
# Poissons Ratio (y) = -0.04396 0.54101
# Poissons Ratio (z) = -0.07990 0.22808
#
# Static dielectric constant tensor:
#      x y z
#    x 1.961490 0.000000 0.046170 
#    y 0.000000 1.923470 0.000000 
#    z 0.046170 0.000000 2.047620 
# 
# From -- ./inp_files/26228.got.cif
#   From: 2010.05.17/outbox.cif.g08.bks.cpg/sg9_14_cif.got.tgz:26228.got - 2010.06.03 20:04:27.
