data_PCOD9139958
_publ_section_title
;
Structure prediction by ZEFSAII (Michael W. Deem and Ramdas Pophale) SiO2 
 PCOD9139958
Probable space group: C C
;
_chemical_formula_sum "Si O2"
_cell_formula_units_Z 28
_cell_length_a 12.933039
_cell_length_b 12.681066
_cell_length_c 16.265990
_cell_angle_alpha 90.000000
_cell_angle_beta 153.521992
_cell_angle_gamma 90.000000
_cell_volume 1189.405072
_symmetry_space_group_name_H-M "C C"
_symmetry_group_IT_number 9
_symmetry_cell_setting 'monoclinic'
loop_
_space_group_symop_operation_xyz
x,y,z
x,-y,1/2+z
1/2+x,1/2+y,z
1/2+x,1/2-y,1/2+z
loop_
_atom_site_type_symbol
_atom_site_label
_atom_site_fract_x
_atom_site_fract_y
_atom_site_fract_z
Si Si1 0.209170 0.168351 0.090910
Si Si2 0.564983 0.618730 0.412959
Si Si3 0.695380 0.156778 0.724279
Si Si4 0.056434 0.560168 0.062586
Si Si5 0.548872 0.829807 0.297744
Si Si6 0.626496 0.400044 0.356637
Si Si7 0.149803 0.528222 0.451575
O O1 0.202668 0.264751 0.151536
O O2 0.436123 0.100293 0.271363
O O3 0.189046 0.177216 0.977210
O O4 0.956754 0.117424 0.927460
O O5 0.304854 0.610518 0.262584
O O6 0.580146 0.726579 0.373003
O O7 0.787997 0.628722 0.629074
O O8 0.615234 0.515825 0.392590
O O9 0.594802 0.203231 0.736208
O O10 0.547793 0.056083 0.595486
O O11 0.074501 0.537510 0.978959
O O12 0.827707 0.614725 0.933245
O O13 0.703298 0.933464 0.426168
O O14 0.373488 0.401504 0.134400
#
# Coordination Sequence:
#
# PCOD9139958 Si02
#       7
#     4   4   4   4   4   4   4
#     4  12  25  45  67 109 149 178 239 302 358 427
#     4  11  22  43  70 104 144 179 242 300 351 429
#     4  12  24  41  76 108 138 191 241 302 357 417
#     4  11  23  45  71 102 142 188 239 288 366 429
#     4  12  24  44  74 109 141 187 242 306 356 421
#     4  11  24  47  67 102 148 188 234 294 362 430
#     4  11  24  45  71 106 146 187 233 306 360 429
#
# _framework density 23.541179
#
# number of rings (size 3 to 8) (size 9 to 14) (size 15 to 20)
#    0.000    0.571    5.714    3.429    4.000    0.000 
#    2.571    2.857    0.000    0.000    0.000    0.000 
#    0.000    0.000    0.000    0.000    0.000    0.000 
#
# Total GULP energy -78182.578392 kJ/mol
# GULP energy per Si atom -5584.469885 kJ/mol
# Density = 2.348760 g / cm^3
# Si number density = 23.541179 Si / 1000 Ang^3
#
#
#
# Elastic Constant Matrix: (Units=GPa)
#
#
# Indices 1 2 3 4 5 6 
#
# 1 125.8913 18.3450 54.1112 0.0002 23.5384 -0.0036
# 2 18.3450 99.2559 39.5244 0.0220 -5.4777 0.0035
# 3 54.1112 39.5244 136.8998 0.0089 5.5910 0.0023
# 4 0.0002 0.0220 0.0089 36.3411 0.0021 -8.7574
# 5 23.5384 -5.4777 5.5910 0.0021 31.9636 -0.0012
# 6 -0.0036 0.0035 0.0023 -8.7574 -0.0012 19.0223
#
#
#
# Elastic Compliance Matrix: (Units=1/GPa)
#
#
# Indices 1 2 3 4 5 6 
#
# 1 0.011171 -0.000970 -0.003820 0.000003 -0.007724 0.000004
# 2 -0.000970 0.011677 -0.003121 -0.000008 0.003261 -0.000005
# 3 -0.003820 -0.003121 0.009692 -0.000001 0.000583 -0.000002
# 4 0.000003 -0.000008 -0.000001 0.030951 -0.000005 0.014249
# 5 -0.007724 0.003261 0.000583 -0.000005 0.037431 -0.000002
# 6 0.000004 -0.000005 -0.000002 0.014249 -0.000002 0.059130
#
#
# Mechanical properties :
#
#
# Convention : Reuss Voigt Hill
#
# Bulk Modulus (GPa) = 59.81617 65.11201 62.46409
# Shear Modulus (GPa) = 27.55645 34.13647 30.84646
#
# Velocity S-wave (km/s) = 3.42506 3.81212 3.62376
# Velocity P-wave (km/s) = 6.41137 6.86259 6.64081
#
# Compressibility (1/GPa) = 0.01671789
#
# Stress axis : x y z
#
# Youngs Moduli (GPa) = 89.51871 85.63797 103.18008
#
# Poissons Ratio (x) = 0.08305 0.39414
# Poissons Ratio (y) = 0.08682 0.32204
# Poissons Ratio (z) = 0.34196 0.26729
#
# Static dielectric constant tensor:
#      x y z
#    x 1.939720 -0.000010 0.000070 
#    y -0.000010 1.934810 -0.000010 
#    z 0.000070 -0.000010 1.947250 
# 
# From -- ./inp_files/24948.got.cif
#   From: 2010.05.17/outbox.cif.g08.bks.cpg/sg9_13_cif.got.tgz:24948.got - 2010.06.03 20:04:27.
