data_PCOD9139326
_publ_section_title
;
Structure prediction by ZEFSAII (Michael W. Deem and Ramdas Pophale) SiO2 
 PCOD9139326
Probable space group: C C
;
_chemical_formula_sum "Si O2"
_cell_formula_units_Z 28
_cell_length_a 11.739994
_cell_length_b 7.085603
_cell_length_c 13.404623
_cell_angle_alpha 90.000000
_cell_angle_beta 62.827074
_cell_angle_gamma 90.000000
_cell_volume 991.995771
_symmetry_space_group_name_H-M "C C"
_symmetry_group_IT_number 9
_symmetry_cell_setting 'monoclinic'
loop_
_space_group_symop_operation_xyz
x,y,z
x,-y,1/2+z
1/2+x,1/2+y,z
1/2+x,1/2-y,1/2+z
loop_
_atom_site_type_symbol
_atom_site_label
_atom_site_fract_x
_atom_site_fract_y
_atom_site_fract_z
Si Si1 0.044720 0.885899 0.482960
Si Si2 0.187601 0.593591 0.057745
Si Si3 0.936382 0.947922 0.329072
Si Si4 0.302644 0.172923 0.237226
Si Si5 0.281002 0.977947 0.525466
Si Si6 0.981820 0.664286 0.699817
Si Si7 0.532593 0.202188 0.939615
O O1 0.181163 0.902298 0.483462
O O2 0.972858 0.758055 0.591901
O O3 0.032949 0.843259 0.368821
O O4 0.985228 0.095428 0.499472
O O5 0.114236 0.456597 0.163426
O O6 0.233233 0.806942 0.064302
O O7 0.306655 0.521825 0.944664
O O8 0.073902 0.600188 0.023424
O O9 0.901231 0.822440 0.247499
O O10 0.979523 0.151426 0.271985
O O11 0.280590 0.133771 0.129717
O O12 0.361298 0.975324 0.252520
O O13 0.167636 0.239638 0.336606
O O14 0.426491 0.932580 0.433508
#
# Coordination Sequence:
#
# PCOD9139326 Si02
#       7
#     4   4   4   4   4   4   4
#     4  11  28  49  86 130 188 238 299 394 455 541
#     4  10  25  51  87 130 180 245 302 390 455 542
#     4  11  28  54  84 141 180 240 319 379 469 548
#     4  11  26  53  91 131 175 246 314 378 455 559
#     4  11  24  54  87 125 186 242 310 380 461 544
#     4  12  27  52  90 134 182 247 311 380 463 552
#     4  10  24  49  87 125 179 238 301 377 454 540
#
# _framework density 28.225929000000001
#
# number of rings (size 3 to 8) (size 9 to 14) (size 15 to 20)
#    0.000    1.143    1.429    1.714    8.000    2.286 
#    5.143    0.000    0.000    0.000    0.000    0.000 
#    0.000    0.000    0.000    0.000    0.000    0.000 
#
# Total GULP energy -78289.395331 kJ/mol
# GULP energy per Si atom -5592.099667 kJ/mol
# Density = 2.816169 g / cm^3
# Si number density = 28.225929 Si / 1000 Ang^3
#
#
#
# Elastic Constant Matrix: (Units=GPa)
#
#
# Indices 1 2 3 4 5 6 
#
# 1 210.5782 112.6016 73.5279 0.0000 29.0964 0.0000
# 2 112.6016 121.4293 68.2718 0.0000 2.9209 0.0000
# 3 73.5279 68.2718 152.7452 0.0000 3.4411 0.0000
# 4 0.0000 0.0000 0.0000 58.8707 0.0000 0.0084
# 5 29.0964 2.9209 3.4411 0.0000 48.0902 0.0000
# 6 0.0000 0.0000 0.0000 0.0084 0.0000 58.2850
#
#
#
# Elastic Compliance Matrix: (Units=1/GPa)
#
#
# Indices 1 2 3 4 5 6 
#
# 1 0.010999 -0.009555 -0.000888 0.000000 -0.006011 0.000000
# 2 -0.009555 0.019306 -0.004140 0.000000 0.004905 0.000000
# 3 -0.000888 -0.004140 0.008821 0.000000 0.000158 0.000000
# 4 0.000000 0.000000 0.000000 0.016986 0.000000 -0.000002
# 5 -0.006011 0.004905 0.000158 0.000000 0.024122 0.000000
# 6 0.000000 0.000000 0.000000 -0.000002 0.000000 0.017157
#
#
# Mechanical properties :
#
#
# Convention : Reuss Voigt Hill
#
# Bulk Modulus (GPa) = 100.41201 110.39504 105.40352
# Shear Modulus (GPa) = 38.49776 48.40595 43.45186
#
# Velocity S-wave (km/s) = 3.69713 4.14568 3.92781
# Velocity P-wave (km/s) = 7.34007 7.88110 7.61539
#
# Compressibility (1/GPa) = 0.00995897
#
# Stress axis : x y z
#
# Youngs Moduli (GPa) = 90.91630 51.79867 113.36341
#
# Poissons Ratio (x) = 0.49496 0.10070
# Poissons Ratio (y) = 0.86875 0.46928
# Poissons Ratio (z) = 0.08076 0.21443
#
# Static dielectric constant tensor:
#      x y z
#    x 2.299060 0.000000 0.037270 
#    y 0.000000 2.229670 0.000000 
#    z 0.037270 0.000000 2.423010 
# 
# From -- ./inp_files/24068.got.cif
#   From: 2010.05.17/outbox.cif.g08.bks.cpg/sg9_13_cif.got.tgz:24068.got - 2010.06.03 20:04:27.
