data_PCOD9139587
_publ_section_title
;
Structure prediction by ZEFSAII (Michael W. Deem and Ramdas Pophale) SiO2 
 PCOD9139587
Probable space group: C C
;
_chemical_formula_sum "Si O2"
_cell_formula_units_Z 20
_cell_length_a 5.093976
_cell_length_b 31.467644
_cell_length_c 5.235999
_cell_angle_alpha 90.000000
_cell_angle_beta 65.975204
_cell_angle_gamma 90.000000
_cell_volume 766.596992
_symmetry_space_group_name_H-M "C C"
_symmetry_group_IT_number 9
_symmetry_cell_setting 'monoclinic'
loop_
_space_group_symop_operation_xyz
x,y,z
x,-y,1/2+z
1/2+x,1/2+y,z
1/2+x,1/2-y,1/2+z
loop_
_atom_site_type_symbol
_atom_site_label
_atom_site_fract_x
_atom_site_fract_y
_atom_site_fract_z
Si Si1 0.564140 0.875150 0.554230
Si Si2 0.498647 0.257975 0.291117
Si Si3 0.728642 0.988196 0.081742
Si Si4 0.531209 0.569234 0.130306
Si Si5 0.446863 0.822426 0.106045
O O1 0.338901 0.912195 0.570223
O O2 0.579630 0.846407 0.293939
O O3 0.856904 0.895863 0.539208
O O4 0.437598 0.850632 0.852860
O O5 0.159292 0.254554 0.466232
O O6 0.602382 0.220596 0.444402
O O7 0.633982 0.303406 0.304521
O O8 0.557535 0.997488 0.402209
O O9 0.862267 0.942944 0.960945
O O10 0.975515 0.024913 0.002597
#
# Coordination Sequence:
#
# PCOD9139587 Si02
#       5
#     4   4   4   4   4
#     4  12  28  42  73 110 151 184 247 328 383 428
#     4   8  20  48  72 108 144 208 260 308 374 490
#     4   8  20  42  68  96 134 200 236 298 354 476
#     4  10  26  45  68 106 143 192 245 304 378 451
#     4  10  26  45  73 108 146 202 246 320 377 459
#
# _framework density 26.089327000000001
#
# number of rings (size 3 to 8) (size 9 to 14) (size 15 to 20)
#    2.400    0.000    0.000    0.000    8.400    3.200 
#    0.000    0.000    0.000    0.000    0.000    0.000 
#    0.000    0.000    0.000    0.000    0.000    0.000 
#
# Total GULP energy -55779.224189 kJ/mol
# GULP energy per Si atom -5577.922419 kJ/mol
# Density = 2.602995 g / cm^3
# Si number density = 26.089327 Si / 1000 Ang^3
#
#
#
# Elastic Constant Matrix: (Units=GPa)
#
#
# Indices 1 2 3 4 5 6 
#
# 1 89.7011 28.4626 34.6429 0.0000 -6.8896 0.0000
# 2 28.4626 134.6743 30.9431 0.0000 10.3398 0.0000
# 3 34.6429 30.9431 144.1307 0.0000 12.1708 0.0000
# 4 0.0000 0.0000 0.0000 51.0048 0.0000 5.9425
# 5 -6.8896 10.3398 12.1708 0.0000 31.0767 0.0000
# 6 0.0000 0.0000 0.0000 5.9425 0.0000 35.6689
#
#
#
# Elastic Compliance Matrix: (Units=1/GPa)
#
#
# Indices 1 2 3 4 5 6 
#
# 1 0.013556 -0.002533 -0.003143 0.000000 0.005079 0.000000
# 2 -0.002533 0.008407 -0.000944 0.000000 -0.002989 0.000000
# 3 -0.003143 -0.000944 0.008200 0.000000 -0.003594 0.000000
# 4 0.000000 0.000000 0.000000 0.019994 0.000000 -0.003331
# 5 0.005079 -0.002989 -0.003594 0.000000 0.035707 0.000000
# 6 0.000000 0.000000 0.000000 -0.003331 0.000000 0.028591
#
#
# Mechanical properties :
#
#
# Convention : Reuss Voigt Hill
#
# Bulk Modulus (GPa) = 59.09121 61.84482 60.46801
# Shear Modulus (GPa) = 37.49968 41.84724 39.67346
#
# Velocity S-wave (km/s) = 3.79536 4.00934 3.90382
# Velocity P-wave (km/s) = 6.47342 6.72232 6.59904
#
# Compressibility (1/GPa) = 0.01692299
#
# Stress axis : x y z
#
# Youngs Moduli (GPa) = 73.76886 118.94993 121.95423
#
# Poissons Ratio (x) = 0.30126 0.38335
# Poissons Ratio (y) = 0.18683 0.11509
# Poissons Ratio (z) = 0.23189 0.11225
#
# Static dielectric constant tensor:
#      x y z
#    x 1.980880 0.000000 -0.002770 
#    y 0.000000 2.093750 0.000000 
#    z -0.002770 0.000000 2.215530 
# 
# From -- ./inp_files/321.got.cif
#   From: 2010.05.17/outbox.cif.g08.bks.cpg/sg9_1_cif.got.tgz:321.got - 2010.06.03 20:04:27.
