data_PCOD9139257
_publ_section_title
;
Structure prediction by ZEFSAII (Michael W. Deem and Ramdas Pophale) SiO2 
 PCOD9139257
Probable space group: C C
;
_chemical_formula_sum "Si O2"
_cell_formula_units_Z 28
_cell_length_a 22.003661
_cell_length_b 9.019449
_cell_length_c 11.469955
_cell_angle_alpha 90.000000
_cell_angle_beta 150.183088
_cell_angle_gamma 90.000000
_cell_volume 1131.863508
_symmetry_space_group_name_H-M "C C"
_symmetry_group_IT_number 9
_symmetry_cell_setting 'monoclinic'
loop_
_space_group_symop_operation_xyz
x,y,z
x,-y,1/2+z
1/2+x,1/2+y,z
1/2+x,1/2-y,1/2+z
loop_
_atom_site_type_symbol
_atom_site_label
_atom_site_fract_x
_atom_site_fract_y
_atom_site_fract_z
Si Si1 0.224700 0.817937 0.500000
Si Si2 0.607368 0.510873 0.610109
Si Si3 0.304543 0.701986 0.858193
Si Si4 0.568254 0.759951 0.188707
Si Si5 0.444379 0.758013 0.310853
Si Si6 0.773966 0.610016 0.684073
Si Si7 0.172483 0.553783 0.254317
O O1 0.119602 0.903788 0.254430
O O2 0.206274 0.757395 0.598891
O O3 0.244603 0.675530 0.451485
O O4 0.308855 0.961829 0.667446
O O5 0.587658 0.340960 0.606454
O O6 0.490090 0.591696 0.362137
O O7 0.725794 0.556332 0.729544
O O8 0.262035 0.537672 0.820492
O O9 0.431289 0.726108 0.000499
O O10 0.339961 0.782691 0.039726
O O11 0.658929 0.694108 0.436537
O O12 0.607029 0.927948 0.225342
O O13 0.386025 0.783078 0.341581
O O14 0.563846 0.861770 0.504768
#
# Coordination Sequence:
#
# PCOD9139257 Si02
#       7
#     4   4   4   4   4   4   4
#     4  10  26  43  72 107 142 196 254 306 386 456
#     4  10  24  47  70 107 146 202 254 314 390 460
#     4  12  25  45  74 107 153 194 252 327 378 458
#     4  11  24  42  74 107 148 198 254 317 385 458
#     4  11  25  46  74 109 146 208 253 315 393 454
#     4  11  22  47  73 103 153 196 255 320 381 470
#     4  11  26  48  71 112 152 198 264 307 393 466
#
# _framework density 24.737966
#
# number of rings (size 3 to 8) (size 9 to 14) (size 15 to 20)
#    0.000    1.143    2.857    1.714    6.000    2.286 
#    0.000    2.857    0.000    0.000    0.000    0.000 
#    0.000    0.000    0.000    0.000    0.000    0.000 
#
# Total GULP energy -78057.709949 kJ/mol
# GULP energy per Si atom -5575.550711 kJ/mol
# Density = 2.468166 g / cm^3
# Si number density = 24.737966 Si / 1000 Ang^3
#
#
#
# Elastic Constant Matrix: (Units=GPa)
#
#
# Indices 1 2 3 4 5 6 
#
# 1 106.8669 20.4322 21.5812 0.0000 7.1042 0.0000
# 2 20.4322 111.2827 21.4673 0.0000 -9.3962 0.0000
# 3 21.5812 21.4673 79.0590 0.0000 -5.3825 0.0000
# 4 0.0000 0.0000 0.0000 38.7522 0.0000 -7.8480
# 5 7.1042 -9.3962 -5.3825 0.0000 37.6512 0.0000
# 6 0.0000 0.0000 0.0000 -7.8480 0.0000 52.9895
#
#
#
# Elastic Compliance Matrix: (Units=1/GPa)
#
#
# Indices 1 2 3 4 5 6 
#
# 1 0.010372 -0.001639 -0.002572 0.000000 -0.002734 0.000000
# 2 -0.001639 0.009896 -0.002071 0.000000 0.002483 0.000000
# 3 -0.002572 -0.002071 0.014048 0.000000 0.001977 0.000000
# 4 0.000000 0.000000 0.000000 0.026603 0.000000 0.003940
# 5 -0.002734 0.002483 0.001977 0.000000 0.027978 0.000000
# 6 0.000000 0.000000 0.000000 0.003940 0.000000 0.019455
#
#
# Mechanical properties :
#
#
# Convention : Reuss Voigt Hill
#
# Bulk Modulus (GPa) = 45.97309 47.13000 46.55154
# Shear Modulus (GPa) = 39.01175 41.46043 40.23609
#
# Velocity S-wave (km/s) = 3.97545 4.09832 4.03735
# Velocity P-wave (km/s) = 6.30053 6.44112 6.37121
#
# Compressibility (1/GPa) = 0.02175186
#
# Stress axis : x y z
#
# Youngs Moduli (GPa) = 96.41341 101.04942 71.18532
#
# Poissons Ratio (x) = 0.16562 0.18312
# Poissons Ratio (y) = 0.15802 0.14741
# Poissons Ratio (z) = 0.24801 0.20925
#
# Static dielectric constant tensor:
#      x y z
#    x 2.016430 0.000000 -0.008080 
#    y 0.000000 2.060360 0.000000 
#    z -0.008080 0.000000 1.996700 
# 
# From -- ./inp_files/20776.got.cif
#   From: 2010.05.17/outbox.cif.g08.bks.cpg/sg9_11_cif.got.tgz:20776.got - 2010.06.03 20:04:27.
