data_PCOD9139056
_publ_section_title
;
Structure prediction by ZEFSAII (Michael W. Deem and Ramdas Pophale) SiO2 
 PCOD9139056
Probable space group: C C
;
_chemical_formula_sum "Si O2"
_cell_formula_units_Z 32
_cell_length_a 9.706855
_cell_length_b 11.718659
_cell_length_c 10.472219
_cell_angle_alpha 90.000000
_cell_angle_beta 88.442651
_cell_angle_gamma 90.000000
_cell_volume 1190.788761
_symmetry_space_group_name_H-M "C C"
_symmetry_group_IT_number 9
_symmetry_cell_setting 'monoclinic'
loop_
_space_group_symop_operation_xyz
x,y,z
x,-y,1/2+z
1/2+x,1/2+y,z
1/2+x,1/2-y,1/2+z
loop_
_atom_site_type_symbol
_atom_site_label
_atom_site_fract_x
_atom_site_fract_y
_atom_site_fract_z
Si Si1 0.704280 0.014964 0.871350
Si Si2 0.555871 0.565901 0.618055
Si Si3 0.512170 0.692216 0.144594
Si Si4 0.186625 0.216190 0.389871
Si Si5 0.718686 0.783480 0.934992
Si Si6 0.821073 0.365983 0.241892
Si Si7 0.460914 0.772552 0.747085
Si Si8 0.555961 0.980943 0.621727
O O1 0.720915 0.147698 0.905477
O O2 0.795079 0.905666 0.915414
O O3 0.680181 0.996538 0.721207
O O4 0.580455 0.985778 0.975491
O O5 0.507486 0.437542 0.595517
O O6 0.629548 0.636334 0.503225
O O7 0.682813 0.565286 0.715215
O O8 0.443285 0.646424 0.689874
O O9 0.571368 0.702782 0.284584
O O10 0.363354 0.754562 0.153214
O O11 0.634023 0.756221 0.063548
O O12 0.333033 0.178180 0.327346
O O13 0.814383 0.680132 0.885937
O O14 0.596514 0.775573 0.831678
O O15 0.944049 0.445494 0.198056
O O16 0.501214 0.853004 0.629530
#
# Coordination Sequence:
#
# PCOD9139056 Si02
#       8
#     4   4   4   4   4   4   4   4
#     4  11  22  44  68 100 137 177 238 292 351 431
#     4  11  27  45  68 103 145 184 239 297 368 434
#     4  12  26  46  69 107 142 185 247 295 365 443
#     4  12  25  44  69 101 136 183 239 301 353 439
#     4  10  24  44  68 100 137 185 232 288 370 434
#     4  11  24  46  71  99 142 191 228 304 366 421
#     4  10  24  44  68  99 134 187 231 293 365 426
#     4  11  22  43  69  97 137 182 238 286 352 440
#
# _framework density 26.872942999999999
#
# number of rings (size 3 to 8) (size 9 to 14) (size 15 to 20)
#    0.000    1.000    3.750    1.500    8.750    2.000 
#    0.000    1.250    0.000    0.000    0.000    0.000 
#    0.000    0.000    0.000    0.000    0.000    0.000 
#
# Total GULP energy -89408.930798 kJ/mol
# GULP energy per Si atom -5588.058175 kJ/mol
# Density = 2.681178 g / cm^3
# Si number density = 26.872943 Si / 1000 Ang^3
#
#
#
# Elastic Constant Matrix: (Units=GPa)
#
#
# Indices 1 2 3 4 5 6 
#
# 1 67.7879 8.2652 22.2397 0.0000 -19.3630 0.0000
# 2 8.2652 130.8104 1.1334 0.0000 6.6670 0.0000
# 3 22.2397 1.1334 71.6623 0.0000 -4.0241 0.0000
# 4 0.0000 0.0000 0.0000 31.4762 0.0000 -9.9141
# 5 -19.3630 6.6670 -4.0241 0.0000 39.4958 0.0000
# 6 0.0000 0.0000 0.0000 -9.9141 0.0000 37.5467
#
#
#
# Elastic Compliance Matrix: (Units=1/GPa)
#
#
# Indices 1 2 3 4 5 6 
#
# 1 0.019382 -0.001647 -0.005471 0.000000 0.009223 0.000000
# 2 -0.001647 0.007854 0.000269 0.000000 -0.002106 0.000000
# 3 -0.005471 0.000269 0.015584 0.000000 -0.001140 0.000000
# 4 0.000000 0.000000 0.000000 0.034652 0.000000 0.009150
# 5 0.009223 -0.002106 -0.001140 0.000000 0.030080 0.000000
# 6 0.000000 0.000000 0.000000 0.009150 0.000000 0.029049
#
#
# Mechanical properties :
#
#
# Convention : Reuss Voigt Hill
#
# Bulk Modulus (GPa) = 34.34006 37.05971 35.69989
# Shear Modulus (GPa) = 31.24856 37.61191 34.43024
#
# Velocity S-wave (km/s) = 3.41372 3.74521 3.58330
# Velocity P-wave (km/s) = 5.32395 5.70287 5.51667
#
# Compressibility (1/GPa) = 0.02912051
#
# Stress axis : x y z
#
# Youngs Moduli (GPa) = 51.59397 127.32784 64.16839
#
# Poissons Ratio (x) = 0.20975 0.35107
# Poissons Ratio (y) = 0.08499 -0.01725
# Poissons Ratio (z) = 0.28228 -0.03422
#
# Static dielectric constant tensor:
#      x y z
#    x 2.139720 0.000000 0.025110 
#    y 0.000000 2.220560 0.000000 
#    z 0.025110 0.000000 2.073010 
# 
# From -- ./inp_files/16176.got.cif
#   From: 2010.05.17/outbox.cif.g08.bks.cpg/sg9_9_cif.got.tgz:16176.got - 2010.06.03 20:04:27.
