data_PCOD9139591
_publ_section_title
;
Structure prediction by ZEFSAII (Michael W. Deem and Ramdas Pophale) SiO2 
 PCOD9139591
Probable space group: C C
;
_chemical_formula_sum "Si O2"
_cell_formula_units_Z 28
_cell_length_a 21.857646
_cell_length_b 7.234053
_cell_length_c 24.200619
_cell_angle_alpha 90.000000
_cell_angle_beta 17.129003
_cell_angle_gamma 90.000000
_cell_volume 1127.022011
_symmetry_space_group_name_H-M "C C"
_symmetry_group_IT_number 9
_symmetry_cell_setting 'monoclinic'
loop_
_space_group_symop_operation_xyz
x,y,z
x,-y,1/2+z
1/2+x,1/2+y,z
1/2+x,1/2-y,1/2+z
loop_
_atom_site_type_symbol
_atom_site_label
_atom_site_fract_x
_atom_site_fract_y
_atom_site_fract_z
Si Si1 0.886100 0.649949 0.946150
Si Si2 0.637224 0.420968 0.090671
Si Si3 0.739212 0.002532 0.508907
Si Si4 0.567229 0.382716 0.943051
Si Si5 0.469331 0.959536 0.138395
Si Si6 0.243787 0.114792 0.179876
Si Si7 0.872646 0.035429 0.216951
O O1 0.843111 0.534815 0.928330
O O2 0.109196 0.707775 0.776244
O O3 0.782532 0.849055 0.019388
O O4 0.789402 0.530682 0.080600
O O5 0.684387 0.211063 0.066482
O O6 0.450945 0.499105 0.289438
O O7 0.557178 0.455538 0.097430
O O8 0.557197 0.058731 0.624095
O O9 0.620575 0.475944 0.837144
O O10 0.787631 0.392921 0.784571
O O11 0.457542 0.192904 0.020006
O O12 0.408815 0.468010 0.123553
O O13 0.381442 0.756730 0.203362
O O14 0.662724 0.003601 0.931876
#
# Coordination Sequence:
#
# PCOD9139591 Si02
#       7
#     4   4   4   4   4   4   4
#     4  11  22  50  74 101 151 194 255 309 381 448
#     4  11  26  41  73 115 147 188 244 318 389 453
#     4  11  26  41  73 116 146 191 246 315 390 453
#     4  11  26  45  69 105 142 199 266 290 371 454
#     4  11  24  43  73 113 155 194 241 314 398 450
#     4  10  26  45  73  96 141 217 244 303 367 446
#     4  11  24  43  73 112 154 195 240 323 388 458
#
# _framework density 24.844237
#
# number of rings (size 3 to 8) (size 9 to 14) (size 15 to 20)
#    0.000    1.143    4.286    0.000   10.000    0.000 
#    0.000    5.714    0.000    0.000    0.000    0.000 
#    0.000    0.000    0.000    0.000    0.000    0.000 
#
# Total GULP energy -78176.212678 kJ/mol
# GULP energy per Si atom -5584.015191 kJ/mol
# Density = 2.478769 g / cm^3
# Si number density = 24.844237 Si / 1000 Ang^3
#
#
#
# Elastic Constant Matrix: (Units=GPa)
#
#
# Indices 1 2 3 4 5 6 
#
# 1 161.7506 31.4228 56.2640 0.0200 8.7995 -0.0017
# 2 31.4228 86.3565 13.2673 0.0290 -4.3886 -0.0021
# 3 56.2640 13.2673 113.1113 0.0052 2.6252 -0.0006
# 4 0.0200 0.0290 0.0052 20.7837 -0.0073 2.8561
# 5 8.7995 -4.3886 2.6252 -0.0073 53.6233 0.0004
# 6 -0.0017 -0.0021 -0.0006 2.8561 0.0004 32.6859
#
#
#
# Elastic Compliance Matrix: (Units=1/GPa)
#
#
# Indices 1 2 3 4 5 6 
#
# 1 0.007999 -0.002415 -0.003665 -0.000004 -0.001331 0.000001
# 2 -0.002415 0.012579 -0.000308 -0.000015 0.001441 0.000002
# 3 -0.003665 -0.000308 0.010699 0.000001 0.000052 0.000000
# 4 -0.000004 -0.000015 0.000001 0.048700 0.000006 -0.004255
# 5 -0.001331 0.001441 0.000052 0.000006 0.018982 -0.000001
# 6 0.000001 0.000002 0.000000 -0.004255 -0.000001 0.030966
#
#
# Mechanical properties :
#
#
# Convention : Reuss Voigt Hill
#
# Bulk Modulus (GPa) = 54.04849 62.56962 58.30906
# Shear Modulus (GPa) = 33.58726 38.76952 36.17839
#
# Velocity S-wave (km/s) = 3.68083 3.95461 3.82017
# Velocity P-wave (km/s) = 6.31402 6.78906 6.55584
#
# Compressibility (1/GPa) = 0.01850190
#
# Stress axis : x y z
#
# Youngs Moduli (GPa) = 125.02160 79.49637 93.47088
#
# Poissons Ratio (x) = 0.19199 0.34253
# Poissons Ratio (y) = 0.30194 0.02875
# Poissons Ratio (z) = 0.45814 0.02445
#
# Static dielectric constant tensor:
#      x y z
#    x 1.943330 0.000000 0.023570 
#    y 0.000000 1.964210 0.000020 
#    z 0.023570 0.000020 2.043650 
# 
# From -- ./inp_files/35970.got.cif
#   From: 2010.05.17/outbox.cif.g08.bks.cpg/sg9_18_cif.got.tgz:35970.got - 2010.06.03 20:04:27.
