data_PCOD9139553
_publ_section_title
;
Structure prediction by ZEFSAII (Michael W. Deem and Ramdas Pophale) SiO2 
 PCOD9139553
Probable space group: C C
;
_chemical_formula_sum "Si O2"
_cell_formula_units_Z 20
_cell_length_a 9.510506
_cell_length_b 16.427715
_cell_length_c 8.008452
_cell_angle_alpha 90.000000
_cell_angle_beta 148.086731
_cell_angle_gamma 90.000000
_cell_volume 661.432025
_symmetry_space_group_name_H-M "C C"
_symmetry_group_IT_number 9
_symmetry_cell_setting 'monoclinic'
loop_
_space_group_symop_operation_xyz
x,y,z
x,-y,1/2+z
1/2+x,1/2+y,z
1/2+x,1/2-y,1/2+z
loop_
_atom_site_type_symbol
_atom_site_label
_atom_site_fract_x
_atom_site_fract_y
_atom_site_fract_z
Si Si1 0.455280 0.887393 0.866320
Si Si2 0.163437 0.191111 0.809632
Si Si3 0.717879 0.983178 0.833896
Si Si4 0.984422 0.115750 0.304518
Si Si5 0.985648 0.267937 0.166502
O O1 0.189781 0.864599 0.499359
O O2 0.627490 0.923116 0.888155
O O3 0.561042 0.804220 0.059278
O O4 0.487627 0.954956 0.041009
O O5 0.899435 0.243764 0.543564
O O6 0.190296 0.141676 0.663907
O O7 0.792750 0.931063 0.750084
O O8 0.947865 0.044299 0.128837
O O9 0.190335 0.183125 0.376796
O O10 0.267796 0.304921 0.542056
#
# Coordination Sequence:
#
# PCOD9139553 Si02
#       5
#     4   4   4   4   4
#     4  11  25  51  86 123 180 226 296 356 446 520
#     4  12  27  48  82 121 162 220 288 358 413 514
#     4  10  25  52  88 133 176 238 280 368 453 534
#     4  11  25  51  86 123 180 226 296 356 446 520
#     4  12  26  50  84 118 164 232 286 354 420 516
#
# _framework density 30.237421999999999
#
# number of rings (size 3 to 8) (size 9 to 14) (size 15 to 20)
#    0.000    0.800    2.000    3.600    0.000    4.800 
#    3.600    0.000    0.000    0.000    0.000    0.000 
#    0.000    0.000    0.000    0.000    0.000    0.000 
#
# Total GULP energy -55806.656884 kJ/mol
# GULP energy per Si atom -5580.665688 kJ/mol
# Density = 3.016860 g / cm^3
# Si number density = 30.237422 Si / 1000 Ang^3
#
#
#
# Elastic Constant Matrix: (Units=GPa)
#
#
# Indices 1 2 3 4 5 6 
#
# 1 150.4602 77.8432 106.6249 0.0033 15.4720 0.0020
# 2 77.8432 214.1980 99.4092 0.0004 -3.2766 -0.0001
# 3 106.6249 99.4092 230.9695 0.0048 3.4396 0.0036
# 4 0.0033 0.0004 0.0048 73.0171 0.0029 8.8208
# 5 15.4720 -3.2766 3.4396 0.0029 99.6514 0.0016
# 6 0.0020 -0.0001 0.0036 8.8208 0.0016 53.8315
#
#
#
# Elastic Compliance Matrix: (Units=1/GPa)
#
#
# Indices 1 2 3 4 5 6 
#
# 1 0.010742 -0.002047 -0.004055 0.000000 -0.001595 0.000000
# 2 -0.002047 0.006232 -0.001746 0.000000 0.000583 0.000000
# 3 -0.004055 -0.001746 0.006948 0.000000 0.000332 0.000000
# 4 0.000000 0.000000 0.000000 0.013972 0.000000 -0.002289
# 5 -0.001595 0.000583 0.000332 0.000000 0.010290 0.000000
# 6 0.000000 0.000000 0.000000 -0.002289 0.000000 0.018952
#
#
# Mechanical properties :
#
#
# Convention : Reuss Voigt Hill
#
# Bulk Modulus (GPa) = 121.54207 129.26470 125.40338
# Shear Modulus (GPa) = 58.42992 66.08336 62.25664
#
# Velocity S-wave (km/s) = 4.40064 4.67999 4.54246
# Velocity P-wave (km/s) = 8.13044 8.48798 8.31113
#
# Compressibility (1/GPa) = 0.00822760
#
# Stress axis : x y z
#
# Youngs Moduli (GPa) = 93.08843 160.47298 143.93067
#
# Poissons Ratio (x) = 0.32844 0.58357
# Poissons Ratio (y) = 0.19052 0.25129
# Poissons Ratio (z) = 0.37743 0.28017
#
# Static dielectric constant tensor:
#      x y z
#    x 2.350530 0.000000 0.095560 
#    y 0.000000 2.483260 0.000000 
#    z 0.095560 0.000000 2.451560 
# 
# From -- ./inp_files/8002.got.cif
#   From: 2010.05.17/outbox.cif.g08.bks.cpg/sg9_5_cif.got.tgz:8002.got - 2010.06.03 20:04:27.
