data_PCOD9139983
_publ_section_title
;
Structure prediction by ZEFSAII (Michael W. Deem and Ramdas Pophale) SiO2 
 PCOD9139983
Probable space group: C C
;
_chemical_formula_sum "Si O2"
_cell_formula_units_Z 32
_cell_length_a 8.689275
_cell_length_b 11.587845
_cell_length_c 28.571880
_cell_angle_alpha 90.000000
_cell_angle_beta 152.031105
_cell_angle_gamma 90.000000
_cell_volume 1349.244372
_symmetry_space_group_name_H-M "C C"
_symmetry_group_IT_number 9
_symmetry_cell_setting 'monoclinic'
loop_
_space_group_symop_operation_xyz
x,y,z
x,-y,1/2+z
1/2+x,1/2+y,z
1/2+x,1/2-y,1/2+z
loop_
_atom_site_type_symbol
_atom_site_label
_atom_site_fract_x
_atom_site_fract_y
_atom_site_fract_z
Si Si1 0.195300 0.985679 0.531610
Si Si2 0.838001 0.276675 0.121420
Si Si3 0.267889 0.220301 0.311350
Si Si4 0.473102 0.533274 0.870325
Si Si5 0.572811 0.106118 0.975349
Si Si6 0.161939 0.689417 0.898853
Si Si7 0.727688 0.852613 0.733156
Si Si8 0.237262 0.346468 0.007558
O O1 0.406406 0.891354 0.618344
O O2 0.204491 0.995038 0.477262
O O3 0.823828 0.937021 0.436129
O O4 0.314374 0.104071 0.586996
O O5 0.181316 0.234401 0.234502
O O6 0.717842 0.175360 0.057032
O O7 0.599350 0.293380 0.102772
O O8 0.263890 0.353890 0.327540
O O9 0.618227 0.176183 0.422079
O O10 0.016361 0.137789 0.271491
O O11 0.267533 0.433579 0.789893
O O12 0.704417 0.575286 0.890300
O O13 0.596550 0.186431 0.936449
O O14 0.747275 0.981793 0.018430
O O15 0.450823 0.781882 0.960644
O O16 0.828616 0.728135 0.782626
#
# Coordination Sequence:
#
# PCOD9139983 Si02
#       8
#     4   4   4   4   4   4   4   4
#     4  12  24  45  76 108 147 193 242 300 363 440
#     4  12  25  44  74 104 141 191 238 289 368 431
#     4  11  22  44  71 101 140 188 231 291 361 421
#     4  12  22  44  73 100 148 190 234 298 359 426
#     4  12  24  44  70 104 140 188 237 297 357 426
#     4  11  23  45  71 102 144 189 238 298 359 422
#     4  11  23  44  74 106 143 193 239 293 368 422
#     4  11  23  46  71  97 145 184 231 296 361 416
#
# _framework density 23.716978999999998
#
# number of rings (size 3 to 8) (size 9 to 14) (size 15 to 20)
#    0.000    0.500    8.750    2.250    0.000    0.000 
#    2.250    5.000    0.000    0.000    0.000    0.000 
#    0.000    0.000    0.000    0.000    0.000    0.000 
#
# Total GULP energy -89149.547248 kJ/mol
# GULP energy per Si atom -5571.846703 kJ/mol
# Density = 2.366300 g / cm^3
# Si number density = 23.716979 Si / 1000 Ang^3
#
#
#
# Elastic Constant Matrix: (Units=GPa)
#
#
# Indices 1 2 3 4 5 6 
#
# 1 79.0086 27.5733 17.2197 -0.0004 -16.7348 -0.0001
# 2 27.5733 131.3163 36.6156 -0.0003 -22.3163 -0.0001
# 3 17.2197 36.6156 90.8796 -0.0016 -22.8927 -0.0002
# 4 -0.0004 -0.0003 -0.0016 25.5601 -0.0006 -14.2995
# 5 -16.7348 -22.3163 -22.8927 -0.0006 17.0329 0.0001
# 6 -0.0001 -0.0001 -0.0002 -14.2995 0.0001 46.2804
#
#
#
# Elastic Compliance Matrix: (Units=1/GPa)
#
#
# Indices 1 2 3 4 5 6 
#
# 1 0.016202 -0.000996 0.001531 0.000001 0.016671 0.000000
# 2 -0.000996 0.009928 -0.001181 0.000000 0.010442 0.000000
# 3 0.001531 -0.001181 0.016900 0.000002 0.022671 0.000001
# 4 0.000001 0.000000 0.000002 0.047300 0.000005 0.014614
# 5 0.016671 0.010442 0.022671 0.000005 0.119241 0.000002
# 6 0.000000 0.000000 0.000001 0.014614 0.000002 0.026123
#
#
# Mechanical properties :
#
#
# Convention : Reuss Voigt Hill
#
# Bulk Modulus (GPa) = 23.95880 51.55797 37.75839
# Shear Modulus (GPa) = 19.92837 32.42773 26.17805
#
# Velocity S-wave (km/s) = 2.90186 3.70169 3.32591
# Velocity P-wave (km/s) = 4.62078 6.32898 5.54110
#
# Compressibility (1/GPa) = 0.04173832
#
# Stress axis : x y z
#
# Youngs Moduli (GPa) = 61.72138 100.72374 59.17090
#
# Poissons Ratio (x) = 0.10029 -0.09058
# Poissons Ratio (y) = 0.06145 0.06988
# Poissons Ratio (z) = -0.09448 0.11896
#
# Static dielectric constant tensor:
#      x y z
#    x 2.005060 0.000000 0.000430 
#    y 0.000000 1.970310 0.000000 
#    z 0.000430 0.000000 1.970940 
# 
# From -- ./inp_files/37185.got.cif
#   From: 2010.05.17/outbox.cif.g08.bks.cpg/sg9_19_cif.got.tgz:37185.got - 2010.06.03 20:04:27.
