data_PCOD9139665
_publ_section_title
;
Structure prediction by ZEFSAII (Michael W. Deem and Ramdas Pophale) SiO2 
 PCOD9139665
Probable space group: C C
;
_chemical_formula_sum "Si O2"
_cell_formula_units_Z 28
_cell_length_a 16.582648
_cell_length_b 8.230799
_cell_length_c 14.485674
_cell_angle_alpha 90.000000
_cell_angle_beta 149.011708
_cell_angle_gamma 90.000000
_cell_volume 1017.949400
_symmetry_space_group_name_H-M "C C"
_symmetry_group_IT_number 9
_symmetry_cell_setting 'monoclinic'
loop_
_space_group_symop_operation_xyz
x,y,z
x,-y,1/2+z
1/2+x,1/2+y,z
1/2+x,1/2-y,1/2+z
loop_
_atom_site_type_symbol
_atom_site_label
_atom_site_fract_x
_atom_site_fract_y
_atom_site_fract_z
Si Si1 0.180290 0.234847 0.325960
Si Si2 0.023042 0.063388 0.731858
Si Si3 0.133622 0.152211 0.020138
Si Si4 0.205725 0.508428 0.510050
Si Si5 0.146041 0.291680 0.703503
Si Si6 0.827429 0.040209 0.822270
Si Si7 0.844407 0.500900 0.362209
O O1 0.168343 0.360582 0.401458
O O2 0.206117 0.342687 0.258961
O O3 0.315507 0.097938 0.431310
O O4 0.034187 0.110217 0.190216
O O5 0.855799 0.090480 0.611190
O O6 0.129626 0.036144 0.927417
O O7 0.086992 0.218158 0.741232
O O8 0.111955 0.333320 0.955922
O O9 0.990944 0.111734 0.949715
O O10 0.298256 0.120034 0.233058
O O11 0.265228 0.448236 0.668580
O O12 0.309669 0.390712 0.875097
O O13 0.205268 0.130377 0.711916
O O14 0.005684 0.401583 0.525021
#
# Coordination Sequence:
#
# PCOD9139665 Si02
#       7
#     4   4   4   4   4   4   4
#     4  11  26  47  75 116 161 216 279 341 412 497
#     4  10  27  49  74 118 167 210 277 344 421 503
#     4  11  25  52  78 119 164 214 276 347 431 504
#     4  11  26  47  76 112 160 217 272 343 406 513
#     4  11  26  48  81 124 160 221 273 348 415 510
#     4  11  26  48  80 114 160 216 272 344 426 502
#     4  11  26  47  84 117 162 218 277 341 425 499
#
# _framework density 27.50628
#
# number of rings (size 3 to 8) (size 9 to 14) (size 15 to 20)
#    0.000    1.143    1.429    1.714   16.000    0.000 
#    0.000    0.000    0.000    0.000    0.000    0.000 
#    0.000    0.000    0.000    0.000    0.000    0.000 
#
# Total GULP energy -77965.249194 kJ/mol
# GULP energy per Si atom -5568.946371 kJ/mol
# Density = 2.744367 g / cm^3
# Si number density = 27.506280 Si / 1000 Ang^3
#
#
#
# Elastic Constant Matrix: (Units=GPa)
#
#
# Indices 1 2 3 4 5 6 
#
# 1 198.8595 76.8220 76.1488 0.0000 16.1272 0.0000
# 2 76.8220 167.4236 70.5471 0.0000 23.1198 0.0000
# 3 76.1488 70.5471 113.0244 0.0000 3.2714 0.0000
# 4 0.0000 0.0000 0.0000 61.4323 0.0000 11.7184
# 5 16.1272 23.1198 3.2714 0.0000 53.5071 0.0000
# 6 0.0000 0.0000 0.0000 11.7184 0.0000 66.2455
#
#
#
# Elastic Compliance Matrix: (Units=1/GPa)
#
#
# Indices 1 2 3 4 5 6 
#
# 1 0.007194 -0.001488 -0.003881 0.000000 -0.001288 0.000000
# 2 -0.001488 0.008998 -0.004522 0.000000 -0.003163 0.000000
# 3 -0.003881 -0.004522 0.014220 0.000000 0.002254 0.000000
# 4 0.000000 0.000000 0.000000 0.016847 0.000000 -0.002980
# 5 -0.001288 -0.003163 0.002254 0.000000 0.020306 0.000000
# 6 0.000000 0.000000 0.000000 -0.002980 0.000000 0.015623
#
#
# Mechanical properties :
#
#
# Convention : Reuss Voigt Hill
#
# Bulk Modulus (GPa) = 94.07664 102.92702 98.50183
# Shear Modulus (GPa) = 46.94286 53.28962 50.11624
#
# Velocity S-wave (km/s) = 4.13561 4.40632 4.27311
# Velocity P-wave (km/s) = 7.55516 7.96167 7.76108
#
# Compressibility (1/GPa) = 0.01062963
#
# Stress axis : x y z
#
# Youngs Moduli (GPa) = 139.00444 111.13717 70.32394
#
# Poissons Ratio (x) = 0.16534 0.27293
# Poissons Ratio (y) = 0.20680 0.31803
# Poissons Ratio (z) = 0.53947 0.50260
#
# Static dielectric constant tensor:
#      x y z
#    x 2.173070 0.000000 -0.114640 
#    y 0.000000 2.335350 0.000000 
#    z -0.114640 0.000000 2.329210 
# 
# From -- ./inp_files/25741.got.cif
#   From: 2010.05.17/outbox.cif.g08.bks.cpg/sg9_13_cif.got.tgz:25741.got - 2010.06.03 20:04:27.
