data_PCOD9139241
_publ_section_title
;
Structure prediction by ZEFSAII (Michael W. Deem and Ramdas Pophale) SiO2 
 PCOD9139241
Probable space group: C C
;
_chemical_formula_sum "Si O2"
_cell_formula_units_Z 28
_cell_length_a 14.890182
_cell_length_b 13.460309
_cell_length_c 11.376525
_cell_angle_alpha 90.000000
_cell_angle_beta 30.327410
_cell_angle_gamma 90.000000
_cell_volume 1151.343628
_symmetry_space_group_name_H-M "C C"
_symmetry_group_IT_number 9
_symmetry_cell_setting 'monoclinic'
loop_
_space_group_symop_operation_xyz
x,y,z
x,-y,1/2+z
1/2+x,1/2+y,z
1/2+x,1/2-y,1/2+z
loop_
_atom_site_type_symbol
_atom_site_label
_atom_site_fract_x
_atom_site_fract_y
_atom_site_fract_z
Si Si1 0.242850 0.507684 0.375000
Si Si2 0.183941 0.842800 0.739286
Si Si3 0.893156 0.332024 0.982920
Si Si4 0.506439 0.623593 0.915780
Si Si5 0.443644 0.321728 0.232829
Si Si6 0.501435 0.979739 0.464737
Si Si7 0.328936 0.360675 0.002120
O O1 0.375438 0.547266 0.123002
O O2 0.293464 0.395413 0.353634
O O3 0.293713 0.584922 0.419402
O O4 0.041466 0.514312 0.553165
O O5 0.322974 0.923493 0.630596
O O6 0.295540 0.757195 0.548389
O O7 0.080309 0.804763 0.973272
O O8 0.026397 0.878169 0.830551
O O9 0.706151 0.375978 0.233799
O O10 0.939434 0.236722 0.009100
O O11 0.885142 0.281023 0.862535
O O12 0.025236 0.422717 0.855744
O O13 0.516079 0.616559 0.763272
O O14 0.663470 0.904601 0.262224
#
# Coordination Sequence:
#
# PCOD9139241 Si02
#       7
#     4   4   4   4   4   4   4
#     4  12  26  50  81 114 168 207 265 337 398 489
#     4  12  27  54  82 118 161 211 268 336 416 481
#     4  10  25  45  77 117 153 201 272 324 394 472
#     4  10  24  46  76 113 159 207 268 322 397 467
#     4  10  26  46  79 112 156 205 264 329 391 476
#     4  12  27  51  80 117 157 219 269 328 411 484
#     4  12  29  50  79 119 164 206 270 338 409 485
#
# _framework density 24.319410000000001
#
# number of rings (size 3 to 8) (size 9 to 14) (size 15 to 20)
#    0.857    0.000    2.857    2.571    6.000    4.571 
#    2.571    0.000    0.000    0.000    0.000    0.000 
#    0.000    0.000    0.000    0.000    0.000    0.000 
#
# Total GULP energy -78215.446958 kJ/mol
# GULP energy per Si atom -5586.817640 kJ/mol
# Density = 2.426406 g / cm^3
# Si number density = 24.319410 Si / 1000 Ang^3
#
#
#
# Elastic Constant Matrix: (Units=GPa)
#
#
# Indices 1 2 3 4 5 6 
#
# 1 162.7303 81.9057 50.2202 -0.0002 -27.2542 0.0001
# 2 81.9057 160.4197 38.0276 -0.0001 -21.4901 0.0001
# 3 50.2202 38.0276 68.5450 -0.0003 -26.2140 0.0003
# 4 -0.0002 -0.0001 -0.0003 20.7057 0.0004 -6.0628
# 5 -27.2542 -21.4901 -26.2140 0.0004 40.2831 -0.0002
# 6 0.0001 0.0001 0.0003 -6.0628 -0.0002 48.0178
#
#
#
# Elastic Compliance Matrix: (Units=1/GPa)
#
#
# Indices 1 2 3 4 5 6 
#
# 1 0.009614 -0.003644 -0.004364 0.000000 0.001721 0.000000
# 2 -0.003644 0.008642 -0.001737 0.000000 0.001015 0.000000
# 3 -0.004364 -0.001737 0.022987 0.000000 0.011080 0.000000
# 4 0.000000 0.000000 0.000000 0.050150 -0.000001 0.006332
# 5 0.001721 0.001015 0.011080 -0.000001 0.033740 0.000000
# 6 0.000000 0.000000 0.000000 0.006332 0.000000 0.021625
#
#
# Mechanical properties :
#
#
# Convention : Reuss Voigt Hill
#
# Bulk Modulus (GPa) = 45.96905 81.33354 63.65129
# Shear Modulus (GPa) = 28.81874 36.57076 32.69475
#
# Velocity S-wave (km/s) = 3.44613 3.88205 3.67057
# Velocity P-wave (km/s) = 5.89726 7.32190 6.64785
#
# Compressibility (1/GPa) = 0.02175377
#
# Stress axis : x y z
#
# Youngs Moduli (GPa) = 104.01365 115.71967 43.50246
#
# Poissons Ratio (x) = 0.42164 0.18986
# Poissons Ratio (y) = 0.37898 0.07554
# Poissons Ratio (z) = 0.45396 0.20095
#
# Static dielectric constant tensor:
#      x y z
#    x 2.053010 0.000000 0.029490 
#    y 0.000000 1.952430 0.000000 
#    z 0.029490 0.000000 1.941230 
# 
# From -- ./inp_files/18440.got.cif
#   From: 2010.05.17/outbox.cif.g08.bks.cpg/sg9_10_cif.got.tgz:18440.got - 2010.06.03 20:04:27.
