data_PCOD9139434
_publ_section_title
;
Structure prediction by ZEFSAII (Michael W. Deem and Ramdas Pophale) SiO2 
 PCOD9139434
Probable space group: C C
;
_chemical_formula_sum "Si O2"
_cell_formula_units_Z 20
_cell_length_a 12.587694
_cell_length_b 11.426828
_cell_length_c 5.356218
_cell_angle_alpha 90.000000
_cell_angle_beta 95.016524
_cell_angle_gamma 90.000000
_cell_volume 767.473452
_symmetry_space_group_name_H-M "C C"
_symmetry_group_IT_number 9
_symmetry_cell_setting 'monoclinic'
loop_
_space_group_symop_operation_xyz
x,y,z
x,-y,1/2+z
1/2+x,1/2+y,z
1/2+x,1/2-y,1/2+z
loop_
_atom_site_type_symbol
_atom_site_label
_atom_site_fract_x
_atom_site_fract_y
_atom_site_fract_z
Si Si1 0.261690 0.783389 0.927400
Si Si2 0.884067 0.561734 0.825573
Si Si3 0.957166 0.148919 0.721664
Si Si4 0.138726 0.441963 0.386486
Si Si5 0.547421 0.381147 0.737923
O O1 0.346823 0.712212 0.771706
O O2 0.185158 0.678575 0.990755
O O3 0.173574 0.880294 0.819635
O O4 0.324215 0.833812 0.176580
O O5 0.857527 0.460489 0.610497
O O6 0.011581 0.562466 0.846771
O O7 0.990809 0.184281 0.453798
O O8 0.985325 0.007317 0.711264
O O9 0.031684 0.182406 0.970875
O O10 0.174239 0.531210 0.610718
#
# Coordination Sequence:
#
# PCOD9139434 Si02
#       5
#     4   4   4   4   4
#     4  12  26  44  84 104 150 212 236 316 408 418
#     4  10  25  46  68 104 147 189 252 306 365 466
#     4  10  25  45  69 108 149 187 252 311 363 458
#     4  10  25  46  68 104 147 189 252 306 365 466
#     4  10  25  45  69 108 149 187 252 311 363 458
#
# _framework density 26.059531
#
# number of rings (size 3 to 8) (size 9 to 14) (size 15 to 20)
#    0.000    1.600    0.000    1.200   11.200   11.200 
#    0.000    0.000    0.000    0.000    0.000    0.000 
#    0.000    0.000    0.000    0.000    0.000    0.000 
#
# Total GULP energy -55771.272121 kJ/mol
# GULP energy per Si atom -5577.127212 kJ/mol
# Density = 2.600022 g / cm^3
# Si number density = 26.059531 Si / 1000 Ang^3
#
#
#
# Elastic Constant Matrix: (Units=GPa)
#
#
# Indices 1 2 3 4 5 6 
#
# 1 93.0578 50.7995 8.8010 0.0000 5.9819 0.0000
# 2 50.7995 113.1480 22.1420 0.0000 19.7281 0.0000
# 3 8.8010 22.1420 115.1031 0.0000 5.5665 0.0000
# 4 0.0000 0.0000 0.0000 41.1703 0.0000 14.0563
# 5 5.9819 19.7281 5.5665 0.0000 29.1532 0.0000
# 6 0.0000 0.0000 0.0000 14.0563 0.0000 38.3341
#
#
#
# Elastic Compliance Matrix: (Units=1/GPa)
#
#
# Indices 1 2 3 4 5 6 
#
# 1 0.014302 -0.006722 0.000123 0.000000 0.001591 0.000000
# 2 -0.006722 0.013486 -0.001722 0.000000 -0.007418 0.000000
# 3 0.000123 -0.001722 0.009038 0.000000 -0.000586 0.000000
# 4 0.000000 0.000000 0.000000 0.027765 0.000000 -0.010181
# 5 0.001591 -0.007418 -0.000586 0.000000 0.039107 0.000000
# 6 0.000000 0.000000 0.000000 -0.010181 0.000000 0.029820
#
#
# Mechanical properties :
#
#
# Convention : Reuss Voigt Hill
#
# Bulk Modulus (GPa) = 49.54519 53.86598 51.70559
# Shear Modulus (GPa) = 31.86973 37.70262 34.78617
#
# Velocity S-wave (km/s) = 3.50088 3.80779 3.65756
# Velocity P-wave (km/s) = 5.94938 6.32832 6.14177
#
# Compressibility (1/GPa) = 0.02018359
#
# Stress axis : x y z
#
# Youngs Moduli (GPa) = 69.92096 74.14854 110.64410
#
# Poissons Ratio (x) = 0.49846 -0.01357
# Poissons Ratio (y) = 0.47004 0.19048
# Poissons Ratio (z) = -0.00858 0.12765
#
# Static dielectric constant tensor:
#      x y z
#    x 2.000900 0.000000 -0.019780 
#    y 0.000000 2.461180 0.000000 
#    z -0.019780 0.000000 2.043650 
# 
# From -- ./inp_files/1475.got.cif
#   From: 2010.05.17/outbox.cif.g08.bks.cpg/sg9_1_cif.got.tgz:1475.got - 2010.06.03 20:04:27.
