data_PCOD9139318
_publ_section_title
;
Structure prediction by ZEFSAII (Michael W. Deem and Ramdas Pophale) SiO2 
 PCOD9139318
Probable space group: C C
;
_chemical_formula_sum "Si O2"
_cell_formula_units_Z 20
_cell_length_a 9.819561
_cell_length_b 9.368301
_cell_length_c 17.884999
_cell_angle_alpha 90.000000
_cell_angle_beta 28.480695
_cell_angle_gamma 90.000000
_cell_volume 784.576176
_symmetry_space_group_name_H-M "C C"
_symmetry_group_IT_number 9
_symmetry_cell_setting 'monoclinic'
loop_
_space_group_symop_operation_xyz
x,y,z
x,-y,1/2+z
1/2+x,1/2+y,z
1/2+x,1/2-y,1/2+z
loop_
_atom_site_type_symbol
_atom_site_label
_atom_site_fract_x
_atom_site_fract_y
_atom_site_fract_z
Si Si1 0.657190 0.168764 0.703920
Si Si2 0.402913 0.099841 0.257139
Si Si3 0.204067 0.840143 0.015689
Si Si4 0.821880 0.517543 0.095056
Si Si5 0.351246 0.408795 0.919073
O O1 0.540901 0.055081 0.702944
O O2 0.089265 0.082838 0.370515
O O3 0.820070 0.309681 0.592850
O O4 0.891273 0.098832 0.644576
O O5 0.368351 0.163662 0.357621
O O6 0.613315 0.197549 0.105209
O O7 0.894318 0.256576 0.373271
O O8 0.362592 0.941201 0.997373
O O9 0.504324 0.494947 0.280318
O O10 0.030166 0.453178 0.056793
#
# Coordination Sequence:
#
# PCOD9139318 Si02
#       5
#     4   4   4   4   4
#     4   9  25  47  76 113 153 204 265 318 389 466
#     4  11  26  52  78 118 157 211 259 330 391 477
#     4  11  27  47  80 110 161 200 269 317 403 458
#     4  10  24  49  76 112 154 210 255 330 386 475
#     4   9  24  47  78 109 159 203 262 321 399 460
#
# _framework density 25.491468999999999
#
# number of rings (size 3 to 8) (size 9 to 14) (size 15 to 20)
#    1.200    0.800    0.000    0.000    8.400    4.800 
#    3.600    0.000    0.000    0.000    0.000    0.000 
#    0.000    0.000    0.000    0.000    0.000    0.000 
#
# Total GULP energy -55778.038121 kJ/mol
# GULP energy per Si atom -5577.803812 kJ/mol
# Density = 2.543345 g / cm^3
# Si number density = 25.491469 Si / 1000 Ang^3
#
#
#
# Elastic Constant Matrix: (Units=GPa)
#
#
# Indices 1 2 3 4 5 6 
#
# 1 175.3239 102.6268 29.3754 -0.0033 32.2893 0.0007
# 2 102.6268 119.8302 21.3123 -0.0026 8.8754 0.0005
# 3 29.3754 21.3123 49.0570 -0.0171 13.4359 0.0062
# 4 -0.0033 -0.0026 -0.0171 35.2632 0.0082 5.7645
# 5 32.2893 8.8754 13.4359 0.0082 51.0386 -0.0030
# 6 0.0007 0.0005 0.0062 5.7645 -0.0030 53.1367
#
#
#
# Elastic Compliance Matrix: (Units=1/GPa)
#
#
# Indices 1 2 3 4 5 6 
#
# 1 0.013393 -0.010715 -0.001675 0.000001 -0.006168 0.000000
# 2 -0.010715 0.017633 -0.002437 -0.000002 0.004354 0.000001
# 3 -0.001675 -0.002437 0.023752 0.000013 -0.004769 -0.000004
# 4 0.000001 -0.000002 0.000013 0.028870 -0.000009 -0.003132
# 5 -0.006168 0.004354 -0.004769 -0.000009 0.023994 0.000003
# 6 0.000000 0.000001 -0.000004 -0.003132 0.000003 0.019159
#
#
# Mechanical properties :
#
#
# Convention : Reuss Voigt Hill
#
# Bulk Modulus (GPa) = 39.80232 72.31557 56.05895
# Shear Modulus (GPa) = 30.33447 40.61413 35.47430
#
# Velocity S-wave (km/s) = 3.45336 3.99588 3.73448
# Velocity P-wave (km/s) = 5.61683 7.05121 6.37449
#
# Compressibility (1/GPa) = 0.02512417
#
# Stress axis : x y z
#
# Youngs Moduli (GPa) = 74.66852 56.71255 42.10122
#
# Poissons Ratio (x) = 0.60768 0.07052
# Poissons Ratio (y) = 0.80008 0.10259
# Poissons Ratio (z) = 0.12507 0.13819
#
# Static dielectric constant tensor:
#      x y z
#    x 1.940120 0.000000 0.121300 
#    y 0.000000 2.050410 0.000000 
#    z 0.121300 0.000000 2.212840 
# 
# From -- ./inp_files/14129.got.cif
#   From: 2010.05.17/outbox.cif.g08.bks.cpg/sg9_8_cif.got.tgz:14129.got - 2010.06.03 20:04:27.
