data_PCOD9139340
_publ_section_title
;
Structure prediction by ZEFSAII (Michael W. Deem and Ramdas Pophale) SiO2 
 PCOD9139340
Probable space group: C C
;
_chemical_formula_sum "Si O2"
_cell_formula_units_Z 28
_cell_length_a 13.485041
_cell_length_b 8.582964
_cell_length_c 12.930211
_cell_angle_alpha 90.000000
_cell_angle_beta 40.693052
_cell_angle_gamma 90.000000
_cell_volume 975.769132
_symmetry_space_group_name_H-M "C C"
_symmetry_group_IT_number 9
_symmetry_cell_setting 'monoclinic'
loop_
_space_group_symop_operation_xyz
x,y,z
x,-y,1/2+z
1/2+x,1/2+y,z
1/2+x,1/2-y,1/2+z
loop_
_atom_site_type_symbol
_atom_site_label
_atom_site_fract_x
_atom_site_fract_y
_atom_site_fract_z
Si Si1 0.961930 0.277961 0.996840
Si Si2 0.589682 0.140561 0.177019
Si Si3 0.375941 0.461888 0.173538
Si Si4 0.555286 0.806105 0.244065
Si Si5 0.283341 0.857522 0.310017
Si Si6 0.038822 0.329062 0.480127
Si Si7 0.137004 0.019247 0.612600
O O1 0.988847 0.322300 0.857903
O O2 0.134688 0.249832 0.905421
O O3 0.864996 0.404959 0.138278
O O4 0.879573 0.120183 0.102684
O O5 0.681050 0.304674 0.108028
O O6 0.650924 0.962541 0.138947
O O7 0.516735 0.135011 0.119980
O O8 0.213142 0.384038 0.321752
O O9 0.459428 0.469951 0.218571
O O10 0.487132 0.349967 0.022794
O O11 0.423389 0.787048 0.263486
O O12 0.479453 0.859713 0.410845
O O13 0.640309 0.639428 0.177942
O O14 0.223498 0.983430 0.437628
#
# Coordination Sequence:
#
# PCOD9139340 Si02
#       7
#     4   4   4   4   4   4   4
#     4  11  26  49  86 115 168 217 281 338 420 494
#     4  11  29  52  79 125 160 220 276 348 405 506
#     4  10  24  51  83 117 170 216 274 350 413 496
#     4  12  27  48  85 118 166 219 278 340 418 500
#     4  11  25  49  83 122 156 229 272 339 414 501
#     4  11  28  48  80 126 163 217 281 342 419 490
#     4  10  25  51  78 117 167 210 274 343 411 487
#
# _framework density 28.695312000000001
#
# number of rings (size 3 to 8) (size 9 to 14) (size 15 to 20)
#    0.000    1.143    2.857    0.857    8.000   10.286 
#    0.000    0.000    0.000    0.000    0.000    0.000 
#    0.000    0.000    0.000    0.000    0.000    0.000 
#
# Total GULP energy -78066.629952 kJ/mol
# GULP energy per Si atom -5576.187854 kJ/mol
# Density = 2.863000 g / cm^3
# Si number density = 28.695312 Si / 1000 Ang^3
#
#
#
# Elastic Constant Matrix: (Units=GPa)
#
#
# Indices 1 2 3 4 5 6 
#
# 1 120.9065 33.6814 65.8319 0.0000 9.8848 0.0000
# 2 33.6814 180.8931 47.4114 0.0000 37.5940 0.0000
# 3 65.8319 47.4114 197.7381 0.0000 34.8249 0.0000
# 4 0.0000 0.0000 0.0000 45.1984 0.0000 18.2355
# 5 9.8848 37.5940 34.8249 0.0000 60.2082 0.0000
# 6 0.0000 0.0000 0.0000 18.2355 0.0000 41.3760
#
#
#
# Elastic Compliance Matrix: (Units=1/GPa)
#
#
# Indices 1 2 3 4 5 6 
#
# 1 0.010349 -0.001267 -0.003320 0.000000 0.001012 0.000000
# 2 -0.001267 0.006661 -0.000534 0.000000 -0.003642 0.000000
# 3 -0.003320 -0.000534 0.006832 0.000000 -0.003073 0.000000
# 4 0.000000 0.000000 0.000000 0.026910 0.000000 -0.011860
# 5 0.001012 -0.003642 -0.003073 0.000000 0.020495 0.000000
# 6 0.000000 0.000000 0.000000 -0.011860 0.000000 0.029396
#
#
# Mechanical properties :
#
#
# Convention : Reuss Voigt Hill
#
# Bulk Modulus (GPa) = 73.53037 88.15415 80.84226
# Shear Modulus (GPa) = 43.32167 52.86404 48.09286
#
# Velocity S-wave (km/s) = 3.88972 4.29680 4.09832
# Velocity P-wave (km/s) = 6.77151 7.44340 7.11539
#
# Compressibility (1/GPa) = 0.01359982
#
# Stress axis : x y z
#
# Youngs Moduli (GPa) = 96.63076 150.12944 146.37751
#
# Poissons Ratio (x) = 0.19024 0.48594
# Poissons Ratio (y) = 0.12245 0.07813
# Poissons Ratio (z) = 0.32080 0.08013
#
# Static dielectric constant tensor:
#      x y z
#    x 2.272970 0.000000 -0.044680 
#    y 0.000000 2.580090 0.000000 
#    z -0.044680 0.000000 2.174050 
# 
# From -- ./inp_files/25751.got.cif
#   From: 2010.05.17/outbox.cif.g08.bks.cpg/sg9_13_cif.got.tgz:25751.got - 2010.06.03 20:04:27.
