data_PCOD9139615
_publ_section_title
;
Structure prediction by ZEFSAII (Michael W. Deem and Ramdas Pophale) SiO2 
 PCOD9139615
Probable space group: C C
;
_chemical_formula_sum "Si O2"
_cell_formula_units_Z 32
_cell_length_a 6.215640
_cell_length_b 20.480940
_cell_length_c 10.904587
_cell_angle_alpha 90.000000
_cell_angle_beta 72.925840
_cell_angle_gamma 90.000000
_cell_volume 1326.994184
_symmetry_space_group_name_H-M "C C"
_symmetry_group_IT_number 9
_symmetry_cell_setting 'monoclinic'
loop_
_space_group_symop_operation_xyz
x,y,z
x,-y,1/2+z
1/2+x,1/2+y,z
1/2+x,1/2-y,1/2+z
loop_
_atom_site_type_symbol
_atom_site_label
_atom_site_fract_x
_atom_site_fract_y
_atom_site_fract_z
Si Si1 0.504480 0.624832 0.341990
Si Si2 0.543807 0.710804 0.970126
Si Si3 0.767552 0.917463 0.526650
Si Si4 0.302190 0.687922 0.587959
Si Si5 0.693381 0.495178 0.356806
Si Si6 0.476852 0.124193 0.838127
Si Si7 0.844588 0.279621 0.769349
Si Si8 0.047788 0.582902 0.308968
O O1 0.477583 0.641134 0.490774
O O2 0.628614 0.557341 0.283157
O O3 0.590930 0.695121 0.279105
O O4 0.252728 0.606563 0.353136
O O5 0.393204 0.650413 0.046658
O O6 0.407219 0.734925 0.873323
O O7 0.784424 0.677199 0.899529
O O8 0.618463 0.774517 0.034566
O O9 0.597847 0.900713 0.443212
O O10 0.643734 0.946500 0.666041
O O11 0.965145 0.966227 0.449979
O O12 0.167662 0.651956 0.717743
O O13 0.438775 0.745568 0.633371
O O14 0.837733 0.433119 0.293361
O O15 0.877990 0.534777 0.406760
O O16 0.932095 0.350505 0.787161
#
# Coordination Sequence:
#
# PCOD9139615 Si02
#       8
#     4   4   4   4   4   4   4   4
#     4  11  25  47  67 105 139 184 238 291 354 422
#     4  11  24  42  66 106 143 177 234 282 357 434
#     4  11  24  46  73  98 144 188 228 301 354 419
#     4  12  24  42  76 100 140 182 226 294 354 428
#     4  10  26  48  68 104 136 184 254 280 348 426
#     4  11  25  47  67 105 139 184 238 291 354 422
#     4  11  24  42  66 106 143 177 234 282 357 434
#     4  11  24  46  73  98 144 188 228 301 354 419
#
# _framework density 24.114650999999999
#
# number of rings (size 3 to 8) (size 9 to 14) (size 15 to 20)
#    0.000    1.000    2.500    3.000    5.250    3.000 
#    4.500    0.000    0.000    0.000    0.000    0.000 
#    0.000    0.000    0.000    0.000    0.000    0.000 
#
# Total GULP energy -89204.217348 kJ/mol
# GULP energy per Si atom -5575.263584 kJ/mol
# Density = 2.405976 g / cm^3
# Si number density = 24.114651 Si / 1000 Ang^3
#
#
#
# Elastic Constant Matrix: (Units=GPa)
#
#
# Indices 1 2 3 4 5 6 
#
# 1 68.7686 42.3134 10.3545 0.0000 -7.1540 0.0000
# 2 42.3134 107.4581 24.3765 0.0000 -2.6703 0.0000
# 3 10.3545 24.3765 55.0552 0.0000 -5.8753 0.0000
# 4 0.0000 0.0000 0.0000 20.0466 0.0000 -17.3953
# 5 -7.1540 -2.6703 -5.8753 0.0000 33.0463 0.0000
# 6 0.0000 0.0000 0.0000 -17.3953 0.0000 48.8555
#
#
#
# Elastic Compliance Matrix: (Units=1/GPa)
#
#
# Indices 1 2 3 4 5 6 
#
# 1 0.019617 -0.007654 0.000088 0.000000 0.003644 0.000000
# 2 -0.007654 0.013331 -0.004613 0.000000 -0.001400 0.000000
# 3 0.000088 -0.004613 0.020541 0.000000 0.003298 0.000000
# 4 0.000000 0.000000 0.000000 0.072187 0.000000 0.025703
# 5 0.003644 -0.001400 0.003298 0.000000 0.031523 0.000000
# 6 0.000000 0.000000 0.000000 0.025703 0.000000 0.029620
#
#
# Mechanical properties :
#
#
# Convention : Reuss Voigt Hill
#
# Bulk Modulus (GPa) = 34.32516 42.81896 38.57206
# Shear Modulus (GPa) = 22.63606 30.67218 26.65412
#
# Velocity S-wave (km/s) = 3.06712 3.57028 3.32822
# Velocity P-wave (km/s) = 5.17765 5.89838 5.54972
#
# Compressibility (1/GPa) = 0.02913315
#
# Stress axis : x y z
#
# Youngs Moduli (GPa) = 50.97678 75.01109 48.68254
#
# Poissons Ratio (x) = 0.57413 -0.00430
# Poissons Ratio (y) = 0.39017 0.22455
# Poissons Ratio (z) = -0.00450 0.34599
#
# Static dielectric constant tensor:
#      x y z
#    x 2.220710 0.000000 -0.076790 
#    y 0.000000 1.941450 0.000000 
#    z -0.076790 0.000000 1.948190 
# 
# From -- ./inp_files/13466.got.cif
#   From: 2010.05.17/outbox.cif.g08.bks.cpg/sg9_7_cif.got.tgz:13466.got - 2010.06.03 20:04:27.
