data_PCOD9139871
_publ_section_title
;
Structure prediction by ZEFSAII (Michael W. Deem and Ramdas Pophale) SiO2 
 PCOD9139871
Probable space group: C C
;
_chemical_formula_sum "Si O2"
_cell_formula_units_Z 32
_cell_length_a 14.780576
_cell_length_b 6.160296
_cell_length_c 15.911043
_cell_angle_alpha 90.000000
_cell_angle_beta 115.048928
_cell_angle_gamma 90.000000
_cell_volume 1312.484456
_symmetry_space_group_name_H-M "C C"
_symmetry_group_IT_number 9
_symmetry_cell_setting 'monoclinic'
loop_
_space_group_symop_operation_xyz
x,y,z
x,-y,1/2+z
1/2+x,1/2+y,z
1/2+x,1/2-y,1/2+z
loop_
_atom_site_type_symbol
_atom_site_label
_atom_site_fract_x
_atom_site_fract_y
_atom_site_fract_z
Si Si1 0.413370 0.531166 0.887290
Si Si2 0.072695 0.611447 0.425643
Si Si3 0.130303 0.047389 0.736417
Si Si4 0.766192 0.209769 0.702729
Si Si5 0.641241 0.811645 0.590190
Si Si6 0.277281 0.760574 0.430403
Si Si7 0.821151 0.460501 0.090657
Si Si8 0.983494 0.269749 0.269888
O O1 0.512959 0.674876 0.931392
O O2 0.336136 0.688765 0.810503
O O3 0.358971 0.423859 0.944822
O O4 0.427144 0.334292 0.826840
O O5 0.069729 0.433666 0.497950
O O6 0.187679 0.671535 0.453677
O O7 0.033104 0.490738 0.325581
O O8 0.086556 0.210543 0.649653
O O9 0.217933 0.165933 0.823253
O O10 0.177517 0.863640 0.696572
O O11 0.059255 0.919511 0.771618
O O12 0.823725 0.323399 0.649464
O O13 0.719038 0.984610 0.658017
O O14 0.713692 0.649797 0.567100
O O15 0.325078 0.966043 0.496300
O O16 0.909823 0.317105 0.163592
#
# Coordination Sequence:
#
# PCOD9139871 Si02
#       8
#     4   4   4   4   4   4   4   4
#     4  12  25  47  78 112 153 199 257 322 387 466
#     4  12  27  48  78 111 156 200 263 324 389 469
#     4  11  25  44  79 110 154 202 253 318 397 460
#     4  11  21  48  75  99 144 205 246 311 390 459
#     4  11  24  48  75 107 151 206 252 318 391 467
#     4  12  25  49  77 111 156 207 253 321 397 471
#     4  11  24  46  76 108 152 203 258 313 388 469
#     4  12  25  48  76 112 154 198 256 327 381 467
#
# _framework density 24.381242
#
# number of rings (size 3 to 8) (size 9 to 14) (size 15 to 20)
#    0.000    0.500    6.250    2.250    0.000    0.000 
#    2.250    5.000    2.750    0.000    0.000    0.000 
#    0.000    0.000    0.000    0.000    0.000    0.000 
#
# Total GULP energy -89585.479520 kJ/mol
# GULP energy per Si atom -5599.092470 kJ/mol
# Density = 2.432575 g / cm^3
# Si number density = 24.381242 Si / 1000 Ang^3
#
#
#
# Elastic Constant Matrix: (Units=GPa)
#
#
# Indices 1 2 3 4 5 6 
#
# 1 94.4246 38.8391 25.8349 0.0000 -3.1192 0.0000
# 2 38.8391 82.5943 34.5992 0.0000 -3.5518 0.0000
# 3 25.8349 34.5992 114.5987 0.0000 0.0149 0.0000
# 4 0.0000 0.0000 0.0000 58.8442 0.0000 -8.8958
# 5 -3.1192 -3.5518 0.0149 0.0000 19.8145 0.0000
# 6 0.0000 0.0000 0.0000 -8.8958 0.0000 35.5126
#
#
#
# Elastic Compliance Matrix: (Units=1/GPa)
#
#
# Indices 1 2 3 4 5 6 
#
# 1 0.013312 -0.005674 -0.001288 0.000000 0.001080 0.000000
# 2 -0.005674 0.016402 -0.003673 0.000000 0.002050 0.000000
# 3 -0.001288 -0.003673 0.010126 0.000000 -0.000869 0.000000
# 4 0.000000 0.000000 0.000000 0.017663 0.000000 0.004425
# 5 0.001080 0.002050 -0.000869 0.000000 0.051006 0.000000
# 6 0.000000 0.000000 0.000000 0.004425 0.000000 0.029267
#
#
# Mechanical properties :
#
#
# Convention : Reuss Voigt Hill
#
# Bulk Modulus (GPa) = 53.85159 54.46267 54.15713
# Shear Modulus (GPa) = 30.25945 35.65722 32.95833
#
# Velocity S-wave (km/s) = 3.52674 3.82839 3.68066
# Velocity P-wave (km/s) = 6.22247 6.47523 6.35011
#
# Compressibility (1/GPa) = 0.01856955
#
# Stress axis : x y z
#
# Youngs Moduli (GPa) = 75.11781 60.96664 98.75906
#
# Poissons Ratio (x) = 0.34592 0.12722
# Poissons Ratio (y) = 0.42622 0.36277
# Poissons Ratio (z) = 0.09677 0.22395
#
# Static dielectric constant tensor:
#      x y z
#    x 1.967100 0.000000 0.006960 
#    y 0.000000 1.993520 0.000000 
#    z 0.006960 0.000000 1.963630 
# 
# From -- ./inp_files/30430.got.cif
#   From: 2010.05.17/outbox.cif.g08.bks.cpg/sg9_16_cif.got.tgz:30430.got - 2010.06.03 20:04:27.
