data_PCOD9139507
_publ_section_title
;
Structure prediction by ZEFSAII (Michael W. Deem and Ramdas Pophale) SiO2 
 PCOD9139507
Probable space group: C C
;
_chemical_formula_sum "Si O2"
_cell_formula_units_Z 24
_cell_length_a 22.927568
_cell_length_b 4.764477
_cell_length_c 8.446022
_cell_angle_alpha 90.000000
_cell_angle_beta 68.445016
_cell_angle_gamma 90.000000
_cell_volume 858.102038
_symmetry_space_group_name_H-M "C C"
_symmetry_group_IT_number 9
_symmetry_cell_setting 'monoclinic'
loop_
_space_group_symop_operation_xyz
x,y,z
x,-y,1/2+z
1/2+x,1/2+y,z
1/2+x,1/2-y,1/2+z
loop_
_atom_site_type_symbol
_atom_site_label
_atom_site_fract_x
_atom_site_fract_y
_atom_site_fract_z
Si Si1 0.821120 0.102727 0.629440
Si Si2 0.486961 0.116103 0.958884
Si Si3 0.738926 0.288884 0.424018
Si Si4 0.903846 0.267961 0.823320
Si Si5 0.654216 0.220720 0.039225
Si Si6 0.571240 0.432141 0.386291
O O1 0.780599 0.262717 0.539893
O O2 0.848032 0.282060 0.749693
O O3 0.778180 0.855332 0.745737
O O4 0.877414 0.950088 0.477363
O O5 0.529484 0.345127 0.828846
O O6 0.429862 0.017729 0.904999
O O7 0.526142 0.834415 0.960996
O O8 0.461568 0.265773 0.143135
O O9 0.715188 0.602820 0.430222
O O10 0.675655 0.099723 0.510881
O O11 0.630389 0.301974 0.236065
O O12 0.599749 0.349509 0.984803
#
# Coordination Sequence:
#
# PCOD9139507 Si02
#       6
#     4   4   4   4   4   4
#     4  10  25  47  74 108 148 197 251 306 372 446
#     4  12  26  47  73 108 149 197 248 306 370 446
#     4  11  24  45  71 106 145 192 244 306 370 444
#     4  11  26  47  76 108 152 198 250 308 372 440
#     4  12  24  44  71 104 145 190 242 304 370 440
#     4  12  25  44  71 106 145 194 247 304 370 444
#
# _framework density 27.968703000000001
#
# number of rings (size 3 to 8) (size 9 to 14) (size 15 to 20)
#    0.000    0.667    0.000    7.000    0.000   10.667 
#    0.000    0.000    0.000    0.000    0.000    0.000 
#    0.000    0.000    0.000    0.000    0.000    0.000 
#
# Total GULP energy -67282.851191 kJ/mol
# GULP energy per Si atom -5606.904266 kJ/mol
# Density = 2.790504 g / cm^3
# Si number density = 27.968703 Si / 1000 Ang^3
#
#
#
# Elastic Constant Matrix: (Units=GPa)
#
#
# Indices 1 2 3 4 5 6 
#
# 1 155.0250 58.9218 48.7054 0.0000 0.9530 0.0000
# 2 58.9218 127.6482 28.3887 0.0000 1.8057 0.0000
# 3 48.7054 28.3887 106.5456 0.0000 10.3979 0.0000
# 4 0.0000 0.0000 0.0000 44.0254 0.0000 -5.7661
# 5 0.9530 1.8057 10.3979 0.0000 49.2857 0.0000
# 6 0.0000 0.0000 0.0000 -5.7661 0.0000 47.7320
#
#
#
# Elastic Compliance Matrix: (Units=1/GPa)
#
#
# Indices 1 2 3 4 5 6 
#
# 1 0.008700 -0.003324 -0.003152 0.000000 0.000619 0.000000
# 2 -0.003324 0.009599 -0.001031 0.000000 -0.000070 0.000000
# 3 -0.003152 -0.001031 0.011325 0.000000 -0.002290 0.000000
# 4 0.000000 0.000000 0.000000 0.023079 0.000000 0.002788
# 5 0.000619 -0.000070 -0.002290 0.000000 0.020764 0.000000
# 6 0.000000 0.000000 0.000000 0.002788 0.000000 0.021287
#
#
# Mechanical properties :
#
#
# Convention : Reuss Voigt Hill
#
# Bulk Modulus (GPa) = 68.44763 73.47229 70.95996
# Shear Modulus (GPa) = 43.61558 45.08880 44.35219
#
# Velocity S-wave (km/s) = 3.95326 4.01947 3.98650
# Velocity P-wave (km/s) = 6.73526 6.91867 6.82758
#
# Compressibility (1/GPa) = 0.01460971
#
# Stress axis : x y z
#
# Youngs Moduli (GPa) = 114.93782 104.18155 88.30152
#
# Poissons Ratio (x) = 0.34628 0.27832
# Poissons Ratio (y) = 0.38203 0.09106
# Poissons Ratio (z) = 0.36228 0.10744
#
# Static dielectric constant tensor:
#      x y z
#    x 2.225390 0.000000 -0.018640 
#    y 0.000000 2.093930 0.000000 
#    z -0.018640 0.000000 2.172230 
# 
# From -- ./inp_files/11901.got.cif
#   From: 2010.05.17/outbox.cif.g08.bks.cpg/sg9_6_cif.got.tgz:11901.got - 2010.06.03 20:04:27.
