data_PCOD9139454
_publ_section_title
;
Structure prediction by ZEFSAII (Michael W. Deem and Ramdas Pophale) SiO2 
 PCOD9139454
Probable space group: C C
;
_chemical_formula_sum "Si O2"
_cell_formula_units_Z 32
_cell_length_a 29.009786
_cell_length_b 7.280810
_cell_length_c 9.427710
_cell_angle_alpha 90.000000
_cell_angle_beta 41.971136
_cell_angle_gamma 90.000000
_cell_volume 1331.674931
_symmetry_space_group_name_H-M "C C"
_symmetry_group_IT_number 9
_symmetry_cell_setting 'monoclinic'
loop_
_space_group_symop_operation_xyz
x,y,z
x,-y,1/2+z
1/2+x,1/2+y,z
1/2+x,1/2-y,1/2+z
loop_
_atom_site_type_symbol
_atom_site_label
_atom_site_fract_x
_atom_site_fract_y
_atom_site_fract_z
Si Si1 0.700640 0.898071 0.799590
Si Si2 0.031334 0.814396 0.350960
Si Si3 0.388361 0.191263 0.708161
Si Si4 0.910738 0.691259 0.991877
Si Si5 0.267765 0.685604 0.849077
Si Si6 0.598460 0.398070 0.900446
Si Si7 0.055159 0.613789 0.765183
Si Si8 0.743940 0.613790 0.934854
O O1 0.725537 0.878108 0.583153
O O2 0.724755 0.724404 0.837754
O O3 0.736363 0.072962 0.791339
O O4 0.618976 0.899736 0.011288
O O5 0.040238 0.595475 0.343004
O O6 0.948445 0.831547 0.523728
O O7 0.062739 0.927036 0.408693
O O8 0.073562 0.878107 0.116885
O O9 0.399548 0.166885 0.850022
O O10 0.308448 0.221833 0.855462
O O11 0.399550 0.000002 0.600017
O O12 0.990651 0.721829 0.844572
O O13 0.850655 0.831545 0.176313
O O14 0.258861 0.904526 0.857034
O O15 0.574343 0.224406 0.862283
O O16 0.680124 0.399732 0.688749
#
# Coordination Sequence:
#
# PCOD9139454 Si02
#       8
#     4   4   4   4   4   4   4   4
#     4  11  27  45  76 112 142 195 245 311 364 443
#     4  11  27  46  76 106 150 192 249 301 372 441
#     4  10  25  45  75 103 144 196 243 298 367 442
#     4  10  25  45  75 103 144 196 243 298 367 442
#     4  11  27  46  76 106 150 192 249 301 372 441
#     4  11  27  45  76 112 142 195 245 311 364 443
#     4  10  26  47  75 105 150 192 248 298 379 436
#     4  10  26  47  75 105 150 192 248 298 379 436
#
# _framework density 24.029889000000001
#
# number of rings (size 3 to 8) (size 9 to 14) (size 15 to 20)
#    0.000    1.500    0.000    0.750   24.500    1.000 
#    0.000    0.000    0.000    0.000    0.000    0.000 
#    0.000    0.000    0.000    0.000    0.000    0.000 
#
# Total GULP energy -89647.898114 kJ/mol
# GULP energy per Si atom -5602.993632 kJ/mol
# Density = 2.397520 g / cm^3
# Si number density = 24.029889 Si / 1000 Ang^3
#
#
#
# Elastic Constant Matrix: (Units=GPa)
#
#
# Indices 1 2 3 4 5 6 
#
# 1 47.7632 21.6655 5.1939 0.0000 -33.3263 0.0000
# 2 21.6655 106.7836 28.9698 0.0000 -9.9538 0.0000
# 3 5.1939 28.9698 87.2741 0.0000 -18.8991 0.0000
# 4 0.0000 0.0000 0.0000 29.6164 0.0000 3.9319
# 5 -33.3263 -9.9538 -18.8991 0.0000 57.1175 0.0000
# 6 0.0000 0.0000 0.0000 3.9319 0.0000 66.8072
#
#
#
# Elastic Compliance Matrix: (Units=1/GPa)
#
#
# Indices 1 2 3 4 5 6 
#
# 1 0.040546 -0.007408 0.005267 0.000000 0.024109 0.000000
# 2 -0.007408 0.011672 -0.004232 0.000000 -0.003689 0.000000
# 3 0.005267 -0.004232 0.014063 0.000000 0.006989 0.000000
# 4 0.000000 0.000000 0.000000 0.034031 0.000000 -0.002003
# 5 0.024109 -0.003689 0.006989 0.000000 0.033244 0.000000
# 6 0.000000 0.000000 0.000000 -0.002003 0.000000 0.015086
#
#
# Mechanical properties :
#
#
# Convention : Reuss Voigt Hill
#
# Bulk Modulus (GPa) = 18.67966 39.27548 28.97757
# Shear Modulus (GPa) = 27.89636 43.10765 35.50201
#
# Velocity S-wave (km/s) = 3.41090 4.24006 3.84788
# Velocity P-wave (km/s) = 4.82729 6.35222 5.64152
#
# Compressibility (1/GPa) = 0.05353417
#
# Stress axis : x y z
#
# Youngs Moduli (GPa) = 24.66324 85.67401 71.10860
#
# Poissons Ratio (x) = 0.63468 -0.37452
# Poissons Ratio (y) = 0.18271 0.30096
# Poissons Ratio (z) = -0.12990 0.36260
#
# Static dielectric constant tensor:
#      x y z
#    x 1.939140 0.000000 -0.101990 
#    y 0.000000 1.911670 0.000000 
#    z -0.101990 0.000000 1.923500 
# 
# From -- ./inp_files/12693.got.cif
#   From: 2010.05.17/outbox.cif.g08.bks.cpg/sg9_7_cif.got.tgz:12693.got - 2010.06.03 20:04:27.
