data_PCOD9139561
_publ_section_title
;
Structure prediction by ZEFSAII (Michael W. Deem and Ramdas Pophale) SiO2 
 PCOD9139561
Probable space group: C C
;
_chemical_formula_sum "Si O2"
_cell_formula_units_Z 24
_cell_length_a 17.007836
_cell_length_b 5.619685
_cell_length_c 9.440439
_cell_angle_alpha 90.000000
_cell_angle_beta 93.632519
_cell_angle_gamma 90.000000
_cell_volume 900.491913
_symmetry_space_group_name_H-M "C C"
_symmetry_group_IT_number 9
_symmetry_cell_setting 'monoclinic'
loop_
_space_group_symop_operation_xyz
x,y,z
x,-y,1/2+z
1/2+x,1/2+y,z
1/2+x,1/2-y,1/2+z
loop_
_atom_site_type_symbol
_atom_site_label
_atom_site_fract_x
_atom_site_fract_y
_atom_site_fract_z
Si Si1 0.848320 0.796882 0.177530
Si Si2 0.612183 0.822768 0.836526
Si Si3 0.206769 0.585068 0.077477
Si Si4 0.313765 0.946253 0.947241
Si Si5 0.004406 0.066347 0.307694
Si Si6 0.979243 0.760304 0.529072
O O1 0.781547 0.995596 0.175560
O O2 0.819655 0.584328 0.279270
O O3 0.931653 0.901145 0.239291
O O4 0.839609 0.694246 0.018378
O O5 0.590949 0.547618 0.802486
O O6 0.533817 0.883510 0.923722
O O7 0.637911 0.905301 0.685021
O O8 0.680095 0.900965 0.952426
O O9 0.235370 0.826987 0.002927
O O10 0.387888 0.786194 0.004361
O O11 0.994317 0.032319 0.474398
O O12 0.000593 0.276138 0.194836
#
# Coordination Sequence:
#
# PCOD9139561 Si02
#       6
#     4   4   4   4   4   4
#     4  11  25  43  74 102 134 184 236 276 340 418
#     4  10  26  40  70  98 142 182 220 284 360 386
#     4  12  24  50  68 100 146 176 226 298 348 394
#     4  11  25  43  74 102 134 184 236 276 340 418
#     4   9  21  44  68 102 135 181 226 279 339 408
#     4   9  21  44  68 102 135 181 226 279 339 408
#
# _framework density 26.652100999999998
#
# number of rings (size 3 to 8) (size 9 to 14) (size 15 to 20)
#    1.000    0.667    3.333    0.000    4.667    2.667 
#    3.000    0.000    0.000    0.000    0.000    0.000 
#    0.000    0.000    0.000    0.000    0.000    0.000 
#
# Total GULP energy -66829.342372 kJ/mol
# GULP energy per Si atom -5569.111864 kJ/mol
# Density = 2.659144 g / cm^3
# Si number density = 26.652101 Si / 1000 Ang^3
#
#
#
# Elastic Constant Matrix: (Units=GPa)
#
#
# Indices 1 2 3 4 5 6 
#
# 1 115.4924 35.4415 39.9746 0.0000 -2.6176 0.0000
# 2 35.4415 23.4521 10.9745 0.0000 -4.3154 0.0000
# 3 39.9746 10.9745 125.0570 0.0000 -17.7293 0.0000
# 4 0.0000 0.0000 0.0000 45.7884 0.0000 -3.6545
# 5 -2.6176 -4.3154 -17.7293 0.0000 45.5651 0.0000
# 6 0.0000 0.0000 0.0000 -3.6545 0.0000 33.6846
#
#
#
# Elastic Compliance Matrix: (Units=1/GPa)
#
#
# Indices 1 2 3 4 5 6 
#
# 1 0.017783 -0.025607 -0.003848 0.000000 -0.002901 0.000000
# 2 -0.025607 0.081692 0.002016 0.000000 0.007050 0.000000
# 3 -0.003848 0.002016 0.009573 0.000000 0.003695 0.000000
# 4 0.000000 0.000000 0.000000 0.022030 0.000000 0.002390
# 5 -0.002901 0.007050 0.003695 0.000000 0.023885 0.000000
# 6 0.000000 0.000000 0.000000 0.002390 0.000000 0.029946
#
#
# Mechanical properties :
#
#
# Convention : Reuss Voigt Hill
#
# Bulk Modulus (GPa) = 18.46060 48.53140 33.49600
# Shear Modulus (GPa) = 19.39135 36.84835 28.11985
#
# Velocity S-wave (km/s) = 2.70028 3.72232 3.25171
# Velocity P-wave (km/s) = 4.08210 6.05995 5.16656
#
# Compressibility (1/GPa) = 0.05416943
#
# Stress axis : x y z
#
# Youngs Moduli (GPa) = 56.23346 12.24103 104.45585
#
# Poissons Ratio (x) = 0.31346 0.40199
# Poissons Ratio (y) = 1.43998 -0.21057
# Poissons Ratio (z) = 0.21641 -0.02468
#
# Static dielectric constant tensor:
#      x y z
#    x 2.024350 0.000000 -0.041990 
#    y 0.000000 2.293600 0.000000 
#    z -0.041990 0.000000 2.077440 
# 
# From -- ./inp_files/10298.got.cif
#   From: 2010.05.17/outbox.cif.g08.bks.cpg/sg9_6_cif.got.tgz:10298.got - 2010.06.03 20:04:27.
