data_PCOD9139153
_publ_section_title
;
Structure prediction by ZEFSAII (Michael W. Deem and Ramdas Pophale) SiO2 
 PCOD9139153
Probable space group: C C
;
_chemical_formula_sum "Si O2"
_cell_formula_units_Z 32
_cell_length_a 14.954116
_cell_length_b 11.877849
_cell_length_c 25.073986
_cell_angle_alpha 90.000000
_cell_angle_beta 160.473552
_cell_angle_gamma 90.000000
_cell_volume 1488.616684
_symmetry_space_group_name_H-M "C C"
_symmetry_group_IT_number 9
_symmetry_cell_setting 'monoclinic'
loop_
_space_group_symop_operation_xyz
x,y,z
x,-y,1/2+z
1/2+x,1/2+y,z
1/2+x,1/2-y,1/2+z
loop_
_atom_site_type_symbol
_atom_site_label
_atom_site_fract_x
_atom_site_fract_y
_atom_site_fract_z
Si Si1 0.520240 0.358384 0.140310
Si Si2 0.212548 0.135711 0.971883
Si Si3 0.204928 0.330164 0.121410
Si Si4 0.070682 0.084777 0.005273
Si Si5 0.098489 0.690018 0.917955
Si Si6 0.656937 0.987756 0.359504
Si Si7 0.897328 0.021104 0.162750
Si Si8 0.802545 0.594191 0.481882
O O1 0.387526 0.242834 0.085951
O O2 0.560222 0.443641 0.212228
O O3 0.791573 0.326375 0.262616
O O4 0.315223 0.421940 0.985244
O O5 0.043503 0.089316 0.926636
O O6 0.014539 0.173679 0.813313
O O7 0.379781 0.028060 0.047250
O O8 0.102566 0.214355 0.040434
O O9 0.183966 0.434071 0.068562
O O10 0.039492 0.352936 0.081501
O O11 0.354854 0.026313 0.178461
O O12 0.831047 0.031168 0.904298
O O13 0.145623 0.625993 0.888330
O O14 0.194562 0.817817 0.964679
O O15 0.268086 0.622212 0.057148
O O16 0.068561 0.069930 0.307377
#
# Coordination Sequence:
#
# PCOD9139153 Si02
#       8
#     4   4   4   4   4   4   4   4
#     4  11  22  44  69  98 134 179 232 272 338 409
#     4  11  27  42  68 100 134 178 225 281 339 408
#     4  11  23  46  67  97 134 178 225 274 340 413
#     4  12  24  45  69 100 139 181 224 284 343 403
#     4  11  24  43  70 101 134 178 226 284 334 407
#     4  11  24  43  69 103 135 176 233 281 336 404
#     4  10  24  45  70  98 132 182 222 276 343 410
#     4  11  26  44  66 103 136 172 225 286 337 402
#
# _framework density 21.496468
#
# number of rings (size 3 to 8) (size 9 to 14) (size 15 to 20)
#    0.000    1.000    5.000    0.750    5.250    2.000 
#    2.250    0.000    0.000    0.000    0.000    0.000 
#    0.000    0.000    0.000    0.000    0.000    0.000 
#
# Total GULP energy -89464.136710 kJ/mol
# GULP energy per Si atom -5591.508544 kJ/mol
# Density = 2.144754 g / cm^3
# Si number density = 21.496468 Si / 1000 Ang^3
#
#
#
# Elastic Constant Matrix: (Units=GPa)
#
#
# Indices 1 2 3 4 5 6 
#
# 1 75.2433 6.2606 7.6892 0.0024 10.2021 0.0038
# 2 6.2606 101.1041 22.2665 0.0219 -1.8950 -0.0028
# 3 7.6892 22.2665 44.7361 0.0659 14.0754 -0.0175
# 4 0.0024 0.0219 0.0659 8.2520 -0.0169 -1.8567
# 5 10.2021 -1.8950 14.0754 -0.0169 38.7224 0.0071
# 6 0.0038 -0.0028 -0.0175 -1.8567 0.0071 41.7943
#
#
#
# Elastic Compliance Matrix: (Units=1/GPa)
#
#
# Indices 1 2 3 4 5 6 
#
# 1 0.013903 -0.000706 -0.000988 -0.000001 -0.003338 -0.000001
# 2 -0.000706 0.011437 -0.006556 0.000028 0.003129 -0.000001
# 3 -0.000988 -0.006556 0.029138 -0.000236 -0.010652 0.000003
# 4 -0.000001 0.000028 -0.000236 0.122409 0.000140 0.005438
# 5 -0.003338 0.003129 -0.010652 0.000140 0.030730 -0.000003
# 6 -0.000001 -0.000001 0.000003 0.005438 -0.000003 0.024168
#
#
# Mechanical properties :
#
#
# Convention : Reuss Voigt Hill
#
# Bulk Modulus (GPa) = 26.33058 32.61291 29.47175
# Shear Modulus (GPa) = 19.16133 30.07822 24.61978
#
# Velocity S-wave (km/s) = 2.98882 3.74467 3.38789
# Velocity P-wave (km/s) = 4.91794 5.82245 5.38921
#
# Compressibility (1/GPa) = 0.03797865
#
# Stress axis : x y z
#
# Youngs Moduli (GPa) = 71.92931 87.43640 34.31963
#
# Poissons Ratio (x) = 0.06172 0.03390
# Poissons Ratio (y) = 0.05077 0.22498
# Poissons Ratio (z) = 0.07106 0.57319
#
# Static dielectric constant tensor:
#      x y z
#    x 1.774070 0.000000 -0.005090 
#    y 0.000000 1.755980 -0.000010 
#    z -0.005090 -0.000010 1.767090 
# 
# From -- ./inp_files/9222.got.cif
#   From: 2010.05.17/outbox.cif.g08.bks.cpg/sg9_5_cif.got.tgz:9222.got - 2010.06.03 20:04:27.
