data_PCOD9139884
_publ_section_title
;
Structure prediction by ZEFSAII (Michael W. Deem and Ramdas Pophale) SiO2 
 PCOD9139884
Probable space group: C C
;
_chemical_formula_sum "Si O2"
_cell_formula_units_Z 24
_cell_length_a 8.422835
_cell_length_b 27.479561
_cell_length_c 9.706396
_cell_angle_alpha 90.000000
_cell_angle_beta 147.253256
_cell_angle_gamma 90.000000
_cell_volume 1215.246806
_symmetry_space_group_name_H-M "C C"
_symmetry_group_IT_number 9
_symmetry_cell_setting 'monoclinic'
loop_
_space_group_symop_operation_xyz
x,y,z
x,-y,1/2+z
1/2+x,1/2+y,z
1/2+x,1/2-y,1/2+z
loop_
_atom_site_type_symbol
_atom_site_label
_atom_site_fract_x
_atom_site_fract_y
_atom_site_fract_z
Si Si1 0.280480 0.672699 0.297800
Si Si2 0.708650 0.537962 0.632775
Si Si3 0.716136 0.421986 0.633329
Si Si4 0.389301 0.402469 0.115699
Si Si5 0.782682 0.735484 0.962512
Si Si6 0.341363 0.590268 0.128699
O O1 0.403891 0.640020 0.511673
O O2 0.380787 0.727808 0.408325
O O3 0.330193 0.643089 0.195131
O O4 0.931785 0.683677 0.055018
O O5 0.741514 0.480469 0.644250
O O6 0.498087 0.550717 0.607929
O O7 0.544995 0.558112 0.378282
O O8 0.018330 0.565876 0.882196
O O9 0.583890 0.402209 0.394084
O O10 0.495203 0.407992 0.593831
O O11 0.046103 0.404392 0.902146
O O12 0.436484 0.739901 0.706073
#
# Coordination Sequence:
#
# PCOD9139884 Si02
#       6
#     4   4   4   4   4   4
#     4   9  21  37  61  88 104 150 192 234 283 335
#     4  11  22  39  58  79 111 164 202 227 263 338
#     4  12  23  38  53  87 121 153 181 244 291 321
#     4  11  24  36  61  82 118 147 197 235 280 342
#     4   8  18  32  62  84 106 134 194 240 268 342
#     4  11  24  36  61  82 118 148 198 234 279 342
#
# _framework density 19.749074
#
# number of rings (size 3 to 8) (size 9 to 14) (size 15 to 20)
#    1.000    0.667    0.000    6.000    7.000    0.000 
#    0.000    0.000    0.000    6.000    0.000    0.000 
#    0.000    0.000    0.000    0.000    0.000    0.000 
#
# Total GULP energy -66816.733804 kJ/mol
# GULP energy per Si atom -5568.061150 kJ/mol
# Density = 1.970412 g / cm^3
# Si number density = 19.749074 Si / 1000 Ang^3
#
#
#
# Elastic Constant Matrix: (Units=GPa)
#
#
# Indices 1 2 3 4 5 6 
#
# 1 72.2595 18.1820 27.1440 0.0000 -9.2401 0.0000
# 2 18.1820 65.7802 32.0844 0.0000 -10.3300 0.0000
# 3 27.1440 32.0844 145.3690 0.0000 6.0556 0.0000
# 4 0.0000 0.0000 0.0000 19.8259 0.0000 -0.5352
# 5 -9.2401 -10.3300 6.0556 0.0000 29.6038 0.0000
# 6 0.0000 0.0000 0.0000 -0.5352 0.0000 1.3751
#
#
#
# Elastic Compliance Matrix: (Units=1/GPa)
#
#
# Indices 1 2 3 4 5 6 
#
# 1 0.016046 -0.002395 -0.002664 0.000000 0.004717 0.000000
# 2 -0.002395 0.018855 -0.003991 0.000000 0.006648 0.000000
# 3 -0.002664 -0.003991 0.008422 0.000000 -0.003947 0.000000
# 4 0.000000 0.000000 0.000000 0.050975 0.000000 0.019840
# 5 0.004717 0.006648 -0.003947 0.000000 0.038379 0.000000
# 6 0.000000 0.000000 0.000000 0.019840 0.000000 0.734919
#
#
# Mechanical properties :
#
#
# Convention : Reuss Voigt Hill
#
# Bulk Modulus (GPa) = 39.64797 48.69217 44.17007
# Shear Modulus (GPa) = 5.59220 23.89420 14.74320
#
# Velocity S-wave (km/s) = 1.68457 3.48212 2.73523
# Velocity P-wave (km/s) = 4.88908 6.39342 5.69118
#
# Compressibility (1/GPa) = 0.02522197
#
# Stress axis : x y z
#
# Youngs Moduli (GPa) = 62.32246 53.03677 118.73934
#
# Poissons Ratio (x) = 0.12702 0.31633
# Poissons Ratio (y) = 0.14925 0.47391
# Poissons Ratio (z) = 0.16603 0.21168
#
# Static dielectric constant tensor:
#      x y z
#    x 1.665610 0.000000 0.028910 
#    y 0.000000 1.765720 0.000000 
#    z 0.028910 0.000000 1.775620 
# 
# From -- ./inp_files/6473.got.cif
#   From: 2010.05.17/outbox.cif.g08.bks.cpg/sg9_4_cif.got.tgz:6473.got - 2010.06.03 20:04:27.
