data_PCOD9139979
_publ_section_title
;
Structure prediction by ZEFSAII (Michael W. Deem and Ramdas Pophale) SiO2 
 PCOD9139979
Probable space group: C C
;
_chemical_formula_sum "Si O2"
_cell_formula_units_Z 20
_cell_length_a 9.946108
_cell_length_b 15.990125
_cell_length_c 5.315336
_cell_angle_alpha 90.000000
_cell_angle_beta 66.895025
_cell_angle_gamma 90.000000
_cell_volume 777.540861
_symmetry_space_group_name_H-M "C C"
_symmetry_group_IT_number 9
_symmetry_cell_setting 'monoclinic'
loop_
_space_group_symop_operation_xyz
x,y,z
x,-y,1/2+z
1/2+x,1/2+y,z
1/2+x,1/2-y,1/2+z
loop_
_atom_site_type_symbol
_atom_site_label
_atom_site_fract_x
_atom_site_fract_y
_atom_site_fract_z
Si Si1 0.580230 0.360300 0.675950
Si Si2 0.860916 0.219433 0.999932
Si Si3 0.732597 0.593630 0.574914
Si Si4 0.581457 0.204888 0.941809
Si Si5 0.014338 0.473197 0.358376
O O1 0.420082 0.331406 0.695868
O O2 0.640509 0.412938 0.398249
O O3 0.633573 0.403275 0.895185
O O4 0.638837 0.264945 0.677996
O O5 0.806212 0.314954 0.067562
O O6 0.723435 0.172660 0.981549
O O7 0.988745 0.236314 0.699262
O O8 0.865955 0.528622 0.450853
O O9 0.490713 0.125295 0.916177
O O10 0.094008 0.488650 0.039505
#
# Coordination Sequence:
#
# PCOD9139979 Si02
#       5
#     4   4   4   4   4
#     4  11  23  43  68 107 151 188 256 312 368 434
#     4  11  22  44  69 113 144 193 253 313 370 433
#     4  11  24  41  71 106 151 195 245 312 369 458
#     4  11  26  42  76 113 146 196 250 322 364 457
#     4  12  25  44  72 109 148 194 254 299 379 458
#
# _framework density 25.722121999999999
#
# number of rings (size 3 to 8) (size 9 to 14) (size 15 to 20)
#    0.000    0.800    6.000    2.400    8.400    0.000 
#    0.000    0.000    0.000    9.600    0.000    0.000 
#    0.000    0.000    0.000    0.000    0.000    0.000 
#
# Total GULP energy -55838.718347 kJ/mol
# GULP energy per Si atom -5583.871835 kJ/mol
# Density = 2.566358 g / cm^3
# Si number density = 25.722122 Si / 1000 Ang^3
#
#
#
# Elastic Constant Matrix: (Units=GPa)
#
#
# Indices 1 2 3 4 5 6 
#
# 1 136.4891 42.1313 54.7124 0.0000 28.2690 0.0000
# 2 42.1313 154.9629 30.2867 0.0000 10.9548 0.0000
# 3 54.7124 30.2867 147.9329 0.0000 47.2554 0.0000
# 4 0.0000 0.0000 0.0000 26.9870 0.0000 -8.5657
# 5 28.2690 10.9548 47.2554 0.0000 42.3592 0.0000
# 6 0.0000 0.0000 0.0000 -8.5657 0.0000 54.9464
#
#
#
# Elastic Compliance Matrix: (Units=1/GPa)
#
#
# Indices 1 2 3 4 5 6 
#
# 1 0.009456 -0.001935 -0.001934 0.000000 -0.003652 0.000000
# 2 -0.001935 0.007121 -0.000880 0.000000 0.000431 0.000000
# 3 -0.001934 -0.000880 0.011140 0.000000 -0.010909 0.000000
# 4 0.000000 0.000000 0.000000 0.038984 0.000000 0.006077
# 5 -0.003652 0.000431 -0.010909 0.000000 0.038104 0.000000
# 6 0.000000 0.000000 0.000000 0.006077 0.000000 0.019147
#
#
# Mechanical properties :
#
#
# Convention : Reuss Voigt Hill
#
# Bulk Modulus (GPa) = 54.89007 77.07173 65.98090
# Shear Modulus (GPa) = 35.83662 45.67548 40.75605
#
# Velocity S-wave (km/s) = 3.73664 4.21851 3.98486
# Velocity P-wave (km/s) = 6.32476 7.33185 6.84685
#
# Compressibility (1/GPa) = 0.01821823
#
# Stress axis : x y z
#
# Youngs Moduli (GPa) = 105.75789 140.43682 89.76368
#
# Poissons Ratio (x) = 0.27168 0.17365
# Poissons Ratio (y) = 0.20459 0.07901
# Poissons Ratio (z) = 0.20459 0.12361
#
# Static dielectric constant tensor:
#      x y z
#    x 2.071320 0.000000 0.052590 
#    y 0.000000 2.033990 0.000000 
#    z 0.052590 0.000000 2.219620 
# 
# From -- ./inp_files/1573.got.cif
#   From: 2010.05.17/outbox.cif.g08.bks.cpg/sg9_1_cif.got.tgz:1573.got - 2010.06.03 20:04:27.
