data_PCOD9139402
_publ_section_title
;
Structure prediction by ZEFSAII (Michael W. Deem and Ramdas Pophale) SiO2 
 PCOD9139402
Probable space group: C C
;
_chemical_formula_sum "Si O2"
_cell_formula_units_Z 16
_cell_length_a 5.220081
_cell_length_b 25.984844
_cell_length_c 5.266029
_cell_angle_alpha 90.000000
_cell_angle_beta 58.366827
_cell_angle_gamma 90.000000
_cell_volume 608.171678
_symmetry_space_group_name_H-M "C C"
_symmetry_group_IT_number 9
_symmetry_cell_setting 'monoclinic'
loop_
_space_group_symop_operation_xyz
x,y,z
x,-y,1/2+z
1/2+x,1/2+y,z
1/2+x,1/2-y,1/2+z
loop_
_atom_site_type_symbol
_atom_site_label
_atom_site_fract_x
_atom_site_fract_y
_atom_site_fract_z
Si Si1 0.194800 0.034127 0.998900
Si Si2 0.104702 0.834844 0.051141
Si Si3 0.410421 0.265668 0.542183
Si Si4 0.155639 0.599622 0.458014
O O1 0.481377 0.069442 0.776807
O O2 0.205521 0.992079 0.768991
O O3 0.874922 0.064132 0.174112
O O4 0.266792 0.779245 0.936148
O O5 0.375794 0.874139 0.960699
O O6 0.881085 0.859226 0.967753
O O7 0.420095 0.320462 0.404661
O O8 0.245763 0.254608 0.884897
#
# Coordination Sequence:
#
# PCOD9139402 Si02
#       4
#     4   4   4   4
#     4  12  29  54  79 112 154 200 253 334 409 454
#     4  10  25  44  68 115 144 207 244 308 369 444
#     4   8  20  40  66  98 160 190 246 296 372 434
#     4  12  28  44  83 105 154 191 271 306 378 478
#
# _framework density 26.308361000000001
#
# number of rings (size 3 to 8) (size 9 to 14) (size 15 to 20)
#    1.500    0.000    0.000    3.000    7.000    6.000 
#    0.000    0.000    0.000    0.000    0.000    0.000 
#    0.000    0.000    0.000    0.000    0.000    0.000 
#
# Total GULP energy -44691.461818 kJ/mol
# GULP energy per Si atom -5586.432727 kJ/mol
# Density = 2.624848 g / cm^3
# Si number density = 26.308361 Si / 1000 Ang^3
#
#
#
# Elastic Constant Matrix: (Units=GPa)
#
#
# Indices 1 2 3 4 5 6 
#
# 1 98.8029 34.9965 39.0363 0.0000 1.5033 0.0000
# 2 34.9965 101.3142 28.3838 0.0000 0.0017 0.0000
# 3 39.0363 28.3838 150.6992 0.0000 -32.0307 0.0000
# 4 0.0000 0.0000 0.0000 45.3869 0.0000 -19.8935
# 5 1.5033 0.0017 -32.0307 0.0000 35.2494 0.0000
# 6 0.0000 0.0000 0.0000 -19.8935 0.0000 46.0564
#
#
#
# Elastic Compliance Matrix: (Units=1/GPa)
#
#
# Indices 1 2 3 4 5 6 
#
# 1 0.012753 -0.003443 -0.003434 0.000000 -0.003664 0.000000
# 2 -0.003443 0.011491 -0.001538 0.000000 -0.001252 0.000000
# 3 -0.003434 -0.001538 0.009724 0.000000 0.008983 0.000000
# 4 0.000000 0.000000 0.000000 0.027178 0.000000 0.011739
# 5 -0.003664 -0.001252 0.008983 0.000000 0.036688 0.000000
# 6 0.000000 0.000000 0.000000 0.011739 0.000000 0.026783
#
#
# Mechanical properties :
#
#
# Convention : Reuss Voigt Hill
#
# Bulk Modulus (GPa) = 58.35190 61.73883 60.04536
# Shear Modulus (GPa) = 33.97649 41.89853 37.93751
#
# Velocity S-wave (km/s) = 3.59760 3.99506 3.80153
# Velocity P-wave (km/s) = 6.28372 6.69321 6.49169
#
# Compressibility (1/GPa) = 0.01713740
#
# Stress axis : x y z
#
# Youngs Moduli (GPa) = 78.41192 87.02724 102.83633
#
# Poissons Ratio (x) = 0.29965 0.35311
# Poissons Ratio (y) = 0.26999 0.15820
# Poissons Ratio (z) = 0.26925 0.13388
#
# Static dielectric constant tensor:
#      x y z
#    x 2.018740 0.000000 -0.098500 
#    y 0.000000 2.189550 0.000000 
#    z -0.098500 0.000000 2.238910 
# 
# From -- ./inp_files/209.got.cif
#   From: 2010.05.17/outbox.cif.g08.bks.cpg/sg9_1_cif.got.tgz:209.got - 2010.06.03 20:04:27.
