data_PCOD9139219
_publ_section_title
;
Structure prediction by ZEFSAII (Michael W. Deem and Ramdas Pophale) SiO2 
 PCOD9139219
Probable space group: C C
;
_chemical_formula_sum "Si O2"
_cell_formula_units_Z 24
_cell_length_a 6.077584
_cell_length_b 15.885615
_cell_length_c 10.862779
_cell_angle_alpha 90.000000
_cell_angle_beta 104.109379
_cell_angle_gamma 90.000000
_cell_volume 1017.120745
_symmetry_space_group_name_H-M "C C"
_symmetry_group_IT_number 9
_symmetry_cell_setting 'monoclinic'
loop_
_space_group_symop_operation_xyz
x,y,z
x,-y,1/2+z
1/2+x,1/2+y,z
1/2+x,1/2-y,1/2+z
loop_
_atom_site_type_symbol
_atom_site_label
_atom_site_fract_x
_atom_site_fract_y
_atom_site_fract_z
Si Si1 0.180240 0.748693 0.683820
Si Si2 0.370221 0.501420 0.420835
Si Si3 0.366575 0.793960 0.358064
Si Si4 0.579395 0.137596 0.289406
Si Si5 0.758057 0.838633 0.555664
Si Si6 0.508857 0.588496 0.689891
O O1 0.328679 0.834021 0.718945
O O2 0.324064 0.665671 0.667840
O O3 0.078755 0.733932 0.805181
O O4 0.950508 0.767612 0.576616
O O5 0.137579 0.555142 0.374038
O O6 0.320863 0.411439 0.472007
O O7 0.507200 0.549797 0.550677
O O8 0.464513 0.477213 0.297115
O O9 0.187946 0.721495 0.362305
O O10 0.496382 0.815499 0.498733
O O11 0.240412 0.865682 0.263431
O O12 0.740674 0.128760 0.192034
#
# Coordination Sequence:
#
# PCOD9139219 Si02
#       6
#     4   4   4   4   4   4
#     4  10  24  46  73 103 139 197 244 305 355 448
#     4  12  25  47  69 109 149 189 236 309 373 425
#     4  10  24  46  72 103 140 192 252 295 358 447
#     4  10  25  44  70 103 140 192 243 305 361 434
#     4  11  24  45  68 107 140 184 250 298 370 429
#     4  11  26  48  72 107 150 192 247 298 371 433
#
# _framework density 23.596021
#
# number of rings (size 3 to 8) (size 9 to 14) (size 15 to 20)
#    0.000    1.333    3.333    0.000   11.667    1.333 
#    3.000    0.000    0.000    0.000    0.000    0.000 
#    0.000    0.000    0.000    0.000    0.000    0.000 
#
# Total GULP energy -66900.582430 kJ/mol
# GULP energy per Si atom -5575.048536 kJ/mol
# Density = 2.354232 g / cm^3
# Si number density = 23.596021 Si / 1000 Ang^3
#
#
#
# Elastic Constant Matrix: (Units=GPa)
#
#
# Indices 1 2 3 4 5 6 
#
# 1 66.8478 15.2028 34.1021 0.0000 11.4205 0.0000
# 2 15.2028 68.3630 52.1808 0.0000 6.6760 0.0000
# 3 34.1021 52.1808 115.6083 0.0000 14.1707 0.0000
# 4 0.0000 0.0000 0.0000 47.4005 0.0000 21.0412
# 5 11.4205 6.6760 14.1707 0.0000 45.3807 0.0000
# 6 0.0000 0.0000 0.0000 21.0412 0.0000 17.8644
#
#
#
# Elastic Compliance Matrix: (Units=1/GPa)
#
#
# Indices 1 2 3 4 5 6 
#
# 1 0.017990 0.000095 -0.004984 0.000000 -0.002985 0.000000
# 2 0.000095 0.022317 -0.010082 0.000000 -0.000159 0.000000
# 3 -0.004984 -0.010082 0.014905 0.000000 -0.001917 0.000000
# 4 0.000000 0.000000 0.000000 0.044213 0.000000 -0.052076
# 5 -0.002985 -0.000159 -0.001917 0.000000 0.023409 0.000000
# 6 0.000000 0.000000 0.000000 -0.052076 0.000000 0.117314
#
#
# Mechanical properties :
#
#
# Convention : Reuss Voigt Hill
#
# Bulk Modulus (GPa) = 39.56945 50.42114 44.99530
# Shear Modulus (GPa) = 17.95240 32.08469 25.01855
#
# Velocity S-wave (km/s) = 2.76130 3.69148 3.25974
# Velocity P-wave (km/s) = 5.19348 6.29160 5.76873
#
# Compressibility (1/GPa) = 0.02527202
#
# Stress axis : x y z
#
# Youngs Moduli (GPa) = 55.58590 44.80789 67.08980
#
# Poissons Ratio (x) = -0.00424 0.33435
# Poissons Ratio (y) = -0.00527 0.67638
# Poissons Ratio (z) = 0.27702 0.45174
#
# Static dielectric constant tensor:
#      x y z
#    x 1.929160 0.000000 0.080580 
#    y 0.000000 1.912700 0.000000 
#    z 0.080580 0.000000 2.039660 
# 
# From -- ./inp_files/12928.got.cif
#   From: 2010.05.17/outbox.cif.g08.bks.cpg/sg9_7_cif.got.tgz:12928.got - 2010.06.03 20:04:27.
