data_PCOD9139161
_publ_section_title
;
Structure prediction by ZEFSAII (Michael W. Deem and Ramdas Pophale) SiO2 
 PCOD9139161
Probable space group: C C
;
_chemical_formula_sum "Si O2"
_cell_formula_units_Z 24
_cell_length_a 5.024410
_cell_length_b 13.839888
_cell_length_c 13.358883
_cell_angle_alpha 90.000000
_cell_angle_beta 107.248165
_cell_angle_gamma 90.000000
_cell_volume 887.165313
_symmetry_space_group_name_H-M "C C"
_symmetry_group_IT_number 9
_symmetry_cell_setting 'monoclinic'
loop_
_space_group_symop_operation_xyz
x,y,z
x,-y,1/2+z
1/2+x,1/2+y,z
1/2+x,1/2-y,1/2+z
loop_
_atom_site_type_symbol
_atom_site_label
_atom_site_fract_x
_atom_site_fract_y
_atom_site_fract_z
Si Si1 0.192180 0.688017 0.033070
Si Si2 0.975123 0.413537 0.328594
Si Si3 0.761023 0.855632 0.010228
Si Si4 0.209133 0.012993 0.463017
Si Si5 0.173309 0.280770 0.184706
Si Si6 0.469797 0.089392 0.182867
O O1 0.458058 0.756124 0.069922
O O2 0.906044 0.750361 0.998661
O O3 0.214468 0.630501 0.140209
O O4 0.189920 0.617283 0.939769
O O5 0.001475 0.323201 0.256544
O O6 0.708372 0.442161 0.366840
O O7 0.031637 0.504303 0.264558
O O8 0.845465 0.859766 0.139324
O O9 0.469673 0.914713 0.969526
O O10 0.952416 0.920549 0.959157
O O11 0.275875 0.954086 0.572492
O O12 0.345985 0.184238 0.223654
#
# Coordination Sequence:
#
# PCOD9139161 Si02
#       6
#     4   4   4   4   4   4
#     4  10  24  46  76 112 158 203 264 329 396 469
#     4  11  25  48  74 120 149 217 263 323 401 477
#     4  11  22  48  75 106 157 198 252 332 387 458
#     4  11  25  46  76 110 152 204 258 326 390 470
#     4  11  24  47  77 110 161 208 263 327 396 470
#     4  10  24  45  72 108 155 200 262 327 390 470
#
# _framework density 27.052453
#
# number of rings (size 3 to 8) (size 9 to 14) (size 15 to 20)
#    0.000    1.333    3.333    0.000    7.000    1.333 
#    9.000    0.000    0.000    0.000    0.000    0.000 
#    0.000    0.000    0.000    0.000    0.000    0.000 
#
# Total GULP energy -67010.822632 kJ/mol
# GULP energy per Si atom -5584.235219 kJ/mol
# Density = 2.699088 g / cm^3
# Si number density = 27.052453 Si / 1000 Ang^3
#
#
#
# Elastic Constant Matrix: (Units=GPa)
#
#
# Indices 1 2 3 4 5 6 
#
# 1 90.5337 12.1896 14.4225 0.0000 -13.3694 0.0000
# 2 12.1896 117.5384 67.5801 0.0000 -19.7023 0.0000
# 3 14.4225 67.5801 139.1462 0.0000 -28.2448 0.0000
# 4 0.0000 0.0000 0.0000 58.6686 0.0000 -7.1756
# 5 -13.3694 -19.7023 -28.2448 0.0000 28.5736 0.0000
# 6 0.0000 0.0000 0.0000 -7.1756 0.0000 16.9835
#
#
#
# Elastic Compliance Matrix: (Units=1/GPa)
#
#
# Indices 1 2 3 4 5 6 
#
# 1 0.011877 -0.000350 0.000022 0.000000 0.005338 0.000000
# 2 -0.000350 0.012037 -0.005202 0.000000 0.002994 0.000000
# 3 0.000022 -0.005202 0.011240 0.000000 0.007534 0.000000
# 4 0.000000 0.000000 0.000000 0.017974 0.000000 0.007594
# 5 0.005338 0.002994 0.007534 0.000000 0.047007 0.000000
# 6 0.000000 0.000000 0.000000 0.007594 0.000000 0.062089
#
#
# Mechanical properties :
#
#
# Convention : Reuss Voigt Hill
#
# Bulk Modulus (GPa) = 41.50119 59.51143 50.50631
# Shear Modulus (GPa) = 27.57622 37.71356 32.64489
#
# Velocity S-wave (km/s) = 3.19621 3.73780 3.47756
# Velocity P-wave (km/s) = 5.38473 6.37766 5.90211
#
# Compressibility (1/GPa) = 0.02409570
#
# Stress axis : x y z
#
# Youngs Moduli (GPa) = 84.19301 83.07710 88.96571
#
# Poissons Ratio (x) = 0.02906 -0.00199
# Poissons Ratio (y) = 0.02945 0.46281
# Poissons Ratio (z) = -0.00189 0.43218
#
# Static dielectric constant tensor:
#      x y z
#    x 2.324370 0.000000 0.004550 
#    y 0.000000 2.318310 0.000000 
#    z 0.004550 0.000000 2.091570 
# 
# From -- ./inp_files/12963.got.cif
#   From: 2010.05.17/outbox.cif.g08.bks.cpg/sg9_7_cif.got.tgz:12963.got - 2010.06.03 20:04:27.
