data_PCOD9139945
_publ_section_title
;
Structure prediction by ZEFSAII (Michael W. Deem and Ramdas Pophale) SiO2 
 PCOD9139945
Probable space group: C C
;
_chemical_formula_sum "Si O2"
_cell_formula_units_Z 32
_cell_length_a 18.221571
_cell_length_b 11.754091
_cell_length_c 8.241746
_cell_angle_alpha 90.000000
_cell_angle_beta 50.872177
_cell_angle_gamma 90.000000
_cell_volume 1369.336897
_symmetry_space_group_name_H-M "C C"
_symmetry_group_IT_number 9
_symmetry_cell_setting 'monoclinic'
loop_
_space_group_symop_operation_xyz
x,y,z
x,-y,1/2+z
1/2+x,1/2+y,z
1/2+x,1/2-y,1/2+z
loop_
_atom_site_type_symbol
_atom_site_label
_atom_site_fract_x
_atom_site_fract_y
_atom_site_fract_z
Si Si1 0.811970 0.968736 0.347910
Si Si2 0.138802 0.648463 0.603934
Si Si3 0.489863 0.971308 0.139377
Si Si4 0.730788 0.232774 0.800855
Si Si5 0.054670 0.324487 0.743979
Si Si6 0.776905 0.545803 0.401015
Si Si7 0.892016 0.157606 0.051095
Si Si8 0.232019 0.165029 0.800975
O O1 0.803481 0.871088 0.222466
O O2 0.837929 0.902539 0.475812
O O3 0.712914 0.041333 0.487112
O O4 0.891094 0.061230 0.189636
O O5 0.032693 0.604029 0.727355
O O6 0.173102 0.713685 0.716573
O O7 0.155239 0.738077 0.435432
O O8 0.379008 0.987527 0.275337
O O9 0.524091 0.098571 0.132375
O O10 0.249772 0.107151 0.604223
O O11 0.775127 0.356498 0.765476
O O12 0.659392 0.212747 0.051355
O O13 0.035252 0.409149 0.921163
O O14 0.989222 0.214103 0.859825
O O15 0.710901 0.440863 0.446727
O O16 0.827684 0.262730 0.201698
#
# Coordination Sequence:
#
# PCOD9139945 Si02
#       8
#     4   4   4   4   4   4   4   4
#     4  11  22  42  72  96 136 187 242 289 366 428
#     4  11  25  42  72 107 141 188 250 305 356 438
#     4  12  23  42  67 107 143 189 247 303 363 439
#     4  12  24  43  72 107 145 193 244 300 371 445
#     4  12  25  42  68 105 149 186 240 309 368 437
#     4  12  23  44  71 105 151 193 241 302 380 444
#     4  11  23  45  67 104 137 188 237 303 357 440
#     4  11  23  42  69 103 144 192 239 299 375 437
#
# _framework density 23.368974999999999
#
# number of rings (size 3 to 8) (size 9 to 14) (size 15 to 20)
#    0.000    0.500    6.250    2.250    1.750    0.000 
#    0.000    5.000    0.000    0.000    0.000    0.000 
#    0.000    0.000    0.000    0.000    0.000    0.000 
#
# Total GULP energy -89410.495984 kJ/mol
# GULP energy per Si atom -5588.155999 kJ/mol
# Density = 2.331579 g / cm^3
# Si number density = 23.368975 Si / 1000 Ang^3
#
#
#
# Elastic Constant Matrix: (Units=GPa)
#
#
# Indices 1 2 3 4 5 6 
#
# 1 63.8065 52.7408 28.9249 0.0000 8.5260 0.0000
# 2 52.7408 172.5995 44.3595 0.0000 0.4709 0.0000
# 3 28.9249 44.3595 73.6980 0.0000 8.8622 0.0000
# 4 0.0000 0.0000 0.0000 53.3466 0.0000 0.8051
# 5 8.5260 0.4709 8.8622 0.0000 26.4275 0.0000
# 6 0.0000 0.0000 0.0000 0.8051 0.0000 41.2840
#
#
#
# Elastic Compliance Matrix: (Units=1/GPa)
#
#
# Indices 1 2 3 4 5 6 
#
# 1 0.023607 -0.005911 -0.005006 0.000000 -0.005832 0.000000
# 2 -0.005911 0.008378 -0.003058 0.000000 0.002783 0.000000
# 3 -0.005006 -0.003058 0.017895 0.000000 -0.004331 0.000000
# 4 0.000000 0.000000 0.000000 0.018751 0.000000 -0.000366
# 5 -0.005832 0.002783 -0.004331 0.000000 0.041124 0.000000
# 6 0.000000 0.000000 0.000000 -0.000366 0.000000 0.024230
#
#
# Mechanical properties :
#
#
# Convention : Reuss Voigt Hill
#
# Bulk Modulus (GPa) = 45.59822 62.46160 54.02991
# Shear Modulus (GPa) = 29.54320 36.48354 33.01337
#
# Velocity S-wave (km/s) = 3.55943 3.95548 3.76267
# Velocity P-wave (km/s) = 6.03716 6.90272 6.48440
#
# Compressibility (1/GPa) = 0.02193068
#
# Stress axis : x y z
#
# Youngs Moduli (GPa) = 42.36059 119.35712 55.88186
#
# Poissons Ratio (x) = 0.70552 0.27974
# Poissons Ratio (y) = 0.25039 0.17087
# Poissons Ratio (z) = 0.21206 0.36495
#
# Static dielectric constant tensor:
#      x y z
#    x 1.918290 0.000000 0.050360 
#    y 0.000000 1.888350 0.000000 
#    z 0.050360 0.000000 1.947860 
# 
# From -- ./inp_files/10729.got.cif
#   From: 2010.05.17/outbox.cif.g08.bks.cpg/sg9_6_cif.got.tgz:10729.got - 2010.06.03 20:04:27.
