data_PCOD9139314
_publ_section_title
;
Structure prediction by ZEFSAII (Michael W. Deem and Ramdas Pophale) SiO2 
 PCOD9139314
Probable space group: C C
;
_chemical_formula_sum "Si O2"
_cell_formula_units_Z 24
_cell_length_a 5.202860
_cell_length_b 23.297608
_cell_length_c 8.201750
_cell_angle_alpha 90.000000
_cell_angle_beta 101.560709
_cell_angle_gamma 90.000000
_cell_volume 973.999719
_symmetry_space_group_name_H-M "C C"
_symmetry_group_IT_number 9
_symmetry_cell_setting 'monoclinic'
loop_
_space_group_symop_operation_xyz
x,y,z
x,-y,1/2+z
1/2+x,1/2+y,z
1/2+x,1/2-y,1/2+z
loop_
_atom_site_type_symbol
_atom_site_label
_atom_site_fract_x
_atom_site_fract_y
_atom_site_fract_z
Si Si1 0.437680 0.435242 0.018730
Si Si2 0.949694 0.488646 0.575296
Si Si3 0.278386 0.801442 0.559338
Si Si4 0.388820 0.677722 0.705965
Si Si5 0.094467 0.904919 0.696308
Si Si6 0.623894 0.113470 0.922107
O O1 0.486457 0.373707 0.106329
O O2 0.706402 0.469598 0.051139
O O3 0.411250 0.423322 0.821777
O O4 0.211661 0.472332 0.082675
O O5 0.853505 0.443966 0.706711
O O6 0.953436 0.443396 0.423755
O O7 0.328344 0.735990 0.605968
O O8 0.172687 0.837897 0.700663
O O9 0.531573 0.837836 0.536660
O O10 0.081032 0.807142 0.380864
O O11 0.136107 0.647262 0.756158
O O12 0.910907 0.909342 0.511871
#
# Coordination Sequence:
#
# PCOD9139314 Si02
#       6
#     4   4   4   4   4   4
#     4  12  29  43  83 113 156 202 270 310 405 460
#     4  11  26  47  73 115 159 202 256 329 382 472
#     4  10  26  49  77 106 161 199 270 321 397 460
#     4  11  28  47  78 115 151 210 262 328 394 468
#     4  10  25  49  73 111 152 209 253 332 386 460
#     4  10  24  49  74 104 159 198 259 322 396 450
#
# _framework density 24.640661999999999
#
# number of rings (size 3 to 8) (size 9 to 14) (size 15 to 20)
#    0.000    1.333    1.667    0.000   16.333    1.333 
#    0.000    0.000    0.000    0.000    0.000    0.000 
#    0.000    0.000    0.000    0.000    0.000    0.000 
#
# Total GULP energy -66990.787368 kJ/mol
# GULP energy per Si atom -5582.565614 kJ/mol
# Density = 2.458458 g / cm^3
# Si number density = 24.640662 Si / 1000 Ang^3
#
#
#
# Elastic Constant Matrix: (Units=GPa)
#
#
# Indices 1 2 3 4 5 6 
#
# 1 161.7582 87.1448 40.0928 0.0000 -21.1853 0.0000
# 2 87.1448 269.8715 68.4433 0.0000 -11.7920 0.0000
# 3 40.0928 68.4433 81.6046 0.0000 -9.1506 0.0000
# 4 0.0000 0.0000 0.0000 38.7525 0.0000 -3.9322
# 5 -21.1853 -11.7920 -9.1506 0.0000 25.1097 0.0000
# 6 0.0000 0.0000 0.0000 -3.9322 0.0000 31.7683
#
#
#
# Elastic Compliance Matrix: (Units=1/GPa)
#
#
# Indices 1 2 3 4 5 6 
#
# 1 0.008448 -0.002021 -0.001838 0.000000 0.005509 0.000000
# 2 -0.002021 0.005206 -0.003430 0.000000 -0.000511 0.000000
# 3 -0.001838 -0.003430 0.016348 0.000000 0.002796 0.000000
# 4 0.000000 0.000000 0.000000 0.026133 0.000000 0.003235
# 5 0.005509 -0.000511 0.002796 0.000000 0.045252 0.000000
# 6 0.000000 0.000000 0.000000 0.003235 0.000000 0.031878
#
#
# Mechanical properties :
#
#
# Convention : Reuss Voigt Hill
#
# Bulk Modulus (GPa) = 64.83819 100.51070 82.67445
# Shear Modulus (GPa) = 32.68307 40.29633 36.48970
#
# Velocity S-wave (km/s) = 3.64591 4.04834 3.85239
# Velocity P-wave (km/s) = 6.64035 7.92031 7.30840
#
# Compressibility (1/GPa) = 0.01542301
#
# Stress axis : x y z
#
# Youngs Moduli (GPa) = 118.37292 192.09205 61.17040
#
# Poissons Ratio (x) = 0.38825 0.11241
# Poissons Ratio (y) = 0.23925 0.20984
# Poissons Ratio (z) = 0.21752 0.65897
#
# Static dielectric constant tensor:
#      x y z
#    x 2.026920 0.000000 0.003320 
#    y 0.000000 1.916750 0.000000 
#    z 0.003320 0.000000 2.098370 
# 
# From -- ./inp_files/3854.got.cif
#   From: 2010.05.17/outbox.cif.g08.bks.cpg/sg9_2_cif.got.tgz:3854.got - 2010.06.03 20:04:27.
