data_PCOD9139346
_publ_section_title
;
Structure prediction by ZEFSAII (Michael W. Deem and Ramdas Pophale) SiO2 
 PCOD9139346
Probable space group: C C
;
_chemical_formula_sum "Si O2"
_cell_formula_units_Z 24
_cell_length_a 7.721495
_cell_length_b 14.559829
_cell_length_c 8.694869
_cell_angle_alpha 90.000000
_cell_angle_beta 65.495083
_cell_angle_gamma 90.000000
_cell_volume 889.460433
_symmetry_space_group_name_H-M "C C"
_symmetry_group_IT_number 9
_symmetry_cell_setting 'monoclinic'
loop_
_space_group_symop_operation_xyz
x,y,z
x,-y,1/2+z
1/2+x,1/2+y,z
1/2+x,1/2-y,1/2+z
loop_
_atom_site_type_symbol
_atom_site_label
_atom_site_fract_x
_atom_site_fract_y
_atom_site_fract_z
Si Si1 0.050240 0.028394 0.116960
Si Si2 0.639245 0.651714 0.699978
Si Si3 0.289215 0.688363 0.315758
Si Si4 0.954673 0.562627 0.004362
Si Si5 0.694578 0.079261 0.624069
Si Si6 0.894930 0.683193 0.313244
O O1 0.752432 0.169531 0.507357
O O2 0.265698 0.034995 0.980657
O O3 0.089120 0.953785 0.238804
O O4 0.885861 0.979015 0.081348
O O5 0.464287 0.626592 0.196173
O O6 0.782619 0.706797 0.760455
O O7 0.730800 0.665928 0.497082
O O8 0.445114 0.709310 0.785951
O O9 0.099409 0.647630 0.302818
O O10 0.053895 0.482162 0.068602
O O11 0.880454 0.636717 0.154456
O O12 0.101451 0.595798 0.822950
#
# Coordination Sequence:
#
# PCOD9139346 Si02
#       6
#     4   4   4   4   4   4
#     4  12  26  47  90 113 161 227 273 341 432 498
#     4  10  25  49  80 114 159 221 270 344 423 484
#     4  10  25  50  78 114 167 213 275 346 416 499
#     4  12  26  46  82 122 161 219 284 340 419 515
#     4  12  24  47  76 123 163 214 282 343 414 512
#     4  10  24  53  76 110 171 208 272 350 414 492
#
# _framework density 26.982651000000001
#
# number of rings (size 3 to 8) (size 9 to 14) (size 15 to 20)
#    1.000    0.000    3.333    2.000    7.000    1.333 
#    3.000    6.667    0.000    0.000    0.000    0.000 
#    0.000    0.000    0.000    0.000    0.000    0.000 
#
# Total GULP energy -67179.847571 kJ/mol
# GULP energy per Si atom -5598.320631 kJ/mol
# Density = 2.692124 g / cm^3
# Si number density = 26.982651 Si / 1000 Ang^3
#
#
#
# Elastic Constant Matrix: (Units=GPa)
#
#
# Indices 1 2 3 4 5 6 
#
# 1 172.6493 36.5020 45.0546 0.0000 -20.4988 0.0000
# 2 36.5020 132.0077 33.7387 0.0000 7.8835 0.0000
# 3 45.0546 33.7387 165.1676 0.0000 3.0606 0.0000
# 4 0.0000 0.0000 0.0000 43.6958 0.0000 5.2018
# 5 -20.4988 7.8835 3.0606 0.0000 41.2542 0.0000
# 6 0.0000 0.0000 0.0000 5.2018 0.0000 53.2354
#
#
#
# Elastic Compliance Matrix: (Units=1/GPa)
#
#
# Indices 1 2 3 4 5 6 
#
# 1 0.007066 -0.001772 -0.001639 0.000000 0.003971 0.000000
# 2 -0.001772 0.008520 -0.001212 0.000000 -0.002419 0.000000
# 3 -0.001639 -0.001212 0.006769 0.000000 -0.001085 0.000000
# 4 0.000000 0.000000 0.000000 0.023155 0.000000 -0.002263
# 5 0.003971 -0.002419 -0.001085 0.000000 0.026756 0.000000
# 6 0.000000 0.000000 0.000000 -0.002263 0.000000 0.019006
#
#
# Mechanical properties :
#
#
# Convention : Reuss Voigt Hill
#
# Bulk Modulus (GPa) = 76.28741 77.82392 77.05566
# Shear Modulus (GPa) = 47.67036 51.27240 49.47138
#
# Velocity S-wave (km/s) = 4.20778 4.36386 4.28653
# Velocity P-wave (km/s) = 7.20703 7.36857 7.28825
#
# Compressibility (1/GPa) = 0.01310832
#
# Stress axis : x y z
#
# Youngs Moduli (GPa) = 141.52298 117.37710 147.72669
#
# Poissons Ratio (x) = 0.20800 0.24213
# Poissons Ratio (y) = 0.25079 0.17905
# Poissons Ratio (z) = 0.23197 0.14227
#
# Static dielectric constant tensor:
#      x y z
#    x 2.082090 0.000000 0.039790 
#    y 0.000000 2.152510 0.000000 
#    z 0.039790 0.000000 2.046340 
# 
# From -- ./inp_files/5536.got.cif
#   From: 2010.05.17/outbox.cif.g08.bks.cpg/sg9_3_cif.got.tgz:5536.got - 2010.06.03 20:04:27.
