data_PCOD9139759
_publ_section_title
;
Structure prediction by ZEFSAII (Michael W. Deem and Ramdas Pophale) SiO2 
 PCOD9139759
Probable space group: C C
;
_chemical_formula_sum "Si O2"
_cell_formula_units_Z 28
_cell_length_a 13.491158
_cell_length_b 11.520457
_cell_length_c 12.779838
_cell_angle_alpha 90.000000
_cell_angle_beta 145.308471
_cell_angle_gamma 90.000000
_cell_volume 1130.517014
_symmetry_space_group_name_H-M "C C"
_symmetry_group_IT_number 9
_symmetry_cell_setting 'monoclinic'
loop_
_space_group_symop_operation_xyz
x,y,z
x,-y,1/2+z
1/2+x,1/2+y,z
1/2+x,1/2-y,1/2+z
loop_
_atom_site_type_symbol
_atom_site_label
_atom_site_fract_x
_atom_site_fract_y
_atom_site_fract_z
Si Si1 0.296330 0.533789 0.707550
Si Si2 0.574836 0.225325 0.581282
Si Si3 0.410148 0.094625 0.098412
Si Si4 0.250441 0.092804 0.356471
Si Si5 0.483298 0.903606 0.331420
Si Si6 0.096313 0.862767 0.945522
Si Si7 0.545274 0.294756 0.324440
O O1 0.229607 0.631248 0.730860
O O2 0.439086 0.436760 0.858215
O O3 0.391564 0.610634 0.699522
O O4 0.120556 0.469142 0.523728
O O5 0.410583 0.183243 0.504293
O O6 0.638869 0.353547 0.666125
O O7 0.528872 0.222165 0.418254
O O8 0.531951 0.207049 0.215088
O O9 0.488573 0.988958 0.233922
O O10 0.231487 0.144442 0.992681
O O11 0.340935 0.032942 0.933488
O O12 0.134029 0.096291 0.358984
O O13 0.553634 0.772242 0.393352
O O14 0.275253 0.886950 0.161909
#
# Coordination Sequence:
#
# PCOD9139759 Si02
#       7
#     4   4   4   4   4   4   4
#     4  12  23  40  71 101 139 192 242 289 351 444
#     4  12  24  42  69 107 142 179 237 308 369 414
#     4  11  22  40  69 101 139 185 244 289 345 438
#     4  11  24  39  66 105 146 174 232 308 367 407
#     4  11  21  37  66 102 139 174 245 289 342 416
#     4  11  23  41  67 106 142 186 235 296 356 433
#     4  12  21  41  70 102 133 192 245 287 346 438
#
# _framework density 24.767430000000001
#
# number of rings (size 3 to 8) (size 9 to 14) (size 15 to 20)
#    0.000    0.571    8.571    1.714    0.000    0.000 
#    0.000    0.000    3.143    0.000    0.000    0.000 
#    0.000    0.000    0.000    0.000    0.000    0.000 
#
# Total GULP energy -78138.269353 kJ/mol
# GULP energy per Si atom -5581.304954 kJ/mol
# Density = 2.471106 g / cm^3
# Si number density = 24.767430 Si / 1000 Ang^3
#
#
#
# Elastic Constant Matrix: (Units=GPa)
#
#
# Indices 1 2 3 4 5 6 
#
# 1 41.5184 17.3546 27.1139 0.0000 11.6554 0.0000
# 2 17.3546 151.6397 33.7880 0.0000 -6.8619 0.0000
# 3 27.1139 33.7880 98.9912 -0.0001 12.3595 0.0000
# 4 0.0000 0.0000 -0.0001 60.9170 0.0000 -1.0492
# 5 11.6554 -6.8619 12.3595 0.0000 26.7975 0.0000
# 6 0.0000 0.0000 0.0000 -1.0492 0.0000 36.1195
#
#
#
# Elastic Compliance Matrix: (Units=1/GPa)
#
#
# Indices 1 2 3 4 5 6 
#
# 1 0.032931 -0.002856 -0.006542 0.000000 -0.012037 0.000000
# 2 -0.002856 0.007642 -0.002361 0.000000 0.004288 0.000000
# 3 -0.006542 -0.002361 0.013179 0.000000 -0.003838 0.000000
# 4 0.000000 0.000000 0.000000 0.016424 0.000000 0.000477
# 5 -0.012037 0.004288 -0.003838 0.000000 0.045420 0.000000
# 6 0.000000 0.000000 0.000000 0.000477 0.000000 0.027700
#
#
# Mechanical properties :
#
#
# Convention : Reuss Voigt Hill
#
# Bulk Modulus (GPa) = 33.07677 49.85137 41.46407
# Shear Modulus (GPa) = 28.26579 39.02633 33.64606
#
# Velocity S-wave (km/s) = 3.38190 3.97383 3.68976
# Velocity P-wave (km/s) = 5.35104 6.42079 5.91017
#
# Compressibility (1/GPa) = 0.03023269
#
# Stress axis : x y z
#
# Youngs Moduli (GPa) = 30.36644 130.86232 75.87838
#
# Poissons Ratio (x) = 0.37372 0.49642
# Poissons Ratio (y) = 0.08672 0.17918
# Poissons Ratio (z) = 0.19867 0.30902
#
# Static dielectric constant tensor:
#      x y z
#    x 1.945530 0.000000 -0.005040 
#    y 0.000000 1.996360 0.000000 
#    z -0.005040 0.000000 1.988990 
# 
# From -- ./inp_files/25897.got.cif
#   From: 2010.05.17/outbox.cif.g08.bks.cpg/sg9_13_cif.got.tgz:25897.got - 2010.06.03 20:04:27.
