data_PCOD9139051
_publ_section_title
;
Structure prediction by ZEFSAII (Michael W. Deem and Ramdas Pophale) SiO2 
 PCOD9139051
Probable space group: C C
;
_chemical_formula_sum "Si O2"
_cell_formula_units_Z 24
_cell_length_a 9.148539
_cell_length_b 11.110716
_cell_length_c 9.821496
_cell_angle_alpha 90.000000
_cell_angle_beta 100.228439
_cell_angle_gamma 90.000000
_cell_volume 982.458051
_symmetry_space_group_name_H-M "C C"
_symmetry_group_IT_number 9
_symmetry_cell_setting 'monoclinic'
loop_
_space_group_symop_operation_xyz
x,y,z
x,-y,1/2+z
1/2+x,1/2+y,z
1/2+x,1/2-y,1/2+z
loop_
_atom_site_type_symbol
_atom_site_label
_atom_site_fract_x
_atom_site_fract_y
_atom_site_fract_z
Si Si1 0.910350 0.793099 0.664700
Si Si2 0.493025 0.566244 0.945063
Si Si3 0.734666 0.928145 0.835188
Si Si4 0.763122 0.403699 0.976338
Si Si5 0.680513 0.219248 0.567678
Si Si6 0.905518 0.596240 0.202415
O O1 0.834743 0.818345 0.794007
O O2 0.793725 0.726221 0.546029
O O3 0.953333 0.918786 0.598508
O O4 0.064698 0.719715 0.674826
O O5 0.596616 0.452200 0.933698
O O6 0.590977 0.688097 0.948000
O O7 0.338329 0.545523 0.843328
O O8 0.580800 0.921433 0.731410
O O9 0.700014 0.901083 0.987075
O O10 0.833086 0.494076 0.097769
O O11 0.845377 0.414376 0.846365
O O12 0.834564 0.280447 0.633921
#
# Coordination Sequence:
#
# PCOD9139051 Si02
#       6
#     4   4   4   4   4   4
#     4  10  24  44  67 103 136 185 235 287 357 416
#     4   9  24  46  66  96 146 180 232 290 358 414
#     4  12  24  44  73 104 138 194 240 293 360 423
#     4  11  24  47  72 100 144 189 235 295 362 422
#     4   9  23  48  65 101 145 180 237 295 354 420
#     4  11  25  45  71 106 139 188 245 294 355 429
#
# _framework density 24.428522000000001
#
# number of rings (size 3 to 8) (size 9 to 14) (size 15 to 20)
#    1.000    0.667    1.667    1.000    9.333    0.000 
#   12.000    0.000    0.000    0.000    0.000    0.000 
#    0.000    0.000    0.000    0.000    0.000    0.000 
#
# Total GULP energy -66983.213992 kJ/mol
# GULP energy per Si atom -5581.934499 kJ/mol
# Density = 2.437292 g / cm^3
# Si number density = 24.428522 Si / 1000 Ang^3
#
#
#
# Elastic Constant Matrix: (Units=GPa)
#
#
# Indices 1 2 3 4 5 6 
#
# 1 137.4731 31.0691 19.2106 0.0000 29.0255 0.0000
# 2 31.0691 48.6840 8.3994 0.0000 6.4444 0.0000
# 3 19.2106 8.3994 70.1929 0.0000 -2.9550 0.0000
# 4 0.0000 0.0000 0.0000 37.9733 0.0000 3.2085
# 5 29.0255 6.4444 -2.9550 0.0000 41.4144 0.0000
# 6 0.0000 0.0000 0.0000 3.2085 0.0000 32.0594
#
#
#
# Elastic Compliance Matrix: (Units=1/GPa)
#
#
# Indices 1 2 3 4 5 6 
#
# 1 0.010159 -0.005206 -0.002430 0.000000 -0.006483 0.000000
# 2 -0.005206 0.024145 -0.001474 0.000000 -0.000214 0.000000
# 3 -0.002430 -0.001474 0.015215 0.000000 0.003018 0.000000
# 4 0.000000 0.000000 0.000000 0.026559 0.000000 -0.002658
# 5 -0.006483 -0.000214 0.003018 0.000000 0.028939 0.000000
# 6 0.000000 0.000000 0.000000 -0.002658 0.000000 0.031458
#
#
# Mechanical properties :
#
#
# Convention : Reuss Voigt Hill
#
# Bulk Modulus (GPa) = 31.94882 41.52313 36.73597
# Shear Modulus (GPa) = 30.27947 35.46747 32.87347
#
# Velocity S-wave (km/s) = 3.52449 3.81450 3.67236
# Velocity P-wave (km/s) = 5.44698 6.03616 5.74912
#
# Compressibility (1/GPa) = 0.03130006
#
# Stress axis : x y z
#
# Youngs Moduli (GPa) = 98.43291 41.41574 65.72460
#
# Poissons Ratio (x) = 0.21560 0.15974
# Poissons Ratio (y) = 0.51243 0.09685
# Poissons Ratio (z) = 0.23923 0.06103
#
# Static dielectric constant tensor:
#      x y z
#    x 1.978800 0.000000 0.038700 
#    y 0.000000 1.967430 0.000000 
#    z 0.038700 0.000000 1.881550 
# 
# From -- ./inp_files/4972.got.cif
#   From: 2010.05.17/outbox.cif.g08.bks.cpg/sg9_3_cif.got.tgz:4972.got - 2010.06.03 20:04:27.
