data_PCOD9139975
_publ_section_title
;
Structure prediction by ZEFSAII (Michael W. Deem and Ramdas Pophale) SiO2 
 PCOD9139975
Probable space group: C C
;
_chemical_formula_sum "Si O2"
_cell_formula_units_Z 32
_cell_length_a 6.891231
_cell_length_b 13.268222
_cell_length_c 17.726418
_cell_angle_alpha 90.000000
_cell_angle_beta 98.410922
_cell_angle_gamma 90.000000
_cell_volume 1603.371478
_symmetry_space_group_name_H-M "C C"
_symmetry_group_IT_number 9
_symmetry_cell_setting 'monoclinic'
loop_
_space_group_symop_operation_xyz
x,y,z
x,-y,1/2+z
1/2+x,1/2+y,z
1/2+x,1/2-y,1/2+z
loop_
_atom_site_type_symbol
_atom_site_label
_atom_site_fract_x
_atom_site_fract_y
_atom_site_fract_z
Si Si1 0.455850 0.203188 0.280880
Si Si2 0.688978 0.442946 0.839876
Si Si3 0.301594 0.377218 0.887971
Si Si4 0.854463 0.648824 0.589315
Si Si5 0.082142 0.897835 0.215296
Si Si6 0.017531 0.503520 0.475865
Si Si7 0.777711 0.771818 0.125663
Si Si8 0.516527 0.774952 0.492737
O O1 0.283816 0.167353 0.327367
O O2 0.639968 0.134899 0.313651
O O3 0.542927 0.316453 0.280577
O O4 0.363139 0.195397 0.192882
O O5 0.484167 0.441305 0.871114
O O6 0.645100 0.500268 0.759291
O O7 0.848956 0.495280 0.902176
O O8 0.399240 0.271004 0.915790
O O9 0.190450 0.425831 0.953008
O O10 0.747698 0.630179 0.663101
O O11 0.929237 0.551493 0.547096
O O12 0.380747 0.621087 0.656148
O O13 0.046663 0.716128 0.613526
O O14 0.698955 0.704641 0.526210
O O15 0.083130 0.389176 0.488810
O O16 0.862005 0.735492 0.051913
#
# Coordination Sequence:
#
# PCOD9139975 Si02
#       8
#     4   4   4   4   4   4   4   4
#     4   9  23  40  59  93 125 167 213 265 321 390
#     4  11  23  41  66  92 132 171 216 270 327 392
#     4  11  23  43  63  95 135 164 229 267 319 402
#     4  11  22  44  65  95 135 166 224 276 317 399
#     4   9  23  40  62  95 124 170 214 266 330 380
#     4  11  25  42  67  98 129 173 218 270 329 390
#     4   9  22  43  63  91 132 167 217 270 323 388
#     4  11  23  43  69  93 130 174 211 274 328 381
#
# _framework density 19.957944999999999
#
# number of rings (size 3 to 8) (size 9 to 14) (size 15 to 20)
#    0.750    1.000    2.500    0.750    3.500    4.000 
#    2.250    0.000    0.000    0.000    0.000    0.000 
#    0.000    0.000    0.000    0.000    0.000    0.000 
#
# Total GULP energy -89084.226913 kJ/mol
# GULP energy per Si atom -5567.764182 kJ/mol
# Density = 1.991252 g / cm^3
# Si number density = 19.957945 Si / 1000 Ang^3
#
#
#
# Elastic Constant Matrix: (Units=GPa)
#
#
# Indices 1 2 3 4 5 6 
#
# 1 111.5522 9.1521 14.4832 0.0000 -6.1281 0.0000
# 2 9.1521 71.1879 3.9982 0.0000 -6.9862 0.0000
# 3 14.4832 3.9982 45.9328 0.0000 4.5641 0.0000
# 4 0.0000 0.0000 0.0000 30.6374 0.0000 -1.2240
# 5 -6.1281 -6.9862 4.5641 0.0000 22.3434 0.0000
# 6 0.0000 0.0000 0.0000 -1.2240 0.0000 14.1417
#
#
#
# Elastic Compliance Matrix: (Units=1/GPa)
#
#
# Indices 1 2 3 4 5 6 
#
# 1 0.009620 -0.000751 -0.003273 0.000000 0.003072 0.000000
# 2 -0.000751 0.014689 -0.001508 0.000000 0.004695 0.000000
# 3 -0.003273 -0.001508 0.023548 0.000000 -0.006179 0.000000
# 4 0.000000 0.000000 0.000000 0.032753 0.000000 0.002835
# 5 0.003072 0.004695 -0.006179 0.000000 0.048329 0.000000
# 6 0.000000 0.000000 0.000000 0.002835 0.000000 0.070958
#
#
# Mechanical properties :
#
#
# Convention : Reuss Voigt Hill
#
# Bulk Modulus (GPa) = 27.17984 31.54890 29.36437
# Shear Modulus (GPa) = 22.39869 26.82711 24.61290
#
# Velocity S-wave (km/s) = 3.35370 3.67029 3.51556
# Velocity P-wave (km/s) = 5.35206 5.81406 5.58784
#
# Compressibility (1/GPa) = 0.03679197
#
# Stress axis : x y z
#
# Youngs Moduli (GPa) = 103.95240 68.07635 42.46597
#
# Poissons Ratio (x) = 0.05115 0.13899
# Poissons Ratio (y) = 0.07811 0.06405
# Poissons Ratio (z) = 0.34025 0.10267
#
# Static dielectric constant tensor:
#      x y z
#    x 1.666100 0.000000 -0.000660 
#    y 0.000000 1.730750 0.000000 
#    z -0.000660 0.000000 1.712370 
# 
# From -- ./inp_files/28698.got.cif
#   From: 2010.05.17/outbox.cif.g08.bks.cpg/sg9_15_cif.got.tgz:28698.got - 2010.06.03 20:04:27.
