data_PCOD9139178
_publ_section_title
;
Structure prediction by ZEFSAII (Michael W. Deem and Ramdas Pophale) SiO2 
 PCOD9139178
Probable space group: C C
;
_chemical_formula_sum "Si O2"
_cell_formula_units_Z 28
_cell_length_a 10.486242
_cell_length_b 13.041664
_cell_length_c 9.377226
_cell_angle_alpha 90.000000
_cell_angle_beta 61.326472
_cell_angle_gamma 90.000000
_cell_volume 1125.146385
_symmetry_space_group_name_H-M "C C"
_symmetry_group_IT_number 9
_symmetry_cell_setting 'monoclinic'
loop_
_space_group_symop_operation_xyz
x,y,z
x,-y,1/2+z
1/2+x,1/2+y,z
1/2+x,1/2-y,1/2+z
loop_
_atom_site_type_symbol
_atom_site_label
_atom_site_fract_x
_atom_site_fract_y
_atom_site_fract_z
Si Si1 0.993620 0.821572 0.259420
Si Si2 0.171782 0.351717 0.773660
Si Si3 0.192212 0.103678 0.078934
Si Si4 0.021710 0.566438 0.839656
Si Si5 0.689327 0.219527 0.956212
Si Si6 0.019906 0.016426 0.425684
Si Si7 0.750186 0.154305 0.526355
O O1 0.069078 0.748340 0.336976
O O2 0.105602 0.816401 0.066914
O O3 0.970572 0.932079 0.334457
O O4 0.880729 0.909631 0.030051
O O5 0.225814 0.341642 0.583459
O O6 0.082121 0.454507 0.838057
O O7 0.286017 0.350549 0.838798
O O8 0.215687 0.226441 0.069184
O O9 0.142935 0.074046 0.265517
O O10 0.350230 0.064243 0.944980
O O11 0.082743 0.050680 0.023237
O O12 0.098941 0.599169 0.650334
O O13 0.085719 0.650297 0.915905
O O14 0.843484 0.233764 0.800369
#
# Coordination Sequence:
#
# PCOD9139178 Si02
#       7
#     4   4   4   4   4   4   4
#     4  10  24  45  78 114 155 208 268 326 405 479
#     4  10  24  45  78 108 155 207 263 323 401 482
#     4  12  31  52  77 120 160 209 271 339 408 483
#     4  12  27  47  75 114 158 210 268 333 407 481
#     4  10  25  44  76 108 159 211 271 329 404 481
#     4  12  29  52  83 117 162 210 272 340 406 482
#     4  12  28  53  81 113 161 211 273 334 409 486
#
# _framework density 24.885649999999998
#
# number of rings (size 3 to 8) (size 9 to 14) (size 15 to 20)
#    0.857    0.000    1.429    3.429   14.000    2.286 
#    0.000    0.000    0.000    0.000    0.000    0.000 
#    0.000    0.000    0.000    0.000    0.000    0.000 
#
# Total GULP energy -78246.448399 kJ/mol
# GULP energy per Si atom -5589.032029 kJ/mol
# Density = 2.482901 g / cm^3
# Si number density = 24.885650 Si / 1000 Ang^3
#
#
#
# Elastic Constant Matrix: (Units=GPa)
#
#
# Indices 1 2 3 4 5 6 
#
# 1 95.8538 19.6648 43.6633 0.0000 -14.3305 0.0000
# 2 19.6648 132.0581 25.7726 0.0000 -6.4966 0.0000
# 3 43.6633 25.7726 130.4131 0.0000 0.9587 0.0000
# 4 0.0000 0.0000 0.0000 18.4693 0.0000 1.9865
# 5 -14.3305 -6.4966 0.9587 0.0000 47.9273 0.0000
# 6 0.0000 0.0000 0.0000 1.9865 0.0000 33.9078
#
#
#
# Elastic Compliance Matrix: (Units=1/GPa)
#
#
# Indices 1 2 3 4 5 6 
#
# 1 0.013138 -0.000937 -0.004242 0.000000 0.003886 0.000000
# 2 -0.000937 0.008001 -0.001274 0.000000 0.000830 0.000000
# 3 -0.004242 -0.001274 0.009352 0.000000 -0.001628 0.000000
# 4 0.000000 0.000000 0.000000 0.054487 0.000000 -0.003192
# 5 0.003886 0.000830 -0.001628 0.000000 0.022172 0.000000
# 6 0.000000 0.000000 0.000000 -0.003192 0.000000 0.029679
#
#
# Mechanical properties :
#
#
# Convention : Reuss Voigt Hill
#
# Bulk Modulus (GPa) = 56.86496 59.61406 58.23951
# Shear Modulus (GPa) = 32.13428 38.00918 35.07173
#
# Velocity S-wave (km/s) = 3.59733 3.91238 3.75816
# Velocity P-wave (km/s) = 6.33676 6.66454 6.50272
#
# Compressibility (1/GPa) = 0.01758552
#
# Stress axis : x y z
#
# Youngs Moduli (GPa) = 76.11383 124.97865 106.93044
#
# Poissons Ratio (x) = 0.11715 0.45361
# Poissons Ratio (y) = 0.07134 0.13618
# Poissons Ratio (z) = 0.32288 0.15916
#
# Static dielectric constant tensor:
#      x y z
#    x 1.979120 0.000000 0.016050 
#    y 0.000000 1.973460 0.000000 
#    z 0.016050 0.000000 2.018230 
# 
# From -- ./inp_files/7209.got.cif
#   From: 2010.05.17/outbox.cif.g08.bks.cpg/sg9_4_cif.got.tgz:7209.got - 2010.06.03 20:04:27.
