data_PCOD9139639
_publ_section_title
;
Structure prediction by ZEFSAII (Michael W. Deem and Ramdas Pophale) SiO2 
 PCOD9139639
Probable space group: C C
;
_chemical_formula_sum "Si O2"
_cell_formula_units_Z 28
_cell_length_a 7.356636
_cell_length_b 27.024208
_cell_length_c 8.397538
_cell_angle_alpha 90.000000
_cell_angle_beta 38.813443
_cell_angle_gamma 90.000000
_cell_volume 1046.414998
_symmetry_space_group_name_H-M "C C"
_symmetry_group_IT_number 9
_symmetry_cell_setting 'monoclinic'
loop_
_space_group_symop_operation_xyz
x,y,z
x,-y,1/2+z
1/2+x,1/2+y,z
1/2+x,1/2-y,1/2+z
loop_
_atom_site_type_symbol
_atom_site_label
_atom_site_fract_x
_atom_site_fract_y
_atom_site_fract_z
Si Si1 0.203630 0.728198 0.166370
Si Si2 0.684910 0.538737 0.030635
Si Si3 0.534922 0.379941 0.860423
Si Si4 0.964386 0.461256 0.991933
Si Si5 0.324620 0.456691 0.261307
Si Si6 0.614444 0.879961 0.662142
Si Si7 0.946745 0.228217 0.355072
O O1 0.325221 0.738866 0.260687
O O2 0.862969 0.737790 0.428080
O O3 0.273525 0.671584 0.075507
O O4 0.620265 0.594458 0.137299
O O5 0.685221 0.471771 0.053513
O O6 0.324661 0.521554 0.261300
O O7 0.824606 0.540975 0.761305
O O8 0.824677 0.369110 0.761309
O O9 0.376304 0.328366 0.946506
O O10 0.374302 0.422953 0.070480
O O11 0.029092 0.405525 0.885327
O O12 0.964088 0.528206 0.968988
O O13 0.274821 0.423012 0.452318
O O14 0.787484 0.262271 0.593256
#
# Coordination Sequence:
#
# PCOD9139639 Si02
#       7
#     4   4   4   4   4   4   4
#     4  10  26  51  76 106 142 187 248 308 369 438
#     4  12  24  43  65 100 148 188 237 289 347 432
#     4  12  27  44  72 107 142 190 239 297 368 427
#     4  12  24  43  65 100 148 188 237 289 347 432
#     4  12  24  42  66 102 148 186 236 282 352 440
#     4  12  27  44  72 107 142 190 239 297 368 427
#     4  10  26  51  76 106 142 187 248 308 369 438
#
# _framework density 26.758025
#
# number of rings (size 3 to 8) (size 9 to 14) (size 15 to 20)
#    0.000    0.571    5.714    0.857    6.000    4.571 
#    0.000    0.000    0.000    0.000    0.000    0.000 
#    0.000    0.000    0.000    0.000    0.000    0.000 
#
# Total GULP energy -78358.572850 kJ/mol
# GULP energy per Si atom -5597.040918 kJ/mol
# Density = 2.669712 g / cm^3
# Si number density = 26.758025 Si / 1000 Ang^3
#
#
#
# Elastic Constant Matrix: (Units=GPa)
#
#
# Indices 1 2 3 4 5 6 
#
# 1 84.8615 15.4051 42.7613 0.0000 -6.0626 0.0000
# 2 15.4051 144.1481 66.5917 0.0000 17.7767 0.0000
# 3 42.7613 66.5917 195.8097 0.0000 29.5182 0.0000
# 4 0.0000 0.0000 0.0000 35.0043 0.0000 4.6972
# 5 -6.0626 17.7767 29.5182 0.0000 58.7420 0.0000
# 6 0.0000 0.0000 0.0000 4.6972 0.0000 46.7263
#
#
#
# Elastic Compliance Matrix: (Units=1/GPa)
#
#
# Indices 1 2 3 4 5 6 
#
# 1 0.013777 -0.000303 -0.003391 0.000000 0.003217 0.000000
# 2 -0.000303 0.008312 -0.002572 0.000000 -0.001254 0.000000
# 3 -0.003391 -0.002572 0.007203 0.000000 -0.003191 0.000000
# 4 0.000000 0.000000 0.000000 0.028959 0.000000 -0.002911
# 5 0.003217 -0.001254 -0.003191 0.000000 0.019339 0.000000
# 6 0.000000 0.000000 0.000000 -0.002911 0.000000 0.021694
#
#
# Mechanical properties :
#
#
# Convention : Reuss Voigt Hill
#
# Bulk Modulus (GPa) = 59.65706 74.92617 67.29162
# Shear Modulus (GPa) = 42.58864 48.09860 45.34362
#
# Velocity S-wave (km/s) = 3.99384 4.24434 4.12099
# Velocity P-wave (km/s) = 6.60387 7.21674 6.91710
#
# Compressibility (1/GPa) = 0.01676248
#
# Stress axis : x y z
#
# Youngs Moduli (GPa) = 72.58305 120.30210 138.82777
#
# Poissons Ratio (x) = 0.03642 0.47074
# Poissons Ratio (y) = 0.02197 0.35702
# Poissons Ratio (z) = 0.24611 0.30938
#
# Static dielectric constant tensor:
#      x y z
#    x 2.189550 0.000000 -0.126720 
#    y 0.000000 1.933490 0.000000 
#    z -0.126720 0.000000 2.063170 
# 
# From -- ./inp_files/832.got.cif
#   From: 2010.05.17/outbox.cif.g08.bks.cpg/sg9_1_cif.got.tgz:832.got - 2010.06.03 20:04:27.
