data_PCOD9139634
_publ_section_title
;
Structure prediction by ZEFSAII (Michael W. Deem and Ramdas Pophale) SiO2 
 PCOD9139634
Probable space group: C C
;
_chemical_formula_sum "Si O2"
_cell_formula_units_Z 32
_cell_length_a 28.791432
_cell_length_b 5.385835
_cell_length_c 9.735073
_cell_angle_alpha 90.000000
_cell_angle_beta 57.333544
_cell_angle_gamma 90.000000
_cell_volume 1270.803300
_symmetry_space_group_name_H-M "C C"
_symmetry_group_IT_number 9
_symmetry_cell_setting 'monoclinic'
loop_
_space_group_symop_operation_xyz
x,y,z
x,-y,1/2+z
1/2+x,1/2+y,z
1/2+x,1/2-y,1/2+z
loop_
_atom_site_type_symbol
_atom_site_label
_atom_site_fract_x
_atom_site_fract_y
_atom_site_fract_z
Si Si1 0.329220 0.421238 0.054360
Si Si2 0.432372 0.337314 0.497283
Si Si3 0.454491 0.021990 0.710525
Si Si4 0.671105 0.477453 0.307351
Si Si5 0.786621 0.595074 0.513630
Si Si6 0.514675 0.259142 0.865495
Si Si7 0.724676 0.850116 0.397687
Si Si8 0.137838 0.726876 0.619801
O O1 0.278147 0.461467 0.239422
O O2 0.387414 0.447911 0.038763
O O3 0.322619 0.657120 0.965284
O O4 0.317460 0.157402 0.001977
O O5 0.429575 0.157447 0.368796
O O6 0.493835 0.454474 0.409328
O O7 0.419714 0.199238 0.661780
O O8 0.486229 0.862701 0.544431
O O9 0.492303 0.186704 0.750024
O O10 0.679619 0.746648 0.363478
O O11 0.636742 0.307370 0.462738
O O12 0.648470 0.527034 0.193558
O O13 0.733240 0.383603 0.196019
O O14 0.754550 0.614384 0.421784
O O15 0.577097 0.160835 0.765569
O O16 0.689708 0.037861 0.549125
#
# Coordination Sequence:
#
# PCOD9139634 Si02
#       8
#     4   4   4   4   4   4   4   4
#     4  11  27  47  79 113 159 209 269 337 408 483
#     4  11  26  53  77 117 155 213 275 344 411 502
#     4  10  26  50  77 111 158 203 273 336 413 487
#     4  11  25  45  70 111 152 202 259 323 399 485
#     4  11  24  47  74 116 154 208 262 333 401 489
#     4  11  27  47  77 114 156 209 269 338 410 491
#     4  11  24  47  72 111 161 204 266 321 409 486
#     4  12  27  44  78 109 161 210 265 334 407 491
#
# _framework density 25.180924999999998
#
# number of rings (size 3 to 8) (size 9 to 14) (size 15 to 20)
#    0.000    1.000    2.500    2.250    8.750    3.000 
#    4.500    0.000    0.000    0.000    0.000    0.000 
#    0.000    0.000    0.000    0.000    0.000    0.000 
#
# Total GULP energy -89294.258459 kJ/mol
# GULP energy per Si atom -5580.891154 kJ/mol
# Density = 2.512361 g / cm^3
# Si number density = 25.180925 Si / 1000 Ang^3
#
#
#
# Elastic Constant Matrix: (Units=GPa)
#
#
# Indices 1 2 3 4 5 6 
#
# 1 81.0270 33.5617 49.6780 0.0000 -2.5491 0.0000
# 2 33.5617 89.6591 26.2563 0.0000 4.1672 0.0000
# 3 49.6780 26.2563 95.3761 0.0000 20.9170 0.0000
# 4 0.0000 0.0000 0.0000 35.4141 0.0000 13.3447
# 5 -2.5491 4.1672 20.9170 0.0000 40.5239 0.0000
# 6 0.0000 0.0000 0.0000 13.3447 0.0000 26.9855
#
#
#
# Elastic Compliance Matrix: (Units=1/GPa)
#
#
# Indices 1 2 3 4 5 6 
#
# 1 0.021928 -0.005136 -0.011757 0.000000 0.007976 0.000000
# 2 -0.005136 0.013345 -0.000707 0.000000 -0.001331 0.000000
# 3 -0.011757 -0.000707 0.019113 0.000000 -0.010532 0.000000
# 4 0.000000 0.000000 0.000000 0.034704 0.000000 -0.017162
# 5 0.007976 -0.001331 -0.010532 0.000000 0.030752 0.000000
# 6 0.000000 0.000000 0.000000 -0.017162 0.000000 0.045544
#
#
# Mechanical properties :
#
#
# Convention : Reuss Voigt Hill
#
# Bulk Modulus (GPa) = 52.11994 53.89493 53.00744
# Shear Modulus (GPa) = 24.15692 31.02243 27.58967
#
# Velocity S-wave (km/s) = 3.10067 3.51377 3.31366
# Velocity P-wave (km/s) = 5.79327 6.15724 5.97803
#
# Compressibility (1/GPa) = 0.01918651
#
# Stress axis : x y z
#
# Youngs Moduli (GPa) = 45.60375 74.93609 52.32062
#
# Poissons Ratio (x) = 0.38487 0.61513
# Poissons Ratio (y) = 0.23422 0.03698
# Poissons Ratio (z) = 0.53616 0.05296
#
# Static dielectric constant tensor:
#      x y z
#    x 2.016760 0.000000 -0.015310 
#    y 0.000000 2.104690 0.000000 
#    z -0.015310 0.000000 2.012760 
# 
# From -- ./inp_files/12625.got.cif
#   From: 2010.05.17/outbox.cif.g08.bks.cpg/sg9_7_cif.got.tgz:12625.got - 2010.06.03 20:04:27.
