data_PCOD9139158
_publ_section_title
;
Structure prediction by ZEFSAII (Michael W. Deem and Ramdas Pophale) SiO2 
 PCOD9139158
Probable space group: C C
;
_chemical_formula_sum "Si O2"
_cell_formula_units_Z 24
_cell_length_a 5.251889
_cell_length_b 21.159535
_cell_length_c 12.490813
_cell_angle_alpha 90.000000
_cell_angle_beta 131.134527
_cell_angle_gamma 90.000000
_cell_volume 1045.451076
_symmetry_space_group_name_H-M "C C"
_symmetry_group_IT_number 9
_symmetry_cell_setting 'monoclinic'
loop_
_space_group_symop_operation_xyz
x,y,z
x,-y,1/2+z
1/2+x,1/2+y,z
1/2+x,1/2-y,1/2+z
loop_
_atom_site_type_symbol
_atom_site_label
_atom_site_fract_x
_atom_site_fract_y
_atom_site_fract_z
Si Si1 0.074840 0.497657 0.591520
Si Si2 0.899809 0.058440 0.989652
Si Si3 0.392529 0.208522 0.977672
Si Si4 0.969745 0.122128 0.220992
Si Si5 0.888675 0.291264 0.983263
Si Si6 0.294012 0.626092 0.749965
O O1 0.128423 0.481359 0.481642
O O2 0.301540 0.443433 0.712408
O O3 0.229758 0.600061 0.851148
O O4 0.693553 0.485412 0.522978
O O5 0.068155 0.104372 0.125795
O O6 0.727305 0.934742 0.158953
O O7 0.577578 0.249725 0.939103
O O8 0.147331 0.250263 0.984209
O O9 0.169036 0.153894 0.861494
O O10 0.676882 0.174123 0.126630
O O11 0.254528 0.151143 0.373647
O O12 0.065894 0.318645 0.138549
#
# Coordination Sequence:
#
# PCOD9139158 Si02
#       6
#     4   4   4   4   4   4
#     4  10  26  42  78 102 143 186 240 296 380 419
#     4  10  24  45  72 105 145 188 228 303 373 427
#     4  12  26  47  72 106 150 200 238 309 358 433
#     4  10  25  48  72 101 154 185 245 303 368 426
#     4  12  29  42  77 109 145 194 260 291 363 437
#     4  12  26  50  79 109 147 195 249 302 372 440
#
# _framework density 22.956600000000002
#
# number of rings (size 3 to 8) (size 9 to 14) (size 15 to 20)
#    1.000    0.000    1.667    3.000    4.667    9.333 
#    0.000    0.000    0.000    0.000    0.000    0.000 
#    0.000    0.000    0.000    0.000    0.000    0.000 
#
# Total GULP energy -67122.566223 kJ/mol
# GULP energy per Si atom -5593.547185 kJ/mol
# Density = 2.290435 g / cm^3
# Si number density = 22.956600 Si / 1000 Ang^3
#
#
#
# Elastic Constant Matrix: (Units=GPa)
#
#
# Indices 1 2 3 4 5 6 
#
# 1 144.0466 42.2645 32.1194 0.0000 -3.7130 0.0000
# 2 42.2645 93.3666 24.7328 0.0000 -1.7807 0.0000
# 3 32.1194 24.7328 105.9648 0.0000 -11.9462 0.0000
# 4 0.0000 0.0000 0.0000 51.4546 0.0000 -5.5587
# 5 -3.7130 -1.7807 -11.9462 0.0000 19.0436 0.0000
# 6 0.0000 0.0000 0.0000 -5.5587 0.0000 18.9522
#
#
#
# Elastic Compliance Matrix: (Units=1/GPa)
#
#
# Indices 1 2 3 4 5 6 
#
# 1 0.008299 -0.003297 -0.001720 0.000000 0.000231 0.000000
# 2 -0.003297 0.012733 -0.002056 0.000000 -0.000742 0.000000
# 3 -0.001720 -0.002056 0.011169 0.000000 0.006479 0.000000
# 4 0.000000 0.000000 0.000000 0.020071 0.000000 0.005887
# 5 0.000231 -0.000742 0.006479 0.000000 0.056551 0.000000
# 6 0.000000 0.000000 0.000000 0.005887 0.000000 0.054491
#
#
# Mechanical properties :
#
#
# Convention : Reuss Voigt Hill
#
# Bulk Modulus (GPa) = 55.38678 60.17904 57.78291
# Shear Modulus (GPa) = 27.25123 34.17416 30.71270
#
# Velocity S-wave (km/s) = 3.44913 3.86248 3.66164
# Velocity P-wave (km/s) = 6.32781 6.79432 6.56521
#
# Compressibility (1/GPa) = 0.01805485
#
# Stress axis : x y z
#
# Youngs Moduli (GPa) = 120.49722 78.53378 89.53478
#
# Poissons Ratio (x) = 0.25890 0.15400
# Poissons Ratio (y) = 0.39724 0.18412
# Poissons Ratio (z) = 0.20726 0.16150
#
# Static dielectric constant tensor:
#      x y z
#    x 1.851300 0.000000 -0.021700 
#    y 0.000000 1.842030 0.000000 
#    z -0.021700 0.000000 1.848830 
# 
# From -- ./inp_files/20543.got.cif
#   From: 2010.05.17/outbox.cif.g08.bks.cpg/sg9_11_cif.got.tgz:20543.got - 2010.06.03 20:04:27.
