data_PCOD9139888
_publ_section_title
;
Structure prediction by ZEFSAII (Michael W. Deem and Ramdas Pophale) SiO2 
 PCOD9139888
Probable space group: C C
;
_chemical_formula_sum "Si O2"
_cell_formula_units_Z 32
_cell_length_a 11.726049
_cell_length_b 15.127344
_cell_length_c 8.523610
_cell_angle_alpha 90.000000
_cell_angle_beta 89.643384
_cell_angle_gamma 90.000000
_cell_volume 1511.922554
_symmetry_space_group_name_H-M "C C"
_symmetry_group_IT_number 9
_symmetry_cell_setting 'monoclinic'
loop_
_space_group_symop_operation_xyz
x,y,z
x,-y,1/2+z
1/2+x,1/2+y,z
1/2+x,1/2-y,1/2+z
loop_
_atom_site_type_symbol
_atom_site_label
_atom_site_fract_x
_atom_site_fract_y
_atom_site_fract_z
Si Si1 0.739130 0.941358 0.426930
Si Si2 0.977013 0.191022 0.452841
Si Si3 0.129487 0.367828 0.930315
Si Si4 0.279135 0.232729 0.110056
Si Si5 0.909861 0.735002 0.442013
Si Si6 0.183546 0.722480 0.098885
Si Si7 0.559502 0.632025 0.119735
Si Si8 0.403631 0.475724 0.142968
O O1 0.670381 0.852759 0.462671
O O2 0.836405 0.938645 0.292915
O O3 0.663436 0.029635 0.417834
O O4 0.813793 0.952272 0.582981
O O5 0.880112 0.263695 0.482309
O O6 0.920955 0.099428 0.512716
O O7 0.083462 0.209002 0.565064
O O8 0.019541 0.182638 0.276946
O O9 0.166610 0.319627 0.769038
O O10 0.995729 0.347550 0.950704
O O11 0.197416 0.316915 0.068976
O O12 0.345262 0.237247 0.275155
O O13 0.193423 0.150357 0.101399
O O14 0.808009 0.737414 0.568579
O O15 0.992761 0.818939 0.478339
O O16 0.519841 0.531602 0.150894
#
# Coordination Sequence:
#
# PCOD9139888 Si02
#       8
#     4   4   4   4   4   4   4   4
#     4  12  23  39  65  96 127 165 222 270 315 384
#     4  12  24  41  67  99 132 172 217 268 329 391
#     4  11  24  41  65  99 135 164 220 278 324 380
#     4  11  22  39  67  97 130 173 214 266 331 389
#     4  11  22  39  67  97 130 173 214 266 331 389
#     4  12  24  41  67  99 132 172 217 268 329 391
#     4  11  24  41  65  99 135 164 220 278 324 380
#     4  12  23  39  65  96 127 165 222 270 315 384
#
# _framework density 21.165105000000001
#
# number of rings (size 3 to 8) (size 9 to 14) (size 15 to 20)
#    0.000    0.500    7.500    1.500    0.000    0.000 
#    0.000    1.250    0.000    0.000    0.000    0.000 
#    0.000    0.000    0.000    0.000    0.000    0.000 
#
# Total GULP energy -89340.986590 kJ/mol
# GULP energy per Si atom -5583.811662 kJ/mol
# Density = 2.111693 g / cm^3
# Si number density = 21.165105 Si / 1000 Ang^3
#
#
#
# Elastic Constant Matrix: (Units=GPa)
#
#
# Indices 1 2 3 4 5 6 
#
# 1 128.4381 31.7978 14.0144 0.0000 -3.6081 0.0000
# 2 31.7978 60.2394 -1.1021 0.0000 -4.0592 0.0000
# 3 14.0144 -1.1021 66.6953 0.0000 5.9022 0.0000
# 4 0.0000 0.0000 0.0000 22.2587 0.0000 5.0441
# 5 -3.6081 -4.0592 5.9022 0.0000 40.8999 0.0000
# 6 0.0000 0.0000 0.0000 5.0441 0.0000 37.7886
#
#
#
# Elastic Compliance Matrix: (Units=1/GPa)
#
#
# Indices 1 2 3 4 5 6 
#
# 1 0.009236 -0.004871 -0.002077 0.000000 0.000631 0.000000
# 2 -0.004871 0.019282 0.001226 0.000000 0.001307 0.000000
# 3 -0.002077 0.001226 0.015656 0.000000 -0.002321 0.000000
# 4 0.000000 0.000000 0.000000 0.046328 0.000000 -0.006184
# 5 0.000631 0.001307 -0.002321 0.000000 0.024970 0.000000
# 6 0.000000 0.000000 0.000000 -0.006184 0.000000 0.027288
#
#
# Mechanical properties :
#
#
# Convention : Reuss Voigt Hill
#
# Bulk Modulus (GPa) = 30.55220 38.31034 34.43127
# Shear Modulus (GPa) = 30.28224 34.23361 32.25792
#
# Velocity S-wave (km/s) = 3.78665 4.02612 3.90822
# Velocity P-wave (km/s) = 5.79524 6.30499 6.05548
#
# Compressibility (1/GPa) = 0.03273087
#
# Stress axis : x y z
#
# Youngs Moduli (GPa) = 108.27083 51.86176 63.87469
#
# Poissons Ratio (x) = 0.25261 0.13267
# Poissons Ratio (y) = 0.52737 -0.07834
# Poissons Ratio (z) = 0.22489 -0.06360
#
# Static dielectric constant tensor:
#      x y z
#    x 1.757740 0.000000 0.016160 
#    y 0.000000 1.780130 0.000000 
#    z 0.016160 0.000000 1.818400 
# 
# From -- ./inp_files/7457.got.cif
#   From: 2010.05.17/outbox.cif.g08.bks.cpg/sg9_4_cif.got.tgz:7457.got - 2010.06.03 20:04:27.
