data_PCOD9139690
_publ_section_title
;
Structure prediction by ZEFSAII (Michael W. Deem and Ramdas Pophale) SiO2 
 PCOD9139690
Probable space group: C C
;
_chemical_formula_sum "Si O2"
_cell_formula_units_Z 32
_cell_length_a 15.665186
_cell_length_b 16.189488
_cell_length_c 11.677386
_cell_angle_alpha 90.000000
_cell_angle_beta 26.368874
_cell_angle_gamma 90.000000
_cell_volume 1315.353615
_symmetry_space_group_name_H-M "C C"
_symmetry_group_IT_number 9
_symmetry_cell_setting 'monoclinic'
loop_
_space_group_symop_operation_xyz
x,y,z
x,-y,1/2+z
1/2+x,1/2+y,z
1/2+x,1/2-y,1/2+z
loop_
_atom_site_type_symbol
_atom_site_label
_atom_site_fract_x
_atom_site_fract_y
_atom_site_fract_z
Si Si1 0.403550 0.137190 0.751710
Si Si2 0.837588 0.345430 0.588718
Si Si3 0.411342 0.348730 0.020759
Si Si4 0.318563 0.299813 0.727514
Si Si5 0.466645 0.702202 0.805348
Si Si6 0.886624 0.369037 0.783947
Si Si7 0.734498 0.072851 0.945614
Si Si8 0.516435 0.578785 0.150197
O O1 0.429523 0.130256 0.857197
O O2 0.299411 0.224207 0.840414
O O3 0.619991 0.150292 0.447133
O O4 0.246628 0.071524 0.893945
O O5 0.614196 0.361150 0.838695
O O6 0.866787 0.247642 0.568394
O O7 0.898027 0.385478 0.634859
O O8 0.433152 0.381607 0.866765
O O9 0.269995 0.397369 0.272904
O O10 0.397771 0.267736 0.512033
O O11 0.474422 0.360818 0.594951
O O12 0.483085 0.780265 0.701385
O O13 0.303466 0.643472 0.949413
O O14 0.662683 0.649727 0.578645
O O15 0.003082 0.434356 0.721956
O O16 0.880528 0.999090 0.792523
#
# Coordination Sequence:
#
# PCOD9139690 Si02
#       8
#     4   4   4   4   4   4   4   4
#     4  11  23  43  74 106 141 179 240 297 349 418
#     4  11  19  39  72 109 125 175 239 301 343 403
#     4  11  21  41  70  99 140 167 238 293 349 418
#     4  12  24  43  72 104 140 190 239 289 347 422
#     4  12  25  42  69 108 140 187 245 285 346 424
#     4  12  23  42  73 107 140 183 239 296 350 417
#     4  12  27  44  67 100 146 189 230 295 360 419
#     4  11  28  44  67 103 142 188 232 292 362 421
#
# _framework density 24.328057000000001
#
# number of rings (size 3 to 8) (size 9 to 14) (size 15 to 20)
#    0.000    0.500    6.250    2.250    3.500    1.000 
#    0.000    0.000    5.500    0.000    0.000    0.000 
#    0.000    0.000    0.000    0.000    0.000    0.000 
#
# Total GULP energy -89520.096293 kJ/mol
# GULP energy per Si atom -5595.006018 kJ/mol
# Density = 2.427269 g / cm^3
# Si number density = 24.328057 Si / 1000 Ang^3
#
#
#
# Elastic Constant Matrix: (Units=GPa)
#
#
# Indices 1 2 3 4 5 6 
#
# 1 144.1407 40.6255 58.5607 -0.0008 -16.9159 0.0015
# 2 40.6255 56.7195 0.8207 0.0014 -3.5324 0.0033
# 3 58.5607 0.8207 97.1334 -0.0003 -20.1328 0.0042
# 4 -0.0008 0.0014 -0.0003 24.0789 -0.0014 -17.8309
# 5 -16.9159 -3.5324 -20.1328 -0.0014 52.1583 -0.0034
# 6 0.0015 0.0033 0.0042 -17.8309 -0.0034 40.2269
#
#
#
# Elastic Compliance Matrix: (Units=1/GPa)
#
#
# Indices 1 2 3 4 5 6 
#
# 1 0.012451 -0.008773 -0.007303 0.000002 0.000625 0.000002
# 2 -0.008773 0.023888 0.005253 -0.000005 0.000800 -0.000004
# 3 -0.007303 0.005253 0.015474 -0.000002 0.003960 -0.000002
# 4 0.000002 -0.000005 -0.000002 0.061823 0.000003 0.027403
# 5 0.000625 0.000800 0.003960 0.000003 0.020958 0.000003
# 6 0.000002 -0.000004 -0.000002 0.027403 0.000003 0.037006
#
#
# Mechanical properties :
#
#
# Convention : Reuss Voigt Hill
#
# Bulk Modulus (GPa) = 33.14765 55.33415 44.24090
# Shear Modulus (GPa) = 24.59411 36.49195 30.54303
#
# Velocity S-wave (km/s) = 3.18297 3.87718 3.54710
# Velocity P-wave (km/s) = 5.21184 6.54505 5.91612
#
# Compressibility (1/GPa) = 0.03016805
#
# Stress axis : x y z
#
# Youngs Moduli (GPa) = 80.31752 41.86156 64.62333
#
# Poissons Ratio (x) = 0.36726 0.47192
# Poissons Ratio (y) = 0.70464 -0.33948
# Poissons Ratio (z) = 0.58653 -0.21991
#
# Static dielectric constant tensor:
#      x y z
#    x 1.907380 0.000000 -0.028620 
#    y 0.000000 1.982760 0.000000 
#    z -0.028620 0.000000 1.993450 
# 
# From -- ./inp_files/18545.got.cif
#   From: 2010.05.17/outbox.cif.g08.bks.cpg/sg9_10_cif.got.tgz:18545.got - 2010.06.03 20:04:27.
