data_PCOD9139444
_publ_section_title
;
Structure prediction by ZEFSAII (Michael W. Deem and Ramdas Pophale) SiO2 
 PCOD9139444
Probable space group: C C
;
_chemical_formula_sum "Si O2"
_cell_formula_units_Z 20
_cell_length_a 18.117658
_cell_length_b 4.531121
_cell_length_c 18.231368
_cell_angle_alpha 90.000000
_cell_angle_beta 153.170333
_cell_angle_gamma 90.000000
_cell_volume 675.507946
_symmetry_space_group_name_H-M "C C"
_symmetry_group_IT_number 9
_symmetry_cell_setting 'monoclinic'
loop_
_space_group_symop_operation_xyz
x,y,z
x,-y,1/2+z
1/2+x,1/2+y,z
1/2+x,1/2-y,1/2+z
loop_
_atom_site_type_symbol
_atom_site_label
_atom_site_fract_x
_atom_site_fract_y
_atom_site_fract_z
Si Si1 0.319000 0.195055 0.018280
Si Si2 0.917593 0.034569 0.821987
Si Si3 0.537314 0.038578 0.838601
Si Si4 0.093631 0.117246 0.203670
Si Si5 0.107059 0.681750 0.110919
O O1 0.443229 0.009939 0.178445
O O2 0.424546 0.430697 0.063776
O O3 0.212227 0.398869 0.977902
O O4 0.199397 0.966837 0.869676
O O5 0.726855 0.965543 0.658384
O O6 0.018513 0.870237 0.847786
O O7 0.943084 0.368769 0.820693
O O8 0.988331 0.900679 0.959898
O O9 0.068115 0.427572 0.138403
O O10 0.200852 0.929866 0.240957
#
# Coordination Sequence:
#
# PCOD9139444 Si02
#       5
#     4   4   4   4   4
#     4  10  25  45  72 104 144 190 242 302 364 435
#     4  12  25  45  72 104 144 190 241 302 364 435
#     4  11  24  44  72 104 141 188 243 302 366 433
#     4  11  26  45  70 104 145 190 241 298 364 438
#     4  12  26  45  70 104 146 190 241 298 364 439
#
# _framework density 29.607351999999999
#
# number of rings (size 3 to 8) (size 9 to 14) (size 15 to 20)
#    0.000    0.800    0.000    6.000    0.000   14.400 
#    0.000    2.000    0.000    0.000    0.000    0.000 
#    0.000    0.000    0.000    0.000    0.000    0.000 
#
# Total GULP energy -56026.291492 kJ/mol
# GULP energy per Si atom -5602.629149 kJ/mol
# Density = 2.953996 g / cm^3
# Si number density = 29.607352 Si / 1000 Ang^3
#
#
#
# Elastic Constant Matrix: (Units=GPa)
#
#
# Indices 1 2 3 4 5 6 
#
# 1 138.9359 29.9629 6.8321 -0.0002 -18.8146 -0.0001
# 2 29.9629 146.9235 11.4859 0.0037 -12.5580 0.0045
# 3 6.8321 11.4859 104.7932 -0.0005 -30.9451 0.0004
# 4 -0.0002 0.0037 -0.0005 52.4050 0.0000 -10.5828
# 5 -18.8146 -12.5580 -30.9451 0.0000 49.7582 0.0000
# 6 -0.0001 0.0045 0.0004 -10.5828 0.0000 53.9743
#
#
#
# Elastic Compliance Matrix: (Units=1/GPa)
#
#
# Indices 1 2 3 4 5 6 
#
# 1 0.007871 -0.001394 0.000508 0.000000 0.002940 0.000000
# 2 -0.001394 0.007211 -0.000389 -0.000001 0.001051 -0.000001
# 3 0.000508 -0.000389 0.011735 0.000000 0.007392 0.000000
# 4 0.000000 -0.000001 0.000000 0.019869 0.000000 0.003896
# 5 0.002940 0.001051 0.007392 0.000000 0.026071 0.000000
# 6 0.000000 -0.000001 0.000000 0.003896 0.000000 0.019291
#
#
# Mechanical properties :
#
#
# Convention : Reuss Voigt Hill
#
# Bulk Modulus (GPa) = 41.20791 54.13496 47.67143
# Shear Modulus (GPa) = 48.69152 54.05226 51.37189
#
# Velocity S-wave (km/s) = 4.05974 4.27738 4.16998
# Velocity P-wave (km/s) = 5.99363 6.53595 6.27066
#
# Compressibility (1/GPa) = 0.02426719
#
# Stress axis : x y z
#
# Youngs Moduli (GPa) = 127.04335 138.68244 85.21555
#
# Poissons Ratio (x) = 0.19327 -0.04328
# Poissons Ratio (y) = 0.17705 0.03316
# Poissons Ratio (z) = -0.06452 0.05397
#
# Static dielectric constant tensor:
#      x y z
#    x 2.326930 0.000000 -0.091190 
#    y 0.000000 2.199490 0.000000 
#    z -0.091190 0.000000 2.361820 
# 
# From -- ./inp_files/11084.got.cif
#   From: 2010.05.17/outbox.cif.g08.bks.cpg/sg9_6_cif.got.tgz:11084.got - 2010.06.03 20:04:27.
