data_PCOD9139114
_publ_section_title
;
Structure prediction by ZEFSAII (Michael W. Deem and Ramdas Pophale) SiO2 
 PCOD9139114
Probable space group: C C
;
_chemical_formula_sum "Si O2"
_cell_formula_units_Z 24
_cell_length_a 10.891331
_cell_length_b 11.595672
_cell_length_c 9.684709
_cell_angle_alpha 90.000000
_cell_angle_beta 49.660367
_cell_angle_gamma 90.000000
_cell_volume 932.275390
_symmetry_space_group_name_H-M "C C"
_symmetry_group_IT_number 9
_symmetry_cell_setting 'monoclinic'
loop_
_space_group_symop_operation_xyz
x,y,z
x,-y,1/2+z
1/2+x,1/2+y,z
1/2+x,1/2-y,1/2+z
loop_
_atom_site_type_symbol
_atom_site_label
_atom_site_fract_x
_atom_site_fract_y
_atom_site_fract_z
Si Si1 0.747570 0.088620 0.303530
Si Si2 0.404520 0.121805 0.289351
Si Si3 0.752496 0.534793 0.679888
Si Si4 0.167292 0.330528 0.418410
Si Si5 0.500356 0.337470 0.830195
Si Si6 0.554519 0.289034 0.488322
O O1 0.724312 0.951651 0.311218
O O2 0.828151 0.122052 0.394902
O O3 0.578558 0.157877 0.423090
O O4 0.885747 0.142286 0.102113
O O5 0.313793 0.242618 0.332392
O O6 0.095916 0.047017 0.295380
O O7 0.316276 0.939034 0.981426
O O8 0.591362 0.146111 0.124513
O O9 0.874914 0.463316 0.682389
O O10 0.694691 0.646594 0.804097
O O11 0.036742 0.258968 0.419362
O O12 0.584111 0.291716 0.629733
#
# Coordination Sequence:
#
# PCOD9139114 Si02
#       6
#     4   4   4   4   4   4
#     4  10  25  46  72 114 153 201 260 327 388 481
#     4  11  27  47  77 111 150 206 262 322 402 469
#     4  11  23  48  74 108 150 201 263 334 381 481
#     4  11  27  46  76 114 154 203 261 325 396 474
#     4   9  24  45  78 103 153 200 257 318 401 462
#     4  10  24  44  73 106 152 201 261 322 398 457
#
# _framework density 25.743466000000002
#
# number of rings (size 3 to 8) (size 9 to 14) (size 15 to 20)
#    1.000    0.667    1.667    0.000   14.000    2.667 
#    3.000    0.000    0.000    0.000    0.000    0.000 
#    0.000    0.000    0.000    0.000    0.000    0.000 
#
# Total GULP energy -67050.406017 kJ/mol
# GULP energy per Si atom -5587.533835 kJ/mol
# Density = 2.568487 g / cm^3
# Si number density = 25.743466 Si / 1000 Ang^3
#
#
#
# Elastic Constant Matrix: (Units=GPa)
#
#
# Indices 1 2 3 4 5 6 
#
# 1 52.4835 15.7235 23.2696 0.0000 5.9686 0.0000
# 2 15.7235 191.0381 70.6232 0.0000 5.2460 0.0000
# 3 23.2696 70.6232 138.8739 0.0000 17.3914 0.0000
# 4 0.0000 0.0000 0.0000 164.6982 0.0000 39.5463
# 5 5.9686 5.2460 17.3914 0.0000 47.7528 0.0000
# 6 0.0000 0.0000 0.0000 39.5463 0.0000 43.5246
#
#
#
# Elastic Compliance Matrix: (Units=1/GPa)
#
#
# Indices 1 2 3 4 5 6 
#
# 1 0.020717 -0.000553 -0.003011 0.000000 -0.001432 0.000000
# 2 -0.000553 0.006473 -0.003268 0.000000 0.000548 0.000000
# 3 -0.003011 -0.003268 0.009718 0.000000 -0.002804 0.000000
# 4 0.000000 0.000000 0.000000 0.007766 0.000000 -0.007056
# 5 -0.001432 0.000548 -0.002804 0.000000 0.022081 0.000000
# 6 0.000000 0.000000 0.000000 -0.007056 0.000000 0.029387
#
#
# Mechanical properties :
#
#
# Convention : Reuss Voigt Hill
#
# Bulk Modulus (GPa) = 43.01926 66.84757 54.93342
# Shear Modulus (GPa) = 42.53378 69.38040 55.95709
#
# Velocity S-wave (km/s) = 4.06916 5.19704 4.66729
# Velocity P-wave (km/s) = 6.23092 7.87626 7.10140
#
# Compressibility (1/GPa) = 0.02324540
#
# Stress axis : x y z
#
# Youngs Moduli (GPa) = 48.26956 154.48643 102.89899
#
# Poissons Ratio (x) = 0.08539 0.30982
# Poissons Ratio (y) = 0.02668 0.33626
# Poissons Ratio (z) = 0.14533 0.50484
#
# Static dielectric constant tensor:
#      x y z
#    x 2.128950 0.000000 -0.033040 
#    y 0.000000 1.897390 0.000000 
#    z -0.033040 0.000000 1.939170 
# 
# From -- ./inp_files/25955.got.cif
#   From: 2010.05.17/outbox.cif.g08.bks.cpg/sg9_13_cif.got.tgz:25955.got - 2010.06.03 20:04:27.
