data_PCOD9139932
_publ_section_title
;
Structure prediction by ZEFSAII (Michael W. Deem and Ramdas Pophale) SiO2 
 PCOD9139932
Probable space group: C C
;
_chemical_formula_sum "Si O2"
_cell_formula_units_Z 32
_cell_length_a 5.625966
_cell_length_b 28.466469
_cell_length_c 10.846614
_cell_angle_alpha 90.000000
_cell_angle_beta 125.354323
_cell_angle_gamma 90.000000
_cell_volume 1416.760479
_symmetry_space_group_name_H-M "C C"
_symmetry_group_IT_number 9
_symmetry_cell_setting 'monoclinic'
loop_
_space_group_symop_operation_xyz
x,y,z
x,-y,1/2+z
1/2+x,1/2+y,z
1/2+x,1/2-y,1/2+z
loop_
_atom_site_type_symbol
_atom_site_label
_atom_site_fract_x
_atom_site_fract_y
_atom_site_fract_z
Si Si1 0.417230 0.383041 0.864070
Si Si2 0.296856 0.208319 0.528916
Si Si3 0.329496 0.846275 0.674463
Si Si4 0.120730 0.982734 0.018678
Si Si5 0.978698 0.711259 0.979719
Si Si6 0.246904 0.381426 0.523036
Si Si7 0.830613 0.754117 0.284295
Si Si8 0.469951 0.022579 0.880212
O O1 0.623746 0.338333 0.949969
O O2 0.562496 0.428707 0.963745
O O3 0.347684 0.388739 0.697250
O O4 0.096807 0.371339 0.823139
O O5 0.632403 0.206344 0.662896
O O6 0.273526 0.246300 0.411284
O O7 0.150007 0.243029 0.582674
O O8 0.444373 0.822448 0.586973
O O9 0.236609 0.798803 0.716185
O O10 0.070758 0.881040 0.562090
O O11 0.297754 0.004078 0.952163
O O12 0.296506 0.986620 0.200504
O O13 0.797096 0.002703 0.952744
O O14 0.662587 0.732975 0.858253
O O15 0.115085 0.668757 0.940566
O O16 0.030291 0.422249 0.420352
#
# Coordination Sequence:
#
# PCOD9139932 Si02
#       8
#     4   4   4   4   4   4   4   4
#     4  11  25  43  74 106 145 193 253 309 388 455
#     4  12  24  41  63  97 145 192 244 306 366 446
#     4  11  22  42  68 100 137 199 240 302 371 444
#     4  12  29  55  83 121 154 202 257 330 399 477
#     4  11  23  40  65  98 143 192 247 299 370 439
#     4  11  24  46  74 103 147 193 249 311 389 457
#     4  12  22  40  62  95 141 196 249 301 361 440
#     4  12  29  55  85 118 158 199 259 328 402 476
#
# _framework density 22.586739999999999
#
# number of rings (size 3 to 8) (size 9 to 14) (size 15 to 20)
#    0.000    0.500    5.000    3.000    7.000    2.000 
#    4.500    0.000    0.000    0.000    0.000    0.000 
#    0.000    0.000    0.000    0.000    0.000    0.000 
#
# Total GULP energy -89131.945048 kJ/mol
# GULP energy per Si atom -5570.746565 kJ/mol
# Density = 2.253533 g / cm^3
# Si number density = 22.586740 Si / 1000 Ang^3
#
#
#
# Elastic Constant Matrix: (Units=GPa)
#
#
# Indices 1 2 3 4 5 6 
#
# 1 144.5388 -35.9079 80.2925 0.0000 28.7732 0.0000
# 2 -35.9079 160.1956 -35.4206 0.0000 -4.9667 0.0000
# 3 80.2925 -35.4206 123.6751 0.0000 11.7257 0.0000
# 4 0.0000 0.0000 0.0000 39.2483 0.0000 8.0776
# 5 28.7732 -4.9667 11.7257 0.0000 29.9318 0.0000
# 6 0.0000 0.0000 0.0000 8.0776 0.0000 23.2022
#
#
#
# Elastic Compliance Matrix: (Units=1/GPa)
#
#
# Indices 1 2 3 4 5 6 
#
# 1 0.013165 0.001030 -0.007341 0.000000 -0.009609 0.000000
# 2 0.001030 0.006749 0.001300 0.000000 -0.000380 0.000000
# 3 -0.007341 0.001300 0.013018 0.000000 0.002173 0.000000
# 4 0.000000 0.000000 0.000000 0.027445 0.000000 -0.009555
# 5 -0.009609 -0.000380 0.002173 0.000000 0.041732 0.000000
# 6 0.000000 0.000000 0.000000 -0.009555 0.000000 0.046426
#
#
# Mechanical properties :
#
#
# Convention : Reuss Voigt Hill
#
# Bulk Modulus (GPa) = 43.64849 49.59307 46.62078
# Shear Modulus (GPa) = 30.08518 46.43947 38.26232
#
# Velocity S-wave (km/s) = 3.65360 4.53929 4.12031
# Velocity P-wave (km/s) = 6.09632 7.03405 6.58191
#
# Compressibility (1/GPa) = 0.02291030
#
# Stress axis : x y z
#
# Youngs Moduli (GPa) = 75.95665 148.17116 76.81563
#
# Poissons Ratio (x) = -0.15260 0.56392
# Poissons Ratio (y) = -0.07823 -0.09988
# Poissons Ratio (z) = 0.55762 -0.19266
#
# Static dielectric constant tensor:
#      x y z
#    x 1.294200 0.000000 0.219690 
#    y 0.000000 2.045090 0.000000 
#    z 0.219690 0.000000 1.778410 
# 
# From -- ./inp_files/4308.got.cif
#   From: 2010.05.17/outbox.cif.g08.bks.cpg/sg9_3_cif.got.tgz:4308.got - 2010.06.03 20:04:27.
