data_PCOD9139020
_publ_section_title
;
Structure prediction by ZEFSAII (Michael W. Deem and Ramdas Pophale) SiO2 
 PCOD9139020
Probable space group: C C
;
_chemical_formula_sum "Si O2"
_cell_formula_units_Z 20
_cell_length_a 9.103204
_cell_length_b 16.173155
_cell_length_c 5.223275
_cell_angle_alpha 90.000000
_cell_angle_beta 86.757270
_cell_angle_gamma 90.000000
_cell_volume 767.778578
_symmetry_space_group_name_H-M "C C"
_symmetry_group_IT_number 9
_symmetry_cell_setting 'monoclinic'
loop_
_space_group_symop_operation_xyz
x,y,z
x,-y,1/2+z
1/2+x,1/2+y,z
1/2+x,1/2-y,1/2+z
loop_
_atom_site_type_symbol
_atom_site_label
_atom_site_fract_x
_atom_site_fract_y
_atom_site_fract_z
Si Si1 0.543990 0.443864 0.050380
Si Si2 0.469005 0.711860 0.263204
Si Si3 0.214108 0.827692 0.336979
Si Si4 0.170884 0.474839 0.870491
Si Si5 0.497646 0.129187 0.057230
O O1 0.542262 0.491360 0.320875
O O2 0.689918 0.388968 0.103567
O O3 0.446826 0.367826 0.944753
O O4 0.309840 0.750715 0.227388
O O5 0.546065 0.785553 0.418694
O O6 0.562949 0.692349 0.000918
O O7 0.322835 0.865970 0.543451
O O8 0.260209 0.503994 0.613780
O O9 0.081293 0.392192 0.814177
O O10 0.049429 0.548866 0.891891
#
# Coordination Sequence:
#
# PCOD9139020 Si02
#       5
#     4   4   4   4   4
#     4  12  26  48  77 114 151 204 262 317 379 462
#     4  10  24  46  73 109 152 201 256 310 387 455
#     4  10  24  43  74 108 148 199 253 316 376 460
#     4   8  16  32  55  95 129 168 225 297 345 408
#     4   8  20  35  65  98 142 180 238 300 369 427
#
# _framework density 26.049175000000002
#
# number of rings (size 3 to 8) (size 9 to 14) (size 15 to 20)
#    2.400    0.000    2.000    0.000    2.800    4.800 
#    0.000    0.000    4.400    0.000    0.000    0.000 
#    0.000    0.000    0.000    0.000    0.000    0.000 
#
# Total GULP energy -55688.680058 kJ/mol
# GULP energy per Si atom -5568.868006 kJ/mol
# Density = 2.598989 g / cm^3
# Si number density = 26.049175 Si / 1000 Ang^3
#
#
#
# Elastic Constant Matrix: (Units=GPa)
#
#
# Indices 1 2 3 4 5 6 
#
# 1 101.0601 36.3790 52.0496 0.0000 5.3382 0.0000
# 2 36.3790 132.0778 18.3168 0.0000 -18.2442 0.0000
# 3 52.0496 18.3168 157.8783 0.0000 3.9763 0.0000
# 4 0.0000 0.0000 0.0000 33.5529 0.0000 14.9056
# 5 5.3382 -18.2442 3.9763 0.0000 37.9108 0.0000
# 6 0.0000 0.0000 0.0000 14.9056 0.0000 42.6922
#
#
#
# Elastic Compliance Matrix: (Units=1/GPa)
#
#
# Indices 1 2 3 4 5 6 
#
# 1 0.013367 -0.003581 -0.003911 0.000000 -0.003195 0.000000
# 2 -0.003581 0.009244 -0.000017 0.000000 0.004955 0.000000
# 3 -0.003911 -0.000017 0.007632 0.000000 -0.000258 0.000000
# 4 0.000000 0.000000 0.000000 0.035275 0.000000 -0.012316
# 5 -0.003195 0.004955 -0.000258 0.000000 0.029239 0.000000
# 6 0.000000 0.000000 0.000000 -0.012316 0.000000 0.027723
#
#
# Mechanical properties :
#
#
# Convention : Reuss Voigt Hill
#
# Bulk Modulus (GPa) = 65.67641 67.16745 66.42193
# Shear Modulus (GPa) = 35.06970 41.78257 38.42614
#
# Velocity S-wave (km/s) = 3.67316 4.00933 3.84492
# Velocity P-wave (km/s) = 6.57698 6.87559 6.72794
#
# Compressibility (1/GPa) = 0.01522617
#
# Stress axis : x y z
#
# Youngs Moduli (GPa) = 74.81015 108.17472 131.03031
#
# Poissons Ratio (x) = 0.38735 0.51246
# Poissons Ratio (y) = 0.26788 0.00220
# Poissons Ratio (z) = 0.29258 0.00182
#
# Static dielectric constant tensor:
#      x y z
#    x 2.150580 0.000000 0.014290 
#    y 0.000000 2.059020 0.000000 
#    z 0.014290 0.000000 2.257240 
# 
# From -- ./inp_files/1528.got.cif
#   From: 2010.05.17/outbox.cif.g08.bks.cpg/sg9_1_cif.got.tgz:1528.got - 2010.06.03 20:04:27.
