data_PCOD9139214
_publ_section_title
;
Structure prediction by ZEFSAII (Michael W. Deem and Ramdas Pophale) SiO2 
 PCOD9139214
Probable space group: C C
;
_chemical_formula_sum "Si O2"
_cell_formula_units_Z 20
_cell_length_a 9.781818
_cell_length_b 10.031602
_cell_length_c 10.562731
_cell_angle_alpha 90.000000
_cell_angle_beta 124.857706
_cell_angle_gamma 90.000000
_cell_volume 850.518647
_symmetry_space_group_name_H-M "C C"
_symmetry_group_IT_number 9
_symmetry_cell_setting 'monoclinic'
loop_
_space_group_symop_operation_xyz
x,y,z
x,-y,1/2+z
1/2+x,1/2+y,z
1/2+x,1/2-y,1/2+z
loop_
_atom_site_type_symbol
_atom_site_label
_atom_site_fract_x
_atom_site_fract_y
_atom_site_fract_z
Si Si1 0.791450 0.990825 0.327110
Si Si2 0.490572 0.024661 0.354021
Si Si3 0.497181 0.312832 0.291498
Si Si4 0.150158 0.021596 0.530484
Si Si5 0.110954 0.300677 0.592133
O O1 0.822385 0.878455 0.238242
O O2 0.967376 0.989464 0.494039
O O3 0.632160 0.976869 0.329626
O O4 0.771538 0.131028 0.242836
O O5 0.523754 0.181348 0.390491
O O6 0.308923 0.015709 0.195991
O O7 0.511891 0.923690 0.480384
O O8 0.630697 0.428576 0.396408
O O9 0.512335 0.263688 0.157081
O O10 0.154806 0.181624 0.519980
#
# Coordination Sequence:
#
# PCOD9139214 Si02
#       5
#     4   4   4   4   4
#     4   9  24  44  74 108 158 193 253 313 383 461
#     4  11  24  46  76 114 145 206 262 311 379 462
#     4   9  25  48  72 107 161 198 246 316 390 449
#     4  10  24  46  71 105 154 205 247 318 386 448
#     4  11  23  46  79 108 148 204 258 312 388 458
#
# _framework density 23.515065
#
# number of rings (size 3 to 8) (size 9 to 14) (size 15 to 20)
#    1.200    0.800    0.000    1.200    5.600    8.000 
#   14.400    0.000    0.000    0.000    0.000    0.000 
#    0.000    0.000    0.000    0.000    0.000    0.000 
#
# Total GULP energy -55786.292022 kJ/mol
# GULP energy per Si atom -5578.629202 kJ/mol
# Density = 2.346154 g / cm^3
# Si number density = 23.515065 Si / 1000 Ang^3
#
#
#
# Elastic Constant Matrix: (Units=GPa)
#
#
# Indices 1 2 3 4 5 6 
#
# 1 105.6322 56.3130 62.4917 0.0000 20.0520 0.0000
# 2 56.3130 154.8482 23.8816 0.0000 -27.5587 0.0000
# 3 62.4917 23.8816 78.7637 0.0000 17.2194 0.0000
# 4 0.0000 0.0000 0.0000 62.2358 0.0000 -5.7478
# 5 20.0520 -27.5587 17.2194 0.0000 37.4671 0.0000
# 6 0.0000 0.0000 0.0000 -5.7478 0.0000 32.0298
#
#
#
# Elastic Compliance Matrix: (Units=1/GPa)
#
#
# Indices 1 2 3 4 5 6 
#
# 1 0.026023 -0.009800 -0.014513 0.000000 -0.014465 0.000000
# 2 -0.009800 0.012332 0.001008 0.000000 0.013852 0.000000
# 3 -0.014513 0.001008 0.024508 0.000000 -0.002755 0.000000
# 4 0.000000 0.000000 0.000000 0.016339 0.000000 0.002932
# 5 -0.014465 0.013852 -0.002755 0.000000 0.045887 0.000000
# 6 0.000000 0.000000 0.000000 0.002932 0.000000 0.031747
#
#
# Mechanical properties :
#
#
# Convention : Reuss Voigt Hill
#
# Bulk Modulus (GPa) = 61.52972 69.40185 65.46578
# Shear Modulus (GPa) = 23.93928 39.45040 31.69484
#
# Velocity S-wave (km/s) = 3.19414 4.10037 3.67529
# Velocity P-wave (km/s) = 6.31080 7.21078 6.77575
#
# Compressibility (1/GPa) = 0.01625231
#
# Stress axis : x y z
#
# Youngs Moduli (GPa) = 38.42768 81.09228 40.80376
#
# Poissons Ratio (x) = 0.79469 0.59218
# Poissons Ratio (y) = 0.37658 -0.04113
# Poissons Ratio (z) = 0.55770 -0.08173
#
# Static dielectric constant tensor:
#      x y z
#    x 1.945080 0.000000 -0.006720 
#    y 0.000000 1.931060 0.000000 
#    z -0.006720 0.000000 1.945750 
# 
# From -- ./inp_files/15982.got.cif
#   From: 2010.05.17/outbox.cif.g08.bks.cpg/sg9_8_cif.got.tgz:15982.got - 2010.06.03 20:04:27.
