data_PCOD9139992
_publ_section_title
;
Structure prediction by ZEFSAII (Michael W. Deem and Ramdas Pophale) SiO2 
 PCOD9139992
Probable space group: C C
;
_chemical_formula_sum "Si O2"
_cell_formula_units_Z 28
_cell_length_a 13.076194
_cell_length_b 9.457108
_cell_length_c 24.156569
_cell_angle_alpha 90.000000
_cell_angle_beta 21.668534
_cell_angle_gamma 90.000000
_cell_volume 1103.010139
_symmetry_space_group_name_H-M "C C"
_symmetry_group_IT_number 9
_symmetry_cell_setting 'monoclinic'
loop_
_space_group_symop_operation_xyz
x,y,z
x,-y,1/2+z
1/2+x,1/2+y,z
1/2+x,1/2-y,1/2+z
loop_
_atom_site_type_symbol
_atom_site_label
_atom_site_fract_x
_atom_site_fract_y
_atom_site_fract_z
Si Si1 0.936070 0.093388 0.063140
Si Si2 0.831887 0.331582 0.263531
Si Si3 0.483042 0.754272 0.842641
Si Si4 0.817596 0.770707 0.099534
Si Si5 0.472946 0.096674 0.119050
Si Si6 0.286723 0.344639 0.290875
Si Si7 0.740791 0.479039 0.512254
O O1 0.695971 0.212755 0.186367
O O2 0.093231 0.122176 0.042027
O O3 0.807340 0.934717 0.124715
O O4 0.140107 0.107522 0.909027
O O5 0.632925 0.235887 0.327003
O O6 0.920984 0.448342 0.173617
O O7 0.096619 0.265672 0.160923
O O8 0.293161 0.615692 0.939723
O O9 0.288808 0.890093 0.945717
O O10 0.778299 0.654130 0.167325
O O11 0.121818 0.726465 0.924520
O O12 0.415670 0.211293 0.195026
O O13 0.534310 0.459962 0.163467
O O14 0.029290 0.417712 0.388057
#
# Coordination Sequence:
#
# PCOD9139992 Si02
#       7
#     4   4   4   4   4   4   4
#     4  12  22  45  76 103 140 201 254 301 397 469
#     4  12  27  46  74 110 154 200 255 323 396 462
#     4  11  24  45  72 107 145 193 257 316 376 477
#     4  12  25  44  75 107 149 204 250 318 394 465
#     4  11  25  48  72 112 154 195 258 324 384 471
#     4  11  23  44  71 107 149 191 257 313 387 460
#     4  11  22  44  74 104 145 198 247 315 378 466
#
# _framework density 25.385079000000001
#
# number of rings (size 3 to 8) (size 9 to 14) (size 15 to 20)
#    0.000    0.571    5.714    3.429    0.000    2.286 
#    5.143    0.000    0.000    0.000    0.000    0.000 
#    0.000    0.000    0.000    0.000    0.000    0.000 
#
# Total GULP energy -78230.670326 kJ/mol
# GULP energy per Si atom -5587.905023 kJ/mol
# Density = 2.532730 g / cm^3
# Si number density = 25.385079 Si / 1000 Ang^3
#
#
#
# Elastic Constant Matrix: (Units=GPa)
#
#
# Indices 1 2 3 4 5 6 
#
# 1 103.3468 17.1177 17.8927 -0.0352 -5.4934 0.0037
# 2 17.1177 77.1741 33.9084 -0.0321 9.9464 0.0019
# 3 17.8927 33.9084 128.6136 -0.1291 10.3264 0.0231
# 4 -0.0352 -0.0321 -0.1291 45.5710 0.0250 17.9423
# 5 -5.4934 9.9464 10.3264 0.0250 41.7977 -0.0072
# 6 0.0037 0.0019 0.0231 17.9423 -0.0072 35.1005
#
#
#
# Elastic Compliance Matrix: (Units=1/GPa)
#
#
# Indices 1 2 3 4 5 6 
#
# 1 0.010318 -0.002099 -0.001052 0.000003 0.002116 -0.000001
# 2 -0.002099 0.015361 -0.003512 0.000001 -0.003064 0.000001
# 3 -0.001052 -0.003512 0.008969 0.000032 -0.001519 -0.000022
# 4 0.000003 0.000001 0.000032 0.027473 -0.000026 -0.014043
# 5 0.002116 -0.003064 -0.001519 -0.000026 0.025307 0.000020
# 6 -0.000001 0.000001 -0.000022 -0.014043 0.000020 0.035668
#
#
# Mechanical properties :
#
#
# Convention : Reuss Voigt Hill
#
# Bulk Modulus (GPa) = 46.89744 49.66356 48.28050
# Shear Modulus (GPa) = 34.83566 40.50822 37.67194
#
# Velocity S-wave (km/s) = 3.70846 3.99902 3.85648
# Velocity P-wave (km/s) = 6.07054 6.39761 6.23622
#
# Compressibility (1/GPa) = 0.02132312
#
# Stress axis : x y z
#
# Youngs Moduli (GPa) = 96.91399 65.09895 111.48990
#
# Poissons Ratio (x) = 0.13665 0.11728
# Poissons Ratio (y) = 0.20344 0.39154
# Poissons Ratio (z) = 0.10195 0.22862
#
# Static dielectric constant tensor:
#      x y z
#    x 2.049310 0.000000 -0.013860 
#    y 0.000000 1.990610 -0.000030 
#    z -0.013860 -0.000030 2.063190 
# 
# From -- ./inp_files/16369.got.cif
#   From: 2010.05.17/outbox.cif.g08.bks.cpg/sg9_9_cif.got.tgz:16369.got - 2010.06.03 20:04:27.
