data_PCOD9139559
_publ_section_title
;
Structure prediction by ZEFSAII (Michael W. Deem and Ramdas Pophale) SiO2 
 PCOD9139559
Probable space group: C C
;
_chemical_formula_sum "Si O2"
_cell_formula_units_Z 24
_cell_length_a 5.125414
_cell_length_b 9.681191
_cell_length_c 20.262259
_cell_angle_alpha 90.000000
_cell_angle_beta 112.796234
_cell_angle_gamma 90.000000
_cell_volume 926.881163
_symmetry_space_group_name_H-M "C C"
_symmetry_group_IT_number 9
_symmetry_cell_setting 'monoclinic'
loop_
_space_group_symop_operation_xyz
x,y,z
x,-y,1/2+z
1/2+x,1/2+y,z
1/2+x,1/2-y,1/2+z
loop_
_atom_site_type_symbol
_atom_site_label
_atom_site_fract_x
_atom_site_fract_y
_atom_site_fract_z
Si Si1 0.852900 0.731905 0.709640
Si Si2 0.128630 0.293255 0.463602
Si Si3 0.470702 0.789995 0.791723
Si Si4 0.182783 0.566692 0.832805
Si Si5 0.250933 0.835858 0.548171
Si Si6 0.943080 0.382185 0.079251
O O1 0.602236 0.776549 0.732339
O O2 0.834489 0.707991 0.630160
O O3 0.134944 0.822906 0.752738
O O4 0.957101 0.586866 0.751705
O O5 0.097761 0.336467 0.385626
O O6 0.416727 0.375971 0.514218
O O7 0.242037 0.141178 0.495295
O O8 0.869714 0.319839 0.486390
O O9 0.455948 0.641305 0.827758
O O10 0.653943 0.906292 0.847132
O O11 0.433573 0.958920 0.596457
O O12 0.232093 0.689144 0.583961
#
# Coordination Sequence:
#
# PCOD9139559 Si02
#       6
#     4   4   4   4   4   4
#     4  10  26  41  72  95 140 174 232 281 348 414
#     4  10  26  40  68  93 139 175 233 279 356 405
#     4  10  26  40  69  96 137 174 231 278 350 411
#     4  10  26  43  68 101 135 183 228 288 346 420
#     4  10  26  41  69  95 136 177 231 283 349 417
#     4  10  26  43  68 100 135 179 229 283 349 413
#
# _framework density 25.893284999999999
#
# number of rings (size 3 to 8) (size 9 to 14) (size 15 to 20)
#    2.000    0.000    0.000    0.000   14.000    1.333 
#    0.000    0.000    0.000    0.000    0.000    0.000 
#    0.000    0.000    0.000    0.000    0.000    0.000 
#
# Total GULP energy -66866.540296 kJ/mol
# GULP energy per Si atom -5572.211691 kJ/mol
# Density = 2.583435 g / cm^3
# Si number density = 25.893285 Si / 1000 Ang^3
#
#
#
# Elastic Constant Matrix: (Units=GPa)
#
#
# Indices 1 2 3 4 5 6 
#
# 1 161.3008 41.4062 46.4134 0.0000 -46.3260 0.0000
# 2 41.4062 130.7022 6.7778 0.0000 -13.4954 0.0000
# 3 46.4134 6.7778 80.7640 0.0000 -21.5748 0.0000
# 4 0.0000 0.0000 0.0000 25.4231 0.0000 -0.4751
# 5 -46.3260 -13.4954 -21.5748 0.0000 45.8507 0.0000
# 6 0.0000 0.0000 0.0000 -0.4751 0.0000 42.2099
#
#
#
# Elastic Compliance Matrix: (Units=1/GPa)
#
#
# Indices 1 2 3 4 5 6 
#
# 1 0.010011 -0.002182 -0.003476 0.000000 0.007836 0.000000
# 2 -0.002182 0.008367 0.000710 0.000000 0.000592 0.000000
# 3 -0.003476 0.000710 0.015369 0.000000 0.003928 0.000000
# 4 0.000000 0.000000 0.000000 0.039343 0.000000 0.000443
# 5 0.007836 0.000592 0.003928 0.000000 0.031750 0.000000
# 6 0.000000 0.000000 0.000000 0.000443 0.000000 0.023696
#
#
# Mechanical properties :
#
#
# Convention : Reuss Voigt Hill
#
# Bulk Modulus (GPa) = 41.92915 62.44018 52.18466
# Shear Modulus (GPa) = 34.15713 41.24141 37.69927
#
# Velocity S-wave (km/s) = 3.63595 3.99525 3.81983
# Velocity P-wave (km/s) = 5.81851 6.74162 6.29701
#
# Compressibility (1/GPa) = 0.02384975
#
# Stress axis : x y z
#
# Youngs Moduli (GPa) = 99.89349 119.52387 65.06417
#
# Poissons Ratio (x) = 0.26079 0.22619
# Poissons Ratio (y) = 0.21796 -0.04619
# Poissons Ratio (z) = 0.34727 -0.08486
#
# Static dielectric constant tensor:
#      x y z
#    x 2.035120 0.000000 0.099560 
#    y 0.000000 2.072730 0.000000 
#    z 0.099560 0.000000 1.999730 
# 
# From -- ./inp_files/31958.got.cif
#   From: 2010.05.17/outbox.cif.g08.bks.cpg/sg9_16_cif.got.tgz:31958.got - 2010.06.03 20:04:27.
