data_PCOD9139143
_publ_section_title
;
Structure prediction by ZEFSAII (Michael W. Deem and Ramdas Pophale) SiO2 
 PCOD9139143
Probable space group: C C
;
_chemical_formula_sum "Si O2"
_cell_formula_units_Z 28
_cell_length_a 18.068621
_cell_length_b 5.280860
_cell_length_c 13.071606
_cell_angle_alpha 90.000000
_cell_angle_beta 124.861550
_cell_angle_gamma 90.000000
_cell_volume 1023.425101
_symmetry_space_group_name_H-M "C C"
_symmetry_group_IT_number 9
_symmetry_cell_setting 'monoclinic'
loop_
_space_group_symop_operation_xyz
x,y,z
x,-y,1/2+z
1/2+x,1/2+y,z
1/2+x,1/2-y,1/2+z
loop_
_atom_site_type_symbol
_atom_site_label
_atom_site_fract_x
_atom_site_fract_y
_atom_site_fract_z
Si Si1 0.821340 0.554986 0.970980
Si Si2 0.559524 0.433690 0.462334
Si Si3 0.117616 0.449943 0.400301
Si Si4 0.366494 0.393579 0.869133
Si Si5 0.793650 0.853979 0.145051
Si Si6 0.131027 0.128400 0.234998
Si Si7 0.927039 0.934844 0.613885
O O1 0.849859 0.600289 0.858431
O O2 0.715926 0.499951 0.857137
O O3 0.896059 0.334353 0.048603
O O4 0.803423 0.602495 0.086707
O O5 0.583739 0.689584 0.422947
O O6 0.463745 0.488897 0.437534
O O7 0.629263 0.381857 0.610796
O O8 0.558902 0.184844 0.392139
O O9 0.214740 0.501374 0.524046
O O10 0.122669 0.403886 0.282941
O O11 0.291188 0.570386 0.762233
O O12 0.362715 0.367788 0.995803
O O13 0.886989 0.014259 0.193895
O O14 0.031995 0.012238 0.185924
#
# Coordination Sequence:
#
# PCOD9139143 Si02
#       7
#     4   4   4   4   4   4   4
#     4  11  24  46  73 105 149 203 252 316 401 451
#     4  11  28  46  75 114 149 206 258 318 390 462
#     4  12  26  46  73 113 149 203 259 311 391 460
#     4  10  25  45  71 105 146 195 254 314 386 466
#     4  11  24  43  71 103 148 191 252 312 382 462
#     4  11  25  49  76 106 159 196 264 326 382 469
#     4  10  24  45  69 108 138 200 247 313 388 448
#
# _framework density 27.359110000000001
#
# number of rings (size 3 to 8) (size 9 to 14) (size 15 to 20)
#    0.000    1.143    1.429    2.571    8.000    3.429 
#    2.571    0.000    0.000    0.000    0.000    0.000 
#    0.000    0.000    0.000    0.000    0.000    0.000 
#
# Total GULP energy -78033.966558 kJ/mol
# GULP energy per Si atom -5573.854754 kJ/mol
# Density = 2.729684 g / cm^3
# Si number density = 27.359110 Si / 1000 Ang^3
#
#
#
# Elastic Constant Matrix: (Units=GPa)
#
#
# Indices 1 2 3 4 5 6 
#
# 1 101.3019 52.6496 20.0139 0.0000 21.3661 0.0000
# 2 52.6496 146.2329 33.4249 0.0002 -7.6567 0.0000
# 3 20.0139 33.4249 147.4264 0.0001 3.2281 0.0000
# 4 0.0000 0.0002 0.0001 40.0372 0.0000 0.0283
# 5 21.3661 -7.6567 3.2281 0.0000 45.9145 0.0000
# 6 0.0000 0.0000 0.0000 0.0283 0.0000 56.0704
#
#
#
# Elastic Compliance Matrix: (Units=1/GPa)
#
#
# Indices 1 2 3 4 5 6 
#
# 1 0.014418 -0.005462 -0.000553 0.000000 -0.007581 0.000000
# 2 -0.005462 0.009362 -0.001473 0.000000 0.004206 0.000000
# 3 -0.000553 -0.001473 0.007203 0.000000 -0.000495 0.000000
# 4 0.000000 0.000000 0.000000 0.024977 0.000000 -0.000013
# 5 -0.007581 0.004206 -0.000495 0.000000 0.026044 0.000000
# 6 0.000000 0.000000 0.000000 -0.000013 0.000000 0.017835
#
#
# Mechanical properties :
#
#
# Convention : Reuss Voigt Hill
#
# Bulk Modulus (GPa) = 62.47180 67.45976 64.96578
# Shear Modulus (GPa) = 41.61455 47.66261 44.63858
#
# Velocity S-wave (km/s) = 3.90429 4.17839 4.04366
# Velocity P-wave (km/s) = 6.57330 6.92743 6.75268
#
# Compressibility (1/GPa) = 0.01600722
#
# Stress axis : x y z
#
# Youngs Moduli (GPa) = 69.35573 106.81678 138.83171
#
# Poissons Ratio (x) = 0.58341 0.07678
# Poissons Ratio (y) = 0.37880 0.20452
# Poissons Ratio (z) = 0.03836 0.15736
#
# Static dielectric constant tensor:
#      x y z
#    x 2.418320 0.000000 -0.238830 
#    y 0.000000 2.062440 0.000000 
#    z -0.238830 0.000000 2.313550 
# 
# From -- ./inp_files/26999.got.cif
#   From: 2010.05.17/outbox.cif.g08.bks.cpg/sg9_14_cif.got.tgz:26999.got - 2010.06.03 20:04:27.
