data_PCOD9139458
_publ_section_title
;
Structure prediction by ZEFSAII (Michael W. Deem and Ramdas Pophale) SiO2 
 PCOD9139458
Probable space group: C C
;
_chemical_formula_sum "Si O2"
_cell_formula_units_Z 24
_cell_length_a 8.580855
_cell_length_b 12.853379
_cell_length_c 9.774133
_cell_angle_alpha 90.000000
_cell_angle_beta 97.117994
_cell_angle_gamma 90.000000
_cell_volume 1069.710060
_symmetry_space_group_name_H-M "C C"
_symmetry_group_IT_number 9
_symmetry_cell_setting 'monoclinic'
loop_
_space_group_symop_operation_xyz
x,y,z
x,-y,1/2+z
1/2+x,1/2+y,z
1/2+x,1/2-y,1/2+z
loop_
_atom_site_type_symbol
_atom_site_label
_atom_site_fract_x
_atom_site_fract_y
_atom_site_fract_z
Si Si1 0.850260 0.517226 0.334640
Si Si2 0.609748 0.329486 0.256062
Si Si3 0.785985 0.129352 0.310783
Si Si4 0.127755 0.805445 0.931266
Si Si5 0.764986 0.896441 0.312375
Si Si6 0.074035 0.520520 0.106193
O O1 0.733029 0.421825 0.296210
O O2 0.752787 0.610317 0.391137
O O3 0.940018 0.547654 0.205255
O O4 0.983197 0.483187 0.456217
O O5 0.672847 0.224890 0.337538
O O6 0.605329 0.313411 0.091776
O O7 0.938654 0.137340 0.787803
O O8 0.961484 0.169461 0.341937
O O9 0.719769 0.096982 0.154180
O O10 0.778999 0.986096 0.877652
O O11 0.188678 0.694072 0.890934
O O12 0.650773 0.912856 0.168054
#
# Coordination Sequence:
#
# PCOD9139458 Si02
#       6
#     4   4   4   4   4   4
#     4  12  23  49  77 118 151 202 256 314 382 461
#     4  12  26  49  78 113 156 206 250 322 385 459
#     4  10  26  46  75 109 149 198 255 313 378 453
#     4  12  26  49  79 113 155 203 262 312 386 460
#     4  10  26  50  72 113 147 199 259 314 381 449
#     4  10  25  45  77 108 154 194 258 317 376 450
#
# _framework density 22.435986
#
# number of rings (size 3 to 8) (size 9 to 14) (size 15 to 20)
#    1.000    0.000    3.333    2.000    7.000    1.333 
#    3.000    0.000    0.000    0.000    0.000    0.000 
#    0.000    0.000    0.000    0.000    0.000    0.000 
#
# Total GULP energy -67030.249451 kJ/mol
# GULP energy per Si atom -5585.854121 kJ/mol
# Density = 2.238492 g / cm^3
# Si number density = 22.435986 Si / 1000 Ang^3
#
#
#
# Elastic Constant Matrix: (Units=GPa)
#
#
# Indices 1 2 3 4 5 6 
#
# 1 183.6681 75.0842 56.2953 0.0000 10.0682 0.0000
# 2 75.0842 169.3884 40.3267 0.0000 0.9820 0.0000
# 3 56.2953 40.3267 93.5401 0.0000 0.6169 0.0000
# 4 0.0000 0.0000 0.0000 26.6563 0.0000 4.9678
# 5 10.0682 0.9820 0.6169 0.0000 25.4813 0.0000
# 6 0.0000 0.0000 0.0000 4.9678 0.0000 37.3754
#
#
#
# Elastic Compliance Matrix: (Units=1/GPa)
#
#
# Indices 1 2 3 4 5 6 
#
# 1 0.007735 -0.002572 -0.003527 0.000000 -0.002872 0.000000
# 2 -0.002572 0.007435 -0.001662 0.000000 0.000770 0.000000
# 3 -0.003527 -0.001662 0.013523 0.000000 0.001130 0.000000
# 4 0.000000 0.000000 0.000000 0.038468 0.000000 -0.005113
# 5 -0.002872 0.000770 0.001130 0.000000 0.040322 0.000000
# 6 0.000000 0.000000 0.000000 -0.005113 0.000000 0.027435
#
#
# Mechanical properties :
#
#
# Convention : Reuss Voigt Hill
#
# Bulk Modulus (GPa) = 75.93678 87.77878 81.85778
# Shear Modulus (GPa) = 32.29350 36.22862 34.26106
#
# Velocity S-wave (km/s) = 3.79801 4.02276 3.91200
# Velocity P-wave (km/s) = 7.29058 7.79653 7.54780
#
# Compressibility (1/GPa) = 0.01316885
#
# Stress axis : x y z
#
# Youngs Moduli (GPa) = 129.28944 134.49805 73.95038
#
# Poissons Ratio (x) = 0.34595 0.26083
# Poissons Ratio (y) = 0.33255 0.12294
# Poissons Ratio (z) = 0.45602 0.22360
#
# Static dielectric constant tensor:
#      x y z
#    x 1.799470 0.000000 -0.036400 
#    y 0.000000 1.893170 0.000000 
#    z -0.036400 0.000000 1.843370 
# 
# From -- ./inp_files/7019.got.cif
#   From: 2010.05.17/outbox.cif.g08.bks.cpg/sg9_4_cif.got.tgz:7019.got - 2010.06.03 20:04:27.
