data_PCOD9139493
_publ_section_title
;
Structure prediction by ZEFSAII (Michael W. Deem and Ramdas Pophale) SiO2 
 PCOD9139493
Probable space group: C C
;
_chemical_formula_sum "Si O2"
_cell_formula_units_Z 32
_cell_length_a 12.920291
_cell_length_b 9.449355
_cell_length_c 9.996721
_cell_angle_alpha 90.000000
_cell_angle_beta 101.902902
_cell_angle_gamma 90.000000
_cell_volume 1194.241651
_symmetry_space_group_name_H-M "C C"
_symmetry_group_IT_number 9
_symmetry_cell_setting 'monoclinic'
loop_
_space_group_symop_operation_xyz
x,y,z
x,-y,1/2+z
1/2+x,1/2+y,z
1/2+x,1/2-y,1/2+z
loop_
_atom_site_type_symbol
_atom_site_label
_atom_site_fract_x
_atom_site_fract_y
_atom_site_fract_z
Si Si1 0.543510 0.848859 0.981230
Si Si2 0.805932 0.093498 0.132719
Si Si3 0.616129 0.979378 0.246745
Si Si4 0.458991 0.345989 0.118779
Si Si5 0.660813 0.711742 0.401384
Si Si6 0.379330 0.181499 0.855081
Si Si7 0.641443 0.601219 0.892807
Si Si8 0.353715 0.865720 0.792873
O O1 0.604798 0.703089 0.003722
O O2 0.421245 0.813263 0.938058
O O3 0.589871 0.907105 0.851992
O O4 0.554458 0.970589 0.091788
O O5 0.868752 0.203467 0.238146
O O6 0.734331 0.004662 0.221157
O O7 0.885350 0.984899 0.081301
O O8 0.726508 0.187489 0.020699
O O9 0.593546 0.827546 0.305601
O O10 0.562123 0.379014 0.241148
O O11 0.389324 0.236888 0.187751
O O12 0.460603 0.253382 0.982758
O O13 0.627312 0.558431 0.445987
O O14 0.735094 0.650579 0.302134
O O15 0.261612 0.151123 0.890277
O O16 0.392653 0.026831 0.791925
#
# Coordination Sequence:
#
# PCOD9139493 Si02
#       8
#     4   4   4   4   4   4   4   4
#     4  11  25  44  71 102 145 186 250 307 375 453
#     4  12  24  44  72 103 147 196 251 307 385 449
#     4  12  23  45  72 105 138 195 243 310 381 452
#     4  11  25  48  70 106 151 195 252 309 381 454
#     4  11  25  45  72 103 144 195 247 311 384 452
#     4  11  25  44  73 101 145 196 244 314 378 450
#     4  10  25  47  68 109 146 192 252 318 375 453
#     4  10  26  43  70 101 142 187 245 306 373 455
#
# _framework density 26.795245999999999
#
# number of rings (size 3 to 8) (size 9 to 14) (size 15 to 20)
#    0.000    1.000    3.750    1.500    7.000    3.000 
#    4.500    0.000    0.000    0.000    0.000    0.000 
#    0.000    0.000    0.000    0.000    0.000    0.000 
#
# Total GULP energy -89425.979864 kJ/mol
# GULP energy per Si atom -5589.123741 kJ/mol
# Density = 2.673426 g / cm^3
# Si number density = 26.795246 Si / 1000 Ang^3
#
#
#
# Elastic Constant Matrix: (Units=GPa)
#
#
# Indices 1 2 3 4 5 6 
#
# 1 52.0700 33.0756 -1.9610 0.0000 1.6212 0.0000
# 2 33.0756 203.9543 40.3526 0.0000 -3.7639 0.0000
# 3 -1.9610 40.3526 121.0278 0.0000 11.8482 0.0000
# 4 0.0000 0.0000 0.0000 41.8858 0.0000 4.6514
# 5 1.6212 -3.7639 11.8482 0.0000 26.5746 0.0000
# 6 0.0000 0.0000 0.0000 4.6514 0.0000 56.5962
#
#
#
# Elastic Compliance Matrix: (Units=1/GPa)
#
#
# Indices 1 2 3 4 5 6 
#
# 1 0.021899 -0.003990 0.001957 0.000000 -0.002773 0.000000
# 2 -0.003990 0.006042 -0.002286 0.000000 0.002118 0.000000
# 3 0.001957 -0.002286 0.009515 0.000000 -0.004686 0.000000
# 4 0.000000 0.000000 0.000000 0.024094 0.000000 -0.001980
# 5 -0.002773 0.002118 -0.004686 0.000000 0.040188 0.000000
# 6 0.000000 0.000000 0.000000 -0.001980 0.000000 0.017832
#
#
# Mechanical properties :
#
#
# Convention : Reuss Voigt Hill
#
# Bulk Modulus (GPa) = 34.70170 57.77629 46.23900
# Shear Modulus (GPa) = 36.28046 45.38363 40.83205
#
# Velocity S-wave (km/s) = 3.68365 4.11995 3.90789
# Velocity P-wave (km/s) = 5.57415 6.65138 6.13645
#
# Compressibility (1/GPa) = 0.02881703
#
# Stress axis : x y z
#
# Youngs Moduli (GPa) = 45.66356 165.52066 105.09408
#
# Poissons Ratio (x) = 0.66038 -0.20562
# Poissons Ratio (y) = 0.18219 0.24029
# Poissons Ratio (z) = -0.08934 0.37844
#
# Static dielectric constant tensor:
#      x y z
#    x 2.259750 0.000000 0.010920 
#    y 0.000000 2.123530 0.000000 
#    z 0.010920 0.000000 2.201130 
# 
# From -- ./inp_files/17835.got.cif
#   From: 2010.05.17/outbox.cif.g08.bks.cpg/sg9_9_cif.got.tgz:17835.got - 2010.06.03 20:04:27.
