data_PCOD9139521
_publ_section_title
;
Structure prediction by ZEFSAII (Michael W. Deem and Ramdas Pophale) SiO2 
 PCOD9139521
Probable space group: C C
;
_chemical_formula_sum "Si O2"
_cell_formula_units_Z 20
_cell_length_a 4.971023
_cell_length_b 18.822992
_cell_length_c 9.583483
_cell_angle_alpha 90.000000
_cell_angle_beta 63.917527
_cell_angle_gamma 90.000000
_cell_volume 805.401693
_symmetry_space_group_name_H-M "C C"
_symmetry_group_IT_number 9
_symmetry_cell_setting 'monoclinic'
loop_
_space_group_symop_operation_xyz
x,y,z
x,-y,1/2+z
1/2+x,1/2+y,z
1/2+x,1/2-y,1/2+z
loop_
_atom_site_type_symbol
_atom_site_label
_atom_site_fract_x
_atom_site_fract_y
_atom_site_fract_z
Si Si1 0.167820 0.054958 0.714090
Si Si2 0.237226 0.362676 0.110396
Si Si3 0.346332 0.799769 0.645262
Si Si4 0.706503 0.137509 0.288772
Si Si5 0.150133 0.559750 0.042128
O O1 0.403553 0.111277 0.729115
O O2 0.979413 0.089525 0.632496
O O3 0.365815 0.991414 0.605614
O O4 0.929477 0.035480 0.888221
O O5 0.344376 0.282722 0.114431
O O6 0.210116 0.372897 0.950853
O O7 0.433727 0.816451 0.786873
O O8 0.564455 0.858016 0.522173
O O9 0.012732 0.822751 0.685053
O O10 0.709073 0.067084 0.194652
#
# Coordination Sequence:
#
# PCOD9139521 Si02
#       5
#     4   4   4   4   4
#     4  12  30  50  84 119 167 215 285 334 417 488
#     4  12  28  49  83 123 158 220 279 343 411 494
#     4  10  25  48  83 111 165 208 273 336 415 479
#     4  10  25  49  82 109 166 210 268 335 410 484
#     4  10  30  54  80 118 168 223 269 340 409 497
#
# _framework density 24.832326999999999
#
# number of rings (size 3 to 8) (size 9 to 14) (size 15 to 20)
#    1.200    0.000    0.000    2.400   11.200    1.600 
#    0.000    0.000    0.000    0.000    0.000    0.000 
#    0.000    0.000    0.000    0.000    0.000    0.000 
#
# Total GULP energy -55940.045974 kJ/mol
# GULP energy per Si atom -5594.004597 kJ/mol
# Density = 2.477581 g / cm^3
# Si number density = 24.832327 Si / 1000 Ang^3
#
#
#
# Elastic Constant Matrix: (Units=GPa)
#
#
# Indices 1 2 3 4 5 6 
#
# 1 165.7991 70.9150 54.3677 0.0000 11.0336 0.0000
# 2 70.9150 150.1218 55.6633 0.0000 -8.2023 0.0000
# 3 54.3677 55.6633 117.9324 0.0000 -6.5981 0.0000
# 4 0.0000 0.0000 0.0000 14.2967 0.0000 7.0832
# 5 11.0336 -8.2023 -6.5981 0.0000 56.5671 0.0000
# 6 0.0000 0.0000 0.0000 7.0832 0.0000 47.7471
#
#
#
# Elastic Compliance Matrix: (Units=1/GPa)
#
#
# Indices 1 2 3 4 5 6 
#
# 1 0.008357 -0.003151 -0.002498 0.000000 -0.002378 0.000000
# 2 -0.003151 0.009293 -0.002842 0.000000 0.001631 0.000000
# 3 -0.002498 -0.002842 0.011049 0.000000 0.001364 0.000000
# 4 0.000000 0.000000 0.000000 0.075495 0.000000 -0.011200
# 5 -0.002378 0.001631 0.001364 0.000000 0.018538 0.000000
# 6 0.000000 0.000000 0.000000 -0.011200 0.000000 0.022605
#
#
# Mechanical properties :
#
#
# Convention : Reuss Voigt Hill
#
# Bulk Modulus (GPa) = 85.35906 88.41613 86.88760
# Shear Modulus (GPa) = 30.07985 40.58267 35.33126
#
# Velocity S-wave (km/s) = 3.48418 4.04699 3.77608
# Velocity P-wave (km/s) = 7.11581 7.58420 7.35374
#
# Compressibility (1/GPa) = 0.01171522
#
# Stress axis : x y z
#
# Youngs Moduli (GPa) = 119.66472 107.61062 90.50653
#
# Poissons Ratio (x) = 0.33910 0.22610
# Poissons Ratio (y) = 0.37709 0.25724
# Poissons Ratio (z) = 0.29895 0.30585
#
# Static dielectric constant tensor:
#      x y z
#    x 1.929540 0.000000 -0.006530 
#    y 0.000000 2.057590 0.000000 
#    z -0.006530 0.000000 2.007670 
# 
# From -- ./inp_files/3803.got.cif
#   From: 2010.05.17/outbox.cif.g08.bks.cpg/sg9_2_cif.got.tgz:3803.got - 2010.06.03 20:04:27.
