data_PCOD9139503
_publ_section_title
;
Structure prediction by ZEFSAII (Michael W. Deem and Ramdas Pophale) SiO2 
 PCOD9139503
Probable space group: C C
;
_chemical_formula_sum "Si O2"
_cell_formula_units_Z 28
_cell_length_a 8.200314
_cell_length_b 18.361836
_cell_length_c 8.051395
_cell_angle_alpha 90.000000
_cell_angle_beta 96.357800
_cell_angle_gamma 90.000000
_cell_volume 1204.865177
_symmetry_space_group_name_H-M "C C"
_symmetry_group_IT_number 9
_symmetry_cell_setting 'monoclinic'
loop_
_space_group_symop_operation_xyz
x,y,z
x,-y,1/2+z
1/2+x,1/2+y,z
1/2+x,1/2-y,1/2+z
loop_
_atom_site_type_symbol
_atom_site_label
_atom_site_fract_x
_atom_site_fract_y
_atom_site_fract_z
Si Si1 0.271170 0.725355 0.608980
Si Si2 0.520868 0.004407 0.909513
Si Si3 0.784063 0.531331 0.650840
Si Si4 0.630388 0.372325 0.615634
Si Si5 0.520029 0.635334 0.463992
Si Si6 0.267010 0.362316 0.449364
Si Si7 0.678556 0.132583 0.307960
O O1 0.259931 0.811212 0.580309
O O2 0.450557 0.697703 0.574068
O O3 0.236060 0.688846 0.785233
O O4 0.152078 0.690758 0.452015
O O5 0.670028 0.060695 0.923711
O O6 0.354202 0.046911 0.840342
O O7 0.552501 0.933119 0.800243
O O8 0.455746 0.967086 0.069901
O O9 0.697038 0.453111 0.647136
O O10 0.654356 0.587272 0.567187
O O11 0.584937 0.341224 0.793496
O O12 0.463569 0.373120 0.489563
O O13 0.350060 0.595215 0.391703
O O14 0.208780 0.336432 0.627527
#
# Coordination Sequence:
#
# PCOD9139503 Si02
#       7
#     4   4   4   4   4   4   4
#     4  10  25  47  73 105 141 200 237 304 380 434
#     4  12  23  41  69 109 141 188 241 308 361 433
#     4  12  24  40  71 109 146 189 244 306 360 435
#     4  11  25  48  73 105 146 194 251 302 368 443
#     4   9  23  47  68 103 147 185 245 301 361 436
#     4  11  24  46  73 102 145 193 242 296 373 436
#     4   9  22  45  71 103 146 185 242 299 361 441
#
# _framework density 23.239115000000002
#
# number of rings (size 3 to 8) (size 9 to 14) (size 15 to 20)
#    0.857    0.571    2.857    1.714    2.000    3.429 
#    5.143    0.000    0.000    0.000    0.000    0.000 
#    0.000    0.000    0.000    0.000    0.000    0.000 
#
# Total GULP energy -77992.180346 kJ/mol
# GULP energy per Si atom -5570.870025 kJ/mol
# Density = 2.318622 g / cm^3
# Si number density = 23.239115 Si / 1000 Ang^3
#
#
#
# Elastic Constant Matrix: (Units=GPa)
#
#
# Indices 1 2 3 4 5 6 
#
# 1 62.4491 46.3526 11.2866 0.0000 8.0269 0.0000
# 2 46.3526 89.0506 -1.0503 0.0000 10.7395 0.0000
# 3 11.2866 -1.0503 73.7037 0.0000 11.9164 0.0000
# 4 0.0000 0.0000 0.0000 6.7348 0.0000 -1.2428
# 5 8.0269 10.7395 11.9164 0.0000 26.6755 0.0000
# 6 0.0000 0.0000 0.0000 -1.2428 0.0000 28.7336
#
#
#
# Elastic Compliance Matrix: (Units=1/GPa)
#
#
# Indices 1 2 3 4 5 6 
#
# 1 0.027464 -0.014276 -0.004314 0.000000 -0.000590 0.000000
# 2 -0.014276 0.019293 0.003258 0.000000 -0.004927 0.000000
# 3 -0.004314 0.003258 0.015388 0.000000 -0.006888 0.000000
# 4 0.000000 0.000000 0.000000 0.149676 0.000000 0.006474
# 5 -0.000590 -0.004927 -0.006888 0.000000 0.042725 0.000000
# 6 0.000000 0.000000 0.000000 0.006474 0.000000 0.035082
#
#
# Mechanical properties :
#
#
# Convention : Reuss Voigt Hill
#
# Bulk Modulus (GPa) = 31.76393 37.59792 34.68092
# Shear Modulus (GPa) = 15.11543 23.66976 19.39260
#
# Velocity S-wave (km/s) = 2.55312 3.19491 2.89187
# Velocity P-wave (km/s) = 4.73172 5.46111 5.10945
#
# Compressibility (1/GPa) = 0.03148225
#
# Stress axis : x y z
#
# Youngs Moduli (GPa) = 36.41064 51.83263 64.98384
#
# Poissons Ratio (x) = 0.73994 0.28033
# Poissons Ratio (y) = 0.51978 -0.21169
# Poissons Ratio (z) = 0.15707 -0.16885
#
# Static dielectric constant tensor:
#      x y z
#    x 1.904090 0.000000 -0.043030 
#    y 0.000000 1.869930 0.000000 
#    z -0.043030 0.000000 2.035000 
# 
# From -- ./inp_files/5368.got.cif
#   From: 2010.05.17/outbox.cif.g08.bks.cpg/sg9_3_cif.got.tgz:5368.got - 2010.06.03 20:04:27.
