data_PCOD9139856
_publ_section_title
;
Structure prediction by ZEFSAII (Michael W. Deem and Ramdas Pophale) SiO2 
 PCOD9139856
Probable space group: C C
;
_chemical_formula_sum "Si O2"
_cell_formula_units_Z 32
_cell_length_a 17.807869
_cell_length_b 6.665314
_cell_length_c 29.763035
_cell_angle_alpha 90.000000
_cell_angle_beta 26.168311
_cell_angle_gamma 90.000000
_cell_volume 1557.965217
_symmetry_space_group_name_H-M "C C"
_symmetry_group_IT_number 9
_symmetry_cell_setting 'monoclinic'
loop_
_space_group_symop_operation_xyz
x,y,z
x,-y,1/2+z
1/2+x,1/2+y,z
1/2+x,1/2-y,1/2+z
loop_
_atom_site_type_symbol
_atom_site_label
_atom_site_fract_x
_atom_site_fract_y
_atom_site_fract_z
Si Si1 0.365110 0.203150 0.250000
Si Si2 0.325752 0.363567 0.117181
Si Si3 0.638401 0.498639 0.565159
Si Si4 0.147317 0.386628 0.117186
Si Si5 0.350873 0.647180 0.934530
Si Si6 0.490706 0.251249 0.565219
Si Si7 0.670176 0.896896 0.434547
Si Si8 0.709478 0.453011 0.750022
O O1 0.489933 0.336837 0.151704
O O2 0.296796 0.337023 0.327112
O O3 0.216524 0.125180 0.297182
O O4 0.474591 0.017032 0.210035
O O5 0.233629 0.375134 0.119121
O O6 0.363626 0.588578 0.112431
O O7 0.219980 0.232986 0.209981
O O8 0.508176 0.250718 0.017100
O O9 0.623825 0.338403 0.612367
O O10 0.811199 0.626028 0.471436
O O11 0.609391 0.374966 0.535288
O O12 0.265086 0.499651 0.017147
O O13 0.259177 0.625198 0.935436
O O14 0.546487 0.586969 0.827134
O O15 0.598986 0.123600 0.471566
O O16 0.379536 0.086781 0.651784
#
# Coordination Sequence:
#
# PCOD9139856 Si02
#       8
#     4   4   4   4   4   4   4   4
#     4  11  24  43  67 100 135 176 228 276 332 401
#     4  11  24  44  69  98 136 175 224 280 335 397
#     4  11  21  46  70  92 133 185 216 275 340 392
#     4  11  24  44  69  98 136 175 224 280 335 397
#     4  11  24  42  67 100 135 173 227 277 333 402
#     4  11  21  46  70  92 133 185 216 275 340 392
#     4  11  24  42  67 100 135 173 227 277 333 402
#     4  11  24  43  67 100 135 176 228 276 332 401
#
# _framework density 20.539612000000002
#
# number of rings (size 3 to 8) (size 9 to 14) (size 15 to 20)
#    0.000    1.000    5.000    2.250    3.500    5.000 
#    4.500    0.000    0.000    0.000    0.000    0.000 
#    0.000    0.000    0.000    0.000    0.000    0.000 
#
# Total GULP energy -89458.029525 kJ/mol
# GULP energy per Si atom -5591.126845 kJ/mol
# Density = 2.049286 g / cm^3
# Si number density = 20.539612 Si / 1000 Ang^3
#
#
#
# Elastic Constant Matrix: (Units=GPa)
#
#
# Indices 1 2 3 4 5 6 
#
# 1 149.4089 49.9895 31.6298 -0.0117 3.1807 -0.0790
# 2 49.9895 134.9262 35.6865 -0.0128 0.5804 -0.0189
# 3 31.6298 35.6865 84.5634 -0.0030 -0.7300 -0.0022
# 4 -0.0117 -0.0128 -0.0030 29.0195 0.0037 0.0955
# 5 3.1807 0.5804 -0.7300 0.0037 15.9509 0.0086
# 6 -0.0790 -0.0189 -0.0022 0.0955 0.0086 32.6623
#
#
#
# Elastic Compliance Matrix: (Units=1/GPa)
#
#
# Indices 1 2 3 4 5 6 
#
# 1 0.007953 -0.002419 -0.001967 0.000002 -0.001588 0.000018
# 2 -0.002419 0.009082 -0.002928 0.000003 0.000018 -0.000001
# 3 -0.001967 -0.002928 0.013807 -0.000001 0.001131 -0.000006
# 4 0.000002 0.000003 -0.000001 0.034460 -0.000009 -0.000101
# 5 -0.001588 0.000018 0.001131 -0.000009 0.063060 -0.000020
# 6 0.000018 -0.000001 -0.000006 -0.000101 -0.000020 0.030617
#
#
# Mechanical properties :
#
#
# Convention : Reuss Voigt Hill
#
# Bulk Modulus (GPa) = 61.67970 67.05665 64.36818
# Shear Modulus (GPa) = 27.93122 32.29939 30.11530
#
# Velocity S-wave (km/s) = 3.69164 3.96983 3.83326
# Velocity P-wave (km/s) = 6.94736 7.33015 7.14132
#
# Compressibility (1/GPa) = 0.01621279
#
# Stress axis : x y z
#
# Youngs Moduli (GPa) = 125.74193 110.10736 72.42929
#
# Poissons Ratio (x) = 0.26638 0.14250
# Poissons Ratio (y) = 0.30421 0.21205
# Poissons Ratio (z) = 0.24738 0.32236
#
# Static dielectric constant tensor:
#      x y z
#    x 1.728400 -0.000010 -0.000100 
#    y -0.000010 1.754030 0.000000 
#    z -0.000100 0.000000 1.731720 
# 
# From -- ./inp_files/21922.got.cif
#   From: 2010.05.17/outbox.cif.g08.bks.cpg/sg9_11_cif.got.tgz:21922.got - 2010.06.03 20:04:27.
