data_PCOD9139096
_publ_section_title
;
Structure prediction by ZEFSAII (Michael W. Deem and Ramdas Pophale) SiO2 
 PCOD9139096
Probable space group: C C
;
_chemical_formula_sum "Si O2"
_cell_formula_units_Z 24
_cell_length_a 11.415688
_cell_length_b 8.993368
_cell_length_c 9.744869
_cell_angle_alpha 90.000000
_cell_angle_beta 111.262077
_cell_angle_gamma 90.000000
_cell_volume 932.361711
_symmetry_space_group_name_H-M "C C"
_symmetry_group_IT_number 9
_symmetry_cell_setting 'monoclinic'
loop_
_space_group_symop_operation_xyz
x,y,z
x,-y,1/2+z
1/2+x,1/2+y,z
1/2+x,1/2-y,1/2+z
loop_
_atom_site_type_symbol
_atom_site_label
_atom_site_fract_x
_atom_site_fract_y
_atom_site_fract_z
Si Si1 0.122630 0.856989 0.284320
Si Si2 0.968460 0.417632 0.712326
Si Si3 0.296247 0.836905 0.121353
Si Si4 0.736088 0.226085 0.610215
Si Si5 0.877082 0.028549 0.254035
Si Si6 0.178767 0.375993 0.355641
O O1 0.212647 0.914948 0.203578
O O2 0.189478 0.800363 0.451517
O O3 0.058903 0.708665 0.188894
O O4 0.016278 0.970046 0.288494
O O5 0.889700 0.541721 0.597527
O O6 0.857255 0.313943 0.722367
O O7 0.063564 0.515302 0.844365
O O8 0.366328 0.703543 0.231885
O O9 0.213897 0.751936 0.975309
O O10 0.789436 0.059911 0.607443
O O11 0.639862 0.203983 0.693512
O O12 0.803785 0.965027 0.355451
#
# Coordination Sequence:
#
# PCOD9139096 Si02
#       6
#     4   4   4   4   4   4
#     4  11  23  48  68  98 141 178 228 281 341 411
#     4  11  25  44  75 101 139 179 235 282 341 408
#     4  12  26  42  70 106 130 182 236 275 343 409
#     4   9  23  43  71  97 136 185 217 282 353 394
#     4   9  23  43  70  93 141 181 214 285 348 391
#     4  10  24  44  70  97 139 177 226 281 346 393
#
# _framework density 25.741084000000001
#
# number of rings (size 3 to 8) (size 9 to 14) (size 15 to 20)
#    1.000    0.667    1.667    1.000    2.333    9.333 
#    0.000    0.000    0.000    0.000    0.000    0.000 
#    0.000    0.000    0.000    0.000    0.000    0.000 
#
# Total GULP energy -66947.385705 kJ/mol
# GULP energy per Si atom -5578.948809 kJ/mol
# Density = 2.568250 g / cm^3
# Si number density = 25.741084 Si / 1000 Ang^3
#
#
#
# Elastic Constant Matrix: (Units=GPa)
#
#
# Indices 1 2 3 4 5 6 
#
# 1 111.7443 42.5097 43.0128 0.0000 -2.9903 0.0000
# 2 42.5097 95.1826 5.4153 0.0000 6.2188 0.0000
# 3 43.0128 5.4153 77.0187 0.0000 -31.5281 0.0000
# 4 0.0000 0.0000 0.0000 18.6047 0.0000 7.3553
# 5 -2.9903 6.2188 -31.5281 0.0000 27.0534 0.0000
# 6 0.0000 0.0000 0.0000 7.3553 0.0000 50.9004
#
#
#
# Elastic Compliance Matrix: (Units=1/GPa)
#
#
# Indices 1 2 3 4 5 6 
#
# 1 0.016110 -0.005522 -0.014075 0.000000 -0.013353 0.000000
# 2 -0.005522 0.013032 0.001322 0.000000 -0.002065 0.000000
# 3 -0.014075 0.001322 0.038227 0.000000 0.042690 0.000000
# 4 0.000000 0.000000 0.000000 0.057007 0.000000 -0.008238
# 5 -0.013353 -0.002065 0.042690 0.000000 0.085713 0.000000
# 6 0.000000 0.000000 0.000000 -0.008238 0.000000 0.020837
#
#
# Mechanical properties :
#
#
# Convention : Reuss Voigt Hill
#
# Bulk Modulus (GPa) = 32.44709 51.75791 42.10250
# Shear Modulus (GPa) = 18.00198 32.17889 25.09044
#
# Velocity S-wave (km/s) = 2.64739 3.53951 3.12544
# Velocity P-wave (km/s) = 4.68801 6.07083 5.42367
#
# Compressibility (1/GPa) = 0.03081941
#
# Stress axis : x y z
#
# Youngs Moduli (GPa) = 62.07366 76.73471 26.15982
#
# Poissons Ratio (x) = 0.42371 0.36819
# Poissons Ratio (y) = 0.34275 -0.03458
# Poissons Ratio (z) = 0.87367 -0.10144
#
# Static dielectric constant tensor:
#      x y z
#    x 1.971430 0.000000 0.047610 
#    y 0.000000 2.053840 0.000000 
#    z 0.047610 0.000000 2.086140 
# 
# From -- ./inp_files/15967.got.cif
#   From: 2010.05.17/outbox.cif.g08.bks.cpg/sg9_8_cif.got.tgz:15967.got - 2010.06.03 20:04:27.
