data_PCOD9139132
_publ_section_title
;
Structure prediction by ZEFSAII (Michael W. Deem and Ramdas Pophale) SiO2 
 PCOD9139132
Probable space group: C C
;
_chemical_formula_sum "Si O2"
_cell_formula_units_Z 32
_cell_length_a 22.032051
_cell_length_b 7.064092
_cell_length_c 17.127132
_cell_angle_alpha 90.000000
_cell_angle_beta 147.301618
_cell_angle_gamma 90.000000
_cell_volume 1440.004370
_symmetry_space_group_name_H-M "C C"
_symmetry_group_IT_number 9
_symmetry_cell_setting 'monoclinic'
loop_
_space_group_symop_operation_xyz
x,y,z
x,-y,1/2+z
1/2+x,1/2+y,z
1/2+x,1/2-y,1/2+z
loop_
_atom_site_type_symbol
_atom_site_label
_atom_site_fract_x
_atom_site_fract_y
_atom_site_fract_z
Si Si1 0.866550 0.026060 0.842300
Si Si2 0.138023 0.550444 0.020607
Si Si3 0.662835 0.577188 0.290491
Si Si4 0.884302 0.564393 0.096389
Si Si5 0.019789 0.205650 0.286497
Si Si6 0.030432 0.337927 0.034169
Si Si7 0.013531 0.737446 0.098015
Si Si8 0.335701 0.421766 0.135928
O O1 0.737419 0.960581 0.694214
O O2 0.897687 0.056240 0.785825
O O3 0.934319 0.861958 0.957075
O O4 0.913917 0.225320 0.926103
O O5 0.089640 0.756061 0.943122
O O6 0.052097 0.402195 0.967670
O O7 0.208940 0.485391 0.020583
O O8 0.792181 0.559007 0.451421
O O9 0.597448 0.652609 0.296938
O O10 0.625387 0.703613 0.176081
O O11 0.622476 0.363453 0.230176
O O12 0.969197 0.415266 0.224158
O O13 0.950312 0.699874 0.109667
O O14 0.830993 0.708686 0.100485
O O15 0.913450 0.063405 0.170496
O O16 0.033041 0.534562 0.082329
#
# Coordination Sequence:
#
# PCOD9139132 Si02
#       8
#     4   4   4   4   4   4   4   4
#     4   9  24  45  64 103 130 178 224 280 327 411
#     4  10  25  43  73  96 136 183 222 280 340 400
#     4  11  27  41  70 103 135 181 224 284 342 400
#     4  12  26  41  73 100 136 184 225 283 341 405
#     4  12  23  48  67 102 139 176 228 287 336 407
#     4  11  23  47  69  99 139 174 231 277 342 400
#     4  11  24  44  69  99 135 180 227 279 341 401
#     4  10  24  45  67 102 136 174 231 272 339 406
#
# _framework density 22.222155999999998
#
# number of rings (size 3 to 8) (size 9 to 14) (size 15 to 20)
#    0.750    0.500    2.500    2.250    5.250    2.000 
#    0.000    2.500    0.000    0.000    0.000    0.000 
#    0.000    0.000    0.000    0.000    0.000    0.000 
#
# Total GULP energy -89159.535218 kJ/mol
# GULP energy per Si atom -5572.470951 kJ/mol
# Density = 2.217158 g / cm^3
# Si number density = 22.222156 Si / 1000 Ang^3
#
#
#
# Elastic Constant Matrix: (Units=GPa)
#
#
# Indices 1 2 3 4 5 6 
#
# 1 41.2140 16.3426 -15.0744 0.0000 1.4665 0.0000
# 2 16.3426 110.6262 14.9006 0.0000 -2.8049 0.0000
# 3 -15.0744 14.9006 46.7442 0.0000 7.3198 0.0000
# 4 0.0000 0.0000 0.0000 21.0651 0.0000 -5.9322
# 5 1.4665 -2.8049 7.3198 0.0000 18.2816 0.0000
# 6 0.0000 0.0000 0.0000 -5.9322 0.0000 35.2748
#
#
#
# Elastic Compliance Matrix: (Units=1/GPa)
#
#
# Indices 1 2 3 4 5 6 
#
# 1 0.032538 -0.006953 0.014174 0.000000 -0.009352 0.000000
# 2 -0.006953 0.011070 -0.006534 0.000000 0.004872 0.000000
# 3 0.014174 -0.006534 0.030280 0.000000 -0.014263 0.000000
# 4 0.000000 0.000000 0.000000 0.049832 0.000000 0.008380
# 5 -0.009352 0.004872 -0.014263 0.000000 0.061908 0.000000
# 6 0.000000 0.000000 0.000000 0.008380 0.000000 0.029758
#
#
# Mechanical properties :
#
#
# Convention : Reuss Voigt Hill
#
# Bulk Modulus (GPa) = 13.28697 25.65799 19.47248
# Shear Modulus (GPa) = 20.91172 27.08534 23.99853
#
# Velocity S-wave (km/s) = 3.07095 3.49498 3.28980
# Velocity P-wave (km/s) = 4.30888 5.27804 4.81789
#
# Compressibility (1/GPa) = 0.07526169
#
# Stress axis : x y z
#
# Youngs Moduli (GPa) = 30.73367 90.33237 33.02478
#
# Poissons Ratio (x) = 0.62808 -0.46809
# Poissons Ratio (y) = 0.21369 0.21579
# Poissons Ratio (z) = -0.43561 0.59024
#
# Static dielectric constant tensor:
#      x y z
#    x 1.879240 0.000000 -0.025290 
#    y 0.000000 1.805010 0.000000 
#    z -0.025290 0.000000 1.852410 
# 
# From -- ./inp_files/34453.got.cif
#   From: 2010.05.17/outbox.cif.g08.bks.cpg/sg9_18_cif.got.tgz:34453.got - 2010.06.03 20:04:27.
