data_PCOD9139420
_publ_section_title
;
Structure prediction by ZEFSAII (Michael W. Deem and Ramdas Pophale) SiO2 
 PCOD9139420
Probable space group: C C
;
_chemical_formula_sum "Si O2"
_cell_formula_units_Z 32
_cell_length_a 16.791448
_cell_length_b 5.879540
_cell_length_c 27.115616
_cell_angle_alpha 90.000000
_cell_angle_beta 151.043630
_cell_angle_gamma 90.000000
_cell_volume 1296.059829
_symmetry_space_group_name_H-M "C C"
_symmetry_group_IT_number 9
_symmetry_cell_setting 'monoclinic'
loop_
_space_group_symop_operation_xyz
x,y,z
x,-y,1/2+z
1/2+x,1/2+y,z
1/2+x,1/2-y,1/2+z
loop_
_atom_site_type_symbol
_atom_site_label
_atom_site_fract_x
_atom_site_fract_y
_atom_site_fract_z
Si Si1 0.770550 0.667998 0.926510
Si Si2 0.267388 0.861025 0.272635
Si Si3 0.359011 0.499213 0.894411
Si Si4 0.677988 0.195675 0.546328
Si Si5 0.088157 0.871010 0.745063
Si Si6 0.362466 0.090646 0.682096
Si Si7 0.547883 0.911832 0.875090
Si Si8 0.136227 0.389465 0.616441
O O1 0.679100 0.513027 0.837186
O O2 0.644465 0.702217 0.902921
O O3 0.824268 0.911521 0.931306
O O4 0.950962 0.568506 0.033493
O O5 0.369557 0.741941 0.371506
O O6 0.241837 0.652424 0.221971
O O7 0.101466 0.967228 0.204812
O O8 0.367345 0.064236 0.301359
O O9 0.196992 0.646458 0.794293
O O10 0.511026 0.653563 0.960559
O O11 0.832184 0.366507 0.633287
O O12 0.656734 0.054124 0.484033
O O13 0.683565 0.073632 0.602184
O O14 0.919353 0.787516 0.676240
O O15 0.191751 0.160456 0.616442
O O16 0.501840 0.057866 0.800218
#
# Coordination Sequence:
#
# PCOD9139420 Si02
#       8
#     4   4   4   4   4   4   4   4
#     4  11  23  45  71 102 146 188 241 301 366 445
#     4  10  25  44  74 108 146 190 243 305 377 437
#     4  11  21  45  74  96 139 194 237 297 374 432
#     4  12  25  45  73 102 147 193 250 304 367 440
#     4  11  23  47  72 104 143 196 238 305 374 438
#     4  11  27  44  73 107 147 195 247 309 368 443
#     4  11  25  45  70 108 144 195 244 303 375 427
#     4  11  25  45  69 107 146 189 246 308 361 448
#
# _framework density 24.690218000000002
#
# number of rings (size 3 to 8) (size 9 to 14) (size 15 to 20)
#    0.000    1.000    5.000    0.750    3.500    3.000 
#    0.000    0.000    0.000    0.000    0.000    0.000 
#    0.000    0.000    0.000    0.000    0.000    0.000 
#
# Total GULP energy -89113.937032 kJ/mol
# GULP energy per Si atom -5569.621064 kJ/mol
# Density = 2.463402 g / cm^3
# Si number density = 24.690218 Si / 1000 Ang^3
#
#
#
# Elastic Constant Matrix: (Units=GPa)
#
#
# Indices 1 2 3 4 5 6 
#
# 1 123.5932 29.7015 47.1931 -0.0008 5.7488 0.0009
# 2 29.7015 49.9177 21.8437 -0.0012 2.5079 0.0021
# 3 47.1931 21.8437 73.5105 0.0006 -0.3923 0.0003
# 4 -0.0008 -0.0012 0.0006 36.6536 0.0005 12.1647
# 5 5.7488 2.5079 -0.3923 0.0005 35.2023 -0.0003
# 6 0.0009 0.0021 0.0003 12.1647 -0.0003 27.2908
#
#
#
# Elastic Compliance Matrix: (Units=1/GPa)
#
#
# Indices 1 2 3 4 5 6 
#
# 1 0.011507 -0.004054 -0.006191 0.000000 -0.001659 0.000000
# 2 -0.004054 0.024560 -0.004701 0.000002 -0.001140 -0.000002
# 3 -0.006191 -0.004701 0.018984 -0.000001 0.001558 0.000001
# 4 0.000000 0.000002 -0.000001 0.032019 -0.000001 -0.014272
# 5 -0.001659 -0.001140 0.001558 -0.000001 0.028777 0.000001
# 6 0.000000 -0.000002 0.000001 -0.014272 0.000001 0.043004
#
#
# Mechanical properties :
#
#
# Convention : Reuss Voigt Hill
#
# Bulk Modulus (GPa) = 39.75112 49.38868 44.56990
# Shear Modulus (GPa) = 25.36410 29.71489 27.53949
#
# Velocity S-wave (km/s) = 3.20862 3.47293 3.34339
# Velocity P-wave (km/s) = 5.46460 6.01069 5.74414
#
# Compressibility (1/GPa) = 0.02515652
#
# Stress axis : x y z
#
# Youngs Moduli (GPa) = 86.90680 40.71712 52.67690
#
# Poissons Ratio (x) = 0.16506 0.32614
# Poissons Ratio (y) = 0.35231 0.24766
# Poissons Ratio (z) = 0.53807 0.19143
#
# Static dielectric constant tensor:
#      x y z
#    x 1.962550 0.000000 -0.008700 
#    y 0.000000 2.006020 0.000000 
#    z -0.008700 0.000000 2.014520 
# 
# From -- ./inp_files/26451.got.cif
#   From: 2010.05.17/outbox.cif.g08.bks.cpg/sg9_14_cif.got.tgz:26451.got - 2010.06.03 20:04:27.
