data_PCOD9139785
_publ_section_title
;
Structure prediction by ZEFSAII (Michael W. Deem and Ramdas Pophale) SiO2 
 PCOD9139785
Probable space group: C C
;
_chemical_formula_sum "Si O2"
_cell_formula_units_Z 32
_cell_length_a 9.613191
_cell_length_b 11.631395
_cell_length_c 11.823830
_cell_angle_alpha 90.000000
_cell_angle_beta 87.390080
_cell_angle_gamma 90.000000
_cell_volume 1320.708052
_symmetry_space_group_name_H-M "C C"
_symmetry_group_IT_number 9
_symmetry_cell_setting 'monoclinic'
loop_
_space_group_symop_operation_xyz
x,y,z
x,-y,1/2+z
1/2+x,1/2+y,z
1/2+x,1/2-y,1/2+z
loop_
_atom_site_type_symbol
_atom_site_label
_atom_site_fract_x
_atom_site_fract_y
_atom_site_fract_z
Si Si1 0.923880 0.181567 0.531260
Si Si2 0.577737 0.107066 0.055853
Si Si3 0.053693 0.176379 0.929072
Si Si4 0.628474 0.506391 0.609237
Si Si5 0.247698 0.213132 0.701836
Si Si6 0.460252 0.373303 0.786417
Si Si7 0.125768 0.358413 0.107049
Si Si8 0.766458 0.907828 0.331836
O O1 0.000630 0.157150 0.411348
O O2 0.769167 0.138172 0.528259
O O3 0.938354 0.316106 0.554869
O O4 0.002716 0.100285 0.615372
O O5 0.680887 0.190859 0.122129
O O6 0.562052 0.984976 0.114474
O O7 0.647292 0.084358 0.931538
O O8 0.154160 0.203464 0.819461
O O9 0.900643 0.152422 0.884746
O O10 0.043787 0.272108 0.027540
O O11 0.115893 0.065858 0.994774
O O12 0.752279 0.591243 0.637217
O O13 0.588368 0.420939 0.711030
O O14 0.396341 0.258876 0.735336
O O15 0.335286 0.469028 0.792944
O O16 0.196935 0.341330 0.228302
#
# Coordination Sequence:
#
# PCOD9139785 Si02
#       8
#     4   4   4   4   4   4   4   4
#     4  11  21  40  66  94 135 175 235 295 348 422
#     4  11  24  41  69 103 131 186 241 292 359 429
#     4  12  24  42  71 103 144 189 239 302 361 432
#     4  11  22  39  65 102 130 182 243 284 352 429
#     4  11  21  40  69 101 136 180 241 291 357 429
#     4  12  20  39  71  96 138 185 230 294 358 416
#     4  12  24  44  67 103 142 189 234 297 363 425
#     4  12  22  43  68 102 140 182 245 289 350 438
#
# _framework density 24.229427999999999
#
# number of rings (size 3 to 8) (size 9 to 14) (size 15 to 20)
#    0.000    0.500    7.500    1.500    1.750    0.000 
#    0.000    5.000    0.000    0.000    0.000    0.000 
#    0.000    0.000    0.000    0.000    0.000    0.000 
#
# Total GULP energy -89439.524356 kJ/mol
# GULP energy per Si atom -5589.970272 kJ/mol
# Density = 2.417428 g / cm^3
# Si number density = 24.229428 Si / 1000 Ang^3
#
#
#
# Elastic Constant Matrix: (Units=GPa)
#
#
# Indices 1 2 3 4 5 6 
#
# 1 54.0492 26.8839 11.8422 0.0000 12.6672 0.0000
# 2 26.8839 141.1345 43.8356 0.0000 29.8757 0.0000
# 3 11.8422 43.8356 137.5200 0.0000 16.9324 0.0000
# 4 0.0000 0.0000 0.0000 42.4085 0.0000 16.1780
# 5 12.6672 29.8757 16.9324 0.0000 35.5737 0.0000
# 6 0.0000 0.0000 0.0000 16.1780 0.0000 37.6884
#
#
#
# Elastic Compliance Matrix: (Units=1/GPa)
#
#
# Indices 1 2 3 4 5 6 
#
# 1 0.021168 -0.002890 -0.000289 0.000000 -0.004973 0.000000
# 2 -0.002890 0.009546 -0.002054 0.000000 -0.006010 0.000000
# 3 -0.000289 -0.002054 0.008207 0.000000 -0.002078 0.000000
# 4 0.000000 0.000000 0.000000 0.028198 0.000000 -0.012104
# 5 -0.004973 -0.006010 -0.002078 0.000000 0.035918 0.000000
# 6 0.000000 0.000000 0.000000 -0.012104 0.000000 0.031729
#
#
# Mechanical properties :
#
#
# Convention : Reuss Voigt Hill
#
# Bulk Modulus (GPa) = 35.14297 55.31411 45.22854
# Shear Modulus (GPa) = 32.31694 39.81024 36.06359
#
# Velocity S-wave (km/s) = 3.65607 4.05786 3.86219
# Velocity P-wave (km/s) = 5.68843 6.69581 6.21257
#
# Compressibility (1/GPa) = 0.02845519
#
# Stress axis : x y z
#
# Youngs Moduli (GPa) = 47.24149 104.75439 121.84368
#
# Poissons Ratio (x) = 0.30269 0.03527
# Poissons Ratio (y) = 0.13651 0.25027
# Poissons Ratio (z) = 0.01367 0.21517
#
# Static dielectric constant tensor:
#      x y z
#    x 1.954660 0.000000 -0.020540 
#    y 0.000000 2.014070 0.000000 
#    z -0.020540 0.000000 1.931380 
# 
# From -- ./inp_files/16212.got.cif
#   From: 2010.05.17/outbox.cif.g08.bks.cpg/sg9_9_cif.got.tgz:16212.got - 2010.06.03 20:04:27.
