data_PCOD9139695
_publ_section_title
;
Structure prediction by ZEFSAII (Michael W. Deem and Ramdas Pophale) SiO2 
 PCOD9139695
Probable space group: C C
;
_chemical_formula_sum "Si O2"
_cell_formula_units_Z 28
_cell_length_a 20.832385
_cell_length_b 7.418545
_cell_length_c 19.425158
_cell_angle_alpha 90.000000
_cell_angle_beta 159.716214
_cell_angle_gamma 90.000000
_cell_volume 1040.731819
_symmetry_space_group_name_H-M "C C"
_symmetry_group_IT_number 9
_symmetry_cell_setting 'monoclinic'
loop_
_space_group_symop_operation_xyz
x,y,z
x,-y,1/2+z
1/2+x,1/2+y,z
1/2+x,1/2-y,1/2+z
loop_
_atom_site_type_symbol
_atom_site_label
_atom_site_fract_x
_atom_site_fract_y
_atom_site_fract_z
Si Si1 0.081240 0.601880 0.028730
Si Si2 0.124150 0.484878 0.270052
Si Si3 0.643103 0.511045 0.939071
Si Si4 0.396475 0.562398 0.944123
Si Si5 0.674654 0.524112 0.119663
Si Si6 0.221722 0.109961 0.862841
Si Si7 0.220813 0.599378 0.019815
O O1 0.243144 0.538440 0.242427
O O2 0.081207 0.821975 0.025317
O O3 0.124983 0.543754 0.994314
O O4 0.882570 0.524798 0.850743
O O5 0.258074 0.350855 0.362412
O O6 0.222568 0.675965 0.355493
O O7 0.121906 0.442579 0.348502
O O8 0.914658 0.518026 0.037589
O O9 0.693146 0.589012 0.915947
O O10 0.423196 0.483636 0.718367
O O11 0.738043 0.315332 0.040009
O O12 0.687907 0.604352 0.056292
O O13 0.537560 0.642913 0.028473
O O14 0.554138 0.465204 0.149097
#
# Coordination Sequence:
#
# PCOD9139695 Si02
#       7
#     4   4   4   4   4   4   4
#     4  11  20  33  57  87 116 152 197 252 296 340
#     4  12  24  39  60  93 123 160 197 244 305 356
#     4  11  21  41  62  91 119 157 206 251 293 349
#     4  12  22  36  56  86 132 148 200 240 310 352
#     4  11  20  33  57  87 116 152 197 252 296 340
#     4  12  24  39  60  93 123 160 197 244 305 356
#     4  11  21  41  62  91 119 157 206 251 293 349
#
# _framework density 26.904146000000001
#
# number of rings (size 3 to 8) (size 9 to 14) (size 15 to 20)
#    0.000    0.571    5.714    6.000    0.000    0.000 
#    0.000    0.000    0.000    1.714    7.429    0.000 
#    0.000    0.000    0.000    0.000    0.000    0.000 
#
# Total GULP energy -78404.444401 kJ/mol
# GULP energy per Si atom -5600.317457 kJ/mol
# Density = 2.684291 g / cm^3
# Si number density = 26.904146 Si / 1000 Ang^3
#
#
#
# Elastic Constant Matrix: (Units=GPa)
#
#
# Indices 1 2 3 4 5 6 
#
# 1 240.6457 18.4158 105.2450 0.0008 -4.3193 0.0005
# 2 18.4158 82.9104 28.6810 0.0009 3.1087 0.0008
# 3 105.2450 28.6810 151.5350 0.0016 15.0092 0.0014
# 4 0.0008 0.0009 0.0016 14.1101 0.0008 -24.5572
# 5 -4.3193 3.1087 15.0092 0.0008 74.6927 0.0005
# 6 0.0005 0.0008 0.0014 -24.5572 0.0005 4.1795
#
#
#
# Elastic Compliance Matrix: (Units=1/GPa)
#
#
# Indices 1 2 3 4 5 6 
#
# 1 0.006077 0.000114 -0.004363 0.000000 0.001223 0.000000
# 2 0.000114 0.012909 -0.002520 0.000000 -0.000024 0.000001
# 3 -0.004363 -0.002520 0.010327 0.000000 -0.002223 0.000001
# 4 0.000000 0.000000 0.000000 -0.007682 0.000000 -0.045135
# 5 0.001223 -0.000024 -0.002223 0.000000 0.013907 0.000000
# 6 0.000000 0.000001 0.000001 -0.045135 0.000000 -0.025934
#
#
# Mechanical properties :
#
#
# Convention : Reuss Voigt Hill
#
# Bulk Modulus (GPa) = 63.39787 86.64163 75.01975
# Shear Modulus (GPa) = 176.05825 40.11308 108.08567
#
# Velocity S-wave (km/s) = 8.09822 3.86549 6.34520
# Velocity P-wave (km/s) = 10.53836 7.22471 9.03475
#
# Compressibility (1/GPa) = 0.01577340
#
# Stress axis : x y z
#
# Youngs Moduli (GPa) = 164.55373 77.46814 96.83659
#
# Poissons Ratio (x) = -0.00881 0.42253
# Poissons Ratio (y) = -0.01871 0.24401
# Poissons Ratio (z) = 0.71801 0.19520
#
# Static dielectric constant tensor:
#      x y z
#    x 2.130050 0.000000 -0.031280 
#    y 0.000000 2.049290 0.000000 
#    z -0.031280 0.000000 2.035340 
# 
# From -- ./inp_files/18603.got.cif
#   From: 2010.05.17/outbox.cif.g08.bks.cpg/sg9_10_cif.got.tgz:18603.got - 2010.06.03 20:04:27.
