data_PCOD9139445
_publ_section_title
;
Structure prediction by ZEFSAII (Michael W. Deem and Ramdas Pophale) SiO2 
 PCOD9139445
Probable space group: C C
;
_chemical_formula_sum "Si O2"
_cell_formula_units_Z 24
_cell_length_a 9.151802
_cell_length_b 10.955186
_cell_length_c 10.250667
_cell_angle_alpha 90.000000
_cell_angle_beta 83.534001
_cell_angle_gamma 90.000000
_cell_volume 1021.191200
_symmetry_space_group_name_H-M "C C"
_symmetry_group_IT_number 9
_symmetry_cell_setting 'monoclinic'
loop_
_space_group_symop_operation_xyz
x,y,z
x,-y,1/2+z
1/2+x,1/2+y,z
1/2+x,1/2-y,1/2+z
loop_
_atom_site_type_symbol
_atom_site_label
_atom_site_fract_x
_atom_site_fract_y
_atom_site_fract_z
Si Si1 0.663760 0.254396 0.544120
Si Si2 0.918847 0.913036 0.963838
Si Si3 0.603779 0.807820 0.341206
Si Si4 0.890631 0.736189 0.397337
Si Si5 0.047587 0.081261 0.725762
Si Si6 0.323584 0.042236 0.854155
O O1 0.751586 0.132428 0.490552
O O2 0.660856 0.250543 0.700087
O O3 0.497987 0.248257 0.508622
O O4 0.744929 0.371079 0.470849
O O5 0.005371 0.788483 0.926571
O O6 0.967844 0.999784 0.843080
O O7 0.983808 0.958061 0.094267
O O8 0.748989 0.824619 0.412627
O O9 0.492494 0.916668 0.320784
O O10 0.829055 0.599797 0.389297
O O11 0.992773 0.781698 0.266117
O O12 0.220464 0.066033 0.737735
#
# Coordination Sequence:
#
# PCOD9139445 Si02
#       6
#     4   4   4   4   4   4
#     4  10  25  46  68 110 144 188 248 293 368 436
#     4  11  25  46  74 103 151 191 242 306 362 434
#     4  11  24  45  71 102 147 189 239 301 356 433
#     4  11  24  44  72 101 142 187 243 295 360 431
#     4  11  25  46  73 105 145 195 239 301 369 425
#     4  10  25  45  72 105 143 194 239 304 361 433
#
# _framework density 23.501964999999998
#
# number of rings (size 3 to 8) (size 9 to 14) (size 15 to 20)
#    0.000    1.333    3.333    0.000    9.333    1.333 
#    0.000    0.000    0.000    0.000    0.000    0.000 
#    0.000    0.000    0.000    0.000    0.000    0.000 
#
# Total GULP energy -67100.575477 kJ/mol
# GULP energy per Si atom -5591.714623 kJ/mol
# Density = 2.344847 g / cm^3
# Si number density = 23.501965 Si / 1000 Ang^3
#
#
#
# Elastic Constant Matrix: (Units=GPa)
#
#
# Indices 1 2 3 4 5 6 
#
# 1 157.9604 42.5316 4.4267 0.0000 22.9283 0.0000
# 2 42.5316 88.7623 13.9398 0.0000 9.0244 0.0000
# 3 4.4267 13.9398 97.1724 0.0000 6.8797 0.0000
# 4 0.0000 0.0000 0.0000 20.2826 0.0000 -14.6062
# 5 22.9283 9.0244 6.8797 0.0000 18.4378 0.0000
# 6 0.0000 0.0000 0.0000 -14.6062 0.0000 45.0760
#
#
#
# Elastic Compliance Matrix: (Units=1/GPa)
#
#
# Indices 1 2 3 4 5 6 
#
# 1 0.008537 -0.003262 0.000737 0.000000 -0.009295 0.000000
# 2 -0.003262 0.013270 -0.001625 0.000000 -0.001833 0.000000
# 3 0.000737 -0.001625 0.010784 0.000000 -0.004145 0.000000
# 4 0.000000 0.000000 0.000000 0.064310 0.000000 0.020839
# 5 -0.009295 -0.001833 -0.004145 0.000000 0.068239 0.000000
# 6 0.000000 0.000000 0.000000 0.020839 0.000000 0.028937
#
#
# Mechanical properties :
#
#
# Convention : Reuss Voigt Hill
#
# Bulk Modulus (GPa) = 41.16534 51.74349 46.45441
# Shear Modulus (GPa) = 23.75569 35.62574 29.69072
#
# Velocity S-wave (km/s) = 3.18275 3.89763 3.55819
# Velocity P-wave (km/s) = 5.57317 6.50537 6.05723
#
# Compressibility (1/GPa) = 0.02429228
#
# Stress axis : x y z
#
# Youngs Moduli (GPa) = 117.13049 75.35539 92.72975
#
# Poissons Ratio (x) = 0.24577 -0.06835
# Poissons Ratio (y) = 0.38203 0.15072
# Poissons Ratio (z) = -0.08633 0.12248
#
# Static dielectric constant tensor:
#      x y z
#    x 1.939010 0.000000 -0.008220 
#    y 0.000000 1.924140 0.000000 
#    z -0.008220 0.000000 1.863830 
# 
# From -- ./inp_files/14187.got.cif
#   From: 2010.05.17/outbox.cif.g08.bks.cpg/sg9_8_cif.got.tgz:14187.got - 2010.06.03 20:04:27.
