data_PCOD9139119
_publ_section_title
;
Structure prediction by ZEFSAII (Michael W. Deem and Ramdas Pophale) SiO2 
 PCOD9139119
Probable space group: C C
;
_chemical_formula_sum "Si O2"
_cell_formula_units_Z 24
_cell_length_a 18.820768
_cell_length_b 4.879852
_cell_length_c 18.595190
_cell_angle_alpha 90.000000
_cell_angle_beta 149.840819
_cell_angle_gamma 90.000000
_cell_volume 858.020721
_symmetry_space_group_name_H-M "C C"
_symmetry_group_IT_number 9
_symmetry_cell_setting 'monoclinic'
loop_
_space_group_symop_operation_xyz
x,y,z
x,-y,1/2+z
1/2+x,1/2+y,z
1/2+x,1/2-y,1/2+z
loop_
_atom_site_type_symbol
_atom_site_label
_atom_site_fract_x
_atom_site_fract_y
_atom_site_fract_z
Si Si1 0.948140 0.252682 0.265570
Si Si2 0.577800 0.036233 0.515149
Si Si3 0.943218 0.564880 0.126502
Si Si4 0.177594 0.187150 0.734981
Si Si5 0.854838 0.188534 0.919587
Si Si6 0.698664 0.594959 0.008362
O O1 0.017186 0.419713 0.259488
O O2 0.894972 0.322906 0.030501
O O3 0.783773 0.314782 0.104215
O O4 0.037670 0.973526 0.345896
O O5 0.478505 0.244219 0.472198
O O6 0.808031 0.875515 0.876156
O O7 0.481804 0.886073 0.371686
O O8 0.692648 0.212289 0.572154
O O9 0.050729 0.756620 0.178838
O O10 0.801641 0.700961 0.035750
O O11 0.138195 0.316412 0.623975
O O12 0.223721 0.874309 0.777632
#
# Coordination Sequence:
#
# PCOD9139119 Si02
#       6
#     4   4   4   4   4   4
#     4  10  24  44  74 112 149 209 257 337 389 478
#     4  11  26  42  72 112 153 208 262 327 395 478
#     4   9  24  45  73 110 149 208 261 334 385 479
#     4  11  26  47  74 108 157 205 264 317 402 468
#     4  11  26  48  75 108 156 207 262 324 394 477
#     4  10  24  46  72 114 156 205 260 329 403 462
#
# _framework density 27.971349
#
# number of rings (size 3 to 8) (size 9 to 14) (size 15 to 20)
#    1.000    0.667    0.000    2.000    9.333    5.333 
#    6.000    0.000    0.000    0.000    0.000    0.000 
#    0.000    0.000    0.000    0.000    0.000    0.000 
#
# Total GULP energy -67346.617441 kJ/mol
# GULP energy per Si atom -5612.218120 kJ/mol
# Density = 2.790769 g / cm^3
# Si number density = 27.971349 Si / 1000 Ang^3
#
#
#
# Elastic Constant Matrix: (Units=GPa)
#
#
# Indices 1 2 3 4 5 6 
#
# 1 176.4399 23.1325 25.8304 0.0003 -17.8861 0.0002
# 2 23.1325 90.3090 23.5966 0.0011 0.0576 0.0021
# 3 25.8304 23.5966 116.5215 0.0002 -11.8348 0.0000
# 4 0.0003 0.0011 0.0002 48.9161 0.0000 10.3498
# 5 -17.8861 0.0576 -11.8348 0.0000 44.5030 0.0002
# 6 0.0002 0.0021 0.0000 10.3498 0.0002 32.7270
#
#
#
# Elastic Compliance Matrix: (Units=1/GPa)
#
#
# Indices 1 2 3 4 5 6 
#
# 1 0.006203 -0.001363 -0.000869 0.000000 0.002264 0.000000
# 2 -0.001363 0.012010 -0.002248 0.000000 -0.001161 -0.000001
# 3 -0.000869 -0.002248 0.009450 0.000000 0.002167 0.000000
# 4 0.000000 0.000000 0.000000 0.021909 0.000000 -0.006929
# 5 0.002264 -0.001161 0.002167 0.000000 0.023958 0.000000
# 6 0.000000 -0.000001 0.000000 -0.006929 0.000000 0.032747
#
#
# Mechanical properties :
#
#
# Convention : Reuss Voigt Hill
#
# Bulk Modulus (GPa) = 53.46759 58.70994 56.08876
# Shear Modulus (GPa) = 41.16155 45.94327 43.55241
#
# Velocity S-wave (km/s) = 3.84025 4.05719 3.95021
# Velocity P-wave (km/s) = 6.23057 6.55611 6.39541
#
# Compressibility (1/GPa) = 0.01870292
#
# Stress axis : x y z
#
# Youngs Moduli (GPa) = 161.20971 83.26129 105.81940
#
# Poissons Ratio (x) = 0.11351 0.09197
# Poissons Ratio (y) = 0.21977 0.23788
# Poissons Ratio (z) = 0.14011 0.18717
#
# Static dielectric constant tensor:
#      x y z
#    x 2.137410 0.000000 0.020540 
#    y 0.000000 2.124700 0.000000 
#    z 0.020540 0.000000 2.210590 
# 
# From -- ./inp_files/25470.got.cif
#   From: 2010.05.17/outbox.cif.g08.bks.cpg/sg9_13_cif.got.tgz:25470.got - 2010.06.03 20:04:27.
