data_PCOD9139115
_publ_section_title
;
Structure prediction by ZEFSAII (Michael W. Deem and Ramdas Pophale) SiO2 
 PCOD9139115
Probable space group: C C
;
_chemical_formula_sum "Si O2"
_cell_formula_units_Z 28
_cell_length_a 26.990253
_cell_length_b 5.547712
_cell_length_c 20.409347
_cell_angle_alpha 90.000000
_cell_angle_beta 159.847572
_cell_angle_gamma 90.000000
_cell_volume 1052.841450
_symmetry_space_group_name_H-M "C C"
_symmetry_group_IT_number 9
_symmetry_cell_setting 'monoclinic'
loop_
_space_group_symop_operation_xyz
x,y,z
x,-y,1/2+z
1/2+x,1/2+y,z
1/2+x,1/2-y,1/2+z
loop_
_atom_site_type_symbol
_atom_site_label
_atom_site_fract_x
_atom_site_fract_y
_atom_site_fract_z
Si Si1 0.736840 0.296143 0.928870
Si Si2 0.368060 0.887693 0.481504
Si Si3 0.886024 0.851609 0.833896
Si Si4 0.926003 0.962670 0.244036
Si Si5 0.629366 0.045768 0.183580
Si Si6 0.126993 0.827560 0.383342
Si Si7 0.852070 0.641447 0.325451
O O1 0.665570 0.097063 0.794168
O O2 0.644875 0.407487 0.873557
O O3 0.781587 0.509647 0.936149
O O4 0.874460 0.172066 0.131263
O O5 0.518094 0.808002 0.698894
O O6 0.517692 0.726199 0.545483
O O7 0.357529 0.081607 0.409757
O O8 0.954405 0.911276 0.848518
O O9 0.778171 0.843709 0.845144
O O10 0.802406 0.091579 0.750050
O O11 0.794885 0.602804 0.720359
O O12 0.050299 0.827929 0.358712
O O13 0.784536 0.793976 0.078967
O O14 0.521670 0.864351 0.012001
#
# Coordination Sequence:
#
# PCOD9139115 Si02
#       7
#     4   4   4   4   4   4   4
#     4  12  25  46  79 120 162 215 278 356 416 497
#     4  12  24  44  77 121 155 210 275 344 424 480
#     4  10  27  51  71 116 158 219 271 331 419 504
#     4  12  29  51  79 117 165 223 273 347 418 516
#     4  10  24  44  73 113 156 204 273 341 406 487
#     4  12  28  49  81 121 165 220 280 353 422 503
#     4  10  25  45  76 106 159 205 266 334 409 487
#
# _framework density 26.594698999999999
#
# number of rings (size 3 to 8) (size 9 to 14) (size 15 to 20)
#    0.857    0.000    2.857    2.571   10.000    1.143 
#    2.571    0.000    0.000    0.000    0.000    0.000 
#    0.000    0.000    0.000    0.000    0.000    0.000 
#
# Total GULP energy -78256.870201 kJ/mol
# GULP energy per Si atom -5589.776443 kJ/mol
# Density = 2.653417 g / cm^3
# Si number density = 26.594699 Si / 1000 Ang^3
#
#
#
# Elastic Constant Matrix: (Units=GPa)
#
#
# Indices 1 2 3 4 5 6 
#
# 1 125.2516 55.5111 37.6601 -0.0001 12.4144 0.0000
# 2 55.5111 147.2271 45.9425 0.0000 -4.6142 0.0001
# 3 37.6601 45.9425 102.0399 0.0001 10.8330 0.0000
# 4 -0.0001 0.0000 0.0001 12.5744 0.0000 3.6895
# 5 12.4144 -4.6142 10.8330 0.0000 39.3757 0.0000
# 6 0.0000 0.0001 0.0000 3.6895 0.0000 45.5014
#
#
#
# Elastic Compliance Matrix: (Units=1/GPa)
#
#
# Indices 1 2 3 4 5 6 
#
# 1 0.010395 -0.003402 -0.001972 0.000000 -0.003134 0.000000
# 2 -0.003402 0.009166 -0.003192 0.000000 0.003025 0.000000
# 3 -0.001972 -0.003192 0.012298 0.000000 -0.003136 0.000000
# 4 0.000000 0.000000 0.000000 0.081465 0.000000 -0.006606
# 5 -0.003134 0.003025 -0.003136 0.000000 0.027602 0.000000
# 6 0.000000 0.000000 0.000000 -0.006606 0.000000 0.022513
#
#
# Mechanical properties :
#
#
# Convention : Reuss Voigt Hill
#
# Bulk Modulus (GPa) = 67.90716 72.52735 70.21726
# Shear Modulus (GPa) = 26.95685 35.18395 31.07040
#
# Velocity S-wave (km/s) = 3.18719 3.64121 3.42174
# Velocity P-wave (km/s) = 6.25570 6.70883 6.48622
#
# Compressibility (1/GPa) = 0.01472599
#
# Stress axis : x y z
#
# Youngs Moduli (GPa) = 96.19660 109.09821 81.31281
#
# Poissons Ratio (x) = 0.37119 0.16036
# Poissons Ratio (y) = 0.32729 0.25958
# Poissons Ratio (z) = 0.18971 0.34828
#
# Static dielectric constant tensor:
#      x y z
#    x 2.153290 0.000000 0.077180 
#    y 0.000000 2.093320 0.000000 
#    z 0.077180 0.000000 2.098510 
# 
# From -- ./inp_files/34450.got.cif
#   From: 2010.05.17/outbox.cif.g08.bks.cpg/sg9_18_cif.got.tgz:34450.got - 2010.06.03 20:04:27.
