data_PCOD9139733
_publ_section_title
;
Structure prediction by ZEFSAII (Michael W. Deem and Ramdas Pophale) SiO2 
 PCOD9139733
Probable space group: C C
;
_chemical_formula_sum "Si O2"
_cell_formula_units_Z 28
_cell_length_a 12.044367
_cell_length_b 13.463428
_cell_length_c 9.101479
_cell_angle_alpha 90.000000
_cell_angle_beta 50.007183
_cell_angle_gamma 90.000000
_cell_volume 1130.710045
_symmetry_space_group_name_H-M "C C"
_symmetry_group_IT_number 9
_symmetry_cell_setting 'monoclinic'
loop_
_space_group_symop_operation_xyz
x,y,z
x,-y,1/2+z
1/2+x,1/2+y,z
1/2+x,1/2-y,1/2+z
loop_
_atom_site_type_symbol
_atom_site_label
_atom_site_fract_x
_atom_site_fract_y
_atom_site_fract_z
Si Si1 0.317600 0.155065 0.716610
Si Si2 0.880186 0.273628 0.490313
Si Si3 0.673552 0.881267 0.278367
Si Si4 0.509150 0.309046 0.442034
Si Si5 0.022607 0.031354 0.180940
Si Si6 0.250352 0.561208 0.019363
Si Si7 0.214949 0.062169 0.301147
O O1 0.456929 0.198535 0.517224
O O2 0.174484 0.189227 0.747934
O O3 0.313066 0.036636 0.731081
O O4 0.319965 0.202637 0.878256
O O5 0.825412 0.167395 0.594463
O O6 0.811457 0.346866 0.670878
O O7 0.048138 0.304423 0.336542
O O8 0.660828 0.887845 0.465671
O O9 0.666983 0.989291 0.204122
O O10 0.533297 0.372634 0.570145
O O11 0.374906 0.366315 0.480268
O O12 0.101159 0.046745 0.266652
O O13 0.854784 0.010477 0.335705
O O14 0.112225 0.941893 0.029490
#
# Coordination Sequence:
#
# PCOD9139733 Si02
#       7
#     4   4   4   4   4   4   4
#     4  11  24  42  72 105 144 192 238 308 364 449
#     4  12  28  48  74 112 150 199 250 312 376 448
#     4  12  31  47  82 105 159 193 256 307 380 442
#     4  11  23  41  73 103 140 187 243 295 370 434
#     4  11  20  42  72 101 141 189 240 293 367 437
#     4  12  25  48  74 111 146 197 243 313 370 446
#     4  11  23  42  73 103 144 193 246 294 371 438
#
# _framework density 24.763200999999999
#
# number of rings (size 3 to 8) (size 9 to 14) (size 15 to 20)
#    0.000    0.571    7.143    1.714    6.000    3.429 
#    0.000    0.000    0.000    0.000    0.000    0.000 
#    0.000    0.000    0.000    0.000    0.000    0.000 
#
# Total GULP energy -78246.099519 kJ/mol
# GULP energy per Si atom -5589.007108 kJ/mol
# Density = 2.470684 g / cm^3
# Si number density = 24.763201 Si / 1000 Ang^3
#
#
#
# Elastic Constant Matrix: (Units=GPa)
#
#
# Indices 1 2 3 4 5 6 
#
# 1 115.1693 17.3989 28.7761 0.0000 20.3993 0.0000
# 2 17.3989 69.6863 21.8414 0.0000 9.8480 0.0000
# 3 28.7761 21.8414 53.1436 0.0000 3.7307 0.0000
# 4 0.0000 0.0000 0.0000 45.2912 0.0000 -12.4389
# 5 20.3993 9.8480 3.7307 0.0000 38.0591 0.0000
# 6 0.0000 0.0000 0.0000 -12.4389 0.0000 26.6935
#
#
#
# Elastic Compliance Matrix: (Units=1/GPa)
#
#
# Indices 1 2 3 4 5 6 
#
# 1 0.011036 -0.000287 -0.005486 0.000000 -0.005303 0.000000
# 2 -0.000287 0.016991 -0.006575 0.000000 -0.003598 0.000000
# 3 -0.005486 -0.006575 0.024331 0.000000 0.002257 0.000000
# 4 0.000000 0.000000 0.000000 0.025320 0.000000 0.011799
# 5 -0.005303 -0.003598 0.002257 0.000000 0.029827 0.000000
# 6 0.000000 0.000000 0.000000 0.011799 0.000000 0.042960
#
#
# Mechanical properties :
#
#
# Convention : Reuss Voigt Hill
#
# Bulk Modulus (GPa) = 36.14919 41.55913 38.85416
# Shear Modulus (GPa) = 27.11757 33.34094 30.22925
#
# Velocity S-wave (km/s) = 3.31278 3.67330 3.49769
# Velocity P-wave (km/s) = 5.40947 5.89999 5.66005
#
# Compressibility (1/GPa) = 0.02766313
#
# Stress axis : x y z
#
# Youngs Moduli (GPa) = 90.61094 58.85488 41.09929
#
# Poissons Ratio (x) = 0.01687 0.22546
# Poissons Ratio (y) = 0.02597 0.27024
# Poissons Ratio (z) = 0.49707 0.38699
#
# Static dielectric constant tensor:
#      x y z
#    x 1.978650 0.000000 -0.037770 
#    y 0.000000 2.019860 0.000000 
#    z -0.037770 0.000000 2.008130 
# 
# From -- ./inp_files/7326.got.cif
#   From: 2010.05.17/outbox.cif.g08.bks.cpg/sg9_4_cif.got.tgz:7326.got - 2010.06.03 20:04:27.
