data_PCOD9139579
_publ_section_title
;
Structure prediction by ZEFSAII (Michael W. Deem and Ramdas Pophale) SiO2 
 PCOD9139579
Probable space group: C C
;
_chemical_formula_sum "Si O2"
_cell_formula_units_Z 32
_cell_length_a 8.470629
_cell_length_b 20.431420
_cell_length_c 15.601129
_cell_angle_alpha 90.000000
_cell_angle_beta 146.431397
_cell_angle_gamma 90.000000
_cell_volume 1492.946873
_symmetry_space_group_name_H-M "C C"
_symmetry_group_IT_number 9
_symmetry_cell_setting 'monoclinic'
loop_
_space_group_symop_operation_xyz
x,y,z
x,-y,1/2+z
1/2+x,1/2+y,z
1/2+x,1/2-y,1/2+z
loop_
_atom_site_type_symbol
_atom_site_label
_atom_site_fract_x
_atom_site_fract_y
_atom_site_fract_z
Si Si1 0.447190 0.260677 0.525430
Si Si2 0.197203 0.454002 0.800110
Si Si3 0.331379 0.337425 0.095858
Si Si4 0.925520 0.650426 0.775888
Si Si5 0.815133 0.615711 0.243343
Si Si6 0.284386 0.464480 0.514306
Si Si7 0.711037 0.369348 0.998459
Si Si8 0.163599 0.451931 0.122169
O O1 0.662409 0.224127 0.558298
O O2 0.637949 0.317084 0.655142
O O3 0.303788 0.204353 0.519156
O O4 0.167829 0.296738 0.362058
O O5 0.211101 0.505734 0.729002
O O6 0.901293 0.419092 0.692602
O O7 0.292980 0.491959 0.930991
O O8 0.389200 0.392067 0.859655
O O9 0.635327 0.323855 0.189002
O O10 0.370929 0.391301 0.189802
O O11 0.105187 0.368271 0.925674
O O12 0.836706 0.615400 0.648481
O O13 0.080690 0.596914 0.903991
O O14 0.595006 0.562793 0.180636
O O15 0.166153 0.502756 0.541262
O O16 0.864477 0.415216 0.999530
#
# Coordination Sequence:
#
# PCOD9139579 Si02
#       8
#     4   4   4   4   4   4   4   4
#     4  10  26  44  67 102 137 182 243 281 340 410
#     4  12  24  41  73 100 139 180 227 280 352 412
#     4  11  24  43  73  98 139 187 227 287 348 410
#     4  11  23  46  70  96 143 188 224 291 346 406
#     4  11  24  47  66  98 142 183 223 292 342 404
#     4  11  25  43  69 102 144 177 224 283 350 416
#     4  11  23  44  68 100 137 181 228 287 335 415
#     4  11  25  40  68 106 139 174 232 273 351 417
#
# _framework density 21.434118000000002
#
# number of rings (size 3 to 8) (size 9 to 14) (size 15 to 20)
#    0.000    1.000    3.750    1.500    8.750    0.000 
#    0.000    0.000    0.000    0.000    0.000    0.000 
#    0.000    0.000    0.000    0.000    0.000    0.000 
#
# Total GULP energy -89278.133537 kJ/mol
# GULP energy per Si atom -5579.883346 kJ/mol
# Density = 2.138533 g / cm^3
# Si number density = 21.434118 Si / 1000 Ang^3
#
#
#
# Elastic Constant Matrix: (Units=GPa)
#
#
# Indices 1 2 3 4 5 6 
#
# 1 110.1881 47.6927 22.9643 0.0025 7.4110 -0.0019
# 2 47.6927 108.4356 32.0617 -0.0001 6.0875 -0.0031
# 3 22.9643 32.0617 57.7628 0.0329 18.3435 -0.0024
# 4 0.0025 -0.0001 0.0329 21.5988 -0.0002 2.4570
# 5 7.4110 6.0875 18.3435 -0.0002 36.3906 -0.0003
# 6 -0.0019 -0.0031 -0.0024 2.4570 -0.0003 28.5567
#
#
#
# Elastic Compliance Matrix: (Units=1/GPa)
#
#
# Indices 1 2 3 4 5 6 
#
# 1 0.011430 -0.004436 -0.001879 0.000002 -0.000638 0.000000
# 2 -0.004436 0.012821 -0.005904 0.000010 0.001735 0.000000
# 3 -0.001879 -0.005904 0.024885 -0.000038 -0.011173 0.000005
# 4 0.000002 0.000010 -0.000038 0.046757 0.000018 -0.004023
# 5 -0.000638 0.001735 -0.011173 0.000018 0.032952 -0.000002
# 6 0.000000 0.000000 0.000005 -0.004023 -0.000002 0.035364
#
#
# Mechanical properties :
#
#
# Convention : Reuss Voigt Hill
#
# Bulk Modulus (GPa) = 40.48914 53.53596 47.01255
# Shear Modulus (GPa) = 25.39637 28.88707 27.14172
#
# Velocity S-wave (km/s) = 3.44591 3.67511 3.56235
# Velocity P-wave (km/s) = 5.89605 6.56047 6.23711
#
# Compressibility (1/GPa) = 0.02469798
#
# Stress axis : x y z
#
# Youngs Moduli (GPa) = 87.49011 77.99560 40.18543
#
# Poissons Ratio (x) = 0.34596 0.07552
# Poissons Ratio (y) = 0.38807 0.23725
# Poissons Ratio (z) = 0.16442 0.46048
#
# Static dielectric constant tensor:
#      x y z
#    x 1.787550 0.000000 -0.000840 
#    y 0.000000 1.809600 0.000000 
#    z -0.000840 0.000000 1.794270 
# 
# From -- ./inp_files/11025.got.cif
#   From: 2010.05.17/outbox.cif.g08.bks.cpg/sg9_6_cif.got.tgz:11025.got - 2010.06.03 20:04:27.
