data_PCOD9139792
_publ_section_title
;
Structure prediction by ZEFSAII (Michael W. Deem and Ramdas Pophale) SiO2 
 PCOD9139792
Probable space group: C C
;
_chemical_formula_sum "Si O2"
_cell_formula_units_Z 32
_cell_length_a 10.887338
_cell_length_b 16.208080
_cell_length_c 9.770407
_cell_angle_alpha 90.000000
_cell_angle_beta 127.458237
_cell_angle_gamma 90.000000
_cell_volume 1368.596130
_symmetry_space_group_name_H-M "C C"
_symmetry_group_IT_number 9
_symmetry_cell_setting 'monoclinic'
loop_
_space_group_symop_operation_xyz
x,y,z
x,-y,1/2+z
1/2+x,1/2+y,z
1/2+x,1/2-y,1/2+z
loop_
_atom_site_type_symbol
_atom_site_label
_atom_site_fract_x
_atom_site_fract_y
_atom_site_fract_z
Si Si1 0.777770 0.499810 0.072990
Si Si2 0.941808 0.783264 0.877903
Si Si3 0.624425 0.393685 0.153773
Si Si4 0.908950 0.640330 0.015618
Si Si5 0.216920 0.407902 0.598349
Si Si6 0.438690 0.559688 0.755844
Si Si7 0.775354 0.176710 0.845410
Si Si8 0.930568 0.327192 0.093906
O O1 0.725895 0.474150 0.188893
O O2 0.867610 0.420183 0.072680
O O3 0.877729 0.582708 0.123814
O O4 0.607117 0.519330 0.896554
O O5 0.961157 0.734405 0.034453
O O6 0.795026 0.839882 0.749977
O O7 0.946046 0.720057 0.753081
O O8 0.087940 0.844815 0.989497
O O9 0.740897 0.347528 0.331783
O O10 0.462669 0.412559 0.115726
O O11 0.036827 0.591254 0.013074
O O12 0.304152 0.493270 0.679853
O O13 0.253356 0.377062 0.469556
O O14 0.401116 0.633503 0.833585
O O15 0.607404 0.174218 0.661150
O O16 0.827552 0.267541 0.929152
#
# Coordination Sequence:
#
# PCOD9139792 Si02
#       8
#     4   4   4   4   4   4   4   4
#     4  11  22  43  67  97 135 176 228 275 339 407
#     4  11  21  41  67  99 130 174 228 272 341 414
#     4  11  22  44  64  92 136 178 220 275 335 409
#     4  11  23  38  68  98 129 167 226 283 329 398
#     4  11  22  37  70  97 129 176 222 283 331 402
#     4  11  25  42  66  99 138 183 226 280 344 401
#     4  11  24  44  68 102 137 177 234 282 341 411
#     4  11  23  43  74  98 134 179 232 282 346 420
#
# _framework density 23.381623999999999
#
# number of rings (size 3 to 8) (size 9 to 14) (size 15 to 20)
#    0.000    1.000    3.750    3.000    1.750    0.000 
#    4.500    0.000    0.000    0.000    0.000    0.000 
#    0.000    0.000    0.000    0.000    0.000    0.000 
#
# Total GULP energy -89236.593763 kJ/mol
# GULP energy per Si atom -5577.287110 kJ/mol
# Density = 2.332841 g / cm^3
# Si number density = 23.381624 Si / 1000 Ang^3
#
#
#
# Elastic Constant Matrix: (Units=GPa)
#
#
# Indices 1 2 3 4 5 6 
#
# 1 108.7719 51.5898 22.5650 0.0000 7.6095 0.0000
# 2 51.5898 96.2604 10.2554 0.0000 0.7419 0.0000
# 3 22.5650 10.2554 46.6224 0.0000 23.1779 0.0000
# 4 0.0000 0.0000 0.0000 25.9587 0.0000 0.1581
# 5 7.6095 0.7419 23.1779 0.0000 28.9899 0.0000
# 6 0.0000 0.0000 0.0000 0.1581 0.0000 31.0246
#
#
#
# Elastic Compliance Matrix: (Units=1/GPa)
#
#
# Indices 1 2 3 4 5 6 
#
# 1 0.013404 -0.006596 -0.005595 0.000000 0.001124 0.000000
# 2 -0.006596 0.014008 -0.000948 0.000000 0.002131 0.000000
# 3 -0.005595 -0.000948 0.039207 0.000000 -0.029854 0.000000
# 4 0.000000 0.000000 0.000000 0.038524 0.000000 -0.000196
# 5 0.001124 0.002131 -0.029854 0.000000 0.058014 0.000000
# 6 0.000000 0.000000 0.000000 -0.000196 0.000000 0.032233
#
#
# Mechanical properties :
#
#
# Convention : Reuss Voigt Hill
#
# Bulk Modulus (GPa) = 24.78934 46.71945 35.75439
# Shear Modulus (GPa) = 21.26591 28.34427 24.80509
#
# Velocity S-wave (km/s) = 3.01909 3.48551 3.26065
# Velocity P-wave (km/s) = 4.77266 6.01856 5.43145
#
# Compressibility (1/GPa) = 0.04033992
#
# Stress axis : x y z
#
# Youngs Moduli (GPa) = 74.60247 71.38574 25.50547
#
# Poissons Ratio (x) = 0.47089 0.14271
# Poissons Ratio (y) = 0.49211 0.02418
# Poissons Ratio (z) = 0.41743 0.06768
#
# Static dielectric constant tensor:
#      x y z
#    x 1.969110 0.000000 -0.054600 
#    y 0.000000 1.987060 0.000000 
#    z -0.054600 0.000000 1.940460 
# 
# From -- ./inp_files/16884.got.cif
#   From: 2010.05.17/outbox.cif.g08.bks.cpg/sg9_9_cif.got.tgz:16884.got - 2010.06.03 20:04:27.
