data_PCOD9139293
_publ_section_title
;
Structure prediction by ZEFSAII (Michael W. Deem and Ramdas Pophale) SiO2 
 PCOD9139293
Probable space group: C C
;
_chemical_formula_sum "Si O2"
_cell_formula_units_Z 28
_cell_length_a 14.475500
_cell_length_b 6.385147
_cell_length_c 13.020620
_cell_angle_alpha 90.000000
_cell_angle_beta 77.859639
_cell_angle_gamma 90.000000
_cell_volume 1176.557149
_symmetry_space_group_name_H-M "C C"
_symmetry_group_IT_number 9
_symmetry_cell_setting 'monoclinic'
loop_
_space_group_symop_operation_xyz
x,y,z
x,-y,1/2+z
1/2+x,1/2+y,z
1/2+x,1/2-y,1/2+z
loop_
_atom_site_type_symbol
_atom_site_label
_atom_site_fract_x
_atom_site_fract_y
_atom_site_fract_z
Si Si1 0.242410 0.186459 0.212820
Si Si2 0.904570 0.101671 0.403189
Si Si3 0.603971 0.388636 0.346910
Si Si4 0.693441 0.114212 0.505153
Si Si5 0.574878 0.817617 0.651911
Si Si6 0.402989 0.141255 0.694456
Si Si7 0.416629 0.430164 0.121642
O O1 0.203099 0.263692 0.112366
O O2 0.327249 0.356931 0.211372
O O3 0.158353 0.107889 0.307086
O O4 0.307111 0.980396 0.196164
O O5 0.794806 0.042008 0.438759
O O6 0.907606 0.253310 0.305454
O O7 0.917787 0.196823 0.514844
O O8 0.991716 0.939508 0.375710
O O9 0.642413 0.271392 0.438540
O O10 0.622195 0.222639 0.250112
O O11 0.640633 0.901003 0.547421
O O12 0.519448 0.603974 0.643839
O O13 0.490514 0.985107 0.673812
O O14 0.407487 0.323919 0.609686
#
# Coordination Sequence:
#
# PCOD9139293 Si02
#       7
#     4   4   4   4   4   4   4
#     4  10  25  46  72 105 146 187 243 302 374 434
#     4  11  24  44  71 103 142 188 251 289 372 438
#     4  12  25  47  75 108 146 196 243 308 369 446
#     4  11  26  48  70 111 146 195 248 301 373 449
#     4  11  26  45  73 104 147 189 241 302 368 435
#     4  11  22  50  72 102 147 186 247 306 363 442
#     4  10  24  48  71 103 140 193 235 312 363 436
#
# _framework density 23.798249999999999
#
# number of rings (size 3 to 8) (size 9 to 14) (size 15 to 20)
#    0.000    1.143    2.857    1.714    8.000    0.000 
#    7.714    0.000    0.000    0.000    0.000    0.000 
#    0.000    0.000    0.000    0.000    0.000    0.000 
#
# Total GULP energy -78137.691981 kJ/mol
# GULP energy per Si atom -5581.263713 kJ/mol
# Density = 2.374408 g / cm^3
# Si number density = 23.798250 Si / 1000 Ang^3
#
#
#
# Elastic Constant Matrix: (Units=GPa)
#
#
# Indices 1 2 3 4 5 6 
#
# 1 115.6603 25.3929 23.6271 0.0000 -21.7119 0.0000
# 2 25.3929 55.6173 5.1905 0.0000 -3.9967 0.0000
# 3 23.6271 5.1905 92.7255 0.0000 -4.2300 0.0000
# 4 0.0000 0.0000 0.0000 41.2329 0.0000 1.3058
# 5 -21.7119 -3.9967 -4.2300 0.0000 43.6025 0.0000
# 6 0.0000 0.0000 0.0000 1.3058 0.0000 23.0497
#
#
#
# Elastic Compliance Matrix: (Units=1/GPa)
#
#
# Indices 1 2 3 4 5 6 
#
# 1 0.011013 -0.004462 -0.002335 0.000000 0.004848 0.000000
# 2 -0.004462 0.019989 0.000000 0.000000 -0.000389 0.000000
# 3 -0.002335 0.000000 0.011377 0.000000 -0.000059 0.000000
# 4 0.000000 0.000000 0.000000 0.024296 0.000000 -0.001376
# 5 0.004848 -0.000389 -0.000059 0.000000 0.025307 0.000000
# 6 0.000000 0.000000 0.000000 -0.001376 0.000000 0.043462
#
#
# Mechanical properties :
#
#
# Convention : Reuss Voigt Hill
#
# Bulk Modulus (GPa) = 34.74006 41.38044 38.06025
# Shear Modulus (GPa) = 31.51932 35.56320 33.54126
#
# Velocity S-wave (km/s) = 3.64323 3.86989 3.75827
# Velocity P-wave (km/s) = 5.68568 6.11505 5.90427
#
# Compressibility (1/GPa) = 0.02878522
#
# Stress axis : x y z
#
# Youngs Moduli (GPa) = 90.80405 50.02739 87.89786
#
# Poissons Ratio (x) = 0.22321 0.20526
# Poissons Ratio (y) = 0.40514 -0.00002
# Poissons Ratio (z) = 0.21205 -0.00001
#
# Static dielectric constant tensor:
#      x y z
#    x 1.942840 0.000000 -0.005880 
#    y 0.000000 1.933590 0.000000 
#    z -0.005880 0.000000 1.966410 
# 
# From -- ./inp_files/25223.got.cif
#   From: 2010.05.17/outbox.cif.g08.bks.cpg/sg9_13_cif.got.tgz:25223.got - 2010.06.03 20:04:27.
