data_PCOD9139479
_publ_section_title
;
Structure prediction by ZEFSAII (Michael W. Deem and Ramdas Pophale) SiO2 
 PCOD9139479
Probable space group: C C
;
_chemical_formula_sum "Si O2"
_cell_formula_units_Z 28
_cell_length_a 23.181122
_cell_length_b 5.341497
_cell_length_c 9.381690
_cell_angle_alpha 90.000000
_cell_angle_beta 105.131638
_cell_angle_gamma 90.000000
_cell_volume 1121.382333
_symmetry_space_group_name_H-M "C C"
_symmetry_group_IT_number 9
_symmetry_cell_setting 'monoclinic'
loop_
_space_group_symop_operation_xyz
x,y,z
x,-y,1/2+z
1/2+x,1/2+y,z
1/2+x,1/2-y,1/2+z
loop_
_atom_site_type_symbol
_atom_site_label
_atom_site_fract_x
_atom_site_fract_y
_atom_site_fract_z
Si Si1 0.706510 0.178280 0.003710
Si Si2 0.669964 0.471970 0.232096
Si Si3 0.862591 0.461042 0.846784
Si Si4 0.926295 0.840474 0.718060
Si Si5 0.479689 0.701797 0.981307
Si Si6 0.821995 0.040569 0.462439
Si Si7 0.606619 0.206197 0.441937
O O1 0.712221 0.297680 0.162973
O O2 0.759416 0.987579 0.004066
O O3 0.640858 0.056127 0.962400
O O4 0.705330 0.371113 0.872607
O O5 0.622220 0.323460 0.298185
O O6 0.637917 0.639827 0.091189
O O7 0.886369 0.589294 0.715575
O O8 0.928248 0.408710 0.951300
O O9 0.828621 0.691296 0.895769
O O10 0.829246 0.197810 0.857876
O O11 0.984397 0.840923 0.652956
O O12 0.950298 0.968223 0.877892
O O13 0.877481 0.012806 0.607107
O O14 0.537618 0.794468 0.937052
#
# Coordination Sequence:
#
# PCOD9139479 Si02
#       7
#     4   4   4   4   4   4   4
#     4  11  26  48  73 109 148 200 252 314 384 448
#     4  10  25  46  72 111 145 195 255 303 392 446
#     4  11  25  47  71 112 142 198 242 306 376 438
#     4  11  24  48  71 112 143 199 245 312 375 443
#     4  11  26  45  78 105 155 192 258 310 378 451
#     4  11  28  46  76 106 154 192 252 304 375 452
#     4  11  24  48  73 111 147 200 246 317 378 458
#
# _framework density 24.969180000000001
#
# number of rings (size 3 to 8) (size 9 to 14) (size 15 to 20)
#    0.000    1.143    2.857    1.714   10.000    5.714 
#    0.000    0.000    0.000    0.000    0.000    0.000 
#    0.000    0.000    0.000    0.000    0.000    0.000 
#
# Total GULP energy -78234.597617 kJ/mol
# GULP energy per Si atom -5588.185544 kJ/mol
# Density = 2.491235 g / cm^3
# Si number density = 24.969180 Si / 1000 Ang^3
#
#
#
# Elastic Constant Matrix: (Units=GPa)
#
#
# Indices 1 2 3 4 5 6 
#
# 1 133.7499 36.3374 33.1301 0.0000 -29.5113 0.0000
# 2 36.3374 128.6390 47.3820 0.0000 -20.1093 0.0000
# 3 33.1301 47.3820 139.4425 0.0000 -47.0461 0.0000
# 4 0.0000 0.0000 0.0000 5.2631 0.0000 1.3632
# 5 -29.5113 -20.1093 -47.0461 0.0000 31.0202 0.0000
# 6 0.0000 0.0000 0.0000 1.3632 0.0000 19.8071
#
#
#
# Elastic Compliance Matrix: (Units=1/GPa)
#
#
# Indices 1 2 3 4 5 6 
#
# 1 0.009993 -0.001802 0.002153 0.000000 0.011605 0.000000
# 2 -0.001802 0.009300 -0.002614 0.000000 0.000351 0.000000
# 3 0.002153 -0.002614 0.015702 0.000000 0.024168 0.000000
# 4 0.000000 0.000000 0.000000 0.193450 0.000000 -0.013314
# 5 0.011605 0.000351 0.024168 0.000000 0.080159 0.000000
# 6 0.000000 0.000000 0.000000 -0.013314 0.000000 0.051403
#
#
# Mechanical properties :
#
#
# Convention : Reuss Voigt Hill
#
# Bulk Modulus (GPa) = 32.81813 70.61449 51.71631
# Shear Modulus (GPa) = 13.34438 30.21687 21.78063
#
# Velocity S-wave (km/s) = 2.31429 3.48252 2.95668
# Velocity P-wave (km/s) = 4.50702 6.67178 5.69324
#
# Compressibility (1/GPa) = 0.03047096
#
# Stress axis : x y z
#
# Youngs Moduli (GPa) = 100.06624 107.52408 63.68605
#
# Poissons Ratio (x) = 0.19375 -0.13714
# Poissons Ratio (y) = 0.18031 0.16646
# Poissons Ratio (z) = -0.21547 0.28104
#
# Static dielectric constant tensor:
#      x y z
#    x 1.947540 0.000000 -0.077760 
#    y 0.000000 2.119720 0.000000 
#    z -0.077760 0.000000 2.244120 
# 
# From -- ./inp_files/11938.got.cif
#   From: 2010.05.17/outbox.cif.g08.bks.cpg/sg9_6_cif.got.tgz:11938.got - 2010.06.03 20:04:27.
