data_PCOD9139758
_publ_section_title
;
Structure prediction by ZEFSAII (Michael W. Deem and Ramdas Pophale) SiO2 
 PCOD9139758
Probable space group: C C
;
_chemical_formula_sum "Si O2"
_cell_formula_units_Z 28
_cell_length_a 8.111753
_cell_length_b 27.727854
_cell_length_c 5.459913
_cell_angle_alpha 90.000000
_cell_angle_beta 124.578478
_cell_angle_gamma 90.000000
_cell_volume 1011.116001
_symmetry_space_group_name_H-M "C C"
_symmetry_group_IT_number 9
_symmetry_cell_setting 'monoclinic'
loop_
_space_group_symop_operation_xyz
x,y,z
x,-y,1/2+z
1/2+x,1/2+y,z
1/2+x,1/2-y,1/2+z
loop_
_atom_site_type_symbol
_atom_site_label
_atom_site_fract_x
_atom_site_fract_y
_atom_site_fract_z
Si Si1 0.590010 0.161324 0.123120
Si Si2 0.166353 0.903772 0.951926
Si Si3 0.564378 0.298351 0.668145
Si Si4 0.738773 0.134234 0.744462
Si Si5 0.344778 0.483663 0.690610
Si Si6 0.634209 0.430166 0.439397
Si Si7 0.740313 0.740277 0.807717
O O1 0.596974 0.134657 0.389489
O O2 0.767866 0.201456 0.321434
O O3 0.619879 0.129474 0.903075
O O4 0.402438 0.197125 0.945054
O O5 0.152839 0.849600 0.840721
O O6 0.945009 0.930678 0.795668
O O7 0.257317 0.930339 0.794308
O O8 0.241411 0.909723 0.290503
O O9 0.345095 0.315053 0.399562
O O10 0.639430 0.272144 0.484899
O O11 0.619464 0.266945 0.950151
O O12 0.930618 0.101774 0.819951
O O13 0.237795 0.496237 0.343598
O O14 0.541836 0.517481 0.825061
#
# Coordination Sequence:
#
# PCOD9139758 Si02
#       7
#     4   4   4   4   4   4   4
#     4  12  25  41  58  80 111 152 196 240 293 348
#     4   9  16  28  48  78 114 143 173 223 283 329
#     4  11  21  37  59  84 114 146 187 240 289 337
#     4  11  21  37  59  84 114 146 187 240 289 337
#     4   8  14  24  42  72 114 142 168 214 278 330
#     4   9  16  28  48  78 114 143 173 223 283 329
#     4  12  25  41  58  80 111 152 196 240 293 348
#
# _framework density 27.692174000000001
#
# number of rings (size 3 to 8) (size 9 to 14) (size 15 to 20)
#    0.000    1.714    0.000    7.714    0.000    0.000 
#    0.000    0.000    0.000    0.000    0.000    0.000 
#    0.000  365.714    0.000    0.000    0.000    0.000 
#
# Total GULP energy -77979.697509 kJ/mol
# GULP energy per Si atom -5569.978393 kJ/mol
# Density = 2.762915 g / cm^3
# Si number density = 27.692174 Si / 1000 Ang^3
#
#
#
# Elastic Constant Matrix: (Units=GPa)
#
#
# Indices 1 2 3 4 5 6 
#
# 1 94.1791 13.9559 62.3365 0.0000 -39.5532 0.0000
# 2 13.9559 85.4611 8.5356 0.0000 -18.6463 0.0000
# 3 62.3365 8.5356 223.2910 0.0000 -79.2408 0.0000
# 4 0.0000 0.0000 0.0000 36.6590 0.0000 -23.4260
# 5 -39.5532 -18.6463 -79.2408 0.0000 69.3153 0.0000
# 6 0.0000 0.0000 0.0000 -23.4260 0.0000 30.1192
#
#
#
# Elastic Compliance Matrix: (Units=1/GPa)
#
#
# Indices 1 2 3 4 5 6 
#
# 1 0.014474 -0.000907 -0.001955 0.000000 0.005781 0.000000
# 2 -0.000907 0.012681 0.001338 0.000000 0.004424 0.000000
# 3 -0.001955 0.001338 0.007917 0.000000 0.008295 0.000000
# 4 0.000000 0.000000 0.000000 0.054233 0.000000 0.042181
# 5 0.005781 0.004424 0.008295 0.000000 0.028398 0.000000
# 6 0.000000 0.000000 0.000000 0.042181 0.000000 0.066009
#
#
# Mechanical properties :
#
#
# Convention : Reuss Voigt Hill
#
# Bulk Modulus (GPa) = 31.22587 63.62078 47.42333
# Shear Modulus (GPa) = 25.32494 48.42557 36.87526
#
# Velocity S-wave (km/s) = 3.02738 4.18629 3.65309
# Velocity P-wave (km/s) = 4.84980 6.81109 5.91234
#
# Compressibility (1/GPa) = 0.03202473
#
# Stress axis : x y z
#
# Youngs Moduli (GPa) = 69.08925 78.85907 126.31598
#
# Poissons Ratio (x) = 0.07154 0.24690
# Poissons Ratio (y) = 0.06267 -0.16905
# Poissons Ratio (z) = 0.13504 -0.10554
#
# Static dielectric constant tensor:
#      x y z
#    x 2.304250 0.000000 0.009550 
#    y 0.000000 2.191680 0.000000 
#    z 0.009550 0.000000 2.343620 
# 
# From -- ./inp_files/1151.got.cif
#   From: 2010.05.17/outbox.cif.g08.bks.cpg/sg9_1_cif.got.tgz:1151.got - 2010.06.03 20:04:27.
