data_PCOD9139783
_publ_section_title
;
Structure prediction by ZEFSAII (Michael W. Deem and Ramdas Pophale) SiO2 
 PCOD9139783
Probable space group: C C
;
_chemical_formula_sum "Si O2"
_cell_formula_units_Z 28
_cell_length_a 7.179956
_cell_length_b 12.703587
_cell_length_c 13.526503
_cell_angle_alpha 90.000000
_cell_angle_beta 82.852429
_cell_angle_gamma 90.000000
_cell_volume 1224.180864
_symmetry_space_group_name_H-M "C C"
_symmetry_group_IT_number 9
_symmetry_cell_setting 'monoclinic'
loop_
_space_group_symop_operation_xyz
x,y,z
x,-y,1/2+z
1/2+x,1/2+y,z
1/2+x,1/2-y,1/2+z
loop_
_atom_site_type_symbol
_atom_site_label
_atom_site_fract_x
_atom_site_fract_y
_atom_site_fract_z
Si Si1 0.102320 0.321424 0.906350
Si Si2 0.288661 0.118252 0.300907
Si Si3 0.423346 0.687979 0.234880
Si Si4 0.960705 0.413359 0.591028
Si Si5 0.532697 0.073142 0.744372
Si Si6 0.741802 0.948744 0.424334
Si Si7 0.583357 0.611576 0.022729
O O1 0.886884 0.322567 0.884612
O O2 0.161610 0.433743 0.944734
O O3 0.065558 0.494736 0.144648
O O4 0.144959 0.224465 0.974179
O O5 0.069993 0.135971 0.302201
O O6 0.376215 0.155127 0.187776
O O7 0.720544 0.183274 0.296825
O O8 0.474566 0.810138 0.222566
O O9 0.457065 0.632107 0.128438
O O10 0.861470 0.502980 0.802445
O O11 0.106555 0.374182 0.500008
O O12 0.770919 0.447323 0.546124
O O13 0.700549 0.074733 0.812288
O O14 0.951657 0.939538 0.449119
#
# Coordination Sequence:
#
# PCOD9139783 Si02
#       7
#     4   4   4   4   4   4   4
#     4  11  23  38  62  97 124 168 221 262 327 393
#     4   8  20  39  60  86 124 164 207 264 322 381
#     4  11  21  40  64  90 130 168 214 271 323 387
#     4   9  20  42  59  90 130 166 214 276 320 387
#     4   9  20  39  64  88 126 174 206 267 332 377
#     4  11  22  40  66  90 131 172 214 275 329 380
#     4  11  24  40  65  99 129 168 230 263 321 407
#
# _framework density 22.872439
#
# number of rings (size 3 to 8) (size 9 to 14) (size 15 to 20)
#    0.857    1.143    0.000    3.429    0.000    3.429 
#    0.000    7.143    0.000    0.000    0.000    0.000 
#    0.000    0.000    0.000    0.000    0.000    0.000 
#
# Total GULP energy -78112.919099 kJ/mol
# GULP energy per Si atom -5579.494221 kJ/mol
# Density = 2.282038 g / cm^3
# Si number density = 22.872439 Si / 1000 Ang^3
#
#
#
# Elastic Constant Matrix: (Units=GPa)
#
#
# Indices 1 2 3 4 5 6 
#
# 1 96.8831 7.3951 39.4535 0.0000 29.4909 0.0000
# 2 7.3951 46.1749 8.7827 0.0000 5.4396 0.0000
# 3 39.4535 8.7827 85.0783 0.0000 7.3455 0.0000
# 4 0.0000 0.0000 0.0000 18.7014 0.0000 -0.6542
# 5 29.4909 5.4396 7.3455 0.0000 45.0591 0.0000
# 6 0.0000 0.0000 0.0000 -0.6542 0.0000 15.1804
#
#
#
# Elastic Compliance Matrix: (Units=1/GPa)
#
#
# Indices 1 2 3 4 5 6 
#
# 1 0.015807 -0.000203 -0.006510 0.000000 -0.009260 0.000000
# 2 -0.000203 0.022337 -0.002019 0.000000 -0.002235 0.000000
# 3 -0.006510 -0.002019 0.014800 0.000000 0.002092 0.000000
# 4 0.000000 0.000000 0.000000 0.053553 0.000000 0.002308
# 5 -0.009260 -0.002235 0.002092 0.000000 0.028182 0.000000
# 6 0.000000 0.000000 0.000000 0.002308 0.000000 0.065974
#
#
# Mechanical properties :
#
#
# Convention : Reuss Voigt Hill
#
# Bulk Modulus (GPa) = 28.18378 37.71100 32.94739
# Shear Modulus (GPa) = 21.74459 27.28851 24.51655
#
# Velocity S-wave (km/s) = 3.08667 3.45784 3.27751
# Velocity P-wave (km/s) = 5.00523 5.69785 5.36273
#
# Compressibility (1/GPa) = 0.03548140
#
# Stress axis : x y z
#
# Youngs Moduli (GPa) = 63.26408 44.76975 67.56539
#
# Poissons Ratio (x) = 0.00907 0.43983
# Poissons Ratio (y) = 0.01281 0.13641
# Poissons Ratio (z) = 0.41183 0.09039
#
# Static dielectric constant tensor:
#      x y z
#    x 1.856870 0.000000 -0.023600 
#    y 0.000000 1.863210 0.000000 
#    z -0.023600 0.000000 1.877050 
# 
# From -- ./inp_files/21857.got.cif
#   From: 2010.05.17/outbox.cif.g08.bks.cpg/sg9_11_cif.got.tgz:21857.got - 2010.06.03 20:04:27.
