data_PCOD9139449
_publ_section_title
;
Structure prediction by ZEFSAII (Michael W. Deem and Ramdas Pophale) SiO2 
 PCOD9139449
Probable space group: C C
;
_chemical_formula_sum "Si O2"
_cell_formula_units_Z 32
_cell_length_a 15.488935
_cell_length_b 7.763981
_cell_length_c 22.516008
_cell_angle_alpha 90.000000
_cell_angle_beta 29.229927
_cell_angle_gamma 90.000000
_cell_volume 1322.202463
_symmetry_space_group_name_H-M "C C"
_symmetry_group_IT_number 9
_symmetry_cell_setting 'monoclinic'
loop_
_space_group_symop_operation_xyz
x,y,z
x,-y,1/2+z
1/2+x,1/2+y,z
1/2+x,1/2-y,1/2+z
loop_
_atom_site_type_symbol
_atom_site_label
_atom_site_fract_x
_atom_site_fract_y
_atom_site_fract_z
Si Si1 0.565760 0.375219 0.826830
Si Si2 0.011150 0.813681 0.117072
Si Si3 0.617307 0.989618 0.228066
Si Si4 0.873979 0.790415 0.407733
Si Si5 0.783528 0.016762 0.845625
Si Si6 0.897726 0.339476 0.254504
Si Si7 0.426659 0.955732 0.117216
Si Si8 0.526576 0.531359 0.477930
O O1 0.411182 0.517805 0.909942
O O2 0.734942 0.495768 0.708329
O O3 0.587301 0.192120 0.781410
O O4 0.552988 0.345199 0.905373
O O5 0.854317 0.915194 0.241423
O O6 0.958603 0.616379 0.142280
O O7 0.036947 0.882215 0.035497
O O8 0.199542 0.806620 0.036863
O O9 0.527383 0.149274 0.316098
O O10 0.519096 0.958067 0.223715
O O11 0.824427 0.033028 0.096135
O O12 0.832677 0.839187 0.364105
O O13 0.894311 0.843597 0.789544
O O14 0.579904 0.965388 0.977026
O O15 0.947480 0.308859 0.154798
O O16 0.693878 0.403908 0.373980
#
# Coordination Sequence:
#
# PCOD9139449 Si02
#       8
#     4   4   4   4   4   4   4   4
#     4  11  26  49  70 117 149 199 251 325 379 462
#     4  11  24  47  74 106 148 207 248 313 387 460
#     4  12  25  46  79 105 153 199 255 308 391 457
#     4  11  26  46  74 115 149 197 256 316 382 460
#     4  11  26  44  81 109 147 208 261 309 394 464
#     4  11  25  47  73 112 155 198 254 324 382 463
#     4  10  25  45  73 106 156 192 255 320 380 455
#     4  11  27  46  76 108 155 198 256 317 391 457
#
# _framework density 24.202043
#
# number of rings (size 3 to 8) (size 9 to 14) (size 15 to 20)
#    0.000    1.000    3.750    0.750   14.000    2.000 
#    0.000    0.000    0.000    0.000    0.000    0.000 
#    0.000    0.000    0.000    0.000    0.000    0.000 
#
# Total GULP energy -89318.428416 kJ/mol
# GULP energy per Si atom -5582.401776 kJ/mol
# Density = 2.414696 g / cm^3
# Si number density = 24.202043 Si / 1000 Ang^3
#
#
#
# Elastic Constant Matrix: (Units=GPa)
#
#
# Indices 1 2 3 4 5 6 
#
# 1 55.8791 26.4611 45.6943 -0.0001 2.4156 0.0000
# 2 26.4611 67.0447 24.7677 0.0001 2.4674 -0.0001
# 3 45.6943 24.7677 141.3853 0.0005 -2.4908 -0.0002
# 4 -0.0001 0.0001 0.0005 22.4224 0.0000 -2.5119
# 5 2.4156 2.4674 -2.4908 0.0000 46.6615 0.0000
# 6 0.0000 -0.0001 -0.0002 -2.5119 0.0000 25.7508
#
#
#
# Elastic Compliance Matrix: (Units=1/GPa)
#
#
# Indices 1 2 3 4 5 6 
#
# 1 0.028123 -0.008211 -0.007676 0.000000 -0.001431 0.000000
# 2 -0.008211 0.018391 -0.000578 0.000000 -0.000578 0.000000
# 3 -0.007676 -0.000578 0.009672 0.000000 0.000944 0.000000
# 4 0.000000 0.000000 0.000000 0.045091 0.000000 0.004399
# 5 -0.001431 -0.000578 0.000944 0.000000 0.021586 0.000000
# 6 0.000000 0.000000 0.000000 0.004399 0.000000 0.039263
#
#
# Mechanical properties :
#
#
# Convention : Reuss Voigt Hill
#
# Bulk Modulus (GPa) = 43.00126 50.90614 46.95370
# Shear Modulus (GPa) = 24.65397 30.12601 27.38999
#
# Velocity S-wave (km/s) = 3.19513 3.53196 3.36776
# Velocity P-wave (km/s) = 5.60517 6.14105 5.87922
#
# Compressibility (1/GPa) = 0.02325513
#
# Stress axis : x y z
#
# Youngs Moduli (GPa) = 35.55835 54.37425 103.39634
#
# Poissons Ratio (x) = 0.44648 0.79365
# Poissons Ratio (y) = 0.29198 0.05978
# Poissons Ratio (z) = 0.27294 0.03144
#
# Static dielectric constant tensor:
#      x y z
#    x 2.019210 0.000000 -0.019180 
#    y 0.000000 2.012870 0.000000 
#    z -0.019180 0.000000 2.004700 
# 
# From -- ./inp_files/33711.got.cif
#   From: 2010.05.17/outbox.cif.g08.bks.cpg/sg9_17_cif.got.tgz:33711.got - 2010.06.03 20:04:27.
