data_PCOD9139557
_publ_section_title
;
Structure prediction by ZEFSAII (Michael W. Deem and Ramdas Pophale) SiO2 
 PCOD9139557
Probable space group: C C
;
_chemical_formula_sum "Si O2"
_cell_formula_units_Z 24
_cell_length_a 9.520661
_cell_length_b 5.254072
_cell_length_c 20.608694
_cell_angle_alpha 90.000000
_cell_angle_beta 117.396667
_cell_angle_gamma 90.000000
_cell_volume 915.270266
_symmetry_space_group_name_H-M "C C"
_symmetry_group_IT_number 9
_symmetry_cell_setting 'monoclinic'
loop_
_space_group_symop_operation_xyz
x,y,z
x,-y,1/2+z
1/2+x,1/2+y,z
1/2+x,1/2-y,1/2+z
loop_
_atom_site_type_symbol
_atom_site_label
_atom_site_fract_x
_atom_site_fract_y
_atom_site_fract_z
Si Si1 0.707810 0.283539 0.009620
Si Si2 0.457927 0.359928 0.476549
Si Si3 0.347111 0.313157 0.758596
Si Si4 0.249896 0.723205 0.594302
Si Si5 0.530307 0.046973 0.224776
Si Si6 0.975667 0.324800 0.843839
O O1 0.785024 0.553382 0.048282
O O2 0.754852 0.057476 0.067340
O O3 0.522505 0.358651 0.974563
O O4 0.778723 0.200935 0.955676
O O5 0.563313 0.285286 0.562323
O O6 0.514443 0.191741 0.427381
O O7 0.411716 0.545576 0.813753
O O8 0.167616 0.390004 0.703797
O O9 0.462373 0.234259 0.723577
O O10 0.352939 0.050781 0.801340
O O11 0.374419 0.787828 0.676038
O O12 0.596898 0.122342 0.310585
#
# Coordination Sequence:
#
# PCOD9139557 Si02
#       6
#     4   4   4   4   4   4
#     4  10  26  40  70  98 138 177 234 283 359 418
#     4  10  26  43  68 101 137 184 230 293 352 424
#     4  10  26  39  70  98 138 177 232 280 358 414
#     4  10  26  42  71  96 138 179 234 291 352 428
#     4  10  26  45  71 101 140 182 234 292 355 425
#     4  10  26  41  72  96 143 175 240 283 358 419
#
# _framework density 26.221762999999999
#
# number of rings (size 3 to 8) (size 9 to 14) (size 15 to 20)
#    2.000    0.000    0.000    0.000   14.000    2.667 
#    0.000    0.000    0.000    0.000    0.000    0.000 
#    0.000    0.000    0.000    0.000    0.000    0.000 
#
# Total GULP energy -66852.925409 kJ/mol
# GULP energy per Si atom -5571.077117 kJ/mol
# Density = 2.616208 g / cm^3
# Si number density = 26.221763 Si / 1000 Ang^3
#
#
#
# Elastic Constant Matrix: (Units=GPa)
#
#
# Indices 1 2 3 4 5 6 
#
# 1 112.4574 46.6237 -4.0213 0.0000 -8.0953 0.0000
# 2 46.6237 177.2761 36.0803 0.0000 1.1635 0.0000
# 3 -4.0213 36.0803 75.5956 0.0000 -5.9699 0.0000
# 4 0.0000 0.0000 0.0000 38.2699 0.0000 4.4599
# 5 -8.0953 1.1635 -5.9699 0.0000 17.5399 0.0000
# 6 0.0000 0.0000 0.0000 4.4599 0.0000 39.9441
#
#
#
# Elastic Compliance Matrix: (Units=1/GPa)
#
#
# Indices 1 2 3 4 5 6 
#
# 1 0.010863 -0.003449 0.002711 0.000000 0.006165 0.000000
# 2 -0.003449 0.007380 -0.003977 0.000000 -0.003435 0.000000
# 3 0.002711 -0.003977 0.015815 0.000000 0.006898 0.000000
# 4 0.000000 0.000000 0.000000 0.026475 0.000000 -0.002956
# 5 0.006165 -0.003435 0.006898 0.000000 0.062434 0.000000
# 6 0.000000 0.000000 0.000000 -0.002956 0.000000 0.025365
#
#
# Mechanical properties :
#
#
# Convention : Reuss Voigt Hill
#
# Bulk Modulus (GPa) = 40.60448 58.07715 49.34081
# Shear Modulus (GPa) = 30.12557 38.26057 34.19307
#
# Velocity S-wave (km/s) = 3.39319 3.82398 3.61501
# Velocity P-wave (km/s) = 5.55610 6.45706 6.02345
#
# Compressibility (1/GPa) = 0.02462783
#
# Stress axis : x y z
#
# Youngs Moduli (GPa) = 92.05560 135.50050 63.22932
#
# Poissons Ratio (x) = 0.46737 -0.17141
# Poissons Ratio (y) = 0.31752 0.25147
# Poissons Ratio (z) = -0.24956 0.53890
#
# Static dielectric constant tensor:
#      x y z
#    x 2.083180 0.000000 -0.009490 
#    y 0.000000 2.026140 0.000000 
#    z -0.009490 0.000000 2.100720 
# 
# From -- ./inp_files/35136.got.cif
#   From: 2010.05.17/outbox.cif.g08.bks.cpg/sg9_18_cif.got.tgz:35136.got - 2010.06.03 20:04:27.
