data_PCOD9139016
_publ_section_title
;
Structure prediction by ZEFSAII (Michael W. Deem and Ramdas Pophale) SiO2 
 PCOD9139016
Probable space group: C C
;
_chemical_formula_sum "Si O2"
_cell_formula_units_Z 32
_cell_length_a 8.120053
_cell_length_b 21.485671
_cell_length_c 9.742356
_cell_angle_alpha 90.000000
_cell_angle_beta 115.736761
_cell_angle_gamma 90.000000
_cell_volume 1531.085639
_symmetry_space_group_name_H-M "C C"
_symmetry_group_IT_number 9
_symmetry_cell_setting 'monoclinic'
loop_
_space_group_symop_operation_xyz
x,y,z
x,-y,1/2+z
1/2+x,1/2+y,z
1/2+x,1/2-y,1/2+z
loop_
_atom_site_type_symbol
_atom_site_label
_atom_site_fract_x
_atom_site_fract_y
_atom_site_fract_z
Si Si1 0.401960 0.864689 0.177120
Si Si2 0.997213 0.592606 0.258537
Si Si3 0.729642 0.487952 0.080291
Si Si4 0.507360 0.166387 0.000339
Si Si5 0.837952 0.103545 0.219099
Si Si6 0.009924 0.810026 0.010298
Si Si7 0.715881 0.867220 0.102523
Si Si8 0.487950 0.476224 0.235181
O O1 0.359115 0.930404 0.087166
O O2 0.429761 0.874827 0.349484
O O3 0.589687 0.839879 0.177847
O O4 0.226175 0.820342 0.105054
O O5 0.847171 0.539359 0.203434
O O6 0.182641 0.567816 0.252793
O O7 0.072177 0.619783 0.426733
O O8 0.938279 0.645140 0.125934
O O9 0.592234 0.455005 0.136639
O O10 0.618694 0.518441 0.915039
O O11 0.722688 0.150139 0.084102
O O12 0.472305 0.238287 0.962215
O O13 0.952334 0.144448 0.365731
O O14 0.939865 0.047969 0.183534
O O15 0.880609 0.827215 0.093840
O O16 0.816774 0.930345 0.189449
#
# Coordination Sequence:
#
# PCOD9139016 Si02
#       8
#     4   4   4   4   4   4   4   4
#     4  12  24  42  69 102 128 175 222 274 328 391
#     4   9  22  41  62  96 127 179 208 271 330 385
#     4  12  23  39  66  99 134 170 219 270 334 397
#     4  10  24  43  73  92 133 180 221 269 329 389
#     4   9  21  40  63  92 126 174 212 264 328 375
#     4  11  22  50  67  94 137 178 221 268 328 392
#     4  11  25  42  67  98 135 173 215 275 333 388
#     4  12  23  39  63  99 138 169 214 277 330 395
#
# _framework density 20.900203999999999
#
# number of rings (size 3 to 8) (size 9 to 14) (size 15 to 20)
#    0.750    0.500    2.500    3.750    3.500    0.000 
#    2.250    1.250    0.000    0.000    0.000    0.000 
#    0.000    0.000    0.000    0.000    0.000    0.000 
#
# Total GULP energy -89177.264011 kJ/mol
# GULP energy per Si atom -5573.579001 kJ/mol
# Density = 2.085263 g / cm^3
# Si number density = 20.900204 Si / 1000 Ang^3
#
#
#
# Elastic Constant Matrix: (Units=GPa)
#
#
# Indices 1 2 3 4 5 6 
#
# 1 90.2047 19.2127 14.4311 0.0000 6.2976 0.0000
# 2 19.2127 75.4578 13.0578 0.0000 8.7895 0.0000
# 3 14.4311 13.0578 100.4702 0.0000 2.4091 0.0000
# 4 0.0000 0.0000 0.0000 22.8022 0.0000 -0.0212
# 5 6.2976 8.7895 2.4091 0.0000 22.0243 0.0000
# 6 0.0000 0.0000 0.0000 -0.0212 0.0000 16.1804
#
#
#
# Elastic Compliance Matrix: (Units=1/GPa)
#
#
# Indices 1 2 3 4 5 6 
#
# 1 0.012003 -0.002561 -0.001337 0.000000 -0.002264 0.000000
# 2 -0.002561 0.014733 -0.001427 0.000000 -0.004991 0.000000
# 3 -0.001337 -0.001427 0.010335 0.000000 -0.000179 0.000000
# 4 0.000000 0.000000 0.000000 0.043855 0.000000 0.000057
# 5 -0.002264 -0.004991 -0.000179 0.000000 0.048063 0.000000
# 6 0.000000 0.000000 0.000000 0.000057 0.000000 0.061803
#
#
# Mechanical properties :
#
#
# Convention : Reuss Voigt Hill
#
# Bulk Modulus (GPa) = 37.84934 39.94842 38.89888
# Shear Modulus (GPa) = 23.78116 26.83013 25.30564
#
# Velocity S-wave (km/s) = 3.37685 3.58680 3.48341
# Velocity P-wave (km/s) = 5.77521 6.02569 5.90178
#
# Compressibility (1/GPa) = 0.02642054
#
# Stress axis : x y z
#
# Youngs Moduli (GPa) = 83.31014 67.87522 96.75850
#
# Poissons Ratio (x) = 0.17384 0.12936
# Poissons Ratio (y) = 0.21337 0.13810
# Poissons Ratio (z) = 0.11138 0.09687
#
# Static dielectric constant tensor:
#      x y z
#    x 1.774640 0.000000 0.023320 
#    y 0.000000 1.702830 0.000000 
#    z 0.023320 0.000000 1.785970 
# 
# From -- ./inp_files/15574.got.cif
#   From: 2010.05.17/outbox.cif.g08.bks.cpg/sg9_8_cif.got.tgz:15574.got - 2010.06.03 20:04:27.
