data_PCOD9139989
_publ_section_title
;
Structure prediction by ZEFSAII (Michael W. Deem and Ramdas Pophale) SiO2 
 PCOD9139989
Probable space group: C C
;
_chemical_formula_sum "Si O2"
_cell_formula_units_Z 32
_cell_length_a 18.200505
_cell_length_b 9.409167
_cell_length_c 14.953053
_cell_angle_alpha 90.000000
_cell_angle_beta 31.023420
_cell_angle_gamma 90.000000
_cell_volume 1319.772670
_symmetry_space_group_name_H-M "C C"
_symmetry_group_IT_number 9
_symmetry_cell_setting 'monoclinic'
loop_
_space_group_symop_operation_xyz
x,y,z
x,-y,1/2+z
1/2+x,1/2+y,z
1/2+x,1/2-y,1/2+z
loop_
_atom_site_type_symbol
_atom_site_label
_atom_site_fract_x
_atom_site_fract_y
_atom_site_fract_z
Si Si1 0.913010 0.811454 0.511750
Si Si2 0.880317 0.695575 0.888761
Si Si3 0.674713 0.694010 0.860858
Si Si4 0.338525 0.645956 0.614514
Si Si5 0.047481 0.299692 0.517960
Si Si6 0.119160 0.543824 0.554706
Si Si7 0.389829 0.640563 0.844429
Si Si8 0.092036 0.919945 0.608070
O O1 0.831369 0.702331 0.660983
O O2 0.868048 0.772418 0.457384
O O3 0.072622 0.796935 0.381807
O O4 0.857973 0.974799 0.587738
O O5 0.015291 0.587088 0.745900
O O6 0.956971 0.812453 0.746141
O O7 0.825714 0.783692 0.030607
O O8 0.739247 0.624035 0.998724
O O9 0.667160 0.821404 0.943614
O O10 0.630116 0.556052 0.964716
O O11 0.474590 0.729497 0.509324
O O12 0.211757 0.688315 0.814543
O O13 0.025619 0.456764 0.580656
O O14 0.972196 0.214329 0.677446
O O15 0.249689 0.445291 0.455995
O O16 0.519533 0.539867 0.742129
#
# Coordination Sequence:
#
# PCOD9139989 Si02
#       8
#     4   4   4   4   4   4   4   4
#     4  12  27  48  74 110 149 187 251 312 373 433
#     4  11  24  42  76 108 139 194 252 304 361 446
#     4  11  23  46  74 107 141 197 242 306 363 449
#     4  12  26  48  74 110 145 193 249 310 362 447
#     4  12  26  48  73 103 152 195 241 305 383 433
#     4  11  25  48  75 105 149 200 248 297 382 451
#     4  12  27  48  73 106 156 198 241 314 379 443
#     4  11  22  44  73 105 145 192 250 294 373 452
#
# _framework density 24.246600000000001
#
# number of rings (size 3 to 8) (size 9 to 14) (size 15 to 20)
#    0.000    0.500    3.750    5.250    5.250    0.000 
#    2.250    0.000    0.000    0.000    0.000    0.000 
#    0.000    0.000    0.000    0.000    0.000    0.000 
#
# Total GULP energy -89085.217457 kJ/mol
# GULP energy per Si atom -5567.826091 kJ/mol
# Density = 2.419141 g / cm^3
# Si number density = 24.246600 Si / 1000 Ang^3
#
#
#
# Elastic Constant Matrix: (Units=GPa)
#
#
# Indices 1 2 3 4 5 6 
#
# 1 81.0267 -2.5637 23.7230 0.0000 1.8430 0.0000
# 2 -2.5637 26.2126 29.1825 0.0000 -4.0275 0.0000
# 3 23.7230 29.1825 114.3836 0.0000 -0.1457 0.0000
# 4 0.0000 0.0000 0.0000 17.3518 0.0000 0.5754
# 5 1.8430 -4.0275 -0.1457 0.0000 36.7067 0.0000
# 6 0.0000 0.0000 0.0000 0.5754 0.0000 32.2494
#
#
#
# Elastic Compliance Matrix: (Units=1/GPa)
#
#
# Indices 1 2 3 4 5 6 
#
# 1 0.013860 0.006360 -0.004497 0.000000 -0.000016 0.000000
# 2 0.006360 0.057463 -0.015972 0.000000 0.005922 0.000000
# 3 -0.004497 -0.015972 0.013748 0.000000 -0.001472 0.000000
# 4 0.000000 0.000000 0.000000 0.057665 0.000000 -0.001029
# 5 -0.000016 0.005922 -0.001472 0.000000 0.027888 0.000000
# 6 0.000000 0.000000 0.000000 -0.001029 0.000000 0.031027
#
#
# Mechanical properties :
#
#
# Convention : Reuss Voigt Hill
#
# Bulk Modulus (GPa) = 17.58940 35.81182 26.70061
# Shear Modulus (GPa) = 20.09487 28.68031 24.38759
#
# Velocity S-wave (km/s) = 2.88196 3.44300 3.17490
# Velocity P-wave (km/s) = 4.28304 5.53241 4.94732
#
# Compressibility (1/GPa) = 0.05685241
#
# Stress axis : x y z
#
# Youngs Moduli (GPa) = 72.15088 17.40254 72.73687
#
# Poissons Ratio (x) = -0.11067 0.32710
# Poissons Ratio (y) = -0.45885 1.16174
# Poissons Ratio (z) = 0.32447 0.27795
#
# Static dielectric constant tensor:
#      x y z
#    x 1.951690 0.000000 0.022510 
#    y 0.000000 2.111810 0.000000 
#    z 0.022510 0.000000 1.911460 
# 
# From -- ./inp_files/26840.got.cif
#   From: 2010.05.17/outbox.cif.g08.bks.cpg/sg9_14_cif.got.tgz:26840.got - 2010.06.03 20:04:27.
