data_PCOD9139047
_publ_section_title
;
Structure prediction by ZEFSAII (Michael W. Deem and Ramdas Pophale) SiO2 
 PCOD9139047
Probable space group: C C
;
_chemical_formula_sum "Si O2"
_cell_formula_units_Z 32
_cell_length_a 19.643675
_cell_length_b 16.322893
_cell_length_c 8.826448
_cell_angle_alpha 90.000000
_cell_angle_beta 29.396487
_cell_angle_gamma 90.000000
_cell_volume 1389.168520
_symmetry_space_group_name_H-M "C C"
_symmetry_group_IT_number 9
_symmetry_cell_setting 'monoclinic'
loop_
_space_group_symop_operation_xyz
x,y,z
x,-y,1/2+z
1/2+x,1/2+y,z
1/2+x,1/2-y,1/2+z
loop_
_atom_site_type_symbol
_atom_site_label
_atom_site_fract_x
_atom_site_fract_y
_atom_site_fract_z
Si Si1 0.667220 0.174406 0.339970
Si Si2 0.062280 0.034880 0.157625
Si Si3 0.782176 0.665040 0.724945
Si Si4 0.851760 0.278001 0.410853
Si Si5 0.316590 0.083538 0.197806
Si Si6 0.970461 0.551777 0.213042
Si Si7 0.867501 0.951540 0.289031
Si Si8 0.225702 0.610634 0.552780
O O1 0.770970 0.251149 0.156462
O O2 0.516880 0.205631 0.577805
O O3 0.650974 0.145866 0.547769
O O4 0.746603 0.107870 0.083025
O O5 0.973348 0.081160 0.458271
O O6 0.162181 0.105042 0.898250
O O7 0.962290 0.987888 0.238371
O O8 0.172904 0.965802 0.995145
O O9 0.773074 0.680126 0.921470
O O10 0.925488 0.618437 0.422551
O O11 0.802639 0.325380 0.657394
O O12 0.812034 0.182723 0.466407
O O13 0.391822 0.075162 0.211409
O O14 0.412615 0.033684 0.888939
O O15 0.128471 0.566199 0.864482
O O16 0.811260 0.034833 0.323235
#
# Coordination Sequence:
#
# PCOD9139047 Si02
#       8
#     4   4   4   4   4   4   4   4
#     4  11  24  46  68  98 139 175 232 284 342 407
#     4  11  23  41  69 100 138 172 237 272 345 403
#     4  10  24  44  67 101 136 177 224 290 336 415
#     4  11  23  45  69  96 137 182 222 290 347 398
#     4  11  22  42  72 101 136 181 223 287 335 415
#     4  11  23  43  69 102 135 177 227 277 347 408
#     4  12  24  43  69  99 133 188 220 288 336 408
#     4  11  25  44  67 101 138 174 233 284 338 416
#
# _framework density 23.035361000000002
#
# number of rings (size 3 to 8) (size 9 to 14) (size 15 to 20)
#    0.000    1.000    2.500    5.250    0.000    4.000 
#    4.500    0.000    0.000    0.000    0.000    0.000 
#    0.000    0.000    0.000    0.000    0.000    0.000 
#
# Total GULP energy -89382.052751 kJ/mol
# GULP energy per Si atom -5586.378297 kJ/mol
# Density = 2.298293 g / cm^3
# Si number density = 23.035361 Si / 1000 Ang^3
#
#
#
# Elastic Constant Matrix: (Units=GPa)
#
#
# Indices 1 2 3 4 5 6 
#
# 1 73.3564 11.6909 1.9629 0.0000 -7.6566 0.0000
# 2 11.6909 67.0922 3.9821 0.0001 -5.1199 0.0000
# 3 1.9629 3.9821 88.2242 0.0000 0.8289 0.0000
# 4 0.0000 0.0001 0.0000 9.9406 0.0000 -3.0647
# 5 -7.6566 -5.1199 0.8289 0.0000 35.2174 0.0000
# 6 0.0000 0.0000 0.0000 -3.0647 0.0000 33.4839
#
#
#
# Elastic Compliance Matrix: (Units=1/GPa)
#
#
# Indices 1 2 3 4 5 6 
#
# 1 0.014290 -0.002263 -0.000242 0.000000 0.002783 0.000000
# 2 -0.002263 0.015474 -0.000665 0.000000 0.001773 0.000000
# 3 -0.000242 -0.000665 0.011374 0.000000 -0.000417 0.000000
# 4 0.000000 0.000000 0.000000 0.103518 0.000000 0.009475
# 5 0.002783 0.001773 -0.000417 0.000000 0.029268 0.000000
# 6 0.000000 0.000000 0.000000 0.009475 0.000000 0.030732
#
#
# Mechanical properties :
#
#
# Convention : Reuss Voigt Hill
#
# Bulk Modulus (GPa) = 28.73731 29.32719 29.03225
# Shear Modulus (GPa) = 22.46229 29.79751 26.12990
#
# Velocity S-wave (km/s) = 3.12608 3.60050 3.37165
# Velocity P-wave (km/s) = 5.05294 5.48123 5.27144
#
# Compressibility (1/GPa) = 0.03479797
#
# Stress axis : x y z
#
# Youngs Moduli (GPa) = 69.98015 64.62454 87.91931
#
# Poissons Ratio (x) = 0.14626 0.02127
# Poissons Ratio (y) = 0.15838 0.05844
# Poissons Ratio (z) = 0.01693 0.04296
#
# Static dielectric constant tensor:
#      x y z
#    x 1.886940 0.000000 -0.024060 
#    y 0.000000 1.906680 0.000000 
#    z -0.024060 0.000000 1.883290 
# 
# From -- ./inp_files/11831.got.cif
#   From: 2010.05.17/outbox.cif.g08.bks.cpg/sg9_6_cif.got.tgz:11831.got - 2010.06.03 20:04:27.
