data_PCOD9139108
_publ_section_title
;
Structure prediction by ZEFSAII (Michael W. Deem and Ramdas Pophale) SiO2 
 PCOD9139108
Probable space group: C C
;
_chemical_formula_sum "Si O2"
_cell_formula_units_Z 32
_cell_length_a 28.346755
_cell_length_b 5.020157
_cell_length_c 9.188370
_cell_angle_alpha 90.000000
_cell_angle_beta 116.564309
_cell_angle_gamma 90.000000
_cell_volume 1169.518055
_symmetry_space_group_name_H-M "C C"
_symmetry_group_IT_number 9
_symmetry_cell_setting 'monoclinic'
loop_
_space_group_symop_operation_xyz
x,y,z
x,-y,1/2+z
1/2+x,1/2+y,z
1/2+x,1/2-y,1/2+z
loop_
_atom_site_type_symbol
_atom_site_label
_atom_site_fract_x
_atom_site_fract_y
_atom_site_fract_z
Si Si1 0.850030 0.705048 0.630770
Si Si2 0.939710 0.990752 0.933413
Si Si3 0.715985 0.838805 0.650817
Si Si4 0.620799 0.842956 0.090708
Si Si5 0.127357 0.014048 0.363456
Si Si6 0.439944 0.859164 0.689843
Si Si7 0.780994 0.205106 0.516329
Si Si8 0.032429 0.696804 0.897216
O O1 0.888600 0.829975 0.805045
O O2 0.890235 0.541780 0.584106
O O3 0.808625 0.472485 0.615719
O O4 0.820959 0.964358 0.528228
O O5 0.994167 0.875995 0.941739
O O6 0.935414 0.278337 0.853723
O O7 0.941694 0.915421 0.104364
O O8 0.681326 0.640754 0.502674
O O9 0.672801 0.991302 0.689498
O O10 0.746274 0.053241 0.591221
O O11 0.752643 0.713858 0.826405
O O12 0.624278 0.577164 0.190253
O O13 0.623965 0.779849 0.922859
O O14 0.567467 0.998877 0.042902
O O15 0.075146 0.146789 0.361300
O O16 0.493388 0.020306 0.745725
#
# Coordination Sequence:
#
# PCOD9139108 Si02
#       8
#     4   4   4   4   4   4   4   4
#     4  11  28  47  74 110 147 197 250 306 368 435
#     4  11  25  47  74 110 148 196 246 313 371 454
#     4  11  28  45  72 106 145 193 250 303 371 440
#     4  11  25  45  70 105 145 190 247 307 372 449
#     4  11  25  45  70 105 143 193 244 310 369 451
#     4  11  25  47  74 110 150 193 249 310 374 452
#     4  12  28  48  76 108 152 200 250 307 371 439
#     4  10  24  44  72 104 146 192 246 304 378 444
#
# _framework density 27.361701
#
# number of rings (size 3 to 8) (size 9 to 14) (size 15 to 20)
#    0.000    1.000    2.500    1.500    8.750    9.000 
#    0.000    0.000    0.000    0.000    0.000    0.000 
#    0.000    0.000    0.000    0.000    0.000    0.000 
#
# Total GULP energy -89694.563732 kJ/mol
# GULP energy per Si atom -5605.910233 kJ/mol
# Density = 2.729942 g / cm^3
# Si number density = 27.361701 Si / 1000 Ang^3
#
#
#
# Elastic Constant Matrix: (Units=GPa)
#
#
# Indices 1 2 3 4 5 6 
#
# 1 125.7018 27.8648 50.3115 0.0000 19.7043 0.0000
# 2 27.8648 95.5669 6.8322 0.0000 15.5814 0.0000
# 3 50.3115 6.8322 92.2254 0.0000 -1.6274 0.0000
# 4 0.0000 0.0000 0.0000 34.7066 0.0000 3.4653
# 5 19.7043 15.5814 -1.6274 0.0000 41.4213 0.0000
# 6 0.0000 0.0000 0.0000 3.4653 0.0000 40.8544
#
#
#
# Elastic Compliance Matrix: (Units=1/GPa)
#
#
# Indices 1 2 3 4 5 6 
#
# 1 0.011762 -0.002155 -0.006346 0.000000 -0.005034 0.000000
# 2 -0.002155 0.011618 0.000256 0.000000 -0.003335 0.000000
# 3 -0.006346 0.000256 0.014347 0.000000 0.003486 0.000000
# 4 0.000000 0.000000 0.000000 0.029059 0.000000 -0.002465
# 5 -0.005034 -0.003335 0.003486 0.000000 0.027928 0.000000
# 6 0.000000 0.000000 0.000000 -0.002465 0.000000 0.024686
#
#
# Mechanical properties :
#
#
# Convention : Reuss Voigt Hill
#
# Bulk Modulus (GPa) = 47.08600 53.72344 50.40472
# Shear Modulus (GPa) = 34.97268 38.62885 36.80077
#
# Velocity S-wave (km/s) = 3.57902 3.76145 3.67137
# Velocity P-wave (km/s) = 5.85877 6.20821 6.03602
#
# Compressibility (1/GPa) = 0.02123774
#
# Stress axis : x y z
#
# Youngs Moduli (GPa) = 85.01991 86.07577 69.69972
#
# Poissons Ratio (x) = 0.18550 0.44229
# Poissons Ratio (y) = 0.18323 -0.01785
# Poissons Ratio (z) = 0.53951 -0.02205
#
# Static dielectric constant tensor:
#      x y z
#    x 2.120380 0.000000 -0.001350 
#    y 0.000000 2.077970 0.000000 
#    z -0.001350 0.000000 2.084370 
# 
# From -- ./inp_files/12649.got.cif
#   From: 2010.05.17/outbox.cif.g08.bks.cpg/sg9_7_cif.got.tgz:12649.got - 2010.06.03 20:04:27.
