data_PCOD9139603
_publ_section_title
;
Structure prediction by ZEFSAII (Michael W. Deem and Ramdas Pophale) SiO2 
 PCOD9139603
Probable space group: C C
;
_chemical_formula_sum "Si O2"
_cell_formula_units_Z 28
_cell_length_a 4.641469
_cell_length_b 19.525698
_cell_length_c 11.622190
_cell_angle_alpha 90.000000
_cell_angle_beta 90.000082
_cell_angle_gamma 90.000000
_cell_volume 1053.294928
_symmetry_space_group_name_H-M "C C"
_symmetry_group_IT_number 9
_symmetry_cell_setting 'monoclinic'
loop_
_space_group_symop_operation_xyz
x,y,z
x,-y,1/2+z
1/2+x,1/2+y,z
1/2+x,1/2-y,1/2+z
loop_
_atom_site_type_symbol
_atom_site_label
_atom_site_fract_x
_atom_site_fract_y
_atom_site_fract_z
Si Si1 0.727290 0.389353 0.353360
Si Si2 0.236366 0.588616 0.693561
Si Si3 0.436829 0.889353 0.853360
Si Si4 0.427754 0.588616 0.193561
Si Si5 0.811879 0.797528 0.017980
Si Si6 0.332060 1.000000 0.535908
Si Si7 0.352240 0.702472 0.017980
O O1 0.481282 0.430795 0.284990
O O2 0.878536 0.436643 0.449320
O O3 0.542729 0.329729 0.414310
O O4 0.980310 0.373682 0.264171
O O5 0.384755 0.641154 0.604463
O O6 0.075473 0.531358 0.617943
O O7 0.682837 0.930795 0.784991
O O8 0.183810 0.873682 0.764172
O O9 0.285583 0.936643 0.949320
O O10 0.121390 0.670271 0.414310
O O11 0.588648 0.531358 0.117943
O O12 0.279364 0.641154 0.104462
O O13 0.082060 0.750000 0.985930
O O14 0.582060 0.750000 0.082301
#
# Coordination Sequence:
#
# PCOD9139603 Si02
#       7
#     4   4   4   4   4   4   4
#     4  11  25  45  72 108 146 192 242 294 368 434
#     4  11  25  45  72 108 146 192 242 294 368 434
#     4  11  25  45  72 108 146 192 242 294 368 434
#     4  11  25  45  72 108 146 192 242 294 368 434
#     4  11  24  45  72 104 144 188 244 304 353 427
#     4  10  26  46  72 108 150 188 238 304 360 440
#     4  11  24  45  72 104 144 188 244 304 353 427
#
# _framework density 26.583248000000001
#
# number of rings (size 3 to 8) (size 9 to 14) (size 15 to 20)
#    0.000    1.143    0.000    4.286    0.000   18.286 
#    0.000    0.000    0.000    0.000    0.000    0.000 
#    0.000    0.000    0.000    0.000    0.000    0.000 
#
# Total GULP energy -78366.065194 kJ/mol
# GULP energy per Si atom -5597.576085 kJ/mol
# Density = 2.652274 g / cm^3
# Si number density = 26.583248 Si / 1000 Ang^3
#
#
#
# Elastic Constant Matrix: (Units=GPa)
#
#
# Indices 1 2 3 4 5 6 
#
# 1 144.6565 62.2068 75.9579 0.0000 0.0003 0.0000
# 2 62.2068 139.9946 76.5183 0.0000 0.0005 0.0000
# 3 75.9579 76.5183 143.4682 0.0000 0.0004 0.0000
# 4 0.0000 0.0000 0.0000 48.0241 0.0000 -0.0001
# 5 0.0003 0.0005 0.0004 0.0000 32.8904 0.0000
# 6 0.0000 0.0000 0.0000 -0.0001 0.0000 58.0786
#
#
#
# Elastic Compliance Matrix: (Units=1/GPa)
#
#
# Indices 1 2 3 4 5 6 
#
# 1 0.010031 -0.002194 -0.004140 0.000000 0.000000 0.000000
# 2 -0.002194 0.010562 -0.004472 0.000000 0.000000 0.000000
# 3 -0.004140 -0.004472 0.011547 0.000000 0.000000 0.000000
# 4 0.000000 0.000000 0.000000 0.020823 0.000000 0.000000
# 5 0.000000 0.000000 0.000000 0.000000 0.030404 0.000000
# 6 0.000000 0.000000 0.000000 0.000000 0.000000 0.017218
#
#
# Mechanical properties :
#
#
# Convention : Reuss Voigt Hill
#
# Bulk Modulus (GPa) = 94.98733 95.27616 95.13175
# Shear Modulus (GPa) = 39.77523 42.02770 40.90147
#
# Velocity S-wave (km/s) = 3.87234 3.98047 3.92678
# Velocity P-wave (km/s) = 7.47014 7.55275 7.51156
#
# Compressibility (1/GPa) = 0.01052772
#
# Stress axis : x y z
#
# Youngs Moduli (GPa) = 99.69586 94.67731 86.60073
#
# Poissons Ratio (x) = 0.20772 0.35856
# Poissons Ratio (y) = 0.21873 0.38725
# Poissons Ratio (z) = 0.41278 0.42337
#
# Static dielectric constant tensor:
#      x y z
#    x 2.017040 0.000000 0.000000 
#    y 0.000000 2.231140 0.000000 
#    z 0.000000 0.000000 2.036060 
# 
# From -- ./inp_files/13321.got.cif
#   From: 2010.05.17/outbox.cif.g08.bks.cpg/sg9_7_cif.got.tgz:13321.got - 2010.06.03 20:04:27.
