data_PCOD9139053
_publ_section_title
;
Structure prediction by ZEFSAII (Michael W. Deem and Ramdas Pophale) SiO2 
 PCOD9139053
Probable space group: C C
;
_chemical_formula_sum "Si O2"
_cell_formula_units_Z 32
_cell_length_a 11.858700
_cell_length_b 8.893780
_cell_length_c 13.423654
_cell_angle_alpha 90.000000
_cell_angle_beta 91.374494
_cell_angle_gamma 90.000000
_cell_volume 1415.367554
_symmetry_space_group_name_H-M "C C"
_symmetry_group_IT_number 9
_symmetry_cell_setting 'monoclinic'
loop_
_space_group_symop_operation_xyz
x,y,z
x,-y,1/2+z
1/2+x,1/2+y,z
1/2+x,1/2-y,1/2+z
loop_
_atom_site_type_symbol
_atom_site_label
_atom_site_fract_x
_atom_site_fract_y
_atom_site_fract_z
Si Si1 0.638670 0.375171 0.665180
Si Si2 0.544847 0.037651 0.404449
Si Si3 0.716547 0.924940 0.265148
Si Si4 0.937168 0.785140 0.869796
Si Si5 0.879453 0.866242 0.651809
Si Si6 0.715877 0.225518 0.483992
Si Si7 0.143350 0.995873 0.361994
Si Si8 0.824168 0.270584 0.938338
O O1 0.645504 0.216726 0.724233
O O2 0.510401 0.407855 0.630487
O O3 0.720842 0.336875 0.577330
O O4 0.675874 0.496363 0.746376
O O5 0.630572 0.086228 0.494808
O O6 0.439184 0.148228 0.406922
O O7 0.625542 0.039057 0.309002
O O8 0.498344 0.867409 0.406282
O O9 0.789478 0.858803 0.358971
O O10 0.799318 0.996720 0.185301
O O11 0.889764 0.771192 0.755577
O O12 0.835699 0.815973 0.943130
O O13 0.022308 0.925292 0.868897
O O14 0.834295 0.786910 0.551599
O O15 0.652497 0.330478 0.402568
O O16 0.228478 0.102711 0.423898
#
# Coordination Sequence:
#
# PCOD9139053 Si02
#       8
#     4   4   4   4   4   4   4   4
#     4  10  24  44  67  99 139 177 226 282 333 409
#     4  12  23  43  71  98 134 184 223 284 341 400
#     4  11  25  45  68 101 140 182 223 283 341 405
#     4  11  24  46  68  98 140 180 221 284 339 400
#     4  11  23  40  72  98 136 179 223 278 341 401
#     4  12  25  42  74 102 131 183 230 274 345 404
#     4  10  24  47  66  96 146 173 218 290 334 395
#     4  11  24  43  70 102 136 180 228 279 340 406
#
# _framework density 22.608967
#
# number of rings (size 3 to 8) (size 9 to 14) (size 15 to 20)
#    0.000    1.000    7.500    0.000    5.250    2.000 
#    0.000    5.000    0.000    0.000    0.000    0.000 
#    0.000    0.000    0.000    0.000    0.000    0.000 
#
# Total GULP energy -89398.399200 kJ/mol
# GULP energy per Si atom -5587.399950 kJ/mol
# Density = 2.255751 g / cm^3
# Si number density = 22.608967 Si / 1000 Ang^3
#
#
#
# Elastic Constant Matrix: (Units=GPa)
#
#
# Indices 1 2 3 4 5 6 
#
# 1 119.3380 25.5368 16.9993 0.0000 -7.7941 0.0000
# 2 25.5368 62.4893 -2.9091 0.0000 -2.4690 0.0000
# 3 16.9993 -2.9091 65.7981 0.0000 0.1367 0.0000
# 4 0.0000 0.0000 0.0000 25.7320 0.0000 0.2262
# 5 -7.7941 -2.4690 0.1367 0.0000 34.6349 0.0000
# 6 0.0000 0.0000 0.0000 0.2262 0.0000 34.9613
#
#
#
# Elastic Compliance Matrix: (Units=1/GPa)
#
#
# Indices 1 2 3 4 5 6 
#
# 1 0.009753 -0.004036 -0.002702 0.000000 0.001918 0.000000
# 2 -0.004036 0.017751 0.001827 0.000000 0.000350 0.000000
# 3 -0.002702 0.001827 0.015978 0.000000 -0.000541 0.000000
# 4 0.000000 0.000000 0.000000 0.038864 0.000000 -0.000251
# 5 0.001918 0.000350 -0.000541 0.000000 0.029331 0.000000
# 6 0.000000 0.000000 0.000000 -0.000251 0.000000 0.028605
#
#
# Mechanical properties :
#
#
# Convention : Reuss Voigt Hill
#
# Bulk Modulus (GPa) = 29.70918 36.31995 33.01457
# Shear Modulus (GPa) = 30.99334 32.93221 31.96277
#
# Velocity S-wave (km/s) = 3.70651 3.82068 3.76403
# Velocity P-wave (km/s) = 5.61129 5.96345 5.79005
#
# Compressibility (1/GPa) = 0.03365963
#
# Stress axis : x y z
#
# Youngs Moduli (GPa) = 102.52884 56.33525 62.58588
#
# Poissons Ratio (x) = 0.22736 0.16912
# Poissons Ratio (y) = 0.41379 -0.11433
# Poissons Ratio (z) = 0.27706 -0.10291
#
# Static dielectric constant tensor:
#      x y z
#    x 1.851390 0.000000 -0.000960 
#    y 0.000000 1.836420 0.000000 
#    z -0.000960 0.000000 1.906390 
# 
# From -- ./inp_files/24235.got.cif
#   From: 2010.05.17/outbox.cif.g08.bks.cpg/sg9_13_cif.got.tgz:24235.got - 2010.06.03 20:04:27.
