data_PCOD9139925
_publ_section_title
;
Structure prediction by ZEFSAII (Michael W. Deem and Ramdas Pophale) SiO2 
 PCOD9139925
Probable space group: C C
;
_chemical_formula_sum "Si O2"
_cell_formula_units_Z 28
_cell_length_a 6.426567
_cell_length_b 17.249955
_cell_length_c 10.929199
_cell_angle_alpha 90.000000
_cell_angle_beta 99.686126
_cell_angle_gamma 90.000000
_cell_volume 1194.316927
_symmetry_space_group_name_H-M "C C"
_symmetry_group_IT_number 9
_symmetry_cell_setting 'monoclinic'
loop_
_space_group_symop_operation_xyz
x,y,z
x,-y,1/2+z
1/2+x,1/2+y,z
1/2+x,1/2-y,1/2+z
loop_
_atom_site_type_symbol
_atom_site_label
_atom_site_fract_x
_atom_site_fract_y
_atom_site_fract_z
Si Si1 0.409140 0.112472 0.961540
Si Si2 0.090543 0.512731 0.772281
Si Si3 0.336510 0.341975 0.614937
Si Si4 0.372327 0.615970 0.643002
Si Si5 0.753289 0.852734 0.865727
Si Si6 0.668055 0.520199 0.118080
Si Si7 0.505151 0.281455 0.382985
O O1 0.544962 0.080815 0.862983
O O2 0.238257 0.178731 0.917687
O O3 0.588463 0.138719 0.075272
O O4 0.269412 0.040382 0.997086
O O5 0.189536 0.554564 0.663257
O O6 0.239530 0.445065 0.839616
O O7 0.868438 0.472116 0.725067
O O8 0.369494 0.316499 0.758623
O O9 0.482812 0.417693 0.614955
O O10 0.398588 0.289486 0.505485
O O11 0.336252 0.657710 0.511056
O O12 0.577516 0.563766 0.638043
O O13 0.398981 0.672031 0.761228
O O14 0.532342 0.807428 0.849304
#
# Coordination Sequence:
#
# PCOD9139925 Si02
#       7
#     4   4   4   4   4   4   4
#     4  11  23  45  73 100 143 196 246 294 368 439
#     4  12  23  45  75 111 144 188 251 306 363 448
#     4  11  24  48  73 101 148 192 243 309 364 437
#     4  12  26  47  75 109 153 194 254 307 368 446
#     4  12  28  47  72 113 148 193 246 310 371 445
#     4  11  22  41  74 108 138 191 248 306 363 428
#     4  11  28  49  72 102 154 200 242 308 383 435
#
# _framework density 23.444365999999999
#
# number of rings (size 3 to 8) (size 9 to 14) (size 15 to 20)
#    0.000    0.571    5.714    1.714    6.000    1.143 
#    5.143    0.000    0.000    0.000    0.000    0.000 
#    0.000    0.000    0.000    0.000    0.000    0.000 
#
# Total GULP energy -78195.247309 kJ/mol
# GULP energy per Si atom -5585.374808 kJ/mol
# Density = 2.339101 g / cm^3
# Si number density = 23.444366 Si / 1000 Ang^3
#
#
#
# Elastic Constant Matrix: (Units=GPa)
#
#
# Indices 1 2 3 4 5 6 
#
# 1 66.9594 8.7270 41.5962 0.0000 -6.8533 0.0000
# 2 8.7270 57.2464 41.2392 0.0000 -13.7270 0.0000
# 3 41.5962 41.2392 173.7214 0.0000 -33.1031 0.0000
# 4 0.0000 0.0000 0.0000 19.6203 0.0000 -7.6640
# 5 -6.8533 -13.7270 -33.1031 0.0000 44.9266 0.0000
# 6 0.0000 0.0000 0.0000 -7.6640 0.0000 15.8287
#
#
#
# Elastic Compliance Matrix: (Units=1/GPa)
#
#
# Indices 1 2 3 4 5 6 
#
# 1 0.017560 0.000371 -0.004375 0.000000 -0.000431 0.000000
# 2 0.000371 0.021483 -0.004569 0.000000 0.003254 0.000000
# 3 -0.004375 -0.004569 0.008719 0.000000 0.004362 0.000000
# 4 0.000000 0.000000 0.000000 0.062856 0.000000 0.030434
# 5 -0.000431 0.003254 0.004362 0.000000 0.026401 0.000000
# 6 0.000000 0.000000 0.000000 0.030434 0.000000 0.077912
#
#
# Mechanical properties :
#
#
# Convention : Reuss Voigt Hill
#
# Bulk Modulus (GPa) = 32.66070 53.45026 43.05548
# Shear Modulus (GPa) = 20.63718 29.83276 25.23497
#
# Velocity S-wave (km/s) = 2.97014 3.57107 3.28438
# Velocity P-wave (km/s) = 5.07185 6.31282 5.72605
#
# Compressibility (1/GPa) = 0.03061784
#
# Stress axis : x y z
#
# Youngs Moduli (GPa) = 56.94892 46.54791 114.68572
#
# Poissons Ratio (x) = -0.01728 0.50173
# Poissons Ratio (y) = -0.02114 0.52395
# Poissons Ratio (z) = 0.24914 0.21266
#
# Static dielectric constant tensor:
#      x y z
#    x 1.882180 0.000000 0.018940 
#    y 0.000000 1.893130 0.000000 
#    z 0.018940 0.000000 1.951530 
# 
# From -- ./inp_files/13099.got.cif
#   From: 2010.05.17/outbox.cif.g08.bks.cpg/sg9_7_cif.got.tgz:13099.got - 2010.06.03 20:04:27.
