data_PCOD9139361
_publ_section_title
;
Structure prediction by ZEFSAII (Michael W. Deem and Ramdas Pophale) SiO2 
 PCOD9139361
Probable space group: C C
;
_chemical_formula_sum "Si O2"
_cell_formula_units_Z 32
_cell_length_a 19.498035
_cell_length_b 7.446942
_cell_length_c 18.881191
_cell_angle_alpha 90.000000
_cell_angle_beta 151.333728
_cell_angle_gamma 90.000000
_cell_volume 1315.147068
_symmetry_space_group_name_H-M "C C"
_symmetry_group_IT_number 9
_symmetry_cell_setting 'monoclinic'
loop_
_space_group_symop_operation_xyz
x,y,z
x,-y,1/2+z
1/2+x,1/2+y,z
1/2+x,1/2-y,1/2+z
loop_
_atom_site_type_symbol
_atom_site_label
_atom_site_fract_x
_atom_site_fract_y
_atom_site_fract_z
Si Si1 0.194850 0.308092 0.266930
Si Si2 0.324573 0.380723 0.523741
Si Si3 0.212009 0.545358 0.636689
Si Si4 0.697480 0.598992 0.807424
Si Si5 0.051405 0.513204 0.356844
Si Si6 0.776556 0.530770 0.031557
Si Si7 0.513041 0.122273 0.064065
Si Si8 0.488961 0.405803 0.808362
O O1 0.311850 0.388016 0.427492
O O2 0.242269 0.317844 0.228183
O O3 0.054191 0.434735 0.140957
O O4 0.809834 0.328716 0.033324
O O5 0.663153 0.391190 0.762705
O O6 0.182095 0.480485 0.421960
O O7 0.450606 0.442059 0.690223
O O8 0.113606 0.607368 0.482583
O O9 0.115392 0.393722 0.588555
O O10 0.357417 0.472373 0.735545
O O11 0.570963 0.720432 0.665141
O O12 0.738193 0.635314 0.925662
O O13 0.845799 0.635991 0.899684
O O14 0.005915 0.307870 0.334255
O O15 0.914336 0.602706 0.197074
O O16 0.639574 0.501458 0.956825
#
# Coordination Sequence:
#
# PCOD9139361 Si02
#       8
#     4   4   4   4   4   4   4   4
#     4   9  21  40  68  99 131 172 226 278 333 398
#     4   8  15  31  58  92 125 169 221 276 321 393
#     4   9  21  37  61  97 130 180 215 270 336 404
#     4  11  23  45  69 104 135 175 231 287 338 399
#     4   9  16  32  59  92 131 170 222 265 327 403
#     4   9  18  32  63  96 123 173 220 276 332 386
#     4  10  25  41  67 105 136 179 222 277 351 396
#     4   9  17  32  57  95 131 170 227 267 334 399
#
# _framework density 24.331879000000001
#
# number of rings (size 3 to 8) (size 9 to 14) (size 15 to 20)
#    0.750    2.000    0.000    1.500    1.750    5.000 
#    0.000    0.000    0.000   10.500    6.500    0.000 
#    0.000    0.000    0.000    0.000    0.000    0.000 
#
# Total GULP energy -89458.306320 kJ/mol
# GULP energy per Si atom -5591.144145 kJ/mol
# Density = 2.427650 g / cm^3
# Si number density = 24.331879 Si / 1000 Ang^3
#
#
#
# Elastic Constant Matrix: (Units=GPa)
#
#
# Indices 1 2 3 4 5 6 
#
# 1 100.5551 26.0669 36.0666 0.0000 -10.3600 0.0000
# 2 26.0669 86.4506 31.0574 0.0000 -7.6861 0.0000
# 3 36.0666 31.0574 115.5772 0.0000 -8.7973 0.0000
# 4 0.0000 0.0000 0.0000 19.3742 0.0000 -4.2499
# 5 -10.3600 -7.6861 -8.7973 0.0000 47.0097 0.0000
# 6 0.0000 0.0000 0.0000 -4.2499 0.0000 16.6916
#
#
#
# Elastic Compliance Matrix: (Units=1/GPa)
#
#
# Indices 1 2 3 4 5 6 
#
# 1 0.011772 -0.002355 -0.002914 0.000000 0.001664 0.000000
# 2 -0.002355 0.013375 -0.002772 0.000000 0.001149 0.000000
# 3 -0.002914 -0.002772 0.010371 0.000000 0.000845 0.000000
# 4 0.000000 0.000000 0.000000 0.054668 0.000000 0.013919
# 5 0.001664 0.001149 0.000845 0.000000 0.021985 0.000000
# 6 0.000000 0.000000 0.000000 0.013919 0.000000 0.063454
#
#
# Mechanical properties :
#
#
# Convention : Reuss Voigt Hill
#
# Bulk Modulus (GPa) = 51.44929 54.32942 52.88936
# Shear Modulus (GPa) = 25.22884 30.57457 27.90171
#
# Velocity S-wave (km/s) = 3.22353 3.54865 3.38999
# Velocity P-wave (km/s) = 5.91993 6.25840 6.09151
#
# Compressibility (1/GPa) = 0.01943661
#
# Stress axis : x y z
#
# Youngs Moduli (GPa) = 84.94849 74.76485 96.42483
#
# Poissons Ratio (x) = 0.17605 0.28099
# Poissons Ratio (y) = 0.20003 0.26728
# Poissons Ratio (z) = 0.24755 0.20724
#
# Static dielectric constant tensor:
#      x y z
#    x 1.963670 0.000000 0.000770 
#    y 0.000000 1.933700 0.000000 
#    z 0.000770 0.000000 1.935420 
# 
# From -- ./inp_files/31013.got.cif
#   From: 2010.05.17/outbox.cif.g08.bks.cpg/sg9_16_cif.got.tgz:31013.got - 2010.06.03 20:04:27.
