data_PCOD9139859
_publ_section_title
;
Structure prediction by ZEFSAII (Michael W. Deem and Ramdas Pophale) SiO2 
 PCOD9139859
Probable space group: C C
;
_chemical_formula_sum "Si O2"
_cell_formula_units_Z 32
_cell_length_a 19.396801
_cell_length_b 11.943579
_cell_length_c 11.909984
_cell_angle_alpha 90.000000
_cell_angle_beta 153.024303
_cell_angle_gamma 90.000000
_cell_volume 1251.586328
_symmetry_space_group_name_H-M "C C"
_symmetry_group_IT_number 9
_symmetry_cell_setting 'monoclinic'
loop_
_space_group_symop_operation_xyz
x,y,z
x,-y,1/2+z
1/2+x,1/2+y,z
1/2+x,1/2-y,1/2+z
loop_
_atom_site_type_symbol
_atom_site_label
_atom_site_fract_x
_atom_site_fract_y
_atom_site_fract_z
Si Si1 0.632040 0.189296 0.313500
Si Si2 0.048146 0.558734 0.524770
Si Si3 0.882197 0.364959 0.970578
Si Si4 0.101717 0.039035 0.161999
Si Si5 0.654440 0.053903 0.969403
Si Si6 0.967489 0.823610 0.905609
Si Si7 0.384079 0.631577 0.031138
Si Si8 0.480482 0.709252 0.802011
O O1 0.640673 0.066568 0.385809
O O2 0.580362 0.276538 0.335305
O O3 0.802301 0.206470 0.516528
O O4 0.510220 0.213246 0.037583
O O5 0.057717 0.643548 0.760601
O O6 0.063129 0.468979 0.449921
O O7 0.906203 0.549092 0.403633
O O8 0.226674 0.565885 0.822611
O O9 0.770284 0.412085 0.901164
O O10 0.011882 0.319841 0.920210
O O11 0.837776 0.237416 0.885568
O O12 0.009351 0.065525 0.141235
O O13 0.022578 0.103781 0.941465
O O14 0.101977 0.909313 0.132552
O O15 0.818163 0.106548 0.228886
O O16 0.943244 0.822665 0.736381
#
# Coordination Sequence:
#
# PCOD9139859 Si02
#       8
#     4   4   4   4   4   4   4   4
#     4  11  27  45  74 105 146 194 258 305 391 454
#     4  11  22  44  75 100 142 200 248 298 383 458
#     4  12  25  44  72 108 144 191 252 314 380 456
#     4  12  25  43  73 109 142 196 251 313 383 456
#     4  11  26  48  73 110 150 201 257 317 385 458
#     4  12  28  46  75 107 156 201 243 322 384 455
#     4  12  24  48  71 106 147 195 251 300 387 464
#     4  11  21  46  73 101 141 190 248 317 361 463
#
# _framework density 25.567551999999999
#
# number of rings (size 3 to 8) (size 9 to 14) (size 15 to 20)
#    0.000    0.500    6.250    1.500    5.250    4.000 
#    0.000    0.000    0.000    0.000    0.000    0.000 
#    0.000    0.000    0.000    0.000    0.000    0.000 
#
# Total GULP energy -89410.858812 kJ/mol
# GULP energy per Si atom -5588.178676 kJ/mol
# Density = 2.550936 g / cm^3
# Si number density = 25.567552 Si / 1000 Ang^3
#
#
#
# Elastic Constant Matrix: (Units=GPa)
#
#
# Indices 1 2 3 4 5 6 
#
# 1 145.0255 28.0317 34.4356 0.0000 11.9408 0.0000
# 2 28.0317 70.9654 17.3209 0.0000 0.5029 0.0000
# 3 34.4356 17.3209 112.9958 0.0000 0.8727 0.0000
# 4 0.0000 0.0000 0.0000 32.8240 0.0000 -2.9172
# 5 11.9408 0.5029 0.8727 0.0000 40.8657 0.0000
# 6 0.0000 0.0000 0.0000 -2.9172 0.0000 42.9842
#
#
#
# Elastic Compliance Matrix: (Units=1/GPa)
#
#
# Indices 1 2 3 4 5 6 
#
# 1 0.008085 -0.002681 -0.002035 0.000000 -0.002286 0.000000
# 2 -0.002681 0.015529 -0.001568 0.000000 0.000626 0.000000
# 3 -0.002035 -0.001568 0.009707 0.000000 0.000407 0.000000
# 4 0.000000 0.000000 0.000000 0.030650 0.000000 0.002080
# 5 -0.002286 0.000626 0.000407 0.000000 0.025122 0.000000
# 6 0.000000 0.000000 0.000000 0.002080 0.000000 0.023406
#
#
# Mechanical properties :
#
#
# Convention : Reuss Voigt Hill
#
# Bulk Modulus (GPa) = 48.18693 54.28477 51.23585
# Shear Modulus (GPa) = 37.88316 39.94801 38.91559
#
# Velocity S-wave (km/s) = 3.85345 3.95707 3.90560
# Velocity P-wave (km/s) = 6.21985 6.49276 6.35777
#
# Compressibility (1/GPa) = 0.02075251
#
# Stress axis : x y z
#
# Youngs Moduli (GPa) = 123.68631 64.39742 103.01403
#
# Poissons Ratio (x) = 0.17263 0.20967
# Poissons Ratio (y) = 0.33156 0.16155
# Poissons Ratio (z) = 0.25174 0.10099
#
# Static dielectric constant tensor:
#      x y z
#    x 2.088970 0.000000 -0.091430 
#    y 0.000000 2.012460 0.000000 
#    z -0.091430 0.000000 2.019290 
# 
# From -- ./inp_files/19396.got.cif
#   From: 2010.05.17/outbox.cif.g08.bks.cpg/sg9_10_cif.got.tgz:19396.got - 2010.06.03 20:04:27.
