data_PCOD9139636
_publ_section_title
;
Structure prediction by ZEFSAII (Michael W. Deem and Ramdas Pophale) SiO2 
 PCOD9139636
Probable space group: C C
;
_chemical_formula_sum "Si O2"
_cell_formula_units_Z 28
_cell_length_a 23.529108
_cell_length_b 8.098939
_cell_length_c 8.448008
_cell_angle_alpha 90.000000
_cell_angle_beta 136.107307
_cell_angle_gamma 90.000000
_cell_volume 1116.131404
_symmetry_space_group_name_H-M "C C"
_symmetry_group_IT_number 9
_symmetry_cell_setting 'monoclinic'
loop_
_space_group_symop_operation_xyz
x,y,z
x,-y,1/2+z
1/2+x,1/2+y,z
1/2+x,1/2-y,1/2+z
loop_
_atom_site_type_symbol
_atom_site_label
_atom_site_fract_x
_atom_site_fract_y
_atom_site_fract_z
Si Si1 0.240280 0.388326 0.145620
Si Si2 0.998286 0.255984 0.537055
Si Si3 0.738800 0.406947 0.889923
Si Si4 0.580920 0.571618 0.278740
Si Si5 0.414868 0.303648 0.535106
Si Si6 0.144858 0.658898 0.143634
Si Si7 0.354996 0.927673 0.402533
O O1 0.230417 0.232123 0.241079
O O2 0.337692 0.423603 0.350295
O O3 0.180192 0.530148 0.088337
O O4 0.212678 0.338918 0.916087
O O5 0.053712 0.118395 0.733183
O O6 0.060726 0.380961 0.571980
O O7 0.938722 0.329131 0.549868
O O8 0.946145 0.187006 0.280966
O O9 0.649827 0.428049 0.784312
O O10 0.793545 0.555122 0.926640
O O11 0.797024 0.354628 0.150423
O O12 0.621720 0.673857 0.504114
O O13 0.493070 0.659462 0.082965
O O14 0.383920 0.118150 0.440039
#
# Coordination Sequence:
#
# PCOD9139636 Si02
#       7
#     4   4   4   4   4   4   4
#     4  11  25  50  82 124 161 219 285 341 430 500
#     4  11  26  50  76 121 167 220 277 340 421 487
#     4  11  27  47  80 118 163 222 276 352 414 497
#     4  11  28  52  78 118 168 215 283 349 419 492
#     4  10  26  50  79 120 160 214 282 339 419 490
#     4  11  28  48  84 122 165 216 283 343 424 495
#     4  11  24  51  77 115 166 216 282 338 425 491
#
# _framework density 25.086652999999998
#
# number of rings (size 3 to 8) (size 9 to 14) (size 15 to 20)
#    0.000    1.143    2.857    0.857   16.000    1.143 
#    5.143    0.000    0.000    0.000    0.000    0.000 
#    0.000    0.000    0.000    0.000    0.000    0.000 
#
# Total GULP energy -78256.250908 kJ/mol
# GULP energy per Si atom -5589.732208 kJ/mol
# Density = 2.502955 g / cm^3
# Si number density = 25.086653 Si / 1000 Ang^3
#
#
#
# Elastic Constant Matrix: (Units=GPa)
#
#
# Indices 1 2 3 4 5 6 
#
# 1 212.1170 70.3044 50.6855 0.0000 53.7588 0.0000
# 2 70.3044 95.3159 42.8328 0.0000 6.0418 0.0000
# 3 50.6855 42.8328 125.2177 0.0000 13.0079 0.0000
# 4 0.0000 0.0000 0.0000 31.4732 0.0000 0.2075
# 5 53.7588 6.0418 13.0079 0.0000 54.1280 0.0000
# 6 0.0000 0.0000 0.0000 0.2075 0.0000 58.9423
#
#
#
# Elastic Compliance Matrix: (Units=1/GPa)
#
#
# Indices 1 2 3 4 5 6 
#
# 1 0.008761 -0.005597 -0.000813 0.000000 -0.007881 0.000000
# 2 -0.005597 0.015980 -0.003685 0.000000 0.004661 0.000000
# 3 -0.000813 -0.003685 0.009691 0.000000 -0.001110 0.000000
# 4 0.000000 0.000000 0.000000 0.031774 0.000000 -0.000112
# 5 -0.007881 0.004661 -0.001110 0.000000 0.026049 0.000000
# 6 0.000000 0.000000 0.000000 -0.000112 0.000000 0.016966
#
#
# Mechanical properties :
#
#
# Convention : Reuss Voigt Hill
#
# Bulk Modulus (GPa) = 70.21352 84.47734 77.34543
# Shear Modulus (GPa) = 37.26909 46.83056 42.04982
#
# Velocity S-wave (km/s) = 3.85855 4.32528 4.09856
# Velocity P-wave (km/s) = 6.92101 7.66103 7.30040
#
# Compressibility (1/GPa) = 0.01424227
#
# Stress axis : x y z
#
# Youngs Moduli (GPa) = 114.13847 62.57642 103.18887
#
# Poissons Ratio (x) = 0.35026 0.08389
# Poissons Ratio (y) = 0.63887 0.38024
# Poissons Ratio (z) = 0.09279 0.23059
#
# Static dielectric constant tensor:
#      x y z
#    x 2.012900 0.000000 0.020800 
#    y 0.000000 2.033200 0.000000 
#    z 0.020800 0.000000 1.981070 
# 
# From -- ./inp_files/11379.got.cif
#   From: 2010.05.17/outbox.cif.g08.bks.cpg/sg9_6_cif.got.tgz:11379.got - 2010.06.03 20:04:27.
