data_PCOD9139385
_publ_section_title
;
Structure prediction by ZEFSAII (Michael W. Deem and Ramdas Pophale) SiO2 
 PCOD9139385
Probable space group: C C
;
_chemical_formula_sum "Si O2"
_cell_formula_units_Z 32
_cell_length_a 30.998600
_cell_length_b 5.256356
_cell_length_c 9.143364
_cell_angle_alpha 90.000000
_cell_angle_beta 115.002210
_cell_angle_gamma 90.000000
_cell_volume 1350.208260
_symmetry_space_group_name_H-M "C C"
_symmetry_group_IT_number 9
_symmetry_cell_setting 'monoclinic'
loop_
_space_group_symop_operation_xyz
x,y,z
x,-y,1/2+z
1/2+x,1/2+y,z
1/2+x,1/2-y,1/2+z
loop_
_atom_site_type_symbol
_atom_site_label
_atom_site_fract_x
_atom_site_fract_y
_atom_site_fract_z
Si Si1 0.187540 0.710207 0.119430
Si Si2 0.380228 0.333237 0.462554
Si Si3 0.299023 0.298047 0.840569
Si Si4 0.004685 0.415744 0.408002
Si Si5 0.152645 0.214160 0.238378
Si Si6 0.969115 0.928854 0.214394
Si Si7 0.851723 0.470869 0.666968
Si Si8 0.548427 0.752609 0.208775
O O1 0.243945 0.685870 0.228451
O O2 0.163711 0.456279 0.151706
O O3 0.169526 0.958914 0.181192
O O4 0.177623 0.744637 0.932394
O O5 0.326384 0.435641 0.388166
O O6 0.419444 0.541329 0.558412
O O7 0.381587 0.126065 0.591628
O O8 0.384819 0.216324 0.308870
O O9 0.326192 0.147813 0.750063
O O10 0.311600 0.169810 0.013744
O O11 0.052210 0.348964 0.381082
O O12 0.020186 0.527077 0.583701
O O13 0.973485 0.162940 0.337838
O O14 0.979578 0.658438 0.297604
O O15 0.096852 0.195184 0.197357
O O16 0.013183 0.013554 0.173009
#
# Coordination Sequence:
#
# PCOD9139385 Si02
#       8
#     4   4   4   4   4   4   4   4
#     4  12  29  47  78 110 148 194 248 310 373 453
#     4  11  25  43  70 102 140 190 238 301 355 441
#     4  11  25  45  70  99 142 181 239 295 368 426
#     4  10  25  43  68 102 138 189 232 293 351 422
#     4  12  28  48  78 110 150 192 254 301 382 439
#     4  10  27  41  72 100 147 184 242 283 370 419
#     4  10  25  43  69  97 138 183 239 290 366 423
#     4  10  26  44  75  98 149 181 242 293 359 425
#
# _framework density 23.700047000000001
#
# number of rings (size 3 to 8) (size 9 to 14) (size 15 to 20)
#    0.750    0.500    0.000    3.000   17.500    1.000 
#    0.000    0.000    0.000    0.000    0.000    0.000 
#    0.000    0.000    0.000    0.000    0.000    0.000 
#
# Total GULP energy -89532.786477 kJ/mol
# GULP energy per Si atom -5595.799155 kJ/mol
# Density = 2.364610 g / cm^3
# Si number density = 23.700047 Si / 1000 Ang^3
#
#
#
# Elastic Constant Matrix: (Units=GPa)
#
#
# Indices 1 2 3 4 5 6 
#
# 1 56.3104 19.8516 16.1380 0.0000 20.4060 0.0000
# 2 19.8516 121.4345 24.0903 0.0000 -5.5532 0.0000
# 3 16.1380 24.0903 108.3766 0.0000 -11.4572 0.0000
# 4 0.0000 0.0000 0.0000 -17.4539 0.0000 -4.4808
# 5 20.4060 -5.5532 -11.4572 0.0000 34.8944 0.0000
# 6 0.0000 0.0000 0.0000 -4.4808 0.0000 27.0527
#
#
#
# Elastic Compliance Matrix: (Units=1/GPa)
#
#
# Indices 1 2 3 4 5 6 
#
# 1 0.027383 -0.004312 -0.005060 0.000000 -0.018361 0.000000
# 2 -0.004312 0.009314 -0.001041 0.000000 0.003662 0.000000
# 3 -0.005060 -0.001041 0.010885 0.000000 0.006367 0.000000
# 4 0.000000 0.000000 0.000000 -0.054957 0.000000 -0.009103
# 5 -0.018361 0.003662 0.006367 0.000000 0.042069 0.000000
# 6 0.000000 0.000000 0.000000 -0.009103 0.000000 0.035457
#
#
# Mechanical properties :
#
#
# Convention : Reuss Voigt Hill
#
# Bulk Modulus (GPa) = 37.37597 45.14238 41.25917
# Shear Modulus (GPa) = 50.05221 23.96807 37.01014
#
# Velocity S-wave (km/s) = 4.60053 3.18356 3.95600
# Velocity P-wave (km/s) = 6.63510 5.70983 6.18977
#
# Compressibility (1/GPa) = 0.02675516
#
# Stress axis : x y z
#
# Youngs Moduli (GPa) = 36.51926 107.36708 91.86875
#
# Poissons Ratio (x) = 0.46300 0.46486
# Poissons Ratio (y) = 0.15748 0.09564
# Poissons Ratio (z) = 0.18479 0.11177
#
# Static dielectric constant tensor:
#      x y z
#    x 1.919670 0.000000 -0.073450 
#    y 0.000000 2.055870 0.000000 
#    z -0.073450 0.000000 1.929860 
# 
# From -- ./inp_files/12655.got.cif
#   From: 2010.05.17/outbox.cif.g08.bks.cpg/sg9_7_cif.got.tgz:12655.got - 2010.06.03 20:04:27.
