data_PCOD9139317
_publ_section_title
;
Structure prediction by ZEFSAII (Michael W. Deem and Ramdas Pophale) SiO2 
 PCOD9139317
Probable space group: C C
;
_chemical_formula_sum "Si O2"
_cell_formula_units_Z 28
_cell_length_a 8.644521
_cell_length_b 11.172733
_cell_length_c 19.264413
_cell_angle_alpha 90.000000
_cell_angle_beta 139.468802
_cell_angle_gamma 90.000000
_cell_volume 1209.141915
_symmetry_space_group_name_H-M "C C"
_symmetry_group_IT_number 9
_symmetry_cell_setting 'monoclinic'
loop_
_space_group_symop_operation_xyz
x,y,z
x,-y,1/2+z
1/2+x,1/2+y,z
1/2+x,1/2-y,1/2+z
loop_
_atom_site_type_symbol
_atom_site_label
_atom_site_fract_x
_atom_site_fract_y
_atom_site_fract_z
Si Si1 0.557290 0.021820 0.152000
Si Si2 0.675038 0.123923 0.905597
Si Si3 0.703959 0.710874 0.068734
Si Si4 0.277277 0.286302 0.245908
Si Si5 0.733966 0.147850 0.439794
Si Si6 0.451219 0.313849 0.748928
Si Si7 0.635229 0.644095 0.460677
O O1 0.405183 0.110280 0.147931
O O2 0.712541 0.111008 0.157115
O O3 0.720813 0.923762 0.245885
O O4 0.351382 0.944418 0.046517
O O5 0.464337 0.177589 0.784417
O O6 0.680340 0.212895 0.973267
O O7 0.636729 0.987417 0.911294
O O8 0.940389 0.154510 0.964784
O O9 0.704059 0.779037 0.140938
O O10 0.779079 0.797340 0.031323
O O11 0.544586 0.241455 0.344412
O O12 0.117711 0.198505 0.239161
O O13 0.949748 0.132177 0.459743
O O14 0.558089 0.376897 0.854424
#
# Coordination Sequence:
#
# PCOD9139317 Si02
#       7
#     4   4   4   4   4   4   4
#     4  12  27  48  77 110 156 187 265 311 379 451
#     4  10  24  51  71 107 156 189 258 303 377 454
#     4  12  27  46  76 114 145 203 250 311 389 447
#     4  12  28  49  74 113 150 200 254 315 380 459
#     4  12  26  48  81 104 157 204 245 317 385 451
#     4  10  26  47  77 109 153 201 248 315 383 440
#     4  10  24  49  76 109 153 204 240 320 381 438
#
# _framework density 23.156918000000001
#
# number of rings (size 3 to 8) (size 9 to 14) (size 15 to 20)
#    0.857    0.000    4.286    0.857    8.000    3.429 
#    0.000    0.000    0.000    0.000    0.000    0.000 
#    0.000    0.000    0.000    0.000    0.000    0.000 
#
# Total GULP energy -78037.876420 kJ/mol
# GULP energy per Si atom -5574.134030 kJ/mol
# Density = 2.310421 g / cm^3
# Si number density = 23.156918 Si / 1000 Ang^3
#
#
#
# Elastic Constant Matrix: (Units=GPa)
#
#
# Indices 1 2 3 4 5 6 
#
# 1 130.6765 50.7013 54.1755 0.0000 -2.9599 0.0000
# 2 50.7013 130.0133 37.9606 0.0000 23.4909 0.0000
# 3 54.1755 37.9606 71.0815 0.0000 -4.5089 0.0000
# 4 0.0000 0.0000 0.0000 38.0389 0.0000 18.5062
# 5 -2.9599 23.4909 -4.5089 0.0000 31.1262 0.0000
# 6 0.0000 0.0000 0.0000 18.5062 0.0000 33.0439
#
#
#
# Elastic Compliance Matrix: (Units=1/GPa)
#
#
# Indices 1 2 3 4 5 6 
#
# 1 0.011878 -0.002885 -0.007370 0.000000 0.002239 0.000000
# 2 -0.002885 0.012065 -0.004885 0.000000 -0.010088 0.000000
# 3 -0.007370 -0.004885 0.022692 0.000000 0.006273 0.000000
# 4 0.000000 0.000000 0.000000 0.036134 0.000000 -0.020237
# 5 0.002239 -0.010088 0.006273 0.000000 0.040862 0.000000
# 6 0.000000 0.000000 0.000000 -0.020237 0.000000 0.041596
#
#
# Mechanical properties :
#
#
# Convention : Reuss Voigt Hill
#
# Bulk Modulus (GPa) = 61.13913 68.60509 64.87211
# Shear Modulus (GPa) = 24.88058 33.03739 28.95899
#
# Velocity S-wave (km/s) = 3.28141 3.78123 3.54015
# Velocity P-wave (km/s) = 6.38876 6.98241 6.69218
#
# Compressibility (1/GPa) = 0.01635614
#
# Stress axis : x y z
#
# Youngs Moduli (GPa) = 84.18920 82.88243 44.06771
#
# Poissons Ratio (x) = 0.23908 0.32480
# Poissons Ratio (y) = 0.24285 0.21526
# Poissons Ratio (z) = 0.62051 0.40486
#
# Static dielectric constant tensor:
#      x y z
#    x 1.903570 0.000000 -0.015250 
#    y 0.000000 1.881640 0.000000 
#    z -0.015250 0.000000 2.023600 
# 
# From -- ./inp_files/32651.got.cif
#   From: 2010.05.17/outbox.cif.g08.bks.cpg/sg9_17_cif.got.tgz:32651.got - 2010.06.03 20:04:27.
