data_PCOD9139035
_publ_section_title
;
Structure prediction by ZEFSAII (Michael W. Deem and Ramdas Pophale) SiO2 
 PCOD9139035
Probable space group: C C
;
_chemical_formula_sum "Si O2"
_cell_formula_units_Z 28
_cell_length_a 5.245850
_cell_length_b 18.983305
_cell_length_c 11.726749
_cell_angle_alpha 90.000000
_cell_angle_beta 116.981697
_cell_angle_gamma 90.000000
_cell_volume 1040.679185
_symmetry_space_group_name_H-M "C C"
_symmetry_group_IT_number 9
_symmetry_cell_setting 'monoclinic'
loop_
_space_group_symop_operation_xyz
x,y,z
x,-y,1/2+z
1/2+x,1/2+y,z
1/2+x,1/2-y,1/2+z
loop_
_atom_site_type_symbol
_atom_site_label
_atom_site_fract_x
_atom_site_fract_y
_atom_site_fract_z
Si Si1 0.611560 0.624129 0.079330
Si Si2 0.329993 0.018707 0.519643
Si Si3 0.040737 0.149000 0.590223
Si Si4 0.148790 0.636668 0.332383
Si Si5 0.406743 0.720916 0.191288
Si Si6 0.842568 0.009434 0.771070
Si Si7 0.391895 0.339672 0.313458
O O1 0.685288 0.545243 0.062083
O O2 0.347048 0.651333 0.099444
O O3 0.839458 0.650051 0.219483
O O4 0.600107 0.669964 0.962325
O O5 0.669954 0.011628 0.615399
O O6 0.213915 0.090653 0.553324
O O7 0.183105 0.005690 0.364985
O O8 0.715381 0.145464 0.477976
O O9 0.046936 0.140714 0.727151
O O10 0.166263 0.225630 0.599149
O O11 0.352891 0.690069 0.305807
O O12 0.216865 0.557114 0.311588
O O13 0.672497 0.776676 0.251987
O O14 0.755679 0.083390 0.812569
#
# Coordination Sequence:
#
# PCOD9139035 Si02
#       7
#     4   4   4   4   4   4   4
#     4  10  24  44  64  97 133 172 219 271 326 392
#     4   9  19  42  66  95 131 172 224 269 326 396
#     4  11  24  42  68  98 132 172 220 273 326 394
#     4  10  24  44  64  97 133 172 219 271 326 392
#     4  12  24  40  68  96 136 172 216 268 338 386
#     4   9  19  42  66  95 131 172 224 269 326 396
#     4  11  24  42  68  98 132 172 220 273 326 394
#
# _framework density 26.905508999999999
#
# number of rings (size 3 to 8) (size 9 to 14) (size 15 to 20)
#    0.000    1.714    1.429    1.714    2.000    6.857 
#    0.000    4.286    0.000    0.000    0.000    0.000 
#    0.000    0.000    0.000    0.000    0.000    0.000 
#
# Total GULP energy -78119.722356 kJ/mol
# GULP energy per Si atom -5579.980168 kJ/mol
# Density = 2.684427 g / cm^3
# Si number density = 26.905509 Si / 1000 Ang^3
#
#
#
# Elastic Constant Matrix: (Units=GPa)
#
#
# Indices 1 2 3 4 5 6 
#
# 1 17.0537 10.0188 0.4146 0.0000 -4.5605 0.0000
# 2 10.0188 173.7823 -10.8692 0.0000 -5.9220 0.0000
# 3 0.4146 -10.8692 128.7163 0.0000 13.5543 0.0000
# 4 0.0000 0.0000 0.0000 -11.2358 0.0000 -5.6930
# 5 -4.5605 -5.9220 13.5543 0.0000 40.2501 0.0000
# 6 0.0000 0.0000 0.0000 -5.6930 0.0000 20.9359
#
#
#
# Elastic Compliance Matrix: (Units=1/GPa)
#
#
# Indices 1 2 3 4 5 6 
#
# 1 0.062563 -0.003445 -0.001229 0.000000 0.006996 0.000000
# 2 -0.003445 0.005994 0.000483 0.000000 0.000329 0.000000
# 3 -0.001229 0.000483 0.008108 0.000000 -0.002799 0.000000
# 4 0.000000 0.000000 0.000000 -0.078223 0.000000 -0.021271
# 5 0.006996 0.000329 -0.002799 0.000000 0.026628 0.000000
# 6 0.000000 0.000000 0.000000 -0.021271 0.000000 0.041981
#
#
# Mechanical properties :
#
#
# Convention : Reuss Voigt Hill
#
# Bulk Modulus (GPa) = 14.64513 35.40896 25.02704
# Shear Modulus (GPa) = 50.91879 31.32258 41.12068
#
# Velocity S-wave (km/s) = 4.35501 3.41569 3.91364
# Velocity P-wave (km/s) = 5.54465 5.36144 5.45381
#
# Compressibility (1/GPa) = 0.06828210
#
# Stress axis : x y z
#
# Youngs Moduli (GPa) = 15.98392 166.82368 123.32799
#
# Poissons Ratio (x) = 0.57476 0.15158
# Poissons Ratio (y) = 0.05507 -0.05952
# Poissons Ratio (z) = 0.01965 -0.08051
#
# Static dielectric constant tensor:
#      x y z
#    x 2.227130 0.000000 0.103710 
#    y 0.000000 2.086450 0.000000 
#    z 0.103710 0.000000 2.216340 
# 
# From -- ./inp_files/13271.got.cif
#   From: 2010.05.17/outbox.cif.g08.bks.cpg/sg9_7_cif.got.tgz:13271.got - 2010.06.03 20:04:27.
