data_PCOD9139231
_publ_section_title
;
Structure prediction by ZEFSAII (Michael W. Deem and Ramdas Pophale) SiO2 
 PCOD9139231
Probable space group: C C
;
_chemical_formula_sum "Si O2"
_cell_formula_units_Z 24
_cell_length_a 12.836640
_cell_length_b 5.363767
_cell_length_c 18.825928
_cell_angle_alpha 90.000000
_cell_angle_beta 44.630537
_cell_angle_gamma 90.000000
_cell_volume 910.634382
_symmetry_space_group_name_H-M "C C"
_symmetry_group_IT_number 9
_symmetry_cell_setting 'monoclinic'
loop_
_space_group_symop_operation_xyz
x,y,z
x,-y,1/2+z
1/2+x,1/2+y,z
1/2+x,1/2-y,1/2+z
loop_
_atom_site_type_symbol
_atom_site_label
_atom_site_fract_x
_atom_site_fract_y
_atom_site_fract_z
Si Si1 0.545090 0.267849 0.572190
Si Si2 0.000041 0.435219 0.958108
Si Si3 0.875994 0.692840 0.896873
Si Si4 0.132978 0.085873 0.782988
Si Si5 0.601239 0.962460 0.682522
Si Si6 0.380397 0.286069 0.124836
O O1 0.455702 0.252572 0.541060
O O2 0.708886 0.261867 0.459559
O O3 0.569756 0.053566 0.618430
O O4 0.465454 0.521483 0.635972
O O5 0.872226 0.504545 0.965145
O O6 0.121454 0.315614 0.845287
O O7 0.004989 0.674932 0.009297
O O8 0.958558 0.563366 0.793082
O O9 0.986115 0.917216 0.866104
O O10 0.121357 0.191449 0.708289
O O11 0.283130 0.924355 0.715050
O O12 0.744066 0.112060 0.642981
#
# Coordination Sequence:
#
# PCOD9139231 Si02
#       6
#     4   4   4   4   4   4
#     4  12  26  45  82 113 149 210 269 318 402 473
#     4  11  24  44  75 110 152 203 258 324 386 472
#     4  10  24  46  73 112 152 198 265 326 389 466
#     4  10  24  47  78 109 166 203 256 342 394 459
#     4  10  24  48  74 110 160 200 260 331 396 467
#     4  11  24  46  74 114 155 206 264 327 389 477
#
# _framework density 26.355253000000001
#
# number of rings (size 3 to 8) (size 9 to 14) (size 15 to 20)
#    0.000    1.333    1.667    2.000    2.333   10.667 
#    0.000    5.000    0.000    0.000    0.000    0.000 
#    0.000    0.000    0.000    0.000    0.000    0.000 
#
# Total GULP energy -66829.611518 kJ/mol
# GULP energy per Si atom -5569.134293 kJ/mol
# Density = 2.629527 g / cm^3
# Si number density = 26.355253 Si / 1000 Ang^3
#
#
#
# Elastic Constant Matrix: (Units=GPa)
#
#
# Indices 1 2 3 4 5 6 
#
# 1 103.6987 36.8904 68.9404 -0.0006 5.6960 0.0018
# 2 36.8904 75.2813 40.3983 -0.0009 -11.8477 0.0070
# 3 68.9404 40.3983 125.1337 -0.0006 -10.8586 0.0006
# 4 -0.0006 -0.0009 -0.0006 47.2580 -0.0005 -2.0124
# 5 5.6960 -11.8477 -10.8586 -0.0005 54.2163 -0.0002
# 6 0.0018 0.0070 0.0006 -2.0124 -0.0002 28.6951
#
#
#
# Elastic Compliance Matrix: (Units=1/GPa)
#
#
# Indices 1 2 3 4 5 6 
#
# 1 0.017033 -0.004602 -0.008285 0.000000 -0.004454 0.000000
# 2 -0.004602 0.017655 -0.002837 0.000000 0.003773 -0.000004
# 3 -0.008285 -0.002837 0.013732 0.000000 0.003001 0.000001
# 4 0.000000 0.000000 0.000000 0.021224 0.000000 0.001488
# 5 -0.004454 0.003773 0.003001 0.000000 0.020338 -0.000001
# 6 0.000000 -0.000004 0.000001 0.001488 -0.000001 0.034954
#
#
# Mechanical properties :
#
#
# Convention : Reuss Voigt Hill
#
# Bulk Modulus (GPa) = 58.91870 66.28578 62.60224
# Shear Modulus (GPa) = 30.85643 36.55950 33.70797
#
# Velocity S-wave (km/s) = 3.42539 3.72853 3.58017
# Velocity P-wave (km/s) = 6.16835 6.61373 6.39492
#
# Compressibility (1/GPa) = 0.01697254
#
# Stress axis : x y z
#
# Youngs Moduli (GPa) = 58.70933 56.64181 72.82149
#
# Poissons Ratio (x) = 0.26066 0.60332
# Poissons Ratio (y) = 0.27017 0.20659
# Poissons Ratio (z) = 0.48641 0.16069
#
# Static dielectric constant tensor:
#      x y z
#    x 1.997890 0.000000 0.019230 
#    y 0.000000 2.452960 0.000000 
#    z 0.019230 0.000000 2.017100 
# 
# From -- ./inp_files/23925.got.cif
#   From: 2010.05.17/outbox.cif.g08.bks.cpg/sg9_12_cif.got.tgz:23925.got - 2010.06.03 20:04:27.
