data_PCOD9139491
_publ_section_title
;
Structure prediction by ZEFSAII (Michael W. Deem and Ramdas Pophale) SiO2 
 PCOD9139491
Probable space group: C C
;
_chemical_formula_sum "Si O2"
_cell_formula_units_Z 32
_cell_length_a 24.060783
_cell_length_b 10.578004
_cell_length_c 13.578058
_cell_angle_alpha 90.000000
_cell_angle_beta 156.317107
_cell_angle_gamma 90.000000
_cell_volume 1388.114401
_symmetry_space_group_name_H-M "C C"
_symmetry_group_IT_number 9
_symmetry_cell_setting 'monoclinic'
loop_
_space_group_symop_operation_xyz
x,y,z
x,-y,1/2+z
1/2+x,1/2+y,z
1/2+x,1/2-y,1/2+z
loop_
_atom_site_type_symbol
_atom_site_label
_atom_site_fract_x
_atom_site_fract_y
_atom_site_fract_z
Si Si1 0.663370 0.420698 0.838690
Si Si2 0.798171 0.521824 0.237669
Si Si3 0.543420 0.931296 0.988999
Si Si4 0.263206 0.288107 0.275940
Si Si5 0.902087 0.202987 0.199901
Si Si6 0.356626 0.496957 0.799440
Si Si7 0.341416 0.104804 0.000215
Si Si8 0.207276 0.335574 0.724975
O O1 0.501516 0.428852 0.552806
O O2 0.723097 0.522853 0.858805
O O3 0.677062 0.475739 0.971421
O O4 0.779435 0.306917 0.026496
O O5 0.770095 0.646741 0.252423
O O6 0.842398 0.415696 0.385919
O O7 0.923259 0.558786 0.370380
O O8 0.475665 0.947367 0.771875
O O9 0.622226 0.801114 0.109750
O O10 0.655172 0.037377 0.191982
O O11 0.379273 0.319711 0.546069
O O12 0.259385 0.384781 0.177251
O O13 0.874469 0.081249 0.225700
O O14 0.059668 0.259830 0.467710
O O15 0.297116 0.387077 0.777671
O O16 0.303923 0.250807 0.951199
#
# Coordination Sequence:
#
# PCOD9139491 Si02
#       8
#     4   4   4   4   4   4   4   4
#     4  11  24  45  71 108 140 194 248 297 374 444
#     4  11  23  44  73 100 144 197 237 307 379 434
#     4  10  25  47  62 104 147 186 253 305 367 437
#     4  11  27  45  70 106 146 195 250 310 368 452
#     4  12  24  49  75 102 158 195 241 316 374 441
#     4  11  28  45  72 115 140 200 252 299 380 443
#     4  11  22  42  74 101 141 193 242 298 368 439
#     4  11  23  45  71 108 146 190 249 300 362 446
#
# _framework density 23.052855999999998
#
# number of rings (size 3 to 8) (size 9 to 14) (size 15 to 20)
#    0.000    1.000    5.000    0.750    7.000    2.000 
#   11.250    0.000    0.000    0.000    0.000    0.000 
#    0.000    0.000    0.000    0.000    0.000    0.000 
#
# Total GULP energy -89127.699642 kJ/mol
# GULP energy per Si atom -5570.481228 kJ/mol
# Density = 2.300039 g / cm^3
# Si number density = 23.052856 Si / 1000 Ang^3
#
#
#
# Elastic Constant Matrix: (Units=GPa)
#
#
# Indices 1 2 3 4 5 6 
#
# 1 42.6849 21.1871 22.6271 0.0000 -7.0475 0.0000
# 2 21.1871 96.3584 17.2734 0.0000 -5.1455 0.0000
# 3 22.6271 17.2734 47.5961 0.0000 14.1941 0.0000
# 4 0.0000 0.0000 0.0000 35.4970 0.0000 -1.5118
# 5 -7.0475 -5.1455 14.1941 0.0000 36.6828 0.0000
# 6 0.0000 0.0000 0.0000 -1.5118 0.0000 35.7895
#
#
#
# Elastic Compliance Matrix: (Units=1/GPa)
#
#
# Indices 1 2 3 4 5 6 
#
# 1 0.039664 -0.003928 -0.022088 0.000000 0.015616 0.000000
# 2 -0.003928 0.011907 -0.003083 0.000000 0.002108 0.000000
# 3 -0.022088 -0.003083 0.038462 0.000000 -0.019559 0.000000
# 4 0.000000 0.000000 0.000000 0.028222 0.000000 0.001192
# 5 0.015616 0.002108 -0.019559 0.000000 0.038125 0.000000
# 6 0.000000 0.000000 0.000000 0.001192 0.000000 0.027992
#
#
# Mechanical properties :
#
#
# Convention : Reuss Voigt Hill
#
# Bulk Modulus (GPa) = 31.41054 34.31274 32.86164
# Shear Modulus (GPa) = 19.74881 29.96397 24.85639
#
# Velocity S-wave (km/s) = 2.93008 3.60918 3.28721
# Velocity P-wave (km/s) = 5.01021 5.68198 5.35663
#
# Compressibility (1/GPa) = 0.03183645
#
# Stress axis : x y z
#
# Youngs Moduli (GPa) = 25.21175 83.98597 25.99962
#
# Poissons Ratio (x) = 0.32988 0.57427
# Poissons Ratio (y) = 0.09903 0.08015
# Poissons Ratio (z) = 0.55687 0.25890
#
# Static dielectric constant tensor:
#      x y z
#    x 1.881880 0.000000 0.007880 
#    y 0.000000 1.916230 0.000000 
#    z 0.007880 0.000000 1.942260 
# 
# From -- ./inp_files/20324.got.cif
#   From: 2010.05.17/outbox.cif.g08.bks.cpg/sg9_11_cif.got.tgz:20324.got - 2010.06.03 20:04:27.
