data_PCOD9139397
_publ_section_title
;
Structure prediction by ZEFSAII (Michael W. Deem and Ramdas Pophale) SiO2 
 PCOD9139397
Probable space group: C C
;
_chemical_formula_sum "Si O2"
_cell_formula_units_Z 32
_cell_length_a 9.120000
_cell_length_b 15.592433
_cell_length_c 18.054790
_cell_angle_alpha 90.000000
_cell_angle_beta 147.033897
_cell_angle_gamma 90.000000
_cell_volume 1397.056691
_symmetry_space_group_name_H-M "C C"
_symmetry_group_IT_number 9
_symmetry_cell_setting 'monoclinic'
loop_
_space_group_symop_operation_xyz
x,y,z
x,-y,1/2+z
1/2+x,1/2+y,z
1/2+x,1/2-y,1/2+z
loop_
_atom_site_type_symbol
_atom_site_label
_atom_site_fract_x
_atom_site_fract_y
_atom_site_fract_z
Si Si1 0.309030 0.827049 0.162080
Si Si2 0.421750 0.657956 0.736745
Si Si3 0.323096 0.906605 0.013421
Si Si4 0.137686 0.494109 0.340547
Si Si5 0.695604 0.334775 0.805042
Si Si6 0.320624 0.621128 0.538135
Si Si7 0.610810 0.422304 0.458715
Si Si8 0.245990 0.847861 0.662552
O O1 0.222695 0.854109 0.042200
O O2 0.526182 0.750578 0.252506
O O3 0.023758 0.815518 0.081805
O O4 0.459939 0.907858 0.265283
O O5 0.465249 0.609682 0.678320
O O6 0.604589 0.630130 0.881315
O O7 0.408621 0.759864 0.724639
O O8 0.120348 0.630939 0.630802
O O9 0.176415 0.892475 0.871791
O O10 0.335374 0.005598 0.042077
O O11 0.284244 0.532390 0.476512
O O12 0.352089 0.481637 0.366192
O O13 0.940015 0.571577 0.240492
O O14 0.596968 0.354278 0.678700
O O15 0.022481 0.338827 0.927554
O O16 0.587442 0.359347 0.519056
#
# Coordination Sequence:
#
# PCOD9139397 Si02
#       8
#     4   4   4   4   4   4   4   4
#     4  12  22  47  71 108 146 200 242 301 377 437
#     4  11  25  41  70 105 143 185 244 308 367 428
#     4  11  23  44  68 106 144 186 247 302 363 439
#     4  11  22  39  71 102 140 193 239 294 369 440
#     4  10  25  44  74 102 150 187 246 307 366 427
#     4  10  25  44  66 111 146 185 248 304 357 452
#     4  12  23  42  73 101 148 190 244 298 370 444
#     4  11  23  41  69 103 139 194 232 296 375 433
#
# _framework density 22.905296
#
# number of rings (size 3 to 8) (size 9 to 14) (size 15 to 20)
#    0.000    1.000    5.000    0.000    8.750    5.000 
#    0.000    0.000    0.000    0.000    0.000    0.000 
#    0.000    0.000    0.000    0.000    0.000    0.000 
#
# Total GULP energy -89195.826716 kJ/mol
# GULP energy per Si atom -5574.739170 kJ/mol
# Density = 2.285316 g / cm^3
# Si number density = 22.905296 Si / 1000 Ang^3
#
#
#
# Elastic Constant Matrix: (Units=GPa)
#
#
# Indices 1 2 3 4 5 6 
#
# 1 122.9693 29.0187 43.4202 0.0000 -26.2523 -0.0008
# 2 29.0187 115.8078 34.7795 -0.0001 -5.9381 -0.0001
# 3 43.4202 34.7795 72.5186 0.0013 -34.3555 0.0019
# 4 0.0000 -0.0001 0.0013 26.6794 -0.0002 -10.1599
# 5 -26.2523 -5.9381 -34.3555 -0.0002 57.1770 0.0005
# 6 -0.0008 -0.0001 0.0019 -10.1599 0.0005 26.1863
#
#
#
# Elastic Compliance Matrix: (Units=1/GPa)
#
#
# Indices 1 2 3 4 5 6 
#
# 1 0.010503 -0.001052 -0.004964 0.000001 0.001730 0.000001
# 2 -0.001052 0.010478 -0.005743 0.000001 -0.002846 0.000001
# 3 -0.004964 -0.005743 0.025378 -0.000002 0.012373 -0.000003
# 4 0.000001 0.000001 -0.000002 0.043980 -0.000001 0.017064
# 5 0.001730 -0.002846 0.012373 -0.000001 0.025423 -0.000002
# 6 0.000001 0.000001 -0.000003 0.017064 -0.000002 0.044808
#
#
# Mechanical properties :
#
#
# Convention : Reuss Voigt Hill
#
# Bulk Modulus (GPa) = 43.78473 58.41474 51.09974
# Shear Modulus (GPa) = 26.08231 35.61370 30.84801
#
# Velocity S-wave (km/s) = 3.37813 3.94740 3.67381
# Velocity P-wave (km/s) = 5.86282 6.80691 6.35243
#
# Compressibility (1/GPa) = 0.02283901
#
# Stress axis : x y z
#
# Youngs Moduli (GPa) = 95.21462 95.44245 39.40452
#
# Poissons Ratio (x) = 0.10042 0.19561
# Poissons Ratio (y) = 0.10018 0.22631
# Poissons Ratio (z) = 0.47266 0.54814
#
# Static dielectric constant tensor:
#      x y z
#    x 1.898240 0.000000 -0.053330 
#    y 0.000000 1.882620 0.000000 
#    z -0.053330 0.000000 2.054950 
# 
# From -- ./inp_files/29450.got.cif
#   From: 2010.05.17/outbox.cif.g08.bks.cpg/sg9_15_cif.got.tgz:29450.got - 2010.06.03 20:04:27.
