data_PCOD9139334
_publ_section_title
;
Structure prediction by ZEFSAII (Michael W. Deem and Ramdas Pophale) SiO2 
 PCOD9139334
Probable space group: C C
;
_chemical_formula_sum "Si O2"
_cell_formula_units_Z 32
_cell_length_a 12.081633
_cell_length_b 16.115257
_cell_length_c 10.389732
_cell_angle_alpha 90.000000
_cell_angle_beta 145.276913
_cell_angle_gamma 90.000000
_cell_volume 1152.246510
_symmetry_space_group_name_H-M "C C"
_symmetry_group_IT_number 9
_symmetry_cell_setting 'monoclinic'
loop_
_space_group_symop_operation_xyz
x,y,z
x,-y,1/2+z
1/2+x,1/2+y,z
1/2+x,1/2-y,1/2+z
loop_
_atom_site_type_symbol
_atom_site_label
_atom_site_fract_x
_atom_site_fract_y
_atom_site_fract_z
Si Si1 0.325790 0.374638 0.691150
Si Si2 0.397428 0.182108 0.767635
Si Si3 0.290422 0.183889 0.374810
Si Si4 0.968728 0.737480 0.240562
Si Si5 0.571280 0.381668 0.151041
Si Si6 0.372233 0.623713 0.950367
Si Si7 0.048590 0.558282 0.504165
Si Si8 0.404433 0.051226 0.100749
O O1 0.419483 0.281880 0.777711
O O2 0.344081 0.412840 0.566473
O O3 0.103100 0.354788 0.501070
O O4 0.423825 0.418119 0.905866
O O5 0.339308 0.156266 0.567017
O O6 0.244070 0.154651 0.726916
O O7 0.282719 0.282790 0.374649
O O8 0.447304 0.149195 0.424734
O O9 0.095701 0.140274 0.145962
O O10 0.212442 0.753461 0.528332
O O11 0.974326 0.809238 0.139312
O O12 0.977225 0.646273 0.186347
O O13 0.677164 0.444105 0.349255
O O14 0.272240 0.579820 0.735285
O O15 0.962326 0.517819 0.295691
O O16 0.995216 0.503675 0.575981
#
# Coordination Sequence:
#
# PCOD9139334 Si02
#       8
#     4   4   4   4   4   4   4   4
#     4  11  18  31  63 109 154 185 247 313 393 455
#     4  11  19  32  66 114 153 187 242 320 390 459
#     4  11  21  44  76 115 153 198 267 322 401 467
#     4  10  24  50  81 121 157 209 278 345 406 484
#     4  11  23  41  71 112 150 198 263 328 389 472
#     4  11  21  42  75 117 149 202 258 334 389 483
#     4  12  28  55  75 111 161 207 264 331 408 503
#     4  11  30  53  77 111 159 214 261 333 424 489
#
# _framework density 27.771837000000001
#
# number of rings (size 3 to 8) (size 9 to 14) (size 15 to 20)
#    0.000    1.000    5.000    3.000    5.250    2.000 
#   11.250    0.000    0.000    0.000    0.000    0.000 
#    0.000    0.000    0.000    0.000    0.000    0.000 
#
# Total GULP energy -89431.467762 kJ/mol
# GULP energy per Si atom -5589.466735 kJ/mol
# Density = 2.770863 g / cm^3
# Si number density = 27.771837 Si / 1000 Ang^3
#
#
#
# Elastic Constant Matrix: (Units=GPa)
#
#
# Indices 1 2 3 4 5 6 
#
# 1 77.1555 -18.3171 67.0415 0.0000 0.5472 0.0000
# 2 -18.3171 65.0550 37.1143 0.0000 -0.4819 0.0000
# 3 67.0415 37.1143 251.3939 0.0000 -13.2026 0.0000
# 4 0.0000 0.0000 0.0000 0.3249 0.0000 19.4559
# 5 0.5472 -0.4819 -13.2026 0.0000 56.7985 0.0000
# 6 0.0000 0.0000 0.0000 19.4559 0.0000 29.0474
#
#
#
# Elastic Compliance Matrix: (Units=1/GPa)
#
#
# Indices 1 2 3 4 5 6 
#
# 1 0.021973 0.010452 -0.007501 0.000000 -0.001867 0.000000
# 2 0.010452 0.021768 -0.006071 0.000000 -0.001327 0.000000
# 3 -0.007501 -0.006071 0.006960 0.000000 0.001639 0.000000
# 4 0.000000 0.000000 0.000000 -0.078700 0.000000 0.052713
# 5 -0.001867 -0.001327 0.001639 0.000000 0.017994 0.000000
# 6 0.000000 0.000000 0.000000 0.052713 0.000000 -0.000880
#
#
# Mechanical properties :
#
#
# Convention : Reuss Voigt Hill
#
# Bulk Modulus (GPa) = 22.49061 62.80910 42.64985
# Shear Modulus (GPa) = 491.36745 37.75189 264.55967
#
# Velocity S-wave (km/s) = 13.31594 3.69095 9.77081
# Velocity P-wave (km/s) = 15.63761 6.38978 11.94496
#
# Compressibility (1/GPa) = 0.04446300
#
# Stress axis : x y z
#
# Youngs Moduli (GPa) = 45.51001 45.93853 143.66805
#
# Poissons Ratio (x) = -0.48017 1.07765
# Poissons Ratio (y) = -0.47569 0.87219
# Poissons Ratio (z) = 0.34137 0.27889
#
# Static dielectric constant tensor:
#      x y z
#    x 2.262960 0.000000 0.092730 
#    y 0.000000 2.183270 0.000000 
#    z 0.092730 0.000000 2.472050 
# 
# From -- ./inp_files/18546.got.cif
#   From: 2010.05.17/outbox.cif.g08.bks.cpg/sg9_10_cif.got.tgz:18546.got - 2010.06.03 20:04:27.
