data_PCOD9139609
_publ_section_title
;
Structure prediction by ZEFSAII (Michael W. Deem and Ramdas Pophale) SiO2 
 PCOD9139609
Probable space group: C C
;
_chemical_formula_sum "Si O2"
_cell_formula_units_Z 20
_cell_length_a 11.608887
_cell_length_b 11.160997
_cell_length_c 5.539668
_cell_angle_alpha 90.000000
_cell_angle_beta 89.691150
_cell_angle_gamma 90.000000
_cell_volume 717.746367
_symmetry_space_group_name_H-M "C C"
_symmetry_group_IT_number 9
_symmetry_cell_setting 'monoclinic'
loop_
_space_group_symop_operation_xyz
x,y,z
x,-y,1/2+z
1/2+x,1/2+y,z
1/2+x,1/2-y,1/2+z
loop_
_atom_site_type_symbol
_atom_site_label
_atom_site_fract_x
_atom_site_fract_y
_atom_site_fract_z
Si Si1 0.410400 0.233358 0.890560
Si Si2 0.117530 0.371145 0.140413
Si Si3 0.205820 0.354647 0.635815
Si Si4 0.987173 0.031928 0.612863
Si Si5 0.247920 0.942424 0.664999
O O1 0.488073 0.140294 0.740123
O O2 0.330422 0.310212 0.713993
O O3 0.486586 0.329074 0.037597
O O4 0.323850 0.166366 0.068378
O O5 0.181394 0.309680 0.366482
O O6 0.170677 0.504471 0.117614
O O7 0.131680 0.315781 0.874716
O O8 0.929847 0.974465 0.376012
O O9 0.107613 0.959053 0.650930
O O10 0.277435 0.034215 0.443248
#
# Coordination Sequence:
#
# PCOD9139609 Si02
#       5
#     4   4   4   4   4
#     4  12  28  46  84  98 148 206 220 302 388 386
#     4  10  26  47  70 109 143 180 249 295 344 443
#     4  10  26  47  70 109 143 180 249 295 344 443
#     4  10  26  47  70 109 143 180 249 295 344 443
#     4  10  26  47  70 109 143 180 249 295 344 443
#
# _framework density 27.864996000000001
#
# number of rings (size 3 to 8) (size 9 to 14) (size 15 to 20)
#    0.000    1.600    0.000    0.000   22.400    3.200 
#    0.000    0.000    0.000    0.000    0.000    0.000 
#    0.000    0.000    0.000    0.000    0.000    0.000 
#
# Total GULP energy -55842.129280 kJ/mol
# GULP energy per Si atom -5584.212928 kJ/mol
# Density = 2.780157 g / cm^3
# Si number density = 27.864996 Si / 1000 Ang^3
#
#
#
# Elastic Constant Matrix: (Units=GPa)
#
#
# Indices 1 2 3 4 5 6 
#
# 1 132.7111 57.7918 42.3384 0.0000 -7.0556 0.0000
# 2 57.7918 79.0013 8.4959 0.0000 -8.6997 0.0000
# 3 42.3384 8.4959 204.7095 0.0000 -9.9258 0.0000
# 4 0.0000 0.0000 0.0000 4.1931 0.0000 -33.6942
# 5 -7.0556 -8.6997 -9.9258 0.0000 51.0741 0.0000
# 6 0.0000 0.0000 0.0000 -33.6942 0.0000 48.2393
#
#
#
# Elastic Compliance Matrix: (Units=1/GPa)
#
#
# Indices 1 2 3 4 5 6 
#
# 1 0.011903 -0.008503 -0.002119 0.000000 -0.000216 0.000000
# 2 -0.008503 0.019012 0.001080 0.000000 0.002274 0.000000
# 3 -0.002119 0.001080 0.005323 0.000000 0.000926 0.000000
# 4 0.000000 0.000000 0.000000 -0.051702 0.000000 -0.036113
# 5 -0.000216 0.002274 0.000926 0.000000 0.020117 0.000000
# 6 0.000000 0.000000 0.000000 -0.036113 0.000000 -0.004494
#
#
# Mechanical properties :
#
#
# Convention : Reuss Voigt Hill
#
# Bulk Modulus (GPa) = 58.29728 70.40822 64.35275
# Shear Modulus (GPa) = 200.30589 41.22104 120.76346
#
# Velocity S-wave (km/s) = 8.48767 3.85036 6.59036
# Velocity P-wave (km/s) = 10.81761 6.71487 9.00306
#
# Compressibility (1/GPa) = 0.01715346
#
# Stress axis : x y z
#
# Youngs Moduli (GPa) = 84.01541 52.59714 187.85128
#
# Poissons Ratio (x) = 0.44723 0.39811
# Poissons Ratio (y) = 0.71438 -0.20284
# Poissons Ratio (z) = 0.17805 -0.05679
#
# Static dielectric constant tensor:
#      x y z
#    x 2.181300 0.000000 0.010900 
#    y 0.000000 2.720060 0.000000 
#    z 0.010900 0.000000 2.125030 
# 
# From -- ./inp_files/1477.got.cif
#   From: 2010.05.17/outbox.cif.g08.bks.cpg/sg9_1_cif.got.tgz:1477.got - 2010.06.03 20:04:27.
