data_PCOD9139121
_publ_section_title
;
Structure prediction by ZEFSAII (Michael W. Deem and Ramdas Pophale) SiO2 
 PCOD9139121
Probable space group: C C
;
_chemical_formula_sum "Si O2"
_cell_formula_units_Z 32
_cell_length_a 13.184254
_cell_length_b 4.928457
_cell_length_c 18.968980
_cell_angle_alpha 90.000000
_cell_angle_beta 71.555033
_cell_angle_gamma 90.000000
_cell_volume 1169.247492
_symmetry_space_group_name_H-M "C C"
_symmetry_group_IT_number 9
_symmetry_cell_setting 'monoclinic'
loop_
_space_group_symop_operation_xyz
x,y,z
x,-y,1/2+z
1/2+x,1/2+y,z
1/2+x,1/2-y,1/2+z
loop_
_atom_site_type_symbol
_atom_site_label
_atom_site_fract_x
_atom_site_fract_y
_atom_site_fract_z
Si Si1 0.684020 0.612197 0.459720
Si Si2 0.830521 0.087103 0.844797
Si Si3 0.602376 0.370979 0.854999
Si Si4 0.358145 0.724563 0.196754
Si Si5 0.078340 0.920876 0.123977
Si Si6 0.282594 0.241314 0.135070
Si Si7 0.551285 0.131286 0.270837
Si Si8 0.878506 0.726934 0.964735
O O1 0.713278 0.764798 0.374026
O O2 0.616787 0.408647 0.428169
O O3 0.616640 0.704982 0.540928
O O4 0.797390 0.514992 0.462634
O O5 0.925122 0.301683 0.814139
O O6 0.844056 0.864189 0.781346
O O7 0.834925 0.955230 0.920465
O O8 0.609041 0.631593 0.801351
O O9 0.500957 0.220281 0.917408
O O10 0.591788 0.153940 0.789013
O O11 0.473276 0.610128 0.146730
O O12 0.276539 0.533201 0.171977
O O13 0.333674 0.030742 0.180047
O O14 0.059416 0.692094 0.186292
O O15 0.176271 0.109956 0.127185
O O16 0.359361 0.276937 0.050620
#
# Coordination Sequence:
#
# PCOD9139121 Si02
#       8
#     4   4   4   4   4   4   4   4
#     4  11  24  43  69 100 136 182 232 288 352 417
#     4  10  24  44  74  97 145 184 236 293 356 414
#     4  11  24  42  71  98 133 180 230 281 344 416
#     4  11  27  48  73 106 144 190 241 294 353 430
#     4  10  26  48  69 107 142 188 234 298 355 424
#     4  11  27  45  77 101 147 189 238 290 364 423
#     4  10  24  46  68  98 140 179 228 288 346 414
#     4  10  24  46  65 103 141 182 231 294 352 416
#
# _framework density 27.368027000000001
#
# number of rings (size 3 to 8) (size 9 to 14) (size 15 to 20)
#    0.000    1.500    1.250    0.750   10.500    5.000 
#    6.750    0.000    0.000    0.000    0.000    0.000 
#    0.000    0.000    0.000    0.000    0.000    0.000 
#
# Total GULP energy -89414.653908 kJ/mol
# GULP energy per Si atom -5588.415869 kJ/mol
# Density = 2.730574 g / cm^3
# Si number density = 27.368027 Si / 1000 Ang^3
#
#
#
# Elastic Constant Matrix: (Units=GPa)
#
#
# Indices 1 2 3 4 5 6 
#
# 1 132.7486 -1.8044 24.3371 0.0005 -7.8204 0.0004
# 2 -1.8044 79.6397 53.2384 0.0033 6.5123 0.0014
# 3 24.3371 53.2384 184.3333 -0.0003 5.3297 0.0005
# 4 0.0005 0.0033 -0.0003 31.5767 0.0007 9.8679
# 5 -7.8204 6.5123 5.3297 0.0007 49.1187 0.0005
# 6 0.0004 0.0014 0.0005 9.8679 0.0005 23.6450
#
#
#
# Elastic Compliance Matrix: (Units=1/GPa)
#
#
# Indices 1 2 3 4 5 6 
#
# 1 0.007871 0.000984 -0.001360 0.000000 0.001270 0.000000
# 2 0.000984 0.015807 -0.004654 -0.000002 -0.001434 0.000000
# 3 -0.001360 -0.004654 0.006959 0.000001 -0.000355 0.000000
# 4 0.000000 -0.000002 0.000001 0.036419 0.000000 -0.015199
# 5 0.001270 -0.001434 -0.000355 0.000000 0.020790 0.000000
# 6 0.000000 0.000000 0.000000 -0.015199 0.000000 0.048635
#
#
# Mechanical properties :
#
#
# Convention : Reuss Voigt Hill
#
# Bulk Modulus (GPa) = 48.59967 60.91819 54.75893
# Shear Modulus (GPa) = 32.59471 42.26478 37.42974
#
# Velocity S-wave (km/s) = 3.45480 3.93404 3.70218
# Velocity P-wave (km/s) = 5.80608 6.55307 6.19085
#
# Compressibility (1/GPa) = 0.02057627
#
# Stress axis : x y z
#
# Youngs Moduli (GPa) = 127.05586 63.26276 143.70241
#
# Poissons Ratio (x) = -0.06222 0.19542
# Poissons Ratio (y) = -0.12497 0.66875
# Poissons Ratio (z) = 0.17279 0.29441
#
# Static dielectric constant tensor:
#      x y z
#    x 2.230680 0.000000 0.006370 
#    y 0.000000 2.154230 0.000000 
#    z 0.006370 0.000000 2.317070 
# 
# From -- ./inp_files/30459.got.cif
#   From: 2010.05.17/outbox.cif.g08.bks.cpg/sg9_16_cif.got.tgz:30459.got - 2010.06.03 20:04:27.
