data_PCOD9139820
_publ_section_title
;
Structure prediction by ZEFSAII (Michael W. Deem and Ramdas Pophale) SiO2 
 PCOD9139820
Probable space group: C C
;
_chemical_formula_sum "Si O2"
_cell_formula_units_Z 32
_cell_length_a 8.388406
_cell_length_b 23.146177
_cell_length_c 11.703211
_cell_angle_alpha 90.000000
_cell_angle_beta 139.195899
_cell_angle_gamma 90.000000
_cell_volume 1484.884185
_symmetry_space_group_name_H-M "C C"
_symmetry_group_IT_number 9
_symmetry_cell_setting 'monoclinic'
loop_
_space_group_symop_operation_xyz
x,y,z
x,-y,1/2+z
1/2+x,1/2+y,z
1/2+x,1/2-y,1/2+z
loop_
_atom_site_type_symbol
_atom_site_label
_atom_site_fract_x
_atom_site_fract_y
_atom_site_fract_z
Si Si1 0.857830 0.163739 0.280080
Si Si2 0.762064 0.153988 0.970096
Si Si3 0.221175 0.181343 0.081679
Si Si4 0.710299 0.647582 0.662158
Si Si5 0.104220 0.767379 0.282055
Si Si6 0.734282 0.468149 0.325567
Si Si7 0.724094 0.016628 0.971912
Si Si8 0.489691 0.927340 0.675416
O O1 0.866368 0.172838 0.150058
O O2 0.755473 0.218487 0.295529
O O3 0.671305 0.110465 0.196086
O O4 0.104375 0.145532 0.478051
O O5 0.948210 0.176853 0.977377
O O6 0.481818 0.173625 0.810025
O O7 0.742402 0.084236 0.951084
O O8 0.378381 0.234027 0.215853
O O9 0.359907 0.121272 0.183073
O O10 0.230039 0.195703 0.950385
O O11 0.537799 0.687014 0.648084
O O12 0.716501 0.586994 0.731407
O O13 0.775132 0.452102 0.479537
O O14 0.995059 0.495096 0.431881
O O15 0.485207 0.501555 0.167679
O O16 0.647584 0.975594 0.824759
#
# Coordination Sequence:
#
# PCOD9139820 Si02
#       8
#     4   4   4   4   4   4   4   4
#     4  11  22  43  72  97 133 184 234 280 344 434
#     4  11  26  45  62 106 149 165 236 307 339 411
#     4  11  24  44  67 106 141 172 236 303 345 418
#     4  11  21  43  72  97 130 189 233 272 356 434
#     4  11  22  44  72  94 131 188 228 279 358 425
#     4  11  23  41  67  99 138 178 239 285 349 421
#     4  11  24  41  67 101 135 189 228 286 357 407
#     4  11  22  43  71  94 137 185 234 284 340 434
#
# _framework density 21.550502000000002
#
# number of rings (size 3 to 8) (size 9 to 14) (size 15 to 20)
#    0.000    1.000    6.250    1.500    0.000    5.000 
#    2.250    0.000    0.000    0.000    0.000    0.000 
#    0.000    0.000    0.000    0.000    0.000    0.000 
#
# Total GULP energy -89317.189472 kJ/mol
# GULP energy per Si atom -5582.324342 kJ/mol
# Density = 2.150145 g / cm^3
# Si number density = 21.550502 Si / 1000 Ang^3
#
#
#
# Elastic Constant Matrix: (Units=GPa)
#
#
# Indices 1 2 3 4 5 6 
#
# 1 70.5113 33.8662 19.7016 0.0000 13.0041 0.0000
# 2 33.8662 70.3765 32.7357 0.0000 9.6714 0.0000
# 3 19.7016 32.7357 130.4933 0.0000 3.0182 0.0000
# 4 0.0000 0.0000 0.0000 29.3202 0.0000 0.4909
# 5 13.0041 9.6714 3.0182 0.0000 33.9239 0.0000
# 6 0.0000 0.0000 0.0000 0.4909 0.0000 20.0006
#
#
#
# Elastic Compliance Matrix: (Units=1/GPa)
#
#
# Indices 1 2 3 4 5 6 
#
# 1 0.019263 -0.008250 -0.000724 0.000000 -0.004968 0.000000
# 2 -0.008250 0.020251 -0.003782 0.000000 -0.002274 0.000000
# 3 -0.000724 -0.003782 0.008708 0.000000 0.000581 0.000000
# 4 0.000000 0.000000 0.000000 0.034120 0.000000 -0.000837
# 5 -0.004968 -0.002274 0.000581 0.000000 0.031979 0.000000
# 6 0.000000 0.000000 0.000000 -0.000837 0.000000 0.050019
#
#
# Mechanical properties :
#
#
# Convention : Reuss Voigt Hill
#
# Bulk Modulus (GPa) = 44.03353 49.33201 46.68277
# Shear Modulus (GPa) = 25.32643 28.98747 27.15695
#
# Velocity S-wave (km/s) = 3.43186 3.67153 3.55372
# Velocity P-wave (km/s) = 6.01503 6.39645 6.20867
#
# Compressibility (1/GPa) = 0.02270997
#
# Stress axis : x y z
#
# Youngs Moduli (GPa) = 51.91275 49.37970 114.83930
#
# Poissons Ratio (x) = 0.40740 0.08311
# Poissons Ratio (y) = 0.42830 0.43432
# Poissons Ratio (z) = 0.03757 0.18676
#
# Static dielectric constant tensor:
#      x y z
#    x 1.786880 0.000000 0.015570 
#    y 0.000000 1.810900 0.000000 
#    z 0.015570 0.000000 1.830670 
# 
# From -- ./inp_files/15616.got.cif
#   From: 2010.05.17/outbox.cif.g08.bks.cpg/sg9_8_cif.got.tgz:15616.got - 2010.06.03 20:04:27.
