data_PCOD9139928
_publ_section_title
;
Structure prediction by ZEFSAII (Michael W. Deem and Ramdas Pophale) SiO2 
 PCOD9139928
Probable space group: C C
;
_chemical_formula_sum "Si O2"
_cell_formula_units_Z 20
_cell_length_a 8.611762
_cell_length_b 12.069110
_cell_length_c 12.364368
_cell_angle_alpha 90.000000
_cell_angle_beta 49.129560
_cell_angle_gamma 90.000000
_cell_volume 971.786327
_symmetry_space_group_name_H-M "C C"
_symmetry_group_IT_number 9
_symmetry_cell_setting 'monoclinic'
loop_
_space_group_symop_operation_xyz
x,y,z
x,-y,1/2+z
1/2+x,1/2+y,z
1/2+x,1/2-y,1/2+z
loop_
_atom_site_type_symbol
_atom_site_label
_atom_site_fract_x
_atom_site_fract_y
_atom_site_fract_z
Si Si1 0.794800 0.830471 0.645690
Si Si2 0.930050 0.179639 0.743921
Si Si3 0.218720 0.255944 0.903870
Si Si4 0.027014 0.804135 0.952842
Si Si5 0.074359 0.041718 0.871705
O O1 0.577487 0.782200 0.709862
O O2 0.787623 0.839716 0.778426
O O3 0.874845 0.933746 0.539578
O O4 0.974083 0.740477 0.536027
O O5 0.698640 0.209571 0.880536
O O6 0.014377 0.079883 0.778990
O O7 0.949954 0.167488 0.607321
O O8 0.345744 0.270807 0.954262
O O9 0.236241 0.131065 0.845863
O O10 0.130580 0.914871 0.856713
#
# Coordination Sequence:
#
# PCOD9139928 Si02
#       5
#     4   4   4   4   4
#     4   9  18  43  59  81 131 158 194 248 314 350
#     4  11  22  42  62  95 126 160 205 262 298 368
#     4   9  20  38  61  88 121 161 201 253 296 365
#     4  12  23  40  67  92 125 157 215 256 298 367
#     4   9  23  41  61  86 127 168 197 243 322 362
#
# _framework density 20.580656999999999
#
# number of rings (size 3 to 8) (size 9 to 14) (size 15 to 20)
#    1.200    0.800    2.000    1.200    2.800    0.000 
#   10.800    2.000    0.000    0.000    0.000    0.000 
#    0.000    0.000    0.000    0.000    0.000    0.000 
#
# Total GULP energy -55710.933860 kJ/mol
# GULP energy per Si atom -5571.093386 kJ/mol
# Density = 2.053381 g / cm^3
# Si number density = 20.580657 Si / 1000 Ang^3
#
#
#
# Elastic Constant Matrix: (Units=GPa)
#
#
# Indices 1 2 3 4 5 6 
#
# 1 99.6711 12.9532 27.2223 0.0000 33.2930 0.0000
# 2 12.9532 41.8357 -13.0633 -0.0001 15.3606 0.0000
# 3 27.2223 -13.0633 91.4205 -0.0001 25.5380 0.0001
# 4 0.0000 -0.0001 -0.0001 -0.8114 0.0001 -8.4143
# 5 33.2930 15.3606 25.5380 0.0001 42.2253 -0.0001
# 6 0.0000 0.0000 0.0001 -8.4143 -0.0001 12.1654
#
#
#
# Elastic Compliance Matrix: (Units=1/GPa)
#
#
# Indices 1 2 3 4 5 6 
#
# 1 0.013799 -0.001361 -0.001688 0.000000 -0.009364 0.000000
# 2 -0.001361 0.033837 0.010083 0.000000 -0.017334 0.000000
# 3 -0.001688 0.010083 0.016286 0.000000 -0.012187 0.000000
# 4 0.000000 0.000000 0.000000 -0.150800 0.000001 -0.104303
# 5 -0.009364 -0.017334 -0.012187 0.000001 0.044742 0.000001
# 6 0.000000 0.000000 0.000000 -0.104303 0.000001 0.010059
#
#
# Mechanical properties :
#
#
# Convention : Reuss Voigt Hill
#
# Bulk Modulus (GPa) = 12.82225 31.90575 22.36400
# Shear Modulus (GPa) = -248.15183 24.43684 -111.85749
#
# Velocity S-wave (km/s) = -10.99259 3.44956 -7.38030
# Velocity P-wave (km/s) = 12.44477 5.60378 7.85716
#
# Compressibility (1/GPa) = 0.07798944
#
# Stress axis : x y z
#
# Youngs Moduli (GPa) = 72.47111 29.55329 61.40201
#
# Poissons Ratio (x) = 0.04023 0.10362
# Poissons Ratio (y) = 0.09865 -0.61909
# Poissons Ratio (z) = 0.12230 -0.29797
#
# Static dielectric constant tensor:
#      x y z
#    x 1.705860 0.000000 0.022190 
#    y 0.000000 1.743970 0.000000 
#    z 0.022190 0.000000 1.752270 
# 
# From -- ./inp_files/4662.got.cif
#   From: 2010.05.17/outbox.cif.g08.bks.cpg/sg9_3_cif.got.tgz:4662.got - 2010.06.03 20:04:27.
