data_PCOD9139860
_publ_section_title
;
Structure prediction by ZEFSAII (Michael W. Deem and Ramdas Pophale) SiO2 
 PCOD9139860
Probable space group: C C
;
_chemical_formula_sum "Si O2"
_cell_formula_units_Z 32
_cell_length_a 7.419673
_cell_length_b 12.362124
_cell_length_c 22.340865
_cell_angle_alpha 90.000000
_cell_angle_beta 130.832839
_cell_angle_gamma 90.000000
_cell_volume 1550.443361
_symmetry_space_group_name_H-M "C C"
_symmetry_group_IT_number 9
_symmetry_cell_setting 'monoclinic'
loop_
_space_group_symop_operation_xyz
x,y,z
x,-y,1/2+z
1/2+x,1/2+y,z
1/2+x,1/2-y,1/2+z
loop_
_atom_site_type_symbol
_atom_site_label
_atom_site_fract_x
_atom_site_fract_y
_atom_site_fract_z
Si Si1 0.264150 0.084317 0.821650
Si Si2 0.500469 0.767765 0.472283
Si Si3 0.495320 0.542214 0.420527
Si Si4 0.535842 0.765500 0.046467
Si Si5 0.117871 0.637542 0.798486
Si Si6 0.699491 0.072711 0.685043
Si Si7 0.302594 0.138088 0.383738
Si Si8 0.891298 0.607006 0.067126
O O1 0.338725 0.159372 0.893577
O O2 0.383179 0.130861 0.787871
O O3 0.981827 0.076892 0.754688
O O4 0.363837 0.964399 0.856821
O O5 0.427074 0.642625 0.448018
O O6 0.480037 0.812856 0.534483
O O7 0.772711 0.775910 0.507682
O O8 0.299401 0.451971 0.364815
O O9 0.582006 0.597268 0.377381
O O10 0.722496 0.481979 0.498453
O O11 0.625222 0.845927 0.116518
O O12 0.723118 0.670820 0.076311
O O13 0.498650 0.826936 0.975119
O O14 0.081003 0.609461 0.721483
O O15 0.232862 0.755577 0.832012
O O16 0.604569 0.955149 0.645710
#
# Coordination Sequence:
#
# PCOD9139860 Si02
#       8
#     4   4   4   4   4   4   4   4
#     4  12  25  43  73 108 139 190 240 286 366 425
#     4  11  23  45  78 103 136 187 249 291 343 436
#     4  11  21  46  73 106 135 178 243 299 337 425
#     4  11  25  47  72 104 141 187 246 288 351 425
#     4  12  26  45  74 103 144 190 237 292 361 422
#     4  12  28  46  65 109 156 180 230 308 362 418
#     4  11  22  46  74 103 137 182 248 292 331 437
#     4  12  24  46  71 102 144 186 227 302 363 410
#
# _framework density 20.639257000000001
#
# number of rings (size 3 to 8) (size 9 to 14) (size 15 to 20)
#    0.000    0.500    8.750    0.000    1.750    6.000 
#    2.250    0.000    0.000    0.000    0.000    0.000 
#    0.000    0.000    0.000    0.000    0.000    0.000 
#
# Total GULP energy -89528.483125 kJ/mol
# GULP energy per Si atom -5595.530195 kJ/mol
# Density = 2.059228 g / cm^3
# Si number density = 20.639257 Si / 1000 Ang^3
#
#
#
# Elastic Constant Matrix: (Units=GPa)
#
#
# Indices 1 2 3 4 5 6 
#
# 1 44.9193 3.4447 13.6619 0.0000 2.7352 0.0000
# 2 3.4447 103.4229 4.9347 0.0000 0.5311 0.0000
# 3 13.6619 4.9347 57.4467 0.0000 6.4076 0.0000
# 4 0.0000 0.0000 0.0000 27.0154 0.0000 -9.5332
# 5 2.7352 0.5311 6.4076 0.0000 38.3096 0.0000
# 6 0.0000 0.0000 0.0000 -9.5332 0.0000 32.7277
#
#
#
# Elastic Compliance Matrix: (Units=1/GPa)
#
#
# Indices 1 2 3 4 5 6 
#
# 1 0.024049 -0.000530 -0.005587 0.000000 -0.000775 0.000000
# 2 -0.000530 0.009721 -0.000711 0.000000 0.000022 0.000000
# 3 -0.005587 -0.000711 0.019108 0.000000 -0.002787 0.000000
# 4 0.000000 0.000000 0.000000 0.041257 0.000000 0.012018
# 5 -0.000775 0.000022 -0.002787 0.000000 0.026624 0.000000
# 6 0.000000 0.000000 0.000000 0.012018 0.000000 0.034056
#
#
# Mechanical properties :
#
#
# Convention : Reuss Voigt Hill
#
# Bulk Modulus (GPa) = 25.49726 27.76349 26.63038
# Shear Modulus (GPa) = 27.54115 31.86037 29.70076
#
# Velocity S-wave (km/s) = 3.65692 3.93323 3.79759
# Velocity P-wave (km/s) = 5.49648 5.84021 5.67095
#
# Compressibility (1/GPa) = 0.03921991
#
# Stress axis : x y z
#
# Youngs Moduli (GPa) = 41.58115 102.87504 52.33358
#
# Poissons Ratio (x) = 0.05457 0.29241
# Poissons Ratio (y) = 0.02206 0.03723
# Poissons Ratio (z) = 0.23233 0.07318
#
# Static dielectric constant tensor:
#      x y z
#    x 1.749240 0.000000 0.003760 
#    y 0.000000 1.742040 0.000000 
#    z 0.003760 0.000000 1.712710 
# 
# From -- ./inp_files/29240.got.cif
#   From: 2010.05.17/outbox.cif.g08.bks.cpg/sg9_15_cif.got.tgz:29240.got - 2010.06.03 20:04:27.
