data_PCOD9139723
_publ_section_title
;
Structure prediction by ZEFSAII (Michael W. Deem and Ramdas Pophale) SiO2 
 PCOD9139723
Probable space group: C C
;
_chemical_formula_sum "Si O2"
_cell_formula_units_Z 32
_cell_length_a 17.762453
_cell_length_b 8.193359
_cell_length_c 21.202037
_cell_angle_alpha 90.000000
_cell_angle_beta 24.626837
_cell_angle_gamma 90.000000
_cell_volume 1285.798521
_symmetry_space_group_name_H-M "C C"
_symmetry_group_IT_number 9
_symmetry_cell_setting 'monoclinic'
loop_
_space_group_symop_operation_xyz
x,y,z
x,-y,1/2+z
1/2+x,1/2+y,z
1/2+x,1/2-y,1/2+z
loop_
_atom_site_type_symbol
_atom_site_label
_atom_site_fract_x
_atom_site_fract_y
_atom_site_fract_z
Si Si1 0.861840 0.425482 0.517650
Si Si2 0.189546 0.276959 0.056839
Si Si3 0.298575 0.228598 0.840955
Si Si4 0.020336 0.320589 0.819884
Si Si5 0.801221 0.908309 0.302524
Si Si6 0.375186 0.459670 0.499550
Si Si7 0.705297 0.613572 0.461551
Si Si8 0.172457 0.806477 0.784721
O O1 0.702233 0.382308 0.591191
O O2 0.943113 0.600342 0.442989
O O3 0.808694 0.376168 0.628700
O O4 0.023383 0.311712 0.367350
O O5 0.001921 0.301392 0.163490
O O6 0.323071 0.267689 0.896439
O O7 0.242504 0.418207 0.063823
O O8 0.238971 0.401284 0.854586
O O9 0.208276 0.048131 0.914022
O O10 0.980252 0.133159 0.863672
O O11 0.887261 0.382027 0.865679
O O12 0.228735 0.361778 0.651667
O O13 0.710208 0.788225 0.422729
O O14 0.760917 0.811932 0.268267
O O15 0.018792 0.899735 0.142033
O O16 0.536913 0.551791 0.412919
#
# Coordination Sequence:
#
# PCOD9139723 Si02
#       8
#     4   4   4   4   4   4   4   4
#     4  11  21  41  72  98 145 187 251 320 378 452
#     4  11  20  41  69 108 145 184 241 319 402 449
#     4  12  23  44  71 112 150 196 246 320 396 464
#     4  12  22  41  71 119 150 189 252 332 410 466
#     4  12  28  48  73 106 158 210 260 306 382 473
#     4  11  23  39  71 109 156 196 253 320 399 469
#     4  12  26  44  75 116 155 197 254 324 397 474
#     4  11  25  46  68 100 139 215 259 301 372 465
#
# _framework density 24.887257999999999
#
# number of rings (size 3 to 8) (size 9 to 14) (size 15 to 20)
#    0.000    0.500    3.750    6.000    1.750    0.000 
#    2.250    0.000    0.000    0.000    0.000    0.000 
#    0.000    0.000    0.000    0.000    0.000    0.000 
#
# Total GULP energy -89258.923862 kJ/mol
# GULP energy per Si atom -5578.682741 kJ/mol
# Density = 2.483061 g / cm^3
# Si number density = 24.887258 Si / 1000 Ang^3
#
#
#
# Elastic Constant Matrix: (Units=GPa)
#
#
# Indices 1 2 3 4 5 6 
#
# 1 86.0600 26.1641 17.0921 0.0001 6.0783 -0.0001
# 2 26.1641 132.1441 50.2770 -0.0010 4.8851 0.0002
# 3 17.0921 50.2770 78.2911 -0.0019 -0.2990 0.0004
# 4 0.0001 -0.0010 -0.0019 49.1743 0.0002 6.2104
# 5 6.0783 4.8851 -0.2990 0.0002 15.8908 0.0001
# 6 -0.0001 0.0002 0.0004 6.2104 0.0001 35.4947
#
#
#
# Elastic Compliance Matrix: (Units=1/GPa)
#
#
# Indices 1 2 3 4 5 6 
#
# 1 0.012792 -0.001722 -0.001704 0.000000 -0.004396 0.000000
# 2 -0.001722 0.010412 -0.006320 0.000000 -0.002661 0.000000
# 3 -0.001704 -0.006320 0.017215 0.000001 0.002918 0.000000
# 4 0.000000 0.000000 0.000001 0.020795 0.000000 -0.003638
# 5 -0.004396 -0.002661 0.002918 0.000000 0.065484 0.000000
# 6 0.000000 0.000000 0.000000 -0.003638 0.000000 0.028810
#
#
# Mechanical properties :
#
#
# Convention : Reuss Voigt Hill
#
# Bulk Modulus (GPa) = 47.78658 53.72906 50.75782
# Shear Modulus (GPa) = 27.47637 33.64278 30.55957
#
# Velocity S-wave (km/s) = 3.32631 3.68068 3.50797
# Velocity P-wave (km/s) = 5.83055 6.30072 6.07019
#
# Compressibility (1/GPa) = 0.02092638
#
# Stress axis : x y z
#
# Youngs Moduli (GPa) = 78.17277 96.04752 58.09007
#
# Poissons Ratio (x) = 0.16541 0.09896
# Poissons Ratio (y) = 0.13462 0.36714
# Poissons Ratio (z) = 0.13317 0.60705
#
# Static dielectric constant tensor:
#      x y z
#    x 1.976500 0.000000 -0.017240 
#    y 0.000000 2.103440 0.000000 
#    z -0.017240 0.000000 1.953790 
# 
# From -- ./inp_files/35974.got.cif
#   From: 2010.05.17/outbox.cif.g08.bks.cpg/sg9_18_cif.got.tgz:35974.got - 2010.06.03 20:04:27.
