data_PCOD9139681
_publ_section_title
;
Structure prediction by ZEFSAII (Michael W. Deem and Ramdas Pophale) SiO2 
 PCOD9139681
Probable space group: C C
;
_chemical_formula_sum "Si O2"
_cell_formula_units_Z 28
_cell_length_a 11.499717
_cell_length_b 8.605607
_cell_length_c 23.933431
_cell_angle_alpha 90.000000
_cell_angle_beta 35.321949
_cell_angle_gamma 90.000000
_cell_volume 1369.396929
_symmetry_space_group_name_H-M "C C"
_symmetry_group_IT_number 9
_symmetry_cell_setting 'monoclinic'
loop_
_space_group_symop_operation_xyz
x,y,z
x,-y,1/2+z
1/2+x,1/2+y,z
1/2+x,1/2-y,1/2+z
loop_
_atom_site_type_symbol
_atom_site_label
_atom_site_fract_x
_atom_site_fract_y
_atom_site_fract_z
Si Si1 0.821100 0.952733 0.161640
Si Si2 0.206884 0.164714 0.016634
Si Si3 0.855987 0.935565 0.768720
Si Si4 0.710840 0.940773 0.947414
Si Si5 0.782207 0.576462 0.572173
Si Si6 0.014555 0.383389 0.185094
Si Si7 0.076096 0.659036 0.089763
O O1 0.642365 0.943517 0.187660
O O2 0.930311 0.784995 0.118857
O O3 0.761303 0.993486 0.249217
O O4 0.998931 0.078770 0.079757
O O5 0.154484 0.287194 0.086593
O O6 0.330239 0.027821 0.998190
O O7 0.298545 0.275393 0.933467
O O8 0.778527 0.983963 0.859261
O O9 0.854383 0.747538 0.765283
O O10 0.087817 0.993486 0.674663
O O11 0.470291 0.916374 0.038183
O O12 0.723618 0.076372 0.987772
O O13 0.711452 0.743540 0.579546
O O14 0.950816 0.531940 0.173893
#
# Coordination Sequence:
#
# PCOD9139681 Si02
#       7
#     4   4   4   4   4   4   4
#     4   9  17  35  53  72 104 135 166 213 254 298
#     4   8  18  31  51  78  99 130 176 204 251 316
#     4   9  21  34  51  81 105 132 178 211 256 314
#     4  11  19  35  55  75 107 137 168 220 258 298
#     4   9  19  37  52  74 107 139 169 212 260 301
#     4   9  16  32  52  71  99 135 165 205 254 301
#     4   9  18  32  56  77  95 136 178 201 253 314
#
# _framework density 20.446957000000001
#
# number of rings (size 3 to 8) (size 9 to 14) (size 15 to 20)
#    0.000    3.429    0.000    2.571    0.000    1.143 
#    0.000   15.714    0.000    0.000    0.000    0.000 
#    0.000    0.000    0.000    0.000    0.000    0.000 
#
# Total GULP energy -77956.061926 kJ/mol
# GULP energy per Si atom -5568.290138 kJ/mol
# Density = 2.040042 g / cm^3
# Si number density = 20.446957 Si / 1000 Ang^3
#
#
#
# Elastic Constant Matrix: (Units=GPa)
#
#
# Indices 1 2 3 4 5 6 
#
# 1 45.1632 13.0830 2.6544 0.0000 7.7864 0.0000
# 2 13.0830 111.6300 31.7303 0.0000 15.4596 0.0000
# 3 2.6544 31.7303 60.0774 0.0000 15.6095 0.0000
# 4 0.0000 0.0000 0.0000 10.6006 0.0000 5.7653
# 5 7.7864 15.4596 15.6095 0.0000 14.3128 0.0000
# 6 0.0000 0.0000 0.0000 5.7653 0.0000 15.1165
#
#
#
# Elastic Compliance Matrix: (Units=1/GPa)
#
#
# Indices 1 2 3 4 5 6 
#
# 1 0.025229 -0.001879 0.004070 0.000000 -0.016133 0.000000
# 2 -0.001879 0.011276 -0.004149 0.000000 -0.006632 0.000000
# 3 0.004070 -0.004149 0.025212 0.000000 -0.025228 0.000000
# 4 0.000000 0.000000 0.000000 0.119023 0.000000 -0.045395
# 5 -0.016133 -0.006632 -0.025228 0.000000 0.113322 0.000000
# 6 0.000000 0.000000 0.000000 -0.045395 0.000000 0.083466
#
#
# Mechanical properties :
#
#
# Convention : Reuss Voigt Hill
#
# Bulk Modulus (GPa) = 17.30145 34.64509 25.97327
# Shear Modulus (GPa) = 12.47779 19.29949 15.88864
#
# Velocity S-wave (km/s) = 2.47301 3.07560 2.79062
# Velocity P-wave (km/s) = 4.07852 5.43995 4.80767
#
# Compressibility (1/GPa) = 0.05779863
#
# Stress axis : x y z
#
# Youngs Moduli (GPa) = 39.63755 88.68105 39.66396
#
# Poissons Ratio (x) = 0.16666 -0.16142
# Poissons Ratio (y) = 0.07449 0.16459
# Poissons Ratio (z) = -0.16131 0.36798
#
# Static dielectric constant tensor:
#      x y z
#    x 1.719750 0.000000 0.015430 
#    y 0.000000 1.775930 0.000000 
#    z 0.015430 0.000000 1.764290 
# 
# From -- ./inp_files/24069.got.cif
#   From: 2010.05.17/outbox.cif.g08.bks.cpg/sg9_13_cif.got.tgz:24069.got - 2010.06.03 20:04:27.
