data_PCOD9139362
_publ_section_title
;
Structure prediction by ZEFSAII (Michael W. Deem and Ramdas Pophale) SiO2 
 PCOD9139362
Probable space group: C C
;
_chemical_formula_sum "Si O2"
_cell_formula_units_Z 20
_cell_length_a 5.340402
_cell_length_b 24.381520
_cell_length_c 7.514610
_cell_angle_alpha 90.000000
_cell_angle_beta 126.921751
_cell_angle_gamma 90.000000
_cell_volume 782.232941
_symmetry_space_group_name_H-M "C C"
_symmetry_group_IT_number 9
_symmetry_cell_setting 'monoclinic'
loop_
_space_group_symop_operation_xyz
x,y,z
x,-y,1/2+z
1/2+x,1/2+y,z
1/2+x,1/2-y,1/2+z
loop_
_atom_site_type_symbol
_atom_site_label
_atom_site_fract_x
_atom_site_fract_y
_atom_site_fract_z
Si Si1 0.286490 0.544876 0.917060
Si Si2 0.312786 0.574261 0.314536
Si Si3 0.908857 0.162861 0.943875
Si Si4 0.488615 0.223367 0.045709
Si Si5 0.465688 0.886386 0.005967
O O1 0.412752 0.484330 0.945452
O O2 0.503825 0.598370 0.983087
O O3 0.046458 0.559924 0.660248
O O4 0.163741 0.555350 0.063604
O O5 0.101672 0.602065 0.371820
O O6 0.599385 0.614798 0.388991
O O7 0.687574 0.181073 0.010237
O O8 0.667695 0.163503 0.672929
O O9 0.219158 0.197693 0.055816
O O10 0.258527 0.251640 0.794035
#
# Coordination Sequence:
#
# PCOD9139362 Si02
#       5
#     4   4   4   4   4
#     4  10  25  41  67  98 147 183 250 280 355 427
#     4  12  23  40  67  99 141 203 226 299 338 419
#     4  10  25  48  70 109 140 186 247 305 371 453
#     4  12  27  50  81 107 147 187 247 316 395 457
#     4  10  26  41  65  97 143 179 244 282 345 430
#
# _framework density 25.567831000000002
#
# number of rings (size 3 to 8) (size 9 to 14) (size 15 to 20)
#    1.200    0.000    2.000    2.400    2.800    9.600 
#    0.000    0.000    0.000    0.000    0.000    0.000 
#    0.000    0.000    0.000    0.000    0.000    0.000 
#
# Total GULP energy -55691.487340 kJ/mol
# GULP energy per Si atom -5569.148734 kJ/mol
# Density = 2.550964 g / cm^3
# Si number density = 25.567831 Si / 1000 Ang^3
#
#
#
# Elastic Constant Matrix: (Units=GPa)
#
#
# Indices 1 2 3 4 5 6 
#
# 1 173.2893 19.3552 61.5445 0.0000 9.9867 0.0000
# 2 19.3552 75.2622 25.0635 0.0000 30.1630 0.0000
# 3 61.5445 25.0635 119.0369 0.0000 15.6655 0.0000
# 4 0.0000 0.0000 0.0000 43.4010 0.0000 0.3078
# 5 9.9867 30.1630 15.6655 0.0000 44.2163 0.0000
# 6 0.0000 0.0000 0.0000 0.3078 0.0000 34.4334
#
#
#
# Elastic Compliance Matrix: (Units=1/GPa)
#
#
# Indices 1 2 3 4 5 6 
#
# 1 0.007099 -0.000697 -0.003540 0.000000 0.000127 0.000000
# 2 -0.000697 0.018985 -0.002049 0.000000 -0.012067 0.000000
# 3 -0.003540 -0.002049 0.010880 0.000000 -0.001658 0.000000
# 4 0.000000 0.000000 0.000000 0.023042 0.000000 -0.000206
# 5 0.000127 -0.012067 -0.001658 0.000000 0.031407 0.000000
# 6 0.000000 0.000000 0.000000 -0.000206 0.000000 0.029043
#
#
# Mechanical properties :
#
#
# Convention : Reuss Voigt Hill
#
# Bulk Modulus (GPa) = 40.99723 64.39053 52.69388
# Shear Modulus (GPa) = 35.42107 41.85182 38.63645
#
# Velocity S-wave (km/s) = 3.72610 4.05024 3.89155
# Velocity P-wave (km/s) = 5.88059 6.86378 6.39112
#
# Compressibility (1/GPa) = 0.02439189
#
# Stress axis : x y z
#
# Youngs Moduli (GPa) = 140.87473 52.67385 91.90783
#
# Poissons Ratio (x) = 0.03674 0.32534
# Poissons Ratio (y) = 0.09825 0.18828
# Poissons Ratio (z) = 0.49868 0.10791
#
# Static dielectric constant tensor:
#      x y z
#    x 1.896760 0.000000 -0.014110 
#    y 0.000000 2.023990 0.000000 
#    z -0.014110 0.000000 2.192670 
# 
# From -- ./inp_files/4033.got.cif
#   From: 2010.05.17/outbox.cif.g08.bks.cpg/sg9_3_cif.got.tgz:4033.got - 2010.06.03 20:04:27.
