data_PCOD9139027
_publ_section_title
;
Structure prediction by ZEFSAII (Michael W. Deem and Ramdas Pophale) SiO2 
 PCOD9139027
Probable space group: C C
;
_chemical_formula_sum "Si O2"
_cell_formula_units_Z 32
_cell_length_a 10.403696
_cell_length_b 16.459666
_cell_length_c 8.262714
_cell_angle_alpha 90.000000
_cell_angle_beta 82.946359
_cell_angle_gamma 90.000000
_cell_volume 1404.209755
_symmetry_space_group_name_H-M "C C"
_symmetry_group_IT_number 9
_symmetry_cell_setting 'monoclinic'
loop_
_space_group_symop_operation_xyz
x,y,z
x,-y,1/2+z
1/2+x,1/2+y,z
1/2+x,1/2-y,1/2+z
loop_
_atom_site_type_symbol
_atom_site_label
_atom_site_fract_x
_atom_site_fract_y
_atom_site_fract_z
Si Si1 0.610880 0.419726 0.803380
Si Si2 0.939957 0.159672 0.609452
Si Si3 0.001543 0.229077 0.935874
Si Si4 0.316986 0.047370 0.793449
Si Si5 0.773533 0.687174 0.048685
Si Si6 0.863562 0.903152 0.640381
Si Si7 0.454633 0.084905 0.458692
Si Si8 0.240277 0.450567 0.996072
O O1 0.679018 0.503857 0.833151
O O2 0.719865 0.359753 0.714554
O O3 0.504373 0.433836 0.679353
O O4 0.538966 0.377694 0.964319
O O5 0.999669 0.174519 0.775213
O O6 0.881538 0.245869 0.562900
O O7 0.815479 0.100500 0.621576
O O8 0.895961 0.186798 0.070915
O O9 0.143329 0.226335 0.993453
O O10 0.968433 0.322057 0.905457
O O11 0.341607 0.076588 0.608743
O O12 0.326527 0.120376 0.916949
O O13 0.420785 0.978140 0.823881
O O14 0.779728 0.912216 0.816379
O O15 0.796649 0.959316 0.515961
O O16 0.587315 0.057516 0.524787
#
# Coordination Sequence:
#
# PCOD9139027 Si02
#       8
#     4   4   4   4   4   4   4   4
#     4  10  25  46  72 109 141 188 251 303 362 437
#     4  11  25  45  74 106 148 192 243 312 362 436
#     4  11  26  45  75 108 145 191 245 298 375 429
#     4  12  27  45  74 101 147 194 241 298 368 443
#     4  11  25  47  67 109 145 184 243 305 363 440
#     4  10  24  43  76 104 139 188 245 305 354 437
#     4  12  27  48  70 106 150 192 239 301 371 438
#     4  11  23  45  72 105 149 187 247 296 371 434
#
# _framework density 22.788616999999999
#
# number of rings (size 3 to 8) (size 9 to 14) (size 15 to 20)
#    0.000    1.000    2.500    2.250   15.750    0.000 
#    2.250    0.000    0.000    0.000    0.000    0.000 
#    0.000    0.000    0.000    0.000    0.000    0.000 
#
# Total GULP energy -89571.177834 kJ/mol
# GULP energy per Si atom -5598.198615 kJ/mol
# Density = 2.273675 g / cm^3
# Si number density = 22.788617 Si / 1000 Ang^3
#
#
#
# Elastic Constant Matrix: (Units=GPa)
#
#
# Indices 1 2 3 4 5 6 
#
# 1 70.6173 20.3164 14.5245 0.0000 -5.1739 0.0000
# 2 20.3164 87.3312 1.6117 0.0000 -1.7022 0.0000
# 3 14.5245 1.6117 81.0736 0.0000 -13.4700 0.0000
# 4 0.0000 0.0000 0.0000 38.5184 0.0000 5.4661
# 5 -5.1739 -1.7022 -13.4700 0.0000 27.3562 0.0000
# 6 0.0000 0.0000 0.0000 5.4661 0.0000 39.7388
#
#
#
# Elastic Compliance Matrix: (Units=1/GPa)
#
#
# Indices 1 2 3 4 5 6 
#
# 1 0.015827 -0.003606 -0.002509 0.000000 0.001534 0.000000
# 2 -0.003606 0.012287 0.000452 0.000000 0.000305 0.000000
# 3 -0.002509 0.000452 0.013832 0.000000 0.006365 0.000000
# 4 0.000000 0.000000 0.000000 0.026478 0.000000 -0.003642
# 5 0.001534 0.000305 0.006365 0.000000 0.039998 0.000000
# 6 0.000000 0.000000 0.000000 -0.003642 0.000000 0.025665
#
#
# Mechanical properties :
#
#
# Convention : Reuss Voigt Hill
#
# Bulk Modulus (GPa) = 32.65643 34.65859 33.65751
# Shear Modulus (GPa) = 32.12975 34.62730 33.37853
#
# Velocity S-wave (km/s) = 3.75894 3.90231 3.83129
# Velocity P-wave (km/s) = 5.76201 5.96202 5.86287
#
# Compressibility (1/GPa) = 0.03062184
#
# Stress axis : x y z
#
# Youngs Moduli (GPa) = 63.18497 81.38645 72.29396
#
# Poissons Ratio (x) = 0.29345 0.18138
# Poissons Ratio (y) = 0.22782 -0.03271
# Poissons Ratio (z) = 0.15852 -0.03682
#
# Static dielectric constant tensor:
#      x y z
#    x 1.849360 0.000000 0.009280 
#    y 0.000000 1.840860 0.000000 
#    z 0.009280 0.000000 1.843380 
# 
# From -- ./inp_files/7437.got.cif
#   From: 2010.05.17/outbox.cif.g08.bks.cpg/sg9_4_cif.got.tgz:7437.got - 2010.06.03 20:04:27.
