data_PCOD9139180
_publ_section_title
;
Structure prediction by ZEFSAII (Michael W. Deem and Ramdas Pophale) SiO2 
 PCOD9139180
Probable space group: C C
;
_chemical_formula_sum "Si O2"
_cell_formula_units_Z 32
_cell_length_a 19.781613
_cell_length_b 6.094805
_cell_length_c 12.676231
_cell_angle_alpha 90.000000
_cell_angle_beta 116.955082
_cell_angle_gamma 90.000000
_cell_volume 1362.278356
_symmetry_space_group_name_H-M "C C"
_symmetry_group_IT_number 9
_symmetry_cell_setting 'monoclinic'
loop_
_space_group_symop_operation_xyz
x,y,z
x,-y,1/2+z
1/2+x,1/2+y,z
1/2+x,1/2-y,1/2+z
loop_
_atom_site_type_symbol
_atom_site_label
_atom_site_fract_x
_atom_site_fract_y
_atom_site_fract_z
Si Si1 0.301820 0.012156 0.349070
Si Si2 0.169506 0.780501 0.859716
Si Si3 0.686489 0.885782 0.716892
Si Si4 0.897848 0.681747 0.083697
Si Si5 0.027758 0.977925 0.641046
Si Si6 0.568154 0.295148 0.986562
Si Si7 0.814238 0.899178 0.189556
Si Si8 0.434384 0.777887 0.241105
O O1 0.243459 0.821025 0.271246
O O2 0.374967 0.906165 0.453926
O O3 0.254044 0.130127 0.407885
O O4 0.322295 0.200986 0.279969
O O5 0.173057 0.537722 0.810237
O O6 0.136391 0.812342 0.952123
O O7 0.110412 0.926242 0.747974
O O8 0.605300 0.825168 0.612116
O O9 0.730134 0.024637 0.658129
O O10 0.829775 0.834093 0.079566
O O11 0.898526 0.498143 0.173853
O O12 0.977525 0.808298 0.137090
O O13 0.036755 0.984797 0.521014
O O14 0.975676 0.800724 0.662398
O O15 0.500480 0.190314 0.873050
O O16 0.875574 0.097132 0.243903
#
# Coordination Sequence:
#
# PCOD9139180 Si02
#       8
#     4   4   4   4   4   4   4   4
#     4  11  25  44  72 101 141 180 235 293 354 421
#     4  10  25  46  66 104 140 182 237 293 350 430
#     4  11  25  46  69 104 141 183 238 285 360 419
#     4  11  26  44  72 100 139 184 235 293 348 429
#     4  10  24  46  64 103 136 180 237 291 344 425
#     4  11  25  44  71  94 141 185 227 292 348 419
#     4  10  25  45  68 106 135 180 231 289 355 420
#     4  10  25  47  70 102 139 182 238 286 361 421
#
# _framework density 23.490058999999999
#
# number of rings (size 3 to 8) (size 9 to 14) (size 15 to 20)
#    0.000    1.500    1.250    0.750   14.000    2.000 
#    6.750    0.000    0.000    0.000    0.000    0.000 
#    0.000    0.000    0.000    0.000    0.000    0.000 
#
# Total GULP energy -89239.540838 kJ/mol
# GULP energy per Si atom -5577.471302 kJ/mol
# Density = 2.343659 g / cm^3
# Si number density = 23.490059 Si / 1000 Ang^3
#
#
#
# Elastic Constant Matrix: (Units=GPa)
#
#
# Indices 1 2 3 4 5 6 
#
# 1 126.5371 24.6399 8.3999 0.0000 -36.6596 0.0000
# 2 24.6399 70.2166 24.5152 0.0000 6.1112 0.0000
# 3 8.3999 24.5152 54.1354 0.0000 -2.1091 0.0000
# 4 0.0000 0.0000 0.0000 24.4317 0.0000 2.0921
# 5 -36.6596 6.1112 -2.1091 0.0000 44.4818 0.0000
# 6 0.0000 0.0000 0.0000 2.0921 0.0000 39.7192
#
#
#
# Elastic Compliance Matrix: (Units=1/GPa)
#
#
# Indices 1 2 3 4 5 6 
#
# 1 0.012007 -0.005511 0.001050 0.000000 0.010703 0.000000
# 2 -0.005511 0.019774 -0.008398 0.000000 -0.007657 0.000000
# 3 0.001050 -0.008398 0.022232 0.000000 0.003073 0.000000
# 4 0.000000 0.000000 0.000000 0.041116 0.000000 -0.002166
# 5 0.010703 -0.007657 0.003073 0.000000 0.032499 0.000000
# 6 0.000000 0.000000 0.000000 -0.002166 0.000000 0.025291
#
#
# Mechanical properties :
#
#
# Convention : Reuss Voigt Hill
#
# Bulk Modulus (GPa) = 35.34303 40.66656 38.00479
# Shear Modulus (GPa) = 26.58594 34.61548 30.60071
#
# Velocity S-wave (km/s) = 3.36787 3.84294 3.61322
# Velocity P-wave (km/s) = 5.49563 6.08611 5.79839
#
# Compressibility (1/GPa) = 0.02829413
#
# Stress axis : x y z
#
# Youngs Moduli (GPa) = 83.28473 50.57127 44.98018
#
# Poissons Ratio (x) = 0.27872 -0.04722
# Poissons Ratio (y) = 0.45901 0.37774
# Poissons Ratio (z) = -0.08743 0.42469
#
# Static dielectric constant tensor:
#      x y z
#    x 1.890150 0.000000 -0.036520 
#    y 0.000000 1.983710 0.000000 
#    z -0.036520 0.000000 1.849340 
# 
# From -- ./inp_files/19848.got.cif
#   From: 2010.05.17/outbox.cif.g08.bks.cpg/sg9_10_cif.got.tgz:19848.got - 2010.06.03 20:04:27.
