data_PCOD9139139
_publ_section_title
;
Structure prediction by ZEFSAII (Michael W. Deem and Ramdas Pophale) SiO2 
 PCOD9139139
Probable space group: C C
;
_chemical_formula_sum "Si O2"
_cell_formula_units_Z 32
_cell_length_a 9.066545
_cell_length_b 26.372199
_cell_length_c 7.672073
_cell_angle_alpha 90.000000
_cell_angle_beta 130.176560
_cell_angle_gamma 90.000000
_cell_volume 1401.613818
_symmetry_space_group_name_H-M "C C"
_symmetry_group_IT_number 9
_symmetry_cell_setting 'monoclinic'
loop_
_space_group_symop_operation_xyz
x,y,z
x,-y,1/2+z
1/2+x,1/2+y,z
1/2+x,1/2-y,1/2+z
loop_
_atom_site_type_symbol
_atom_site_label
_atom_site_fract_x
_atom_site_fract_y
_atom_site_fract_z
Si Si1 0.995870 0.048120 0.286610
Si Si2 0.420355 0.976365 0.240849
Si Si3 0.115232 0.792068 0.141259
Si Si4 0.779573 0.042033 0.777967
Si Si5 0.994332 0.132183 0.835048
Si Si6 0.046867 0.320360 0.558318
Si Si7 0.432044 0.661061 0.182647
Si Si8 0.410649 0.081108 0.103060
O O1 0.980029 0.107431 0.313449
O O2 0.206474 0.029133 0.498149
O O3 0.825887 0.012751 0.232928
O O4 0.955118 0.045243 0.051544
O O5 0.584530 0.953958 0.239618
O O6 0.416865 0.947730 0.421433
O O7 0.463057 0.036836 0.279626
O O8 0.104938 0.733287 0.186248
O O9 0.332731 0.812656 0.319733
O O10 0.993328 0.826056 0.182903
O O11 0.038262 0.798115 0.885310
O O12 0.826824 0.089968 0.693813
O O13 0.195745 0.101798 0.971212
O O14 0.986142 0.157632 0.021230
O O15 0.204030 0.331301 0.530172
O O16 0.038038 0.368534 0.679253
#
# Coordination Sequence:
#
# PCOD9139139 Si02
#       8
#     4   4   4   4   4   4   4   4
#     4  11  23  38  64  96 140 182 230 289 345 419
#     4  12  23  43  68 101 141 196 225 283 365 420
#     4  11  24  48  75  99 141 188 231 306 363 412
#     4  11  23  39  63 101 139 180 237 287 342 435
#     4  10  24  45  68 105 142 179 241 301 344 431
#     4  11  23  49  72 105 141 182 244 296 354 431
#     4  11  24  45  71 100 138 186 233 292 365 416
#     4  11  24  43  69 101 148 177 237 292 338 438
#
# _framework density 22.830825000000001
#
# number of rings (size 3 to 8) (size 9 to 14) (size 15 to 20)
#    0.000    1.000    2.500    5.250    3.500    0.000 
#    6.750    2.500    0.000    0.000    0.000    0.000 
#    0.000    0.000    0.000    0.000    0.000    0.000 
#
# Total GULP energy -89503.962042 kJ/mol
# GULP energy per Si atom -5593.997628 kJ/mol
# Density = 2.277886 g / cm^3
# Si number density = 22.830825 Si / 1000 Ang^3
#
#
#
# Elastic Constant Matrix: (Units=GPa)
#
#
# Indices 1 2 3 4 5 6 
#
# 1 160.0363 51.8176 43.7870 0.0000 9.2207 0.0000
# 2 51.8176 137.3571 19.3613 0.0000 -8.1945 0.0000
# 3 43.7870 19.3613 73.6749 0.0000 6.1264 0.0000
# 4 0.0000 0.0000 0.0000 31.1359 0.0000 6.1386
# 5 9.2207 -8.1945 6.1264 0.0000 33.0884 0.0000
# 6 0.0000 0.0000 0.0000 6.1386 0.0000 38.5912
#
#
#
# Elastic Compliance Matrix: (Units=1/GPa)
#
#
# Indices 1 2 3 4 5 6 
#
# 1 0.008374 -0.002719 -0.004075 0.000000 -0.002252 0.000000
# 2 -0.002719 0.008616 -0.000903 0.000000 0.003059 0.000000
# 3 -0.004075 -0.000903 0.016409 0.000000 -0.002126 0.000000
# 4 0.000000 0.000000 0.000000 0.033157 0.000000 -0.005274
# 5 -0.002252 0.003059 -0.002126 0.000000 0.032001 0.000000
# 6 0.000000 0.000000 0.000000 -0.005274 0.000000 0.026752
#
#
# Mechanical properties :
#
#
# Convention : Reuss Voigt Hill
#
# Bulk Modulus (GPa) = 55.53837 66.77780 61.15808
# Shear Modulus (GPa) = 34.08262 37.63658 35.85960
#
# Velocity S-wave (km/s) = 3.86791 4.06458 3.96746
# Velocity P-wave (km/s) = 6.65782 7.16520 6.91616
#
# Compressibility (1/GPa) = 0.01800557
#
# Stress axis : x y z
#
# Youngs Moduli (GPa) = 119.42273 116.06735 60.94242
#
# Poissons Ratio (x) = 0.31558 0.24833
# Poissons Ratio (y) = 0.32470 0.05500
# Poissons Ratio (z) = 0.48663 0.10476
#
# Static dielectric constant tensor:
#      x y z
#    x 1.823400 0.000000 0.003550 
#    y 0.000000 1.930260 0.000000 
#    z 0.003550 0.000000 1.893100 
# 
# From -- ./inp_files/6398.got.cif
#   From: 2010.05.17/outbox.cif.g08.bks.cpg/sg9_4_cif.got.tgz:6398.got - 2010.06.03 20:04:27.
