data_PCOD9139685
_publ_section_title
;
Structure prediction by ZEFSAII (Michael W. Deem and Ramdas Pophale) SiO2 
 PCOD9139685
Probable space group: C C
;
_chemical_formula_sum "Si O2"
_cell_formula_units_Z 32
_cell_length_a 8.188058
_cell_length_b 11.521386
_cell_length_c 18.582176
_cell_angle_alpha 90.000000
_cell_angle_beta 113.690678
_cell_angle_gamma 90.000000
_cell_volume 1605.272219
_symmetry_space_group_name_H-M "C C"
_symmetry_group_IT_number 9
_symmetry_cell_setting 'monoclinic'
loop_
_space_group_symop_operation_xyz
x,y,z
x,-y,1/2+z
1/2+x,1/2+y,z
1/2+x,1/2-y,1/2+z
loop_
_atom_site_type_symbol
_atom_site_label
_atom_site_fract_x
_atom_site_fract_y
_atom_site_fract_z
Si Si1 0.424480 0.240606 0.880100
Si Si2 0.030307 0.965538 0.977001
Si Si3 0.871403 0.059365 0.739596
Si Si4 0.420115 0.054597 0.277160
Si Si5 0.111565 0.900140 0.149638
Si Si6 0.737608 0.124240 0.858279
Si Si7 0.742498 0.496256 0.881393
Si Si8 0.155048 0.666693 0.211432
O O1 0.433793 0.344922 0.938158
O O2 0.619235 0.216258 0.880373
O O3 0.295529 0.280896 0.793257
O O4 0.342609 0.120407 0.894672
O O5 0.206303 0.967037 0.957681
O O6 0.905812 0.073902 0.931846
O O7 0.071260 0.961450 0.067917
O O8 0.729495 0.957412 0.700887
O O9 0.043975 0.007822 0.812402
O O10 0.793039 0.148329 0.785125
O O11 0.949004 0.098000 0.677507
O O12 0.347052 0.086181 0.343611
O O13 0.476301 0.146604 0.226713
O O14 0.275487 0.966794 0.217071
O O15 0.600970 0.983704 0.324570
O O16 0.147306 0.762711 0.148033
#
# Coordination Sequence:
#
# PCOD9139685 Si02
#       8
#     4   4   4   4   4   4   4   4
#     4  11  19  36  65  85 107 151 201 230 285 347
#     4  11  23  38  55  86 125 148 186 249 290 327
#     4   9  18  36  58  85 111 150 193 235 278 347
#     4   9  18  36  62  84 108 152 197 233 278 350
#     4  11  23  38  55  86 125 148 186 249 290 327
#     4   9  18  36  62  84 108 152 197 233 278 350
#     4   9  18  36  58  85 111 150 193 235 278 347
#     4  11  19  36  65  85 107 151 201 230 285 347
#
# _framework density 19.934313
#
# number of rings (size 3 to 8) (size 9 to 14) (size 15 to 20)
#    0.000    2.000    7.500    0.000    0.000    3.000 
#    0.000    3.750    0.000    0.000    0.000    0.000 
#    0.000    0.000    0.000    0.000    0.000    0.000 
#
# Total GULP energy -89145.276084 kJ/mol
# GULP energy per Si atom -5571.579755 kJ/mol
# Density = 1.988894 g / cm^3
# Si number density = 19.934313 Si / 1000 Ang^3
#
#
#
# Elastic Constant Matrix: (Units=GPa)
#
#
# Indices 1 2 3 4 5 6 
#
# 1 91.3774 17.4516 8.2446 0.0000 -16.0916 0.0000
# 2 17.4516 58.3037 -1.6087 0.0000 -3.4944 0.0000
# 3 8.2446 -1.6087 48.6693 0.0000 -13.0306 0.0000
# 4 0.0000 0.0000 0.0000 22.8260 0.0000 -5.9335
# 5 -16.0916 -3.4944 -13.0306 0.0000 19.0650 0.0000
# 6 0.0000 0.0000 0.0000 -5.9335 0.0000 37.0435
#
#
#
# Elastic Compliance Matrix: (Units=1/GPa)
#
#
# Indices 1 2 3 4 5 6 
#
# 1 0.013501 -0.003354 0.000598 0.000000 0.011189 0.000000
# 2 -0.003354 0.018297 0.001607 0.000000 0.001621 0.000000
# 3 0.000598 0.001607 0.025352 0.000000 0.018127 0.000000
# 4 0.000000 0.000000 0.000000 0.045713 0.000000 0.007322
# 5 0.011189 0.001621 0.018127 0.000000 0.074583 0.000000
# 6 0.000000 0.000000 0.000000 0.007322 0.000000 0.028168
#
#
# Mechanical properties :
#
#
# Convention : Reuss Voigt Hill
#
# Bulk Modulus (GPa) = 18.23113 27.39171 22.81142
# Shear Modulus (GPa) = 22.10481 27.40444 24.75462
#
# Velocity S-wave (km/s) = 3.33360 3.71177 3.52776
# Velocity P-wave (km/s) = 4.89721 5.66925 5.29731
#
# Compressibility (1/GPa) = 0.05485125
#
# Stress axis : x y z
#
# Youngs Moduli (GPa) = 74.07077 54.65388 39.44478
#
# Poissons Ratio (x) = 0.18331 -0.02358
# Poissons Ratio (y) = 0.24843 -0.06339
# Poissons Ratio (z) = -0.04428 -0.08783
#
# Static dielectric constant tensor:
#      x y z
#    x 1.746940 0.000000 -0.031640 
#    y 0.000000 1.771260 0.000000 
#    z -0.031640 0.000000 1.681420 
# 
# From -- ./inp_files/22734.got.cif
#   From: 2010.05.17/outbox.cif.g08.bks.cpg/sg9_12_cif.got.tgz:22734.got - 2010.06.03 20:04:27.
