data_PCOD9139100
_publ_section_title
;
Structure prediction by ZEFSAII (Michael W. Deem and Ramdas Pophale) SiO2 
 PCOD9139100
Probable space group: C C
;
_chemical_formula_sum "Si O2"
_cell_formula_units_Z 28
_cell_length_a 18.690264
_cell_length_b 7.007815
_cell_length_c 9.558314
_cell_angle_alpha 90.000000
_cell_angle_beta 68.075355
_cell_angle_gamma 90.000000
_cell_volume 1161.383237
_symmetry_space_group_name_H-M "C C"
_symmetry_group_IT_number 9
_symmetry_cell_setting 'monoclinic'
loop_
_space_group_symop_operation_xyz
x,y,z
x,-y,1/2+z
1/2+x,1/2+y,z
1/2+x,1/2-y,1/2+z
loop_
_atom_site_type_symbol
_atom_site_label
_atom_site_fract_x
_atom_site_fract_y
_atom_site_fract_z
Si Si1 0.839280 0.391159 0.005660
Si Si2 0.998549 0.266000 0.009570
Si Si3 0.528990 0.094766 0.186681
Si Si4 0.101552 0.096190 0.449112
Si Si5 0.844652 0.809521 0.956723
Si Si6 0.879097 0.855006 0.248184
Si Si7 0.197158 0.881197 0.607988
O O1 0.760348 0.469273 0.128404
O O2 0.873738 0.592187 0.924695
O O3 0.818278 0.254406 0.892391
O O4 0.906866 0.297206 0.047218
O O5 0.027346 0.046726 0.987365
O O6 0.038105 0.370340 0.845461
O O7 0.023222 0.383127 0.128818
O O8 0.450936 0.213457 0.208033
O O9 0.588297 0.216391 0.051204
O O10 0.158930 0.970024 0.500138
O O11 0.135417 0.150660 0.273879
O O12 0.887826 0.945269 0.819110
O O13 0.856632 0.874380 0.106198
O O14 0.751904 0.790254 0.014163
#
# Coordination Sequence:
#
# PCOD9139100 Si02
#       7
#     4   4   4   4   4   4   4
#     4   9  23  45  71 101 142 187 240 303 347 429
#     4  11  25  46  76 104 141 192 243 296 365 429
#     4  11  26  44  70 106 143 186 241 294 359 443
#     4  12  25  48  68 107 149 195 233 300 366 441
#     4  10  24  44  71 106 140 184 238 302 362 428
#     4  11  23  43  72 108 137 182 243 303 356 425
#     4  10  24  48  70  98 150 188 238 296 367 429
#
# _framework density 24.109183000000002
#
# number of rings (size 3 to 8) (size 9 to 14) (size 15 to 20)
#    0.857    0.571    2.857    0.857    6.000    4.571 
#    7.714    0.000    0.000    0.000    0.000    0.000 
#    0.000    0.000    0.000    0.000    0.000    0.000 
#
# Total GULP energy -78208.242815 kJ/mol
# GULP energy per Si atom -5586.303058 kJ/mol
# Density = 2.405431 g / cm^3
# Si number density = 24.109183 Si / 1000 Ang^3
#
#
#
# Elastic Constant Matrix: (Units=GPa)
#
#
# Indices 1 2 3 4 5 6 
#
# 1 67.9395 7.6817 6.8859 0.0000 4.7289 0.0000
# 2 7.6817 88.5595 12.1943 0.0000 0.4841 0.0000
# 3 6.8859 12.1943 93.1073 0.0000 12.2271 0.0000
# 4 0.0000 0.0000 0.0000 38.2525 0.0000 9.8924
# 5 4.7289 0.4841 12.2271 0.0000 34.1564 0.0000
# 6 0.0000 0.0000 0.0000 9.8924 0.0000 18.1655
#
#
#
# Elastic Compliance Matrix: (Units=1/GPa)
#
#
# Indices 1 2 3 4 5 6 
#
# 1 0.015053 -0.001197 -0.000719 0.000000 -0.001810 0.000000
# 2 -0.001197 0.011599 -0.001501 0.000000 0.000539 0.000000
# 3 -0.000719 -0.001501 0.011516 0.000000 -0.004001 0.000000
# 4 0.000000 0.000000 0.000000 0.030427 0.000000 -0.016570
# 5 -0.001810 0.000539 -0.004001 0.000000 0.030952 0.000000
# 6 0.000000 0.000000 0.000000 -0.016570 0.000000 0.064073
#
#
# Mechanical properties :
#
#
# Convention : Reuss Voigt Hill
#
# Bulk Modulus (GPa) = 31.91432 33.68113 32.79773
# Shear Modulus (GPa) = 27.63968 32.97117 30.30543
#
# Velocity S-wave (km/s) = 3.38958 3.70209 3.54928
# Velocity P-wave (km/s) = 5.34651 5.68107 5.51633
#
# Compressibility (1/GPa) = 0.03133390
#
# Stress axis : x y z
#
# Youngs Moduli (GPa) = 66.43138 86.21093 86.83881
#
# Poissons Ratio (x) = 0.10318 0.06243
# Poissons Ratio (y) = 0.07951 0.13038
# Poissons Ratio (z) = 0.04776 0.12944
#
# Static dielectric constant tensor:
#      x y z
#    x 1.972510 0.000000 -0.057700 
#    y 0.000000 1.976820 0.000000 
#    z -0.057700 0.000000 1.933850 
# 
# From -- ./inp_files/11199.got.cif
#   From: 2010.05.17/outbox.cif.g08.bks.cpg/sg9_6_cif.got.tgz:11199.got - 2010.06.03 20:04:27.
