data_PCOD9139686
_publ_section_title
;
Structure prediction by ZEFSAII (Michael W. Deem and Ramdas Pophale) SiO2 
 PCOD9139686
Probable space group: C C
;
_chemical_formula_sum "Si O2"
_cell_formula_units_Z 28
_cell_length_a 8.087412
_cell_length_b 16.602686
_cell_length_c 9.185702
_cell_angle_alpha 90.000000
_cell_angle_beta 102.766958
_cell_angle_gamma 90.000000
_cell_volume 1202.896435
_symmetry_space_group_name_H-M "C C"
_symmetry_group_IT_number 9
_symmetry_cell_setting 'monoclinic'
loop_
_space_group_symop_operation_xyz
x,y,z
x,-y,1/2+z
1/2+x,1/2+y,z
1/2+x,1/2-y,1/2+z
loop_
_atom_site_type_symbol
_atom_site_label
_atom_site_fract_x
_atom_site_fract_y
_atom_site_fract_z
Si Si1 0.956470 0.483751 0.879070
Si Si2 0.983965 0.050261 0.565267
Si Si3 0.754730 0.664358 0.200040
Si Si4 0.098721 0.705924 0.163733
Si Si5 0.664408 0.015696 0.161366
Si Si6 0.661814 0.586564 0.897027
Si Si7 0.456544 0.702889 0.364261
O O1 0.831806 0.420239 0.777844
O O2 0.849316 0.562297 0.886274
O O3 0.124155 0.503152 0.819807
O O4 0.028357 0.459916 0.049482
O O5 0.072627 0.093359 0.722657
O O6 0.919802 0.119321 0.443619
O O7 0.842975 0.000661 0.625333
O O8 0.087815 0.988395 0.481451
O O9 0.596892 0.688823 0.267419
O O10 0.927625 0.716804 0.227616
O O11 0.682568 0.655125 0.022310
O O12 0.124056 0.610171 0.144793
O O13 0.277113 0.733719 0.266985
O O14 0.051069 0.743430 0.001216
#
# Coordination Sequence:
#
# PCOD9139686 Si02
#       7
#     4   4   4   4   4   4   4
#     4  11  19  38  65 100 136 180 223 297 368 419
#     4  12  23  41  72 108 142 185 249 302 366 431
#     4  11  24  47  74 103 151 188 248 303 370 443
#     4  11  27  49  71 104 147 196 245 301 371 453
#     4  11  23  41  68 101 142 175 238 308 362 426
#     4  12  20  38  70 105 138 184 234 300 364 433
#     4  12  28  50  74 103 150 198 249 303 373 451
#
# _framework density 23.277149999999999
#
# number of rings (size 3 to 8) (size 9 to 14) (size 15 to 20)
#    0.000    0.571    5.714    4.286    2.000    1.143 
#    5.143    0.000    0.000    0.000    0.000    0.000 
#    0.000    0.000    0.000    0.000    0.000    0.000 
#
# Total GULP energy -78151.390778 kJ/mol
# GULP energy per Si atom -5582.242198 kJ/mol
# Density = 2.322417 g / cm^3
# Si number density = 23.277150 Si / 1000 Ang^3
#
#
#
# Elastic Constant Matrix: (Units=GPa)
#
#
# Indices 1 2 3 4 5 6 
#
# 1 128.2469 39.5554 76.3133 0.0000 -8.7860 0.0000
# 2 39.5554 33.2812 26.2615 0.0000 -11.1527 0.0000
# 3 76.3133 26.2615 156.7778 0.0000 11.2076 0.0000
# 4 0.0000 0.0000 0.0000 42.8832 0.0000 -1.1984
# 5 -8.7860 -11.1527 11.2076 0.0000 52.8268 0.0000
# 6 0.0000 0.0000 0.0000 -1.1984 0.0000 20.8068
#
#
#
# Elastic Compliance Matrix: (Units=1/GPa)
#
#
# Indices 1 2 3 4 5 6 
#
# 1 0.015110 -0.013686 -0.005113 0.000000 0.000708 0.000000
# 2 -0.013686 0.051431 -0.002606 0.000000 0.009135 0.000000
# 3 -0.005113 -0.002606 0.009549 0.000000 -0.003426 0.000000
# 4 0.000000 0.000000 0.000000 0.023357 0.000000 0.001345
# 5 0.000708 0.009135 -0.003426 0.000000 0.021703 0.000000
# 6 0.000000 0.000000 0.000000 0.001345 0.000000 0.048139
#
#
# Mechanical properties :
#
#
# Convention : Reuss Voigt Hill
#
# Bulk Modulus (GPa) = 30.04920 66.95182 48.50051
# Shear Modulus (GPa) = 22.40223 35.04839 28.72531
#
# Velocity S-wave (km/s) = 3.10564 3.88454 3.51672
# Velocity P-wave (km/s) = 5.07911 6.99606 6.11319
#
# Compressibility (1/GPa) = 0.03327875
#
# Stress axis : x y z
#
# Youngs Moduli (GPa) = 66.18245 19.44344 104.72636
#
# Poissons Ratio (x) = 0.26611 0.53545
# Poissons Ratio (y) = 0.90580 0.27293
# Poissons Ratio (z) = 0.33838 0.05067
#
# Static dielectric constant tensor:
#      x y z
#    x 1.890470 0.000000 0.052750 
#    y 0.000000 1.904800 0.000000 
#    z 0.052750 0.000000 1.891620 
# 
# From -- ./inp_files/5386.got.cif
#   From: 2010.05.17/outbox.cif.g08.bks.cpg/sg9_3_cif.got.tgz:5386.got - 2010.06.03 20:04:27.
