data_PCOD9139276
_publ_section_title
;
Structure prediction by ZEFSAII (Michael W. Deem and Ramdas Pophale) SiO2 
 PCOD9139276
Probable space group: C C
;
_chemical_formula_sum "Si O2"
_cell_formula_units_Z 28
_cell_length_a 15.634378
_cell_length_b 7.400841
_cell_length_c 18.947601
_cell_angle_alpha 90.000000
_cell_angle_beta 151.422182
_cell_angle_gamma 90.000000
_cell_volume 1048.729360
_symmetry_space_group_name_H-M "C C"
_symmetry_group_IT_number 9
_symmetry_cell_setting 'monoclinic'
loop_
_space_group_symop_operation_xyz
x,y,z
x,-y,1/2+z
1/2+x,1/2+y,z
1/2+x,1/2-y,1/2+z
loop_
_atom_site_type_symbol
_atom_site_label
_atom_site_fract_x
_atom_site_fract_y
_atom_site_fract_z
Si Si1 0.812550 0.761019 0.986940
Si Si2 0.814153 0.251534 0.324546
Si Si3 0.202893 0.079738 0.608672
Si Si4 0.055559 0.724686 0.425186
Si Si5 0.851889 0.838882 0.484781
Si Si6 0.167083 0.606685 0.642508
Si Si7 0.952490 0.416345 0.169908
O O1 0.782561 0.702049 0.884057
O O2 0.903346 0.957437 0.043856
O O3 0.633003 0.796203 0.902647
O O4 0.915413 0.611635 0.107655
O O5 0.755345 0.406533 0.228361
O O6 0.849668 0.779386 0.276923
O O7 0.707589 0.075221 0.216009
O O8 0.021296 0.194126 0.469202
O O9 0.148508 0.898227 0.528655
O O10 0.386935 0.122481 0.701374
O O11 0.119800 0.571213 0.526052
O O12 0.827700 0.718044 0.535549
O O13 0.000424 0.728324 0.548847
O O14 0.158742 0.639164 0.809053
#
# Coordination Sequence:
#
# PCOD9139276 Si02
#       7
#     4   4   4   4   4   4   4
#     4  11  28  49  79 123 159 216 270 338 405 481
#     4  11  25  47  80 115 168 214 272 334 409 482
#     4  10  24  47  75 120 157 213 273 329 411 484
#     4  10  25  48  80 110 162 211 274 332 405 486
#     4  12  26  50  82 118 164 214 270 332 407 482
#     4  11  25  50  78 118 159 219 267 328 407 489
#     4  11  27  51  82 120 163 211 274 337 410 482
#
# _framework density 26.698975000000001
#
# number of rings (size 3 to 8) (size 9 to 14) (size 15 to 20)
#    0.000    1.143    0.000    4.286   10.000    2.286 
#    5.143    0.000    0.000    0.000    0.000    0.000 
#    0.000    0.000    0.000    0.000    0.000    0.000 
#
# Total GULP energy -78390.582526 kJ/mol
# GULP energy per Si atom -5599.327323 kJ/mol
# Density = 2.663821 g / cm^3
# Si number density = 26.698975 Si / 1000 Ang^3
#
#
#
# Elastic Constant Matrix: (Units=GPa)
#
#
# Indices 1 2 3 4 5 6 
#
# 1 193.1733 30.6030 78.9706 0.0001 -17.8230 0.0002
# 2 30.6030 108.5683 54.5574 0.0003 -10.9471 0.0004
# 3 78.9706 54.5574 167.9418 0.0000 2.0389 0.0001
# 4 0.0001 0.0003 0.0000 56.3209 0.0003 7.4621
# 5 -17.8230 -10.9471 2.0389 0.0003 57.7343 0.0004
# 6 0.0002 0.0004 0.0001 7.4621 0.0004 15.9645
#
#
#
# Elastic Compliance Matrix: (Units=1/GPa)
#
#
# Indices 1 2 3 4 5 6 
#
# 1 0.006671 -0.000088 -0.003134 0.000000 0.002153 0.000000
# 2 -0.000088 0.011299 -0.003656 0.000000 0.002244 0.000000
# 3 -0.003134 -0.003656 0.008640 0.000000 -0.001966 0.000000
# 4 0.000000 0.000000 0.000000 0.018928 0.000000 -0.008847
# 5 0.002153 0.002244 -0.001966 0.000000 0.018480 -0.000001
# 6 0.000000 0.000000 0.000000 -0.008847 -0.000001 0.066774
#
#
# Mechanical properties :
#
#
# Convention : Reuss Voigt Hill
#
# Bulk Modulus (GPa) = 77.80770 88.66062 83.23416
# Shear Modulus (GPa) = 33.59441 46.37408 39.98425
#
# Velocity S-wave (km/s) = 3.55105 4.17216 3.87408
# Velocity P-wave (km/s) = 6.78374 7.51591 7.15919
#
# Compressibility (1/GPa) = 0.01285220
#
# Stress axis : x y z
#
# Youngs Moduli (GPa) = 149.91126 88.50020 115.74170
#
# Poissons Ratio (x) = 0.00781 0.36276
# Poissons Ratio (y) = 0.01322 0.42321
# Poissons Ratio (z) = 0.46985 0.32360
#
# Static dielectric constant tensor:
#      x y z
#    x 2.214010 0.000000 -0.034390 
#    y 0.000000 2.152110 0.000000 
#    z -0.034390 0.000000 2.057210 
# 
# From -- ./inp_files/30890.got.cif
#   From: 2010.05.17/outbox.cif.g08.bks.cpg/sg9_16_cif.got.tgz:30890.got - 2010.06.03 20:04:27.
