data_PCOD9139514
_publ_section_title
;
Structure prediction by ZEFSAII (Michael W. Deem and Ramdas Pophale) SiO2 
 PCOD9139514
Probable space group: C C
;
_chemical_formula_sum "Si O2"
_cell_formula_units_Z 32
_cell_length_a 4.857494
_cell_length_b 18.448761
_cell_length_c 15.496072
_cell_angle_alpha 90.000000
_cell_angle_beta 107.547098
_cell_angle_gamma 90.000000
_cell_volume 1324.060662
_symmetry_space_group_name_H-M "C C"
_symmetry_group_IT_number 9
_symmetry_cell_setting 'monoclinic'
loop_
_space_group_symop_operation_xyz
x,y,z
x,-y,1/2+z
1/2+x,1/2+y,z
1/2+x,1/2-y,1/2+z
loop_
_atom_site_type_symbol
_atom_site_label
_atom_site_fract_x
_atom_site_fract_y
_atom_site_fract_z
Si Si1 0.909970 0.207678 0.134050
Si Si2 0.903544 0.781938 0.271691
Si Si3 0.742437 0.575995 0.245814
Si Si4 0.945339 0.069400 0.709995
Si Si5 0.840604 0.472815 0.108928
Si Si6 0.269602 0.246068 0.028217
Si Si7 0.467082 0.730836 0.369775
Si Si8 0.408221 0.111571 0.446401
O O1 0.584246 0.235689 0.102612
O O2 0.222409 0.268529 0.341125
O O3 0.021946 0.141405 0.203685
O O4 0.024741 0.195643 0.047430
O O5 0.167794 0.725611 0.288892
O O6 0.042683 0.859110 0.266635
O O7 0.644446 0.769776 0.179372
O O8 0.569666 0.504610 0.259798
O O9 0.856017 0.550851 0.160573
O O10 0.943262 0.592086 0.347892
O O11 0.603880 0.067799 0.679648
O O12 0.053296 0.063013 0.621094
O O13 0.877646 0.454945 0.011405
O O14 0.354474 0.223468 0.939594
O O15 0.131214 0.326678 0.001712
O O16 0.605956 0.656339 0.415796
#
# Coordination Sequence:
#
# PCOD9139514 Si02
#       8
#     4   4   4   4   4   4   4   4
#     4  12  25  44  75 111 153 194 263 331 403 464
#     4  12  24  43  74 109 149 195 260 329 384 477
#     4  10  27  52  74 116 158 218 260 329 406 491
#     4  10  25  48  72 108 155 203 261 314 405 468
#     4  10  26  48  74 112 148 217 262 317 391 491
#     4  12  26  43  71 115 147 199 255 342 393 467
#     4  12  24  44  68 114 142 196 256 326 396 460
#     4  12  25  50  80 113 158 212 275 326 414 480
#
# _framework density 24.168077
#
# number of rings (size 3 to 8) (size 9 to 14) (size 15 to 20)
#    0.750    0.000    3.750    2.250    5.250    1.000 
#    4.500    0.000    0.000    0.000    0.000    0.000 
#    0.000    0.000    0.000    0.000    0.000    0.000 
#
# Total GULP energy -89120.778722 kJ/mol
# GULP energy per Si atom -5570.048670 kJ/mol
# Density = 2.411307 g / cm^3
# Si number density = 24.168077 Si / 1000 Ang^3
#
#
#
# Elastic Constant Matrix: (Units=GPa)
#
#
# Indices 1 2 3 4 5 6 
#
# 1 132.1295 25.5715 31.9538 0.0000 10.2652 0.0000
# 2 25.5715 113.4465 46.4726 0.0000 -2.3359 0.0000
# 3 31.9538 46.4726 153.0396 0.0000 -0.0383 0.0000
# 4 0.0000 0.0000 0.0000 42.1656 0.0000 -0.7067
# 5 10.2652 -2.3359 -0.0383 0.0000 44.1366 0.0000
# 6 0.0000 0.0000 0.0000 -0.7067 0.0000 34.7116
#
#
#
# Elastic Compliance Matrix: (Units=1/GPa)
#
#
# Indices 1 2 3 4 5 6 
#
# 1 0.008309 -0.001374 -0.001318 0.000000 -0.002006 0.000000
# 2 -0.001374 0.010307 -0.002843 0.000000 0.000863 0.000000
# 3 -0.001318 -0.002843 0.007673 0.000000 0.000163 0.000000
# 4 0.000000 0.000000 0.000000 0.023724 0.000000 0.000483
# 5 -0.002006 0.000863 0.000163 0.000000 0.023169 0.000000
# 6 0.000000 0.000000 0.000000 0.000483 0.000000 0.028819
#
#
# Mechanical properties :
#
#
# Convention : Reuss Voigt Hill
#
# Bulk Modulus (GPa) = 65.70957 67.40125 66.55541
# Shear Modulus (GPa) = 42.32157 43.84397 43.08277
#
# Velocity S-wave (km/s) = 4.18920 4.26388 4.22670
# Velocity P-wave (km/s) = 7.11665 7.22426 7.17066
#
# Compressibility (1/GPa) = 0.01521848
#
# Stress axis : x y z
#
# Youngs Moduli (GPa) = 120.35250 97.02409 130.33226
#
# Poissons Ratio (x) = 0.13334 0.17178
# Poissons Ratio (y) = 0.16540 0.37049
# Poissons Ratio (z) = 0.15863 0.27580
#
# Static dielectric constant tensor:
#      x y z
#    x 1.933910 0.000000 -0.076110 
#    y 0.000000 1.936550 0.000000 
#    z -0.076110 0.000000 2.226130 
# 
# From -- ./inp_files/22281.got.cif
#   From: 2010.05.17/outbox.cif.g08.bks.cpg/sg9_12_cif.got.tgz:22281.got - 2010.06.03 20:04:27.
