data_PCOD9139934
_publ_section_title
;
Structure prediction by ZEFSAII (Michael W. Deem and Ramdas Pophale) SiO2 
 PCOD9139934
Probable space group: C C
;
_chemical_formula_sum "Si O2"
_cell_formula_units_Z 20
_cell_length_a 9.799068
_cell_length_b 15.991955
_cell_length_c 5.035531
_cell_angle_alpha 90.000000
_cell_angle_beta 74.603068
_cell_angle_gamma 90.000000
_cell_volume 760.778134
_symmetry_space_group_name_H-M "C C"
_symmetry_group_IT_number 9
_symmetry_cell_setting 'monoclinic'
loop_
_space_group_symop_operation_xyz
x,y,z
x,-y,1/2+z
1/2+x,1/2+y,z
1/2+x,1/2-y,1/2+z
loop_
_atom_site_type_symbol
_atom_site_label
_atom_site_fract_x
_atom_site_fract_y
_atom_site_fract_z
Si Si1 0.663720 0.450055 0.795520
Si Si2 0.170804 0.807808 0.173575
Si Si3 0.709129 0.943137 0.122312
Si Si4 0.407980 0.871200 0.439956
Si Si5 0.875719 0.201193 0.795591
O O1 0.611014 0.487360 0.549040
O O2 0.834593 0.441880 0.663357
O O3 0.633688 0.358388 0.923591
O O4 0.291435 0.856575 0.270053
O O5 0.019670 0.805655 0.390655
O O6 0.243285 0.721835 0.054289
O O7 0.558256 0.898279 0.251874
O O8 0.828539 0.876470 0.142414
O O9 0.719731 0.020508 0.322277
O O10 0.407082 0.784227 0.603451
#
# Coordination Sequence:
#
# PCOD9139934 Si02
#       5
#     4   4   4   4   4
#     4  11  22  42  68 108 145 189 251 318 383 452
#     4  11  26  45  80 109 157 208 276 320 393 479
#     4  12  30  52  79 119 167 208 260 335 410 469
#     4  11  25  46  80 111 153 213 264 321 390 491
#     4  11  27  49  75 119 154 216 263 334 394 481
#
# _framework density 26.288871
#
# number of rings (size 3 to 8) (size 9 to 14) (size 15 to 20)
#    0.000    0.800    4.000    1.200   11.200    1.600 
#    0.000    0.000    0.000    0.000    0.000    0.000 
#    0.000    0.000    0.000    0.000    0.000    0.000 
#
# Total GULP energy -55989.483036 kJ/mol
# GULP energy per Si atom -5598.948304 kJ/mol
# Density = 2.622904 g / cm^3
# Si number density = 26.288871 Si / 1000 Ang^3
#
#
#
# Elastic Constant Matrix: (Units=GPa)
#
#
# Indices 1 2 3 4 5 6 
#
# 1 187.2240 32.1895 17.0855 0.0000 -12.1072 0.0000
# 2 32.1895 100.0845 12.6103 0.0000 9.9879 0.0000
# 3 17.0855 12.6103 77.8692 0.0000 21.3645 0.0000
# 4 0.0000 0.0000 0.0000 38.8466 0.0000 8.7817
# 5 -12.1072 9.9879 21.3645 0.0000 33.9754 0.0000
# 6 0.0000 0.0000 0.0000 8.7817 0.0000 38.0474
#
#
#
# Elastic Compliance Matrix: (Units=1/GPa)
#
#
# Indices 1 2 3 4 5 6 
#
# 1 0.006175 -0.002132 -0.002158 0.000000 0.004184 0.000000
# 2 -0.002132 0.011096 -0.000273 0.000000 -0.003850 0.000000
# 3 -0.002158 -0.000273 0.016373 0.000000 -0.010985 0.000000
# 4 0.000000 0.000000 0.000000 0.027159 0.000000 -0.006269
# 5 0.004184 -0.003850 -0.010985 0.000000 0.038963 0.000000
# 6 0.000000 0.000000 0.000000 -0.006269 0.000000 0.027730
#
#
# Mechanical properties :
#
#
# Convention : Reuss Voigt Hill
#
# Bulk Modulus (GPa) = 40.78319 54.32759 47.55539
# Shear Modulus (GPa) = 34.53169 42.39338 38.46253
#
# Velocity S-wave (km/s) = 3.62822 4.02007 3.82916
# Velocity P-wave (km/s) = 5.75319 6.50065 6.13831
#
# Compressibility (1/GPa) = 0.02451990
#
# Stress axis : x y z
#
# Youngs Moduli (GPa) = 161.93875 90.12446 61.07452
#
# Poissons Ratio (x) = 0.19212 0.13178
# Poissons Ratio (y) = 0.34522 0.01666
# Poissons Ratio (z) = 0.34940 0.02459
#
# Static dielectric constant tensor:
#      x y z
#    x 2.132030 0.000000 -0.040870 
#    y 0.000000 2.108690 0.000000 
#    z -0.040870 0.000000 2.118080 
# 
# From -- ./inp_files/474.got.cif
#   From: 2010.05.17/outbox.cif.g08.bks.cpg/sg9_1_cif.got.tgz:474.got - 2010.06.03 20:04:27.
