data_PCOD9139352
_publ_section_title
;
Structure prediction by ZEFSAII (Michael W. Deem and Ramdas Pophale) SiO2 
 PCOD9139352
Probable space group: C C
;
_chemical_formula_sum "Si O2"
_cell_formula_units_Z 28
_cell_length_a 8.501910
_cell_length_b 11.230271
_cell_length_c 17.981674
_cell_angle_alpha 90.000000
_cell_angle_beta 135.165595
_cell_angle_gamma 90.000000
_cell_volume 1210.495108
_symmetry_space_group_name_H-M "C C"
_symmetry_group_IT_number 9
_symmetry_cell_setting 'monoclinic'
loop_
_space_group_symop_operation_xyz
x,y,z
x,-y,1/2+z
1/2+x,1/2+y,z
1/2+x,1/2-y,1/2+z
loop_
_atom_site_type_symbol
_atom_site_label
_atom_site_fract_x
_atom_site_fract_y
_atom_site_fract_z
Si Si1 0.340990 0.376739 0.145270
Si Si2 0.860767 0.894720 0.879141
Si Si3 0.013328 0.251127 0.147901
Si Si4 0.425295 0.040802 0.726049
Si Si5 0.595777 0.578475 0.305692
Si Si6 0.834815 0.355342 0.346581
Si Si7 0.422784 0.525539 0.045438
O O1 0.386692 0.500652 0.204356
O O2 0.589538 0.321615 0.229568
O O3 0.292422 0.421040 0.045753
O O4 0.173990 0.298397 0.136579
O O5 0.873215 0.758394 0.911120
O O6 0.022573 0.887061 0.862780
O O7 0.614569 0.942976 0.775630
O O8 0.928861 0.993020 0.961871
O O9 0.909036 0.365384 0.153414
O O10 0.129847 0.183120 0.257402
O O11 0.855372 0.154348 0.054307
O O12 0.475390 0.110662 0.820422
O O13 0.183333 0.983219 0.656794
O O14 0.791979 0.480544 0.373237
#
# Coordination Sequence:
#
# PCOD9139352 Si02
#       7
#     4   4   4   4   4   4   4
#     4   8  18  39  58  83 122 158 198 243 302 359
#     4  12  22  39  64  91 123 162 204 260 311 356
#     4  11  18  39  63  85 124 163 202 251 307 370
#     4  11  21  38  65  86 118 173 195 247 327 349
#     4   9  20  35  60  91 116 160 206 249 296 375
#     4   9  20  35  59  87 117 154 209 243 296 374
#     4  10  25  39  57  97 126 152 214 257 299 375
#
# _framework density 23.131029999999999
#
# number of rings (size 3 to 8) (size 9 to 14) (size 15 to 20)
#    0.857    1.143    4.286    0.857    0.000    2.286 
#    0.000    1.429    0.000    0.000    0.000    0.000 
#    0.000    0.000    0.000    0.000    0.000    0.000 
#
# Total GULP energy -77974.714393 kJ/mol
# GULP energy per Si atom -5569.622457 kJ/mol
# Density = 2.307838 g / cm^3
# Si number density = 23.131030 Si / 1000 Ang^3
#
#
#
# Elastic Constant Matrix: (Units=GPa)
#
#
# Indices 1 2 3 4 5 6 
#
# 1 116.6429 50.1931 14.0588 0.0000 -21.3273 0.0000
# 2 50.1931 102.6685 -1.0864 0.0000 8.3762 0.0000
# 3 14.0588 -1.0864 23.5268 0.0000 6.4053 0.0000
# 4 0.0000 0.0000 0.0000 6.0212 0.0000 -3.1627
# 5 -21.3273 8.3762 6.4053 0.0000 17.9732 0.0000
# 6 0.0000 0.0000 0.0000 -3.1627 0.0000 33.9278
#
#
#
# Elastic Compliance Matrix: (Units=1/GPa)
#
#
# Indices 1 2 3 4 5 6 
#
# 1 0.036929 -0.024228 -0.042295 0.000000 0.070185 0.000000
# 2 -0.024228 0.026101 0.029704 0.000000 -0.051499 0.000000
# 3 -0.042295 0.029704 0.095886 0.000000 -0.098203 0.000000
# 4 0.000000 0.000000 0.000000 0.174631 0.000000 0.016279
# 5 0.070185 -0.051499 -0.098203 0.000000 0.197919 0.000000
# 6 0.000000 0.000000 0.000000 0.016279 0.000000 0.030992
#
#
# Mechanical properties :
#
#
# Convention : Reuss Voigt Hill
#
# Bulk Modulus (GPa) = 11.72622 41.01878 26.37250
# Shear Modulus (GPa) = 7.52421 23.56263 15.54342
#
# Velocity S-wave (km/s) = 1.80553 3.19511 2.59506
# Velocity P-wave (km/s) = 3.07035 5.60208 4.51721
#
# Compressibility (1/GPa) = 0.08527899
#
# Stress axis : x y z
#
# Youngs Moduli (GPa) = 27.07883 38.31339 10.42900
#
# Poissons Ratio (x) = 0.92825 0.44109
# Poissons Ratio (y) = 0.65606 -0.30978
# Poissons Ratio (z) = 1.14529 -1.13805
#
# Static dielectric constant tensor:
#      x y z
#    x 1.850430 0.000000 0.037240 
#    y 0.000000 1.915720 0.000000 
#    z 0.037240 0.000000 1.956750 
# 
# From -- ./inp_files/29218.got.cif
#   From: 2010.05.17/outbox.cif.g08.bks.cpg/sg9_15_cif.got.tgz:29218.got - 2010.06.03 20:04:27.
