data_PCOD9139250
_publ_section_title
;
Structure prediction by ZEFSAII (Michael W. Deem and Ramdas Pophale) SiO2 
 PCOD9139250
Probable space group: C C
;
_chemical_formula_sum "Si O2"
_cell_formula_units_Z 32
_cell_length_a 9.530602
_cell_length_b 10.904442
_cell_length_c 14.010350
_cell_angle_alpha 90.000000
_cell_angle_beta 87.172551
_cell_angle_gamma 90.000000
_cell_volume 1454.265636
_symmetry_space_group_name_H-M "C C"
_symmetry_group_IT_number 9
_symmetry_cell_setting 'monoclinic'
loop_
_space_group_symop_operation_xyz
x,y,z
x,-y,1/2+z
1/2+x,1/2+y,z
1/2+x,1/2-y,1/2+z
loop_
_atom_site_type_symbol
_atom_site_label
_atom_site_fract_x
_atom_site_fract_y
_atom_site_fract_z
Si Si1 0.704960 0.371656 0.242890
Si Si2 0.406491 0.071474 0.431939
Si Si3 0.770677 0.718353 0.262115
Si Si4 0.229944 0.605717 0.208250
Si Si5 0.210150 0.946003 0.584282
Si Si6 0.427786 0.445013 0.320694
Si Si7 0.031456 0.409346 0.280884
Si Si8 0.920507 0.832683 0.522587
O O1 0.666113 0.229802 0.252327
O O2 0.680922 0.425487 0.138513
O O3 0.595671 0.448051 0.310488
O O4 0.869995 0.384293 0.260159
O O5 0.320149 0.134060 0.347931
O O6 0.442404 0.189246 0.496013
O O7 0.315536 0.976303 0.496024
O O8 0.528030 0.991727 0.377308
O O9 0.770446 0.641132 0.165427
O O10 0.876896 0.832868 0.255275
O O11 0.620574 0.784756 0.284528
O O12 0.349410 0.559531 0.277903
O O13 0.114034 0.498666 0.204698
O O14 0.305143 0.642787 0.107436
O O15 0.067216 0.886341 0.553805
O O16 0.381731 0.405782 0.427502
#
# Coordination Sequence:
#
# PCOD9139250 Si02
#       8
#     4   4   4   4   4   4   4   4
#     4  12  23  42  71  97 135 184 227 280 352 410
#     4  11  24  48  67 105 142 183 233 292 344 414
#     4  10  24  47  69 105 141 182 235 288 350 413
#     4  11  23  46  68 102 139 183 228 287 352 403
#     4  12  24  41  75 104 138 186 230 286 347 417
#     4  10  24  47  69  96 142 186 228 295 343 410
#     4  11  25  45  74 101 141 184 228 291 349 412
#     4  11  23  42  71 102 140 182 241 285 343 421
#
# _framework density 22.004234
#
# number of rings (size 3 to 8) (size 9 to 14) (size 15 to 20)
#    0.000    1.000    3.750    3.000    0.000    0.000 
#    9.000    5.000    0.000    0.000    0.000    0.000 
#    0.000    0.000    0.000    0.000    0.000    0.000 
#
# Total GULP energy -89454.259199 kJ/mol
# GULP energy per Si atom -5590.891200 kJ/mol
# Density = 2.195415 g / cm^3
# Si number density = 22.004234 Si / 1000 Ang^3
#
#
#
# Elastic Constant Matrix: (Units=GPa)
#
#
# Indices 1 2 3 4 5 6 
#
# 1 98.3789 23.1862 10.9707 0.0000 1.7594 0.0000
# 2 23.1862 92.1123 22.8150 0.0000 9.9533 0.0000
# 3 10.9707 22.8150 68.4244 0.0000 -9.9217 0.0000
# 4 0.0000 0.0000 0.0000 28.9006 0.0000 -5.2442
# 5 1.7594 9.9533 -9.9217 0.0000 36.3634 0.0000
# 6 0.0000 0.0000 0.0000 -5.2442 0.0000 39.7695
#
#
#
# Elastic Compliance Matrix: (Units=1/GPa)
#
#
# Indices 1 2 3 4 5 6 
#
# 1 0.010857 -0.002494 -0.000923 0.000000 -0.000094 0.000000
# 2 -0.002494 0.013156 -0.004677 0.000000 -0.004756 0.000000
# 3 -0.000923 -0.004677 0.017194 0.000000 0.006016 0.000000
# 4 0.000000 0.000000 0.000000 0.035450 0.000000 0.004675
# 5 -0.000094 -0.004756 0.006016 0.000000 0.030448 0.000000
# 6 0.000000 0.000000 0.000000 0.004675 0.000000 0.025761
#
#
# Mechanical properties :
#
#
# Convention : Reuss Voigt Hill
#
# Bulk Modulus (GPa) = 39.96678 41.42883 40.69780
# Shear Modulus (GPa) = 31.76729 34.46959 33.11844
#
# Velocity S-wave (km/s) = 3.80371 3.96219 3.88376
# Velocity P-wave (km/s) = 6.12321 6.30877 6.21668
#
# Compressibility (1/GPa) = 0.02502078
#
# Stress axis : x y z
#
# Youngs Moduli (GPa) = 92.10468 76.00838 58.15879
#
# Poissons Ratio (x) = 0.18958 0.05367
# Poissons Ratio (y) = 0.22972 0.27199
# Poissons Ratio (z) = 0.08500 0.35546
#
# Static dielectric constant tensor:
#      x y z
#    x 1.825590 0.000000 -0.005440 
#    y 0.000000 1.821040 0.000000 
#    z -0.005440 0.000000 1.824060 
# 
# From -- ./inp_files/22742.got.cif
#   From: 2010.05.17/outbox.cif.g08.bks.cpg/sg9_12_cif.got.tgz:22742.got - 2010.06.03 20:04:27.
