data_PCOD9139061
_publ_section_title
;
Structure prediction by ZEFSAII (Michael W. Deem and Ramdas Pophale) SiO2 
 PCOD9139061
Probable space group: C C
;
_chemical_formula_sum "Si O2"
_cell_formula_units_Z 28
_cell_length_a 12.431609
_cell_length_b 7.303023
_cell_length_c 27.890867
_cell_angle_alpha 90.000000
_cell_angle_beta 151.772327
_cell_angle_gamma 90.000000
_cell_volume 1197.654265
_symmetry_space_group_name_H-M "C C"
_symmetry_group_IT_number 9
_symmetry_cell_setting 'monoclinic'
loop_
_space_group_symop_operation_xyz
x,y,z
x,-y,1/2+z
1/2+x,1/2+y,z
1/2+x,1/2-y,1/2+z
loop_
_atom_site_type_symbol
_atom_site_label
_atom_site_fract_x
_atom_site_fract_y
_atom_site_fract_z
Si Si1 0.026740 0.764031 0.609500
Si Si2 0.403165 0.893108 0.598276
Si Si3 0.192725 0.157186 0.396087
Si Si4 0.924718 0.728886 0.391633
Si Si5 0.729491 0.356356 0.186403
Si Si6 0.080147 0.550308 0.262668
Si Si7 0.028742 0.764663 0.331769
O O1 0.903718 0.613481 0.594720
O O2 0.288022 0.693161 0.711129
O O3 0.880072 0.753062 0.503288
O O4 0.072664 0.973563 0.643778
O O5 0.159264 0.804466 0.503732
O O6 0.553816 0.809761 0.614319
O O7 0.532019 0.831425 0.697219
O O8 0.293223 0.125728 0.382092
O O9 0.958841 0.273771 0.301169
O O10 0.136561 0.953193 0.391388
O O11 0.977531 0.648999 0.359830
O O12 0.761990 0.901498 0.318823
O O13 0.845207 0.447563 0.185057
O O14 0.158703 0.653991 0.341623
#
# Coordination Sequence:
#
# PCOD9139061 Si02
#       7
#     4   4   4   4   4   4   4
#     4  11  23  44  73 105 140 186 235 291 352 417
#     4  12  23  46  71 101 148 183 236 297 355 418
#     4  11  23  46  71 106 144 186 242 288 353 425
#     4  11  23  41  67 100 138 186 235 289 348 418
#     4  10  24  44  72 100 142 187 230 288 352 417
#     4  10  24  44  68 102 140 182 239 291 347 421
#     4  11  22  43  70  98 144 184 229 298 349 412
#
# _framework density 23.379035999999999
#
# number of rings (size 3 to 8) (size 9 to 14) (size 15 to 20)
#    0.000    1.143    4.286    1.714    0.000    6.857 
#    2.571    0.000    0.000    0.000    0.000    0.000 
#    0.000    0.000    0.000    0.000    0.000    0.000 
#
# Total GULP energy -78053.695170 kJ/mol
# GULP energy per Si atom -5575.263941 kJ/mol
# Density = 2.332582 g / cm^3
# Si number density = 23.379036 Si / 1000 Ang^3
#
#
#
# Elastic Constant Matrix: (Units=GPa)
#
#
# Indices 1 2 3 4 5 6 
#
# 1 92.7855 22.4435 5.6127 0.0000 -6.0048 0.0000
# 2 22.4435 71.6129 2.2999 0.0001 -2.0623 0.0000
# 3 5.6127 2.2999 81.2968 0.0000 2.4618 0.0000
# 4 0.0000 0.0001 0.0000 22.8318 0.0000 -8.1478
# 5 -6.0048 -2.0623 2.4618 0.0000 36.1345 0.0000
# 6 0.0000 0.0000 0.0000 -8.1478 0.0000 17.5399
#
#
#
# Elastic Compliance Matrix: (Units=1/GPa)
#
#
# Indices 1 2 3 4 5 6 
#
# 1 0.011818 -0.003627 -0.000768 0.000000 0.001809 0.000000
# 2 -0.003627 0.015115 -0.000185 0.000000 0.000273 0.000000
# 3 -0.000768 -0.000185 0.012389 0.000000 -0.000982 0.000000
# 4 0.000000 0.000000 0.000000 0.052502 0.000000 0.024389
# 5 0.001809 0.000273 -0.000982 0.000000 0.028058 0.000000
# 6 0.000000 0.000000 0.000000 0.024389 0.000000 0.068342
#
#
# Mechanical properties :
#
#
# Convention : Reuss Voigt Hill
#
# Bulk Modulus (GPa) = 33.15625 34.04528 33.60077
# Shear Modulus (GPa) = 24.10356 29.65716 26.88036
#
# Velocity S-wave (km/s) = 3.21439 3.56552 3.39449
# Velocity P-wave (km/s) = 5.29048 5.61645 5.45590
#
# Compressibility (1/GPa) = 0.03016022
#
# Stress axis : x y z
#
# Youngs Moduli (GPa) = 84.61338 66.16152 80.71923
#
# Poissons Ratio (x) = 0.23998 0.06200
# Poissons Ratio (y) = 0.30690 0.01497
# Poissons Ratio (z) = 0.06499 0.01227
#
# Static dielectric constant tensor:
#      x y z
#    x 1.907010 0.000000 -0.040920 
#    y 0.000000 1.906480 0.000000 
#    z -0.040920 0.000000 1.878130 
# 
# From -- ./inp_files/31800.got.cif
#   From: 2010.05.17/outbox.cif.g08.bks.cpg/sg9_16_cif.got.tgz:31800.got - 2010.06.03 20:04:27.
