data_PCOD9139782
_publ_section_title
;
Structure prediction by ZEFSAII (Michael W. Deem and Ramdas Pophale) SiO2 
 PCOD9139782
Probable space group: C C
;
_chemical_formula_sum "Si O2"
_cell_formula_units_Z 32
_cell_length_a 17.014356
_cell_length_b 17.680373
_cell_length_c 9.665110
_cell_angle_alpha 90.000000
_cell_angle_beta 29.940329
_cell_angle_gamma 90.000000
_cell_volume 1451.106866
_symmetry_space_group_name_H-M "C C"
_symmetry_group_IT_number 9
_symmetry_cell_setting 'monoclinic'
loop_
_space_group_symop_operation_xyz
x,y,z
x,-y,1/2+z
1/2+x,1/2+y,z
1/2+x,1/2-y,1/2+z
loop_
_atom_site_type_symbol
_atom_site_label
_atom_site_fract_x
_atom_site_fract_y
_atom_site_fract_z
Si Si1 0.032020 0.420492 0.267310
Si Si2 0.746997 0.758220 0.162542
Si Si3 0.249329 0.871008 0.876056
Si Si4 0.656222 0.979908 0.823533
Si Si5 0.902705 0.142335 0.857998
Si Si6 0.681473 0.878895 0.456020
Si Si7 0.101614 0.758490 0.612658
Si Si8 0.361742 0.185258 0.500197
O O1 0.131915 0.476939 0.215214
O O2 0.098553 0.334403 0.138488
O O3 0.873574 0.419172 0.599699
O O4 0.011335 0.452146 0.142272
O O5 0.922823 0.778225 0.845097
O O6 0.764159 0.707766 0.271551
O O7 0.652234 0.829517 0.362801
O O8 0.654081 0.715712 0.184999
O O9 0.289884 0.854913 0.973578
O O10 0.070629 0.895854 0.125025
O O11 0.724186 0.041585 0.824989
O O12 0.771655 0.909307 0.630863
O O13 0.831498 0.147101 0.813321
O O14 0.916537 0.228471 0.887758
O O15 0.520645 0.863712 0.789433
O O16 0.225332 0.797569 0.320315
#
# Coordination Sequence:
#
# PCOD9139782 Si02
#       8
#     4   4   4   4   4   4   4   4
#     4  11  24  46  66  97 136 189 227 285 343 419
#     4  11  21  40  63  95 136 168 213 283 345 391
#     4  11  24  44  69  99 135 175 233 293 339 406
#     4  12  24  44  69  93 140 187 230 272 354 422
#     4  12  24  41  71 103 129 182 238 283 340 421
#     4  12  23  42  70  96 135 183 222 277 353 409
#     4  11  25  37  65 101 134 166 225 285 338 401
#     4  12  23  42  69 102 133 174 228 286 344 403
#
# _framework density 22.052130999999999
#
# number of rings (size 3 to 8) (size 9 to 14) (size 15 to 20)
#    0.000    0.500    7.500    1.500    3.500    0.000 
#    2.250    1.250    0.000    0.000    0.000    0.000 
#    0.000    0.000    0.000    0.000    0.000    0.000 
#
# Total GULP energy -89140.606137 kJ/mol
# GULP energy per Si atom -5571.287884 kJ/mol
# Density = 2.200194 g / cm^3
# Si number density = 22.052131 Si / 1000 Ang^3
#
#
#
# Elastic Constant Matrix: (Units=GPa)
#
#
# Indices 1 2 3 4 5 6 
#
# 1 62.8512 2.7237 54.2818 -0.0001 -10.5496 -0.0004
# 2 2.7237 46.6217 18.2182 -0.0010 5.9346 0.0011
# 3 54.2818 18.2182 140.1900 -0.0019 1.5052 0.0021
# 4 -0.0001 -0.0010 -0.0019 34.6402 0.0012 12.9982
# 5 -10.5496 5.9346 1.5052 0.0012 38.5222 -0.0012
# 6 -0.0004 0.0011 0.0021 12.9982 -0.0012 3.9414
#
#
#
# Elastic Compliance Matrix: (Units=1/GPa)
#
#
# Indices 1 2 3 4 5 6 
#
# 1 0.026008 0.001601 -0.010356 0.000019 0.007280 -0.000052
# 2 0.001601 0.023141 -0.003595 -0.000011 -0.002986 0.000030
# 3 -0.010356 -0.003595 0.011640 -0.000014 -0.002737 0.000038
# 4 0.000019 -0.000011 -0.000014 -0.121558 0.000024 0.400886
# 5 0.007280 -0.002986 -0.002737 0.000024 0.028520 -0.000067
# 6 -0.000052 0.000030 0.000038 0.400886 -0.000067 -1.068357
#
#
# Mechanical properties :
#
#
# Convention : Reuss Voigt Hill
#
# Bulk Modulus (GPa) = 27.71095 44.45671 36.08383
# Shear Modulus (GPa) = -4.69979 27.05003 11.17512
#
# Velocity S-wave (km/s) = -1.46145 3.50614 2.25357
# Velocity P-wave (km/s) = 3.12179 6.04932 4.81352
#
# Compressibility (1/GPa) = 0.03608681
#
# Stress axis : x y z
#
# Youngs Moduli (GPa) = 38.45035 43.21403 85.91256
#
# Poissons Ratio (x) = -0.06918 0.88974
# Poissons Ratio (y) = -0.06155 0.30885
# Poissons Ratio (z) = 0.39821 0.15535
#
# Static dielectric constant tensor:
#      x y z
#    x 1.868760 0.000000 0.013470 
#    y 0.000000 1.933360 0.000000 
#    z 0.013470 0.000000 1.895030 
# 
# From -- ./inp_files/11044.got.cif
#   From: 2010.05.17/outbox.cif.g08.bks.cpg/sg9_6_cif.got.tgz:11044.got - 2010.06.03 20:04:27.
