data_PCOD9139073
_publ_section_title
;
Structure prediction by ZEFSAII (Michael W. Deem and Ramdas Pophale) SiO2 
 PCOD9139073
Probable space group: C C
;
_chemical_formula_sum "Si O2"
_cell_formula_units_Z 24
_cell_length_a 16.377178
_cell_length_b 9.708870
_cell_length_c 13.509365
_cell_angle_alpha 90.000000
_cell_angle_beta 152.753157
_cell_angle_gamma 90.000000
_cell_volume 983.427001
_symmetry_space_group_name_H-M "C C"
_symmetry_group_IT_number 9
_symmetry_cell_setting 'monoclinic'
loop_
_space_group_symop_operation_xyz
x,y,z
x,-y,1/2+z
1/2+x,1/2+y,z
1/2+x,1/2-y,1/2+z
loop_
_atom_site_type_symbol
_atom_site_label
_atom_site_fract_x
_atom_site_fract_y
_atom_site_fract_z
Si Si1 0.503620 0.814820 0.376630
Si Si2 0.355301 0.563100 0.314757
Si Si3 0.113312 0.313461 0.056051
Si Si4 0.034192 0.026221 0.199795
Si Si5 0.763908 0.435178 0.621620
Si Si6 0.657294 0.179254 0.823930
O O1 0.665408 0.859043 0.622075
O O2 0.452237 0.656544 0.337794
O O3 0.564589 0.847221 0.329650
O O4 0.334112 0.910963 0.218317
O O5 0.284252 0.409557 0.215138
O O6 0.481714 0.556853 0.545589
O O7 0.668554 0.344301 0.602489
O O8 0.452791 0.143109 0.311967
O O9 0.065016 0.350069 0.118143
O O10 0.129457 0.935964 0.385249
O O11 0.168705 0.154945 0.331319
O O12 0.844408 0.099355 0.021269
#
# Coordination Sequence:
#
# PCOD9139073 Si02
#       6
#     4   4   4   4   4   4
#     4  11  24  45  71 101 135 180 230 280 333 401
#     4  10  24  44  68  98 138 179 226 278 338 402
#     4  10  24  47  70  99 137 182 226 277 339 405
#     4  11  24  42  68 102 137 178 226 281 339 404
#     4  11  25  43  71 102 137 178 227 281 338 402
#     4  11  23  43  70  98 134 183 229 267 335 422
#
# _framework density 24.404456
#
# number of rings (size 3 to 8) (size 9 to 14) (size 15 to 20)
#    0.000    1.333    0.000    5.000    0.000   12.000 
#    0.000   10.000    0.000    4.000    0.000    0.000 
#    0.000    0.000    0.000    0.000    0.000    0.000 
#
# Total GULP energy -67047.172841 kJ/mol
# GULP energy per Si atom -5587.264403 kJ/mol
# Density = 2.434891 g / cm^3
# Si number density = 24.404456 Si / 1000 Ang^3
#
#
#
# Elastic Constant Matrix: (Units=GPa)
#
#
# Indices 1 2 3 4 5 6 
#
# 1 105.1480 83.0474 61.7024 0.0000 -0.1706 0.0000
# 2 83.0474 86.6609 36.2768 0.0000 -16.3867 0.0000
# 3 61.7024 36.2768 189.7504 0.0000 -20.4242 0.0000
# 4 0.0000 0.0000 0.0000 34.4385 0.0000 -2.5153
# 5 -0.1706 -16.3867 -20.4242 0.0000 39.7693 0.0000
# 6 0.0000 0.0000 0.0000 -2.5153 0.0000 36.7455
#
#
#
# Elastic Compliance Matrix: (Units=1/GPa)
#
#
# Indices 1 2 3 4 5 6 
#
# 1 0.078841 -0.076569 -0.015198 0.000000 -0.039017 0.000000
# 2 -0.076569 0.087594 0.012704 0.000000 0.042288 0.000000
# 3 -0.015198 0.012704 0.008828 0.000000 0.009703 0.000000
# 4 0.000000 0.000000 0.000000 0.029183 0.000000 0.001998
# 5 -0.039017 0.042288 0.009703 0.000000 0.047385 0.000000
# 6 0.000000 0.000000 0.000000 0.001998 0.000000 0.027351
#
#
# Mechanical properties :
#
#
# Convention : Reuss Voigt Hill
#
# Bulk Modulus (GPa) = 58.35727 82.62361 70.49044
# Shear Modulus (GPa) = 11.28613 35.55952 23.42282
#
# Velocity S-wave (km/s) = 2.15283 3.82133 3.10139
# Velocity P-wave (km/s) = 5.49036 7.30750 6.46311
#
# Compressibility (1/GPa) = 0.01713583
#
# Stress axis : x y z
#
# Youngs Moduli (GPa) = 12.68373 11.41630 113.27745
#
# Poissons Ratio (x) = 0.87414 1.72163
# Poissons Ratio (y) = 0.97118 -1.43907
# Poissons Ratio (z) = 0.19277 -0.14503
#
# Static dielectric constant tensor:
#      x y z
#    x 1.990590 0.000000 0.030900 
#    y 0.000000 1.953350 0.000000 
#    z 0.030900 0.000000 1.990210 
# 
# From -- ./inp_files/31266.got.cif
#   From: 2010.05.17/outbox.cif.g08.bks.cpg/sg9_16_cif.got.tgz:31266.got - 2010.06.03 20:04:27.
