data_PCOD9139638
_publ_section_title
;
Structure prediction by ZEFSAII (Michael W. Deem and Ramdas Pophale) SiO2 
 PCOD9139638
Probable space group: C C
;
_chemical_formula_sum "Si O2"
_cell_formula_units_Z 16
_cell_length_a 13.543685
_cell_length_b 4.934248
_cell_length_c 18.801290
_cell_angle_alpha 90.000000
_cell_angle_beta 152.165618
_cell_angle_gamma 90.000000
_cell_volume 586.658681
_symmetry_space_group_name_H-M "C C"
_symmetry_group_IT_number 9
_symmetry_cell_setting 'monoclinic'
loop_
_space_group_symop_operation_xyz
x,y,z
x,-y,1/2+z
1/2+x,1/2+y,z
1/2+x,1/2-y,1/2+z
loop_
_atom_site_type_symbol
_atom_site_label
_atom_site_fract_x
_atom_site_fract_y
_atom_site_fract_z
Si Si1 0.068780 0.065224 0.429050
Si Si2 0.367448 0.087803 0.367645
Si Si3 0.404837 0.391645 0.572078
Si Si4 0.125818 0.216049 0.821216
O O1 0.297170 0.196646 0.560838
O O2 0.929498 0.326305 0.360452
O O3 0.023099 0.913458 0.325687
O O4 0.030963 0.831590 0.462755
O O5 0.137296 0.196365 0.196482
O O6 0.323476 0.966600 0.418173
O O7 0.227639 0.496552 0.404601
O O8 0.465796 0.667292 0.654772
#
# Coordination Sequence:
#
# PCOD9139638 Si02
#       4
#     4   4   4   4
#     4  12  24  52  74 119 154 216 256 328 398 469
#     4  10  28  46  80 115 157 213 255 327 407 463
#     4  10  26  51  83 117 165 202 273 329 398 483
#     4  10  26  51  75 121 162 203 268 332 387 489
#
# _framework density 27.273097
#
# number of rings (size 3 to 8) (size 9 to 14) (size 15 to 20)
#    1.500    0.000    2.500    0.000    7.000    4.000 
#    4.500    0.000    0.000    0.000    0.000    0.000 
#    0.000    0.000    0.000    0.000    0.000    0.000 
#
# Total GULP energy -44727.610013 kJ/mol
# GULP energy per Si atom -5590.951252 kJ/mol
# Density = 2.721102 g / cm^3
# Si number density = 27.273097 Si / 1000 Ang^3
#
#
#
# Elastic Constant Matrix: (Units=GPa)
#
#
# Indices 1 2 3 4 5 6 
#
# 1 142.2596 48.2135 27.0993 -0.0003 31.7382 0.0002
# 2 48.2135 159.0875 30.2847 -0.0015 36.1720 0.0064
# 3 27.0993 30.2847 88.2629 0.0011 10.6855 0.0000
# 4 -0.0003 -0.0015 0.0011 36.1684 -0.0002 17.1926
# 5 31.7382 36.1720 10.6855 -0.0002 49.8118 -0.0003
# 6 0.0002 0.0064 0.0000 17.1926 -0.0003 54.8833
#
#
#
# Elastic Compliance Matrix: (Units=1/GPa)
#
#
# Indices 1 2 3 4 5 6 
#
# 1 0.008761 -0.001370 -0.001709 0.000000 -0.004221 0.000000
# 2 -0.001370 0.008093 -0.001797 0.000001 -0.004619 -0.000001
# 3 -0.001709 -0.001797 0.012506 -0.000001 -0.000289 0.000000
# 4 0.000000 0.000001 -0.000001 0.032486 0.000000 -0.010176
# 5 -0.004221 -0.004619 -0.000289 0.000000 0.026181 0.000001
# 6 0.000000 -0.000001 0.000000 -0.010176 0.000001 0.021408
#
#
# Mechanical properties :
#
#
# Convention : Reuss Voigt Hill
#
# Bulk Modulus (GPa) = 50.99924 66.75610 58.87767
# Shear Modulus (GPa) = 39.76990 47.10689 43.43840
#
# Velocity S-wave (km/s) = 3.82279 4.16050 3.99522
# Velocity P-wave (km/s) = 6.18264 6.89998 6.55114
#
# Compressibility (1/GPa) = 0.01960814
#
# Stress axis : x y z
#
# Youngs Moduli (GPa) = 114.14376 123.55806 79.96132
#
# Poissons Ratio (x) = 0.16930 0.13663
# Poissons Ratio (y) = 0.15640 0.14370
# Poissons Ratio (z) = 0.19504 0.22205
#
# Static dielectric constant tensor:
#      x y z
#    x 2.144140 0.000000 -0.003480 
#    y 0.000000 2.114560 0.000000 
#    z -0.003480 0.000000 2.145150 
# 
# From -- ./inp_files/8650.got.cif
#   From: 2010.05.17/outbox.cif.g08.bks.cpg/sg9_5_cif.got.tgz:8650.got - 2010.06.03 20:04:27.
