data_PCOD9139659
_publ_section_title
;
Structure prediction by ZEFSAII (Michael W. Deem and Ramdas Pophale) SiO2 
 PCOD9139659
Probable space group: C C
;
_chemical_formula_sum "Si O2"
_cell_formula_units_Z 32
_cell_length_a 8.425953
_cell_length_b 17.192482
_cell_length_c 15.751520
_cell_angle_alpha 90.000000
_cell_angle_beta 34.545859
_cell_angle_gamma 90.000000
_cell_volume 1293.937924
_symmetry_space_group_name_H-M "C C"
_symmetry_group_IT_number 9
_symmetry_cell_setting 'monoclinic'
loop_
_space_group_symop_operation_xyz
x,y,z
x,-y,1/2+z
1/2+x,1/2+y,z
1/2+x,1/2-y,1/2+z
loop_
_atom_site_type_symbol
_atom_site_label
_atom_site_fract_x
_atom_site_fract_y
_atom_site_fract_z
Si Si1 0.707480 0.173925 0.298660
Si Si2 0.765030 0.597050 0.026564
Si Si3 0.225612 0.061299 0.457537
Si Si4 0.475091 0.267020 0.260247
Si Si5 0.340752 0.823650 0.316649
Si Si6 0.323185 0.438255 0.387226
Si Si7 0.926770 0.795106 0.086582
Si Si8 0.367558 0.005638 0.715311
O O1 0.461040 0.109769 0.405386
O O2 0.697438 0.211044 0.208338
O O3 0.637908 0.251826 0.382594
O O4 0.996051 0.131401 0.193132
O O5 0.055589 0.572879 0.942784
O O6 0.658426 0.519198 0.029497
O O7 0.828977 0.655001 0.920541
O O8 0.317218 0.046945 0.320612
O O9 0.949177 0.112264 0.582938
O O10 0.467776 0.353601 0.303966
O O11 0.477621 0.264141 0.158169
O O12 0.175713 0.233174 0.419102
O O13 0.634722 0.780591 0.172872
O O14 0.353968 0.905131 0.258700
O O15 0.599713 0.493378 0.268984
O O16 0.146979 0.471519 0.547145
#
# Coordination Sequence:
#
# PCOD9139659 Si02
#       8
#     4   4   4   4   4   4   4   4
#     4  11  26  46  74 111 149 209 253 330 393 478
#     4  11  27  45  76 107 157 199 271 318 403 473
#     4  10  27  45  78 108 154 205 258 328 404 475
#     4  11  26  46  76 106 159 199 263 326 397 474
#     4  11  24  47  70 110 152 200 263 319 395 469
#     4  12  26  49  73 116 152 210 262 340 389 488
#     4  11  25  47  71 113 150 204 254 329 391 481
#     4  11  27  47  80 107 161 208 268 328 406 470
#
# _framework density 24.730706000000001
#
# number of rings (size 3 to 8) (size 9 to 14) (size 15 to 20)
#    0.000    1.000    2.500    1.500   17.500    0.000 
#    0.000    0.000    0.000    0.000    0.000    0.000 
#    0.000    0.000    0.000    0.000    0.000    0.000 
#
# Total GULP energy -89263.617775 kJ/mol
# GULP energy per Si atom -5578.976111 kJ/mol
# Density = 2.467442 g / cm^3
# Si number density = 24.730706 Si / 1000 Ang^3
#
#
#
# Elastic Constant Matrix: (Units=GPa)
#
#
# Indices 1 2 3 4 5 6 
#
# 1 70.6394 23.4386 10.7217 -0.0051 -5.6488 -0.0034
# 2 23.4386 92.3902 9.9415 -0.0044 10.2486 -0.0075
# 3 10.7217 9.9415 68.5520 0.0047 -8.4696 -0.0145
# 4 -0.0051 -0.0044 0.0047 15.5189 0.0012 -9.0899
# 5 -5.6488 10.2486 -8.4696 0.0012 29.8333 -0.0005
# 6 -0.0034 -0.0075 -0.0145 -9.0899 -0.0005 34.3739
#
#
#
# Elastic Compliance Matrix: (Units=1/GPa)
#
#
# Indices 1 2 3 4 5 6 
#
# 1 0.016165 -0.004418 -0.001370 0.000005 0.004190 0.000001
# 2 -0.004418 0.012785 -0.001875 0.000005 -0.005761 0.000003
# 3 -0.001370 -0.001875 0.015671 -0.000003 0.004834 0.000005
# 4 0.000005 0.000005 -0.000003 0.076248 -0.000004 0.020163
# 5 0.004190 -0.005761 0.004834 -0.000004 0.037664 0.000001
# 6 0.000001 0.000003 0.000005 0.020163 0.000001 0.034424
#
#
# Mechanical properties :
#
#
# Convention : Reuss Voigt Hill
#
# Bulk Modulus (GPa) = 34.13522 35.53170 34.83346
# Shear Modulus (GPa) = 22.93061 28.44386 25.68724
#
# Velocity S-wave (km/s) = 3.04832 3.39506 3.22635
# Velocity P-wave (km/s) = 5.12078 5.45593 5.29101
#
# Compressibility (1/GPa) = 0.02929525
#
# Stress axis : x y z
#
# Youngs Moduli (GPa) = 61.86044 78.21442 63.81290
#
# Poissons Ratio (x) = 0.34558 0.08742
# Poissons Ratio (y) = 0.27332 0.11964
# Poissons Ratio (z) = 0.08474 0.14664
#
# Static dielectric constant tensor:
#      x y z
#    x 2.107910 0.000000 -0.065430 
#    y 0.000000 2.006030 0.000000 
#    z -0.065430 0.000000 2.002830 
# 
# From -- ./inp_files/23656.got.cif
#   From: 2010.05.17/outbox.cif.g08.bks.cpg/sg9_12_cif.got.tgz:23656.got - 2010.06.03 20:04:27.
