data_PCOD9139081
_publ_section_title
;
Structure prediction by ZEFSAII (Michael W. Deem and Ramdas Pophale) SiO2 
 PCOD9139081
Probable space group: C C
;
_chemical_formula_sum "Si O2"
_cell_formula_units_Z 32
_cell_length_a 18.065740
_cell_length_b 6.338480
_cell_length_c 14.173272
_cell_angle_alpha 90.000000
_cell_angle_beta 123.692008
_cell_angle_gamma 90.000000
_cell_volume 1350.363760
_symmetry_space_group_name_H-M "C C"
_symmetry_group_IT_number 9
_symmetry_cell_setting 'monoclinic'
loop_
_space_group_symop_operation_xyz
x,y,z
x,-y,1/2+z
1/2+x,1/2+y,z
1/2+x,1/2-y,1/2+z
loop_
_atom_site_type_symbol
_atom_site_label
_atom_site_fract_x
_atom_site_fract_y
_atom_site_fract_z
Si Si1 0.183000 0.227291 0.283740
Si Si2 0.926557 0.925559 0.212047
Si Si3 0.807006 0.555085 0.215818
Si Si4 0.115327 0.448192 0.598155
Si Si5 0.944982 0.219567 0.387845
Si Si6 0.830516 0.980121 0.974570
Si Si7 0.704068 0.225467 0.509907
Si Si8 0.598530 0.310951 0.265725
O O1 0.258901 0.111259 0.278006
O O2 0.113397 0.345387 0.164905
O O3 0.244040 0.388261 0.384103
O O4 0.129521 0.050509 0.299486
O O5 0.974373 0.054978 0.328321
O O6 0.863627 0.758664 0.220945
O O7 0.878537 0.075877 0.100940
O O8 0.992798 0.800137 0.189936
O O9 0.871670 0.363491 0.282784
O O10 0.724417 0.562539 0.083418
O O11 0.187635 0.531441 0.572358
O O12 0.138406 0.276608 0.695927
O O13 0.025752 0.361615 0.485760
O O14 0.893732 0.087952 0.433843
O O15 0.784923 0.778762 0.991936
O O16 0.621969 0.207120 0.381741
#
# Coordination Sequence:
#
# PCOD9139081 Si02
#       8
#     4   4   4   4   4   4   4   4
#     4  11  25  44  71 103 144 189 239 294 353 437
#     4  11  26  45  67 108 145 181 249 295 356 440
#     4  10  24  44  69 103 140 187 236 294 361 422
#     4  11  26  48  71 108 152 184 241 300 365 432
#     4  12  25  46  75 100 148 194 231 306 364 426
#     4  11  23  46  70 104 145 180 240 306 350 424
#     4  10  24  45  73 108 141 185 246 297 352 444
#     4  12  25  46  74 108 143 196 238 294 377 421
#
# _framework density 23.697317999999999
#
# number of rings (size 3 to 8) (size 9 to 14) (size 15 to 20)
#    0.000    1.000    3.750    1.500    3.500    5.000 
#    0.000    0.000    0.000    0.000    0.000    0.000 
#    0.000    0.000    0.000    0.000    0.000    0.000 
#
# Total GULP energy -89102.422883 kJ/mol
# GULP energy per Si atom -5568.901430 kJ/mol
# Density = 2.364338 g / cm^3
# Si number density = 23.697318 Si / 1000 Ang^3
#
#
#
# Elastic Constant Matrix: (Units=GPa)
#
#
# Indices 1 2 3 4 5 6 
#
# 1 106.8807 43.4977 31.7625 0.0000 -19.5064 0.0000
# 2 43.4977 54.6689 26.4548 0.0000 -11.2677 0.0000
# 3 31.7625 26.4548 130.6175 0.0000 -14.9216 0.0000
# 4 0.0000 0.0000 0.0000 27.6447 0.0000 5.3211
# 5 -19.5064 -11.2677 -14.9216 0.0000 31.9443 0.0000
# 6 0.0000 0.0000 0.0000 5.3211 0.0000 29.2087
#
#
#
# Elastic Compliance Matrix: (Units=1/GPa)
#
#
# Indices 1 2 3 4 5 6 
#
# 1 0.014695 -0.010221 -0.000940 0.000000 0.004929 0.000000
# 2 -0.010221 0.028358 -0.002988 0.000000 0.002366 0.000000
# 3 -0.000940 -0.002988 0.008772 0.000000 0.002469 0.000000
# 4 0.000000 0.000000 0.000000 0.037488 0.000000 -0.006829
# 5 0.004929 0.002366 0.002469 0.000000 0.036302 0.000000
# 6 0.000000 0.000000 0.000000 -0.006829 0.000000 0.035480
#
#
# Mechanical properties :
#
#
# Convention : Reuss Voigt Hill
#
# Bulk Modulus (GPa) = 42.50571 55.06636 48.78603
# Shear Modulus (GPa) = 25.35037 30.45635 27.90336
#
# Velocity S-wave (km/s) = 3.27426 3.58889 3.43518
# Velocity P-wave (km/s) = 5.68069 6.36092 6.03041
#
# Compressibility (1/GPa) = 0.02352625
#
# Stress axis : x y z
#
# Youngs Moduli (GPa) = 68.05038 35.26338 114.00167
#
# Poissons Ratio (x) = 0.36044 0.10718
# Poissons Ratio (y) = 0.69557 0.34061
# Poissons Ratio (z) = 0.06398 0.10536
#
# Static dielectric constant tensor:
#      x y z
#    x 1.882150 0.000000 0.087830 
#    y 0.000000 1.958990 0.000000 
#    z 0.087830 0.000000 2.040650 
# 
# From -- ./inp_files/26509.got.cif
#   From: 2010.05.17/outbox.cif.g08.bks.cpg/sg9_14_cif.got.tgz:26509.got - 2010.06.03 20:04:27.
