data_PCOD9139708
_publ_section_title
;
Structure prediction by ZEFSAII (Michael W. Deem and Ramdas Pophale) SiO2 
 PCOD9139708
Probable space group: C C
;
_chemical_formula_sum "Si O2"
_cell_formula_units_Z 32
_cell_length_a 16.407963
_cell_length_b 16.365747
_cell_length_c 12.538460
_cell_angle_alpha 90.000000
_cell_angle_beta 155.785789
_cell_angle_gamma 90.000000
_cell_volume 1380.945773
_symmetry_space_group_name_H-M "C C"
_symmetry_group_IT_number 9
_symmetry_cell_setting 'monoclinic'
loop_
_space_group_symop_operation_xyz
x,y,z
x,-y,1/2+z
1/2+x,1/2+y,z
1/2+x,1/2-y,1/2+z
loop_
_atom_site_type_symbol
_atom_site_label
_atom_site_fract_x
_atom_site_fract_y
_atom_site_fract_z
Si Si1 0.787640 0.462844 0.256980
Si Si2 0.922977 0.045985 0.169727
Si Si3 0.650014 0.045261 0.036101
Si Si4 0.016059 0.095526 0.607740
Si Si5 0.222182 0.643642 0.602504
Si Si6 0.330239 0.302417 0.442057
Si Si7 0.552435 0.692370 0.853977
Si Si8 0.877357 0.641195 0.415983
O O1 0.706698 0.409272 0.257813
O O2 0.858038 0.544891 0.400775
O O3 0.948533 0.433861 0.360859
O O4 0.588595 0.480002 0.952003
O O5 0.713890 0.050317 0.986676
O O6 0.962858 0.985403 0.117253
O O7 0.950918 0.139217 0.163102
O O8 0.821932 0.096593 0.300939
O O9 0.660537 0.946586 0.061104
O O10 0.062577 0.168620 0.743560
O O11 0.379901 0.677318 0.878402
O O12 0.353289 0.646530 0.653185
O O13 0.053803 0.711011 0.379713
O O14 0.327364 0.205211 0.451298
O O15 0.105521 0.335281 0.171143
O O16 0.733398 0.661414 0.144166
#
# Coordination Sequence:
#
# PCOD9139708 Si02
#       8
#     4   4   4   4   4   4   4   4
#     4  11  24  41  68  97 134 179 234 273 336 418
#     4  11  23  41  66  97 138 178 223 283 342 397
#     4  11  23  44  63  98 135 179 227 277 330 422
#     4  11  22  41  66  95 140 178 223 276 349 398
#     4  11  20  37  62  95 140 165 222 276 344 403
#     4  11  23  38  62  99 140 172 212 282 350 400
#     4  11  22  38  61 101 139 177 209 291 346 405
#     4  11  21  38  60  98 134 170 218 276 339 403
#
# _framework density 23.172526000000001
#
# number of rings (size 3 to 8) (size 9 to 14) (size 15 to 20)
#    0.000    1.000    5.000    3.750    1.750    2.000 
#    4.500    0.000    0.000    6.000    0.000    0.000 
#    0.000    0.000    0.000    0.000    0.000    0.000 
#
# Total GULP energy -89165.405795 kJ/mol
# GULP energy per Si atom -5572.837862 kJ/mol
# Density = 2.311978 g / cm^3
# Si number density = 23.172526 Si / 1000 Ang^3
#
#
#
# Elastic Constant Matrix: (Units=GPa)
#
#
# Indices 1 2 3 4 5 6 
#
# 1 128.1219 13.7609 16.0660 0.0000 24.0797 0.0000
# 2 13.7609 50.7444 18.2338 0.0000 -3.3558 0.0000
# 3 16.0660 18.2338 55.5555 0.0000 6.1712 0.0000
# 4 0.0000 0.0000 0.0000 24.6501 0.0000 -6.9069
# 5 24.0797 -3.3558 6.1712 0.0000 35.6306 0.0000
# 6 0.0000 0.0000 0.0000 -6.9069 0.0000 41.0009
#
#
#
# Elastic Compliance Matrix: (Units=1/GPa)
#
#
# Indices 1 2 3 4 5 6 
#
# 1 0.009432 -0.002560 -0.001175 0.000000 -0.006412 0.000000
# 2 -0.002560 0.023457 -0.007541 0.000000 0.005245 0.000000
# 3 -0.001175 -0.007541 0.021214 0.000000 -0.003590 0.000000
# 4 0.000000 0.000000 0.000000 0.042578 0.000000 0.007172
# 5 -0.006412 0.005245 -0.003590 0.000000 0.033515 0.000000
# 6 0.000000 0.000000 0.000000 0.007172 0.000000 0.025598
#
#
# Mechanical properties :
#
#
# Convention : Reuss Voigt Hill
#
# Bulk Modulus (GPa) = 31.69471 36.72702 34.21087
# Shear Modulus (GPa) = 26.47408 32.68040 29.57724
#
# Velocity S-wave (km/s) = 3.38372 3.75948 3.57654
# Velocity P-wave (km/s) = 5.38270 5.89311 5.64368
#
# Compressibility (1/GPa) = 0.03155100
#
# Stress axis : x y z
#
# Youngs Moduli (GPa) = 106.01663 42.63045 47.13898
#
# Poissons Ratio (x) = 0.10912 0.05541
# Poissons Ratio (y) = 0.27136 0.35549
# Poissons Ratio (z) = 0.12461 0.32149
#
# Static dielectric constant tensor:
#      x y z
#    x 2.069480 0.000000 0.070200 
#    y 0.000000 1.916640 0.000000 
#    z 0.070200 0.000000 1.859190 
# 
# From -- ./inp_files/18579.got.cif
#   From: 2010.05.17/outbox.cif.g08.bks.cpg/sg9_10_cif.got.tgz:18579.got - 2010.06.03 20:04:27.
