data_PCOD9139199
_publ_section_title
;
Structure prediction by ZEFSAII (Michael W. Deem and Ramdas Pophale) SiO2 
 PCOD9139199
Probable space group: C C
;
_chemical_formula_sum "Si O2"
_cell_formula_units_Z 28
_cell_length_a 7.691181
_cell_length_b 16.073085
_cell_length_c 9.961437
_cell_angle_alpha 90.000000
_cell_angle_beta 66.756793
_cell_angle_gamma 90.000000
_cell_volume 1131.496503
_symmetry_space_group_name_H-M "C C"
_symmetry_group_IT_number 9
_symmetry_cell_setting 'monoclinic'
loop_
_space_group_symop_operation_xyz
x,y,z
x,-y,1/2+z
1/2+x,1/2+y,z
1/2+x,1/2-y,1/2+z
loop_
_atom_site_type_symbol
_atom_site_label
_atom_site_fract_x
_atom_site_fract_y
_atom_site_fract_z
Si Si1 0.483540 0.163414 0.236190
Si Si2 0.772479 0.189342 0.924854
Si Si3 0.989705 0.655446 0.825388
Si Si4 0.842318 0.836648 0.819442
Si Si5 0.961319 0.062728 0.046622
Si Si6 0.851057 0.492462 0.383959
Si Si7 0.112078 0.547163 0.558804
O O1 0.329809 0.222545 0.350002
O O2 0.665285 0.178092 0.275506
O O3 0.406915 0.070292 0.264569
O O4 0.575707 0.192975 0.068006
O O5 0.698646 0.139784 0.817428
O O6 0.938033 0.144450 0.956744
O O7 0.970133 0.579230 0.720203
O O8 0.949189 0.749221 0.802696
O O9 0.827977 0.608279 0.953923
O O10 0.953396 0.907623 0.703418
O O11 0.742722 0.873175 0.981569
O O12 0.123117 0.997640 0.961549
O O13 0.759277 0.019685 0.069295
O O14 0.991647 0.522957 0.464990
#
# Coordination Sequence:
#
# PCOD9139199 Si02
#       7
#     4   4   4   4   4   4   4
#     4  11  26  44  68 102 142 183 235 289 346 425
#     4  11  25  43  68 102 146 173 238 293 346 413
#     4  10  25  42  72  99 141 180 235 287 345 414
#     4  11  24  45  72 100 141 184 237 282 355 420
#     4  11  25  47  71 102 140 191 226 295 353 416
#     4  10  24  46  70 102 135 187 235 275 365 401
#     4  10  25  45  71  99 141 178 238 287 346 415
#
# _framework density 24.745989999999999
#
# number of rings (size 3 to 8) (size 9 to 14) (size 15 to 20)
#    0.857    0.571    2.857    0.857   14.000    0.000 
#    2.571    0.000    0.000    0.000    0.000    0.000 
#    0.000    0.000    0.000    0.000    0.000    0.000 
#
# Total GULP energy -77941.202677 kJ/mol
# GULP energy per Si atom -5567.228763 kJ/mol
# Density = 2.468967 g / cm^3
# Si number density = 24.745990 Si / 1000 Ang^3
#
#
#
# Elastic Constant Matrix: (Units=GPa)
#
#
# Indices 1 2 3 4 5 6 
#
# 1 74.1228 26.4539 38.4798 0.0000 -20.6623 0.0000
# 2 26.4539 116.8582 49.6861 0.0000 -18.2751 0.0000
# 3 38.4798 49.6861 110.7368 0.0000 -23.7440 0.0000
# 4 0.0000 0.0000 0.0000 38.9187 0.0000 -10.0527
# 5 -20.6623 -18.2751 -23.7440 0.0000 39.4931 0.0000
# 6 0.0000 0.0000 0.0000 -10.0527 0.0000 31.6881
#
#
#
# Elastic Compliance Matrix: (Units=1/GPa)
#
#
# Indices 1 2 3 4 5 6 
#
# 1 0.017912 -0.001242 -0.004340 0.000000 0.006187 0.000000
# 2 -0.001242 0.010853 -0.004019 0.000000 0.001956 0.000000
# 3 -0.004340 -0.004019 0.013152 0.000000 0.003777 0.000000
# 4 0.000000 0.000000 0.000000 0.027988 0.000000 0.008879
# 5 0.006187 0.001956 0.003777 0.000000 0.031734 0.000000
# 6 0.000000 0.000000 0.000000 0.008879 0.000000 0.034374
#
#
# Mechanical properties :
#
#
# Convention : Reuss Voigt Hill
#
# Bulk Modulus (GPa) = 44.02347 58.99528 51.50938
# Shear Modulus (GPa) = 30.71501 34.49318 32.60409
#
# Velocity S-wave (km/s) = 3.52691 3.73753 3.63375
# Velocity P-wave (km/s) = 5.86636 6.52055 6.20209
#
# Compressibility (1/GPa) = 0.02271515
#
# Stress axis : x y z
#
# Youngs Moduli (GPa) = 55.82730 92.13952 76.03661
#
# Poissons Ratio (x) = 0.11442 0.33004
# Poissons Ratio (y) = 0.06933 0.30556
# Poissons Ratio (z) = 0.24232 0.37028
#
# Static dielectric constant tensor:
#      x y z
#    x 2.101340 0.000000 0.010260 
#    y 0.000000 1.985080 0.000000 
#    z 0.010260 0.000000 2.206840 
# 
# From -- ./inp_files/14531.got.cif
#   From: 2010.05.17/outbox.cif.g08.bks.cpg/sg9_8_cif.got.tgz:14531.got - 2010.06.03 20:04:27.
