data_PCOD9139719
_publ_section_title
;
Structure prediction by ZEFSAII (Michael W. Deem and Ramdas Pophale) SiO2 
 PCOD9139719
Probable space group: C C
;
_chemical_formula_sum "Si O2"
_cell_formula_units_Z 32
_cell_length_a 11.856222
_cell_length_b 16.649654
_cell_length_c 16.192355
_cell_angle_alpha 90.000000
_cell_angle_beta 25.550583
_cell_angle_gamma 90.000000
_cell_volume 1378.633512
_symmetry_space_group_name_H-M "C C"
_symmetry_group_IT_number 9
_symmetry_cell_setting 'monoclinic'
loop_
_space_group_symop_operation_xyz
x,y,z
x,-y,1/2+z
1/2+x,1/2+y,z
1/2+x,1/2-y,1/2+z
loop_
_atom_site_type_symbol
_atom_site_label
_atom_site_fract_x
_atom_site_fract_y
_atom_site_fract_z
Si Si1 0.526400 0.860578 0.704260
Si Si2 0.982144 0.408532 0.005863
Si Si3 0.071972 0.325323 0.413798
Si Si4 0.750043 0.432556 0.733703
Si Si5 0.620817 0.676145 0.610966
Si Si6 0.384794 0.361792 0.622650
Si Si7 0.918909 0.697087 0.698351
Si Si8 0.805164 0.834609 0.083405
O O1 0.440350 0.917871 0.686820
O O2 0.611568 0.772628 0.616068
O O3 0.749971 0.879546 0.623705
O O4 0.274874 0.853225 0.929419
O O5 0.825353 0.485320 0.140544
O O6 0.781464 0.356779 0.082327
O O7 0.046763 0.357958 0.044118
O O8 0.245137 0.423154 0.778454
O O9 0.323594 0.351959 0.300365
O O10 0.135418 0.345692 0.277513
O O11 0.820034 0.365891 0.618892
O O12 0.033569 0.230211 0.448895
O O13 0.453263 0.415137 0.957387
O O14 0.685828 0.350080 0.399224
O O15 0.324029 0.276563 0.711107
O O16 0.134437 0.708755 0.625945
#
# Coordination Sequence:
#
# PCOD9139719 Si02
#       8
#     4   4   4   4   4   4   4   4
#     4  11  20  40  75 106 143 186 257 318 360 458
#     4  11  28  46  69 115 154 196 243 333 395 444
#     4  12  23  42  72 104 140 201 262 309 369 458
#     4  12  27  46  70 112 159 195 253 323 399 443
#     4  11  20  41  74 107 139 187 264 314 361 455
#     4  11  23  44  77 112 141 197 264 309 381 463
#     4  12  24  45  78 104 152 198 255 312 384 464
#     4  12  25  44  71 110 148 198 262 312 375 465
#
# _framework density 23.211389
#
# number of rings (size 3 to 8) (size 9 to 14) (size 15 to 20)
#    0.000    0.500    6.250    2.250    1.750    3.000 
#    4.500    0.000    0.000    0.000    0.000    0.000 
#    0.000    0.000    0.000    0.000    0.000    0.000 
#
# Total GULP energy -89432.158074 kJ/mol
# GULP energy per Si atom -5589.509880 kJ/mol
# Density = 2.315856 g / cm^3
# Si number density = 23.211389 Si / 1000 Ang^3
#
#
#
# Elastic Constant Matrix: (Units=GPa)
#
#
# Indices 1 2 3 4 5 6 
#
# 1 125.4802 14.8171 31.3744 -0.0300 8.6621 -0.0816
# 2 14.8171 30.7397 -3.4668 -0.0136 5.3376 -0.0961
# 3 31.3744 -3.4668 103.1354 -0.1345 17.7126 -0.0895
# 4 -0.0300 -0.0136 -0.1345 25.1105 0.0520 11.9797
# 5 8.6621 5.3376 17.7126 0.0520 35.5832 0.0294
# 6 -0.0816 -0.0961 -0.0895 11.9797 0.0294 14.7093
#
#
#
# Elastic Compliance Matrix: (Units=1/GPa)
#
#
# Indices 1 2 3 4 5 6 
#
# 1 0.009284 -0.004801 -0.002976 -0.000014 -0.000059 0.000013
# 2 -0.004801 0.036334 0.003737 -0.000115 -0.006142 0.000340
# 3 -0.002976 0.003737 0.011699 0.000049 -0.005660 0.000051
# 4 -0.000014 -0.000115 0.000049 0.065131 -0.000055 -0.053045
# 5 -0.000059 -0.006142 -0.005660 -0.000055 0.031856 -0.000094
# 6 0.000013 0.000340 0.000051 -0.053045 -0.000094 0.111188
#
#
# Mechanical properties :
#
#
# Convention : Reuss Voigt Hill
#
# Bulk Modulus (GPa) = 20.30942 38.31163 29.31053
# Shear Modulus (GPa) = 17.24233 29.52264 23.38249
#
# Velocity S-wave (km/s) = 2.72846 3.57024 3.17735
# Velocity P-wave (km/s) = 4.32375 5.79110 5.11037
#
# Compressibility (1/GPa) = 0.04923823
#
# Stress axis : x y z
#
# Youngs Moduli (GPa) = 107.70839 27.52237 85.47802
#
# Poissons Ratio (x) = 0.13212 0.25435
# Poissons Ratio (y) = 0.51706 -0.31940
# Poissons Ratio (z) = 0.32050 -0.10284
#
# Static dielectric constant tensor:
#      x y z
#    x 1.880380 -0.000030 -0.018090 
#    y -0.000030 1.968330 0.000120 
#    z -0.018090 0.000120 1.870900 
# 
# From -- ./inp_files/25039.got.cif
#   From: 2010.05.17/outbox.cif.g08.bks.cpg/sg9_13_cif.got.tgz:25039.got - 2010.06.03 20:04:27.
