data_PCOD9139911
_publ_section_title
;
Structure prediction by ZEFSAII (Michael W. Deem and Ramdas Pophale) SiO2 
 PCOD9139911
Probable space group: C C
;
_chemical_formula_sum "Si O2"
_cell_formula_units_Z 28
_cell_length_a 18.591133
_cell_length_b 5.285804
_cell_length_c 13.588099
_cell_angle_alpha 90.000000
_cell_angle_beta 62.568196
_cell_angle_gamma 90.000000
_cell_volume 1185.149775
_symmetry_space_group_name_H-M "C C"
_symmetry_group_IT_number 9
_symmetry_cell_setting 'monoclinic'
loop_
_space_group_symop_operation_xyz
x,y,z
x,-y,1/2+z
1/2+x,1/2+y,z
1/2+x,1/2-y,1/2+z
loop_
_atom_site_type_symbol
_atom_site_label
_atom_site_fract_x
_atom_site_fract_y
_atom_site_fract_z
Si Si1 0.983530 0.827505 0.536350
Si Si2 0.308336 0.184576 0.283741
Si Si3 0.921240 0.077912 0.288073
Si Si4 0.028636 0.299250 0.398386
Si Si5 0.273359 0.141205 0.969067
Si Si6 0.695485 0.932624 0.191536
Si Si7 0.820525 0.689570 0.602801
O O1 0.971690 0.828985 0.661093
O O2 0.891814 0.892629 0.555125
O O3 0.002950 0.552299 0.476522
O O4 0.039283 0.058598 0.465061
O O5 0.392098 0.293290 0.276331
O O6 0.257575 0.357722 0.240913
O O7 0.250338 0.074520 0.405585
O O8 0.330382 0.956042 0.197486
O O9 0.829604 0.170974 0.371808
O O10 0.972992 0.171609 0.348143
O O11 0.108322 0.389802 0.290236
O O12 0.210806 0.279117 0.080594
O O13 0.332955 0.002002 0.007053
O O14 0.729215 0.211621 0.148510
#
# Coordination Sequence:
#
# PCOD9139911 Si02
#       7
#     4   4   4   4   4   4   4
#     4  12  25  48  75 107 151 205 253 319 390 465
#     4  11  22  42  76 106 141 195 264 319 376 463
#     4  12  25  45  77 114 143 199 266 316 385 466
#     4  12  30  48  73 110 165 198 247 330 397 458
#     4  11  22  40  73 104 137 193 256 315 375 466
#     4  11  26  46  68 107 152 201 252 325 389 462
#     4  11  22  43  74 102 147 197 266 312 378 456
#
# _framework density 23.625703000000001
#
# number of rings (size 3 to 8) (size 9 to 14) (size 15 to 20)
#    0.000    0.571    4.286    3.429    4.000    1.143 
#    5.143    0.000    0.000    0.000    0.000    0.000 
#    0.000    0.000    0.000    0.000    0.000    0.000 
#
# Total GULP energy -78022.378313 kJ/mol
# GULP energy per Si atom -5573.027022 kJ/mol
# Density = 2.357193 g / cm^3
# Si number density = 23.625703 Si / 1000 Ang^3
#
#
#
# Elastic Constant Matrix: (Units=GPa)
#
#
# Indices 1 2 3 4 5 6 
#
# 1 41.1190 23.9750 33.5334 0.0005 -12.0841 0.0042
# 2 23.9750 103.3340 66.1483 -0.0005 12.6733 0.0073
# 3 33.5334 66.1483 207.3942 -0.0005 12.1792 0.0006
# 4 0.0005 -0.0005 -0.0005 46.1507 0.0009 7.6944
# 5 -12.0841 12.6733 12.1792 0.0009 28.0546 0.0016
# 6 0.0042 0.0073 0.0006 7.6944 0.0016 17.0606
#
#
#
# Elastic Compliance Matrix: (Units=1/GPa)
#
#
# Indices 1 2 3 4 5 6 
#
# 1 0.040842 -0.009153 -0.005090 0.000000 0.023937 -0.000008
# 2 -0.009153 0.014644 -0.002638 0.000001 -0.009413 -0.000003
# 3 -0.005090 -0.002638 0.006716 0.000000 -0.003916 0.000003
# 4 0.000000 0.000001 0.000000 0.023430 0.000000 -0.010567
# 5 0.023937 -0.009413 -0.003916 0.000000 0.051908 -0.000007
# 6 -0.000008 -0.000003 0.000003 -0.010567 -0.000007 0.063380
#
#
# Mechanical properties :
#
#
# Convention : Reuss Voigt Hill
#
# Bulk Modulus (GPa) = 35.16196 66.57340 50.86768
# Shear Modulus (GPa) = 20.47809 33.46586 26.97198
#
# Velocity S-wave (km/s) = 2.94729 3.76773 3.38248
# Velocity P-wave (km/s) = 5.14755 6.86784 6.06896
#
# Compressibility (1/GPa) = 0.02843982
#
# Stress axis : x y z
#
# Youngs Moduli (GPa) = 24.48439 68.28638 148.89590
#
# Poissons Ratio (x) = 0.62506 0.75788
# Poissons Ratio (y) = 0.22412 0.39278
# Poissons Ratio (z) = 0.12462 0.18014
#
# Static dielectric constant tensor:
#      x y z
#    x 1.933180 0.000010 0.007150 
#    y 0.000010 2.027070 0.000000 
#    z 0.007150 0.000000 1.912330 
# 
# From -- ./inp_files/19769.got.cif
#   From: 2010.05.17/outbox.cif.g08.bks.cpg/sg9_10_cif.got.tgz:19769.got - 2010.06.03 20:04:27.
