data_PCOD9139607
_publ_section_title
;
Structure prediction by ZEFSAII (Michael W. Deem and Ramdas Pophale) SiO2 
 PCOD9139607
Probable space group: C C
;
_chemical_formula_sum "Si O2"
_cell_formula_units_Z 16
_cell_length_a 7.270727
_cell_length_b 19.661985
_cell_length_c 5.977248
_cell_angle_alpha 90.000000
_cell_angle_beta 137.801350
_cell_angle_gamma 90.000000
_cell_volume 573.962936
_symmetry_space_group_name_H-M "C C"
_symmetry_group_IT_number 9
_symmetry_cell_setting 'monoclinic'
loop_
_space_group_symop_operation_xyz
x,y,z
x,-y,1/2+z
1/2+x,1/2+y,z
1/2+x,1/2-y,1/2+z
loop_
_atom_site_type_symbol
_atom_site_label
_atom_site_fract_x
_atom_site_fract_y
_atom_site_fract_z
Si Si1 0.256740 0.355057 0.402820
Si Si2 0.844948 0.984974 0.742389
Si Si3 0.776557 0.396943 0.646455
Si Si4 0.498545 0.790485 0.545662
O O1 0.357543 0.405582 0.693582
O O2 0.536696 0.347467 0.522842
O O3 0.087515 0.295863 0.367350
O O4 0.036478 0.391763 0.043666
O O5 0.729745 0.011138 0.394095
O O6 0.125369 0.029910 0.007646
O O7 0.872654 0.362184 0.504615
O O8 0.280828 0.732820 0.407506
#
# Coordination Sequence:
#
# PCOD9139607 Si02
#       4
#     4   4   4   4
#     4  11  27  49  76 115 158 207 263 329 403 477
#     4  10  26  46  78 116 160 206 256 330 402 478
#     4  11  27  49  76 115 158 207 263 329 403 477
#     4  12  28  48  80 110 156 210 270 328 392 478
#
# _framework density 27.876366999999998
#
# number of rings (size 3 to 8) (size 9 to 14) (size 15 to 20)
#    0.000    1.000    0.000    3.000   17.500   14.000 
#    4.500    0.000    0.000    0.000    0.000    0.000 
#    0.000    0.000    0.000    0.000    0.000    0.000 
#
# Total GULP energy -44666.941126 kJ/mol
# GULP energy per Si atom -5583.367641 kJ/mol
# Density = 2.781292 g / cm^3
# Si number density = 27.876367 Si / 1000 Ang^3
#
#
#
# Elastic Constant Matrix: (Units=GPa)
#
#
# Indices 1 2 3 4 5 6 
#
# 1 181.1692 33.2599 46.8491 0.0000 7.5121 0.0000
# 2 33.2599 59.0286 19.7699 0.0000 10.9029 0.0000
# 3 46.8491 19.7699 141.3077 0.0000 0.0830 0.0000
# 4 0.0000 0.0000 0.0000 44.2695 0.0000 -4.4299
# 5 7.5121 10.9029 0.0830 0.0000 38.7019 0.0000
# 6 0.0000 0.0000 0.0000 -4.4299 0.0000 60.0752
#
#
#
# Elastic Compliance Matrix: (Units=1/GPa)
#
#
# Indices 1 2 3 4 5 6 
#
# 1 0.006544 -0.003026 -0.001746 0.000000 -0.000414 0.000000
# 2 -0.003026 0.020197 -0.001819 0.000000 -0.005099 0.000000
# 3 -0.001746 -0.001819 0.007910 0.000000 0.000834 0.000000
# 4 0.000000 0.000000 0.000000 0.022757 0.000000 0.001678
# 5 -0.000414 -0.005099 0.000834 0.000000 0.027353 0.000000
# 6 0.000000 0.000000 0.000000 0.001678 0.000000 0.016770
#
#
# Mechanical properties :
#
#
# Convention : Reuss Voigt Hill
#
# Bulk Modulus (GPa) = 46.58138 64.58481 55.58310
# Shear Modulus (GPa) = 41.02763 47.38444 44.20603
#
# Velocity S-wave (km/s) = 3.84053 4.12734 3.98652
# Velocity P-wave (km/s) = 6.03428 6.77731 6.41656
#
# Compressibility (1/GPa) = 0.02146780
#
# Stress axis : x y z
#
# Youngs Moduli (GPa) = 152.81450 49.51219 126.42743
#
# Poissons Ratio (x) = 0.14982 0.22074
# Poissons Ratio (y) = 0.46241 0.23003
# Poissons Ratio (z) = 0.26681 0.09009
#
# Static dielectric constant tensor:
#      x y z
#    x 2.121620 0.000000 -0.044890 
#    y 0.000000 2.238540 0.000000 
#    z -0.044890 0.000000 2.121710 
# 
# From -- ./inp_files/803.got.cif
#   From: 2010.05.17/outbox.cif.g08.bks.cpg/sg9_1_cif.got.tgz:803.got - 2010.06.03 20:04:27.
