data_PCOD9139749
_publ_section_title
;
Structure prediction by ZEFSAII (Michael W. Deem and Ramdas Pophale) SiO2 
 PCOD9139749
Probable space group: C C
;
_chemical_formula_sum "Si O2"
_cell_formula_units_Z 32
_cell_length_a 6.846014
_cell_length_b 14.448587
_cell_length_c 15.302243
_cell_angle_alpha 90.000000
_cell_angle_beta 60.856113
_cell_angle_gamma 90.000000
_cell_volume 1321.999124
_symmetry_space_group_name_H-M "C C"
_symmetry_group_IT_number 9
_symmetry_cell_setting 'monoclinic'
loop_
_space_group_symop_operation_xyz
x,y,z
x,-y,1/2+z
1/2+x,1/2+y,z
1/2+x,1/2-y,1/2+z
loop_
_atom_site_type_symbol
_atom_site_label
_atom_site_fract_x
_atom_site_fract_y
_atom_site_fract_z
Si Si1 0.074900 0.559445 0.399740
Si Si2 0.902240 0.494615 0.743089
Si Si3 0.633564 0.635512 0.880800
Si Si4 0.219695 0.358014 0.601501
Si Si5 0.866349 0.807280 0.754448
Si Si6 0.728804 0.842466 0.177492
Si Si7 0.089673 0.355916 0.393359
Si Si8 0.663140 0.689748 0.512194
O O1 0.986755 0.540885 0.319519
O O2 0.303418 0.617738 0.342057
O O3 0.093679 0.457585 0.436300
O O4 0.879317 0.626754 0.475670
O O5 0.994226 0.418625 0.656590
O O6 0.041221 0.585536 0.688320
O O7 0.666313 0.542069 0.817007
O O8 0.676944 0.727022 0.812197
O O9 0.842044 0.648265 0.903642
O O10 0.410682 0.628517 0.986536
O O11 0.340263 0.358723 0.668374
O O12 0.143282 0.253747 0.601714
O O13 0.105538 0.756997 0.701981
O O14 0.758395 0.861297 0.274276
O O15 0.933220 0.864533 0.069901
O O16 0.141144 0.263878 0.437625
#
# Coordination Sequence:
#
# PCOD9139749 Si02
#       8
#     4   4   4   4   4   4   4   4
#     4   9  19  39  62  81 122 164 197 264 309 364
#     4   8  20  37  56  83 116 154 208 242 302 378
#     4   9  18  39  61  82 122 164 201 258 310 379
#     4  11  21  34  63  89 122 159 205 251 327 373
#     4   9  18  39  60  85 117 164 202 249 315 385
#     4   9  21  39  62  86 116 159 209 250 310 376
#     4   9  22  41  58  87 126 157 218 247 313 389
#     4  12  23  36  62  95 119 161 206 261 320 368
#
# _framework density 24.205763000000001
#
# number of rings (size 3 to 8) (size 9 to 14) (size 15 to 20)
#    0.000    3.000    1.250    0.750    7.000    0.000 
#    6.750    1.250    0.000    0.000    0.000    0.000 
#    0.000    0.000    0.000    0.000    0.000    0.000 
#
# Total GULP energy -89100.737101 kJ/mol
# GULP energy per Si atom -5568.796069 kJ/mol
# Density = 2.415067 g / cm^3
# Si number density = 24.205763 Si / 1000 Ang^3
#
#
#
# Elastic Constant Matrix: (Units=GPa)
#
#
# Indices 1 2 3 4 5 6 
#
# 1 43.6376 6.4937 8.1208 0.0000 -1.7901 0.0000
# 2 6.4937 76.7726 29.8971 0.0000 -7.5725 0.0000
# 3 8.1208 29.8971 96.2447 0.0000 -15.1026 0.0000
# 4 0.0000 0.0000 0.0000 38.2823 0.0000 -3.2916
# 5 -1.7901 -7.5725 -15.1026 0.0000 14.2547 0.0000
# 6 0.0000 0.0000 0.0000 -3.2916 0.0000 25.2999
#
#
#
# Elastic Compliance Matrix: (Units=1/GPa)
#
#
# Indices 1 2 3 4 5 6 
#
# 1 0.023415 -0.001348 -0.001449 0.000000 0.000689 0.000000
# 2 -0.001348 0.015051 -0.003998 0.000000 0.003590 0.000000
# 3 -0.001449 -0.003998 0.013664 0.000000 0.012171 0.000000
# 4 0.000000 0.000000 0.000000 0.026417 0.000000 0.003437
# 5 0.000689 0.003590 0.012171 0.000000 0.085041 0.000000
# 6 0.000000 0.000000 0.000000 0.003437 0.000000 0.039973
#
#
# Mechanical properties :
#
#
# Convention : Reuss Voigt Hill
#
# Bulk Modulus (GPa) = 25.94769 33.96423 29.95596
# Shear Modulus (GPa) = 21.73939 27.04360 24.39149
#
# Velocity S-wave (km/s) = 3.00010 3.34614 3.17783
# Velocity P-wave (km/s) = 4.76903 5.38431 5.08598
#
# Compressibility (1/GPa) = 0.03853907
#
# Stress axis : x y z
#
# Youngs Moduli (GPa) = 42.70857 66.44246 73.18361
#
# Poissons Ratio (x) = 0.08959 0.10602
# Poissons Ratio (y) = 0.05759 0.29260
# Poissons Ratio (z) = 0.06187 0.26565
#
# Static dielectric constant tensor:
#      x y z
#    x 2.070050 0.000000 -0.020100 
#    y 0.000000 2.016220 0.000000 
#    z -0.020100 0.000000 1.957890 
# 
# From -- ./inp_files/23193.got.cif
#   From: 2010.05.17/outbox.cif.g08.bks.cpg/sg9_12_cif.got.tgz:23193.got - 2010.06.03 20:04:27.
