data_PCOD9139227
_publ_section_title
;
Structure prediction by ZEFSAII (Michael W. Deem and Ramdas Pophale) SiO2 
 PCOD9139227
Probable space group: C C
;
_chemical_formula_sum "Si O2"
_cell_formula_units_Z 28
_cell_length_a 13.357755
_cell_length_b 5.143463
_cell_length_c 18.884754
_cell_angle_alpha 90.000000
_cell_angle_beta 122.981015
_cell_angle_gamma 90.000000
_cell_volume 1088.391763
_symmetry_space_group_name_H-M "C C"
_symmetry_group_IT_number 9
_symmetry_cell_setting 'monoclinic'
loop_
_space_group_symop_operation_xyz
x,y,z
x,-y,1/2+z
1/2+x,1/2+y,z
1/2+x,1/2-y,1/2+z
loop_
_atom_site_type_symbol
_atom_site_label
_atom_site_fract_x
_atom_site_fract_y
_atom_site_fract_z
Si Si1 0.218200 0.710903 0.267670
Si Si2 0.474460 0.613830 0.622227
Si Si3 0.065837 0.941041 0.885955
Si Si4 0.824765 0.615794 0.941329
Si Si5 0.921499 0.567873 0.342499
Si Si6 0.130350 0.102495 0.062963
Si Si7 0.274298 0.594252 0.139944
O O1 0.077445 0.728691 0.203255
O O2 0.273917 0.660727 0.366677
O O3 0.000083 0.325625 0.345164
O O4 0.283151 0.990672 0.277417
O O5 0.390582 0.779613 0.536358
O O6 0.545167 0.420429 0.597426
O O7 0.396793 0.463008 0.649006
O O8 0.915098 0.450960 0.926582
O O9 0.202372 0.965004 0.913180
O O10 0.067283 0.981441 0.970757
O O11 0.985696 0.187015 0.834063
O O12 0.763581 0.043331 0.219517
O O13 0.236193 0.891217 0.114076
O O14 0.181869 0.388021 0.070471
#
# Coordination Sequence:
#
# PCOD9139227 Si02
#       7
#     4   4   4   4   4   4   4
#     4   9  25  48  69 110 145 186 246 296 354 432
#     4  11  23  46  75 106 144 193 237 299 362 427
#     4  12  23  45  74 102 141 190 234 294 357 424
#     4  10  24  46  73 107 142 193 236 295 364 425
#     4  10  26  45  69 100 148 183 235 297 348 424
#     4  11  24  43  71 107 139 183 244 287 355 431
#     4  11  25  45  69 104 145 188 234 300 352 425
#
# _framework density 25.726030000000002
#
# number of rings (size 3 to 8) (size 9 to 14) (size 15 to 20)
#    0.857    0.571    2.857    0.857    4.000    6.857 
#    2.571    0.000    0.000    0.000    0.000    0.000 
#    0.000    0.000    0.000    0.000    0.000    0.000 
#
# Total GULP energy -78246.996283 kJ/mol
# GULP energy per Si atom -5589.071163 kJ/mol
# Density = 2.566748 g / cm^3
# Si number density = 25.726030 Si / 1000 Ang^3
#
#
#
# Elastic Constant Matrix: (Units=GPa)
#
#
# Indices 1 2 3 4 5 6 
#
# 1 194.5271 33.9610 30.0884 0.0000 11.5840 0.0000
# 2 33.9610 67.6186 19.5587 0.0000 1.9041 0.0000
# 3 30.0884 19.5587 135.8041 0.0000 12.1496 0.0000
# 4 0.0000 0.0000 0.0000 20.7917 0.0000 2.5764
# 5 11.5840 1.9041 12.1496 0.0000 41.7089 0.0000
# 6 0.0000 0.0000 0.0000 2.5764 0.0000 29.0772
#
#
#
# Elastic Compliance Matrix: (Units=1/GPa)
#
#
# Indices 1 2 3 4 5 6 
#
# 1 0.005800 -0.002649 -0.000791 0.000000 -0.001260 0.000000
# 2 -0.002649 0.016642 -0.001856 0.000000 0.000517 0.000000
# 3 -0.000791 -0.001856 0.007987 0.000000 -0.002022 0.000000
# 4 0.000000 0.000000 0.000000 0.048630 0.000000 -0.004309
# 5 -0.001260 0.000517 -0.002022 0.000000 0.024891 0.000000
# 6 0.000000 0.000000 0.000000 -0.004309 0.000000 0.034773
#
#
# Mechanical properties :
#
#
# Convention : Reuss Voigt Hill
#
# Bulk Modulus (GPa) = 50.41060 62.79621 56.60341
# Shear Modulus (GPa) = 32.06617 39.27167 35.66892
#
# Velocity S-wave (km/s) = 3.53434 3.91133 3.72760
# Velocity P-wave (km/s) = 6.02438 6.69780 6.37000
#
# Compressibility (1/GPa) = 0.01983710
#
# Stress axis : x y z
#
# Youngs Moduli (GPa) = 172.39917 60.09037 125.20329
#
# Poissons Ratio (x) = 0.15918 0.09903
# Poissons Ratio (y) = 0.45669 0.23238
# Poissons Ratio (z) = 0.13636 0.11153
#
# Static dielectric constant tensor:
#      x y z
#    x 1.986770 0.000000 0.004290 
#    y 0.000000 2.021400 0.000000 
#    z 0.004290 0.000000 2.172100 
# 
# From -- ./inp_files/33049.got.cif
#   From: 2010.05.17/outbox.cif.g08.bks.cpg/sg9_17_cif.got.tgz:33049.got - 2010.06.03 20:04:27.
