data_PCOD9139350
_publ_section_title
;
Structure prediction by ZEFSAII (Michael W. Deem and Ramdas Pophale) SiO2 
 PCOD9139350
Probable space group: C C
;
_chemical_formula_sum "Si O2"
_cell_formula_units_Z 24
_cell_length_a 8.888930
_cell_length_b 23.598964
_cell_length_c 5.123443
_cell_angle_alpha 90.000000
_cell_angle_beta 107.340050
_cell_angle_gamma 90.000000
_cell_volume 1025.898142
_symmetry_space_group_name_H-M "C C"
_symmetry_group_IT_number 9
_symmetry_cell_setting 'monoclinic'
loop_
_space_group_symop_operation_xyz
x,y,z
x,-y,1/2+z
1/2+x,1/2+y,z
1/2+x,1/2-y,1/2+z
loop_
_atom_site_type_symbol
_atom_site_label
_atom_site_fract_x
_atom_site_fract_y
_atom_site_fract_z
Si Si1 0.784910 0.033296 0.593120
Si Si2 0.915496 0.757050 0.750478
Si Si3 0.819627 0.362298 0.457250
Si Si4 0.483313 0.908518 0.062825
Si Si5 0.969957 0.851803 0.118894
Si Si6 0.184551 0.304149 0.259388
O O1 0.594393 0.042178 0.504828
O O2 0.878952 0.088943 0.548724
O O3 0.826897 0.984883 0.407336
O O4 0.885464 0.700107 0.907057
O O5 0.747048 0.776827 0.556792
O O6 0.035657 0.731955 0.594395
O O7 0.001801 0.815391 0.877770
O O8 0.630737 0.359271 0.357430
O O9 0.892776 0.381535 0.769408
O O10 0.867495 0.407472 0.251911
O O11 0.620424 0.867306 0.247036
O O12 0.838102 0.809286 0.166045
#
# Coordination Sequence:
#
# PCOD9139350 Si02
#       6
#     4   4   4   4   4   4
#     4  11  26  49  76 102 134 185 242 299 360 412
#     4  11  24  40  63 102 146 190 228 270 350 421
#     4  11  25  45  70 107 143 187 223 288 347 431
#     4  10  25  46  70  99 138 180 239 286 353 413
#     4  11  27  40  72 100 145 185 236 294 340 421
#     4  10  25  38  63  94 144 189 228 271 342 416
#
# _framework density 23.394137000000001
#
# number of rings (size 3 to 8) (size 9 to 14) (size 15 to 20)
#    0.000    1.333    1.667    1.000   23.333    0.000 
#    0.000    5.000    0.000    0.000    0.000    0.000 
#    0.000    0.000    0.000    0.000    0.000    0.000 
#
# Total GULP energy -66882.960511 kJ/mol
# GULP energy per Si atom -5573.580043 kJ/mol
# Density = 2.334089 g / cm^3
# Si number density = 23.394137 Si / 1000 Ang^3
#
#
#
# Elastic Constant Matrix: (Units=GPa)
#
#
# Indices 1 2 3 4 5 6 
#
# 1 89.8905 14.6800 18.3800 0.0000 5.5489 0.0000
# 2 14.6800 66.0526 8.1539 0.0000 -5.5708 0.0000
# 3 18.3800 8.1539 84.7602 0.0000 0.9001 0.0000
# 4 0.0000 0.0000 0.0000 30.0013 0.0000 -4.2659
# 5 5.5489 -5.5708 0.9001 0.0000 33.6960 0.0000
# 6 0.0000 0.0000 0.0000 -4.2659 0.0000 37.2757
#
#
#
# Elastic Compliance Matrix: (Units=1/GPa)
#
#
# Indices 1 2 3 4 5 6 
#
# 1 0.012182 -0.002616 -0.002365 0.000000 -0.002375 0.000000
# 2 -0.002616 0.016109 -0.001016 0.000000 0.003121 0.000000
# 3 -0.002365 -0.001016 0.012410 0.000000 -0.000110 0.000000
# 4 0.000000 0.000000 0.000000 0.033883 0.000000 0.003878
# 5 -0.002375 0.003121 -0.000110 0.000000 0.030587 0.000000
# 6 0.000000 0.000000 0.000000 0.003878 0.000000 0.027271
#
#
# Mechanical properties :
#
#
# Convention : Reuss Voigt Hill
#
# Bulk Modulus (GPa) = 34.83273 35.90345 35.36809
# Shear Modulus (GPa) = 32.46660 33.49389 32.98025
#
# Velocity S-wave (km/s) = 3.72937 3.78791 3.75876
# Velocity P-wave (km/s) = 5.78499 5.87466 5.83000
#
# Compressibility (1/GPa) = 0.02870863
#
# Stress axis : x y z
#
# Youngs Moduli (GPa) = 82.08840 62.07546 80.58241
#
# Poissons Ratio (x) = 0.16238 0.19056
# Poissons Ratio (y) = 0.21473 0.08184
# Poissons Ratio (z) = 0.19412 0.06305
#
# Static dielectric constant tensor:
#      x y z
#    x 1.998640 0.000000 -0.105720 
#    y 0.000000 1.891450 0.000000 
#    z -0.105720 0.000000 2.047350 
# 
# From -- ./inp_files/790.got.cif
#   From: 2010.05.17/outbox.cif.g08.bks.cpg/sg9_1_cif.got.tgz:790.got - 2010.06.03 20:04:27.
