data_PCOD9139534
_publ_section_title
;
Structure prediction by ZEFSAII (Michael W. Deem and Ramdas Pophale) SiO2 
 PCOD9139534
Probable space group: C C
;
_chemical_formula_sum "Si O2"
_cell_formula_units_Z 24
_cell_length_a 12.693533
_cell_length_b 13.827508
_cell_length_c 10.241660
_cell_angle_alpha 90.000000
_cell_angle_beta 147.290278
_cell_angle_gamma 90.000000
_cell_volume 971.401004
_symmetry_space_group_name_H-M "C C"
_symmetry_group_IT_number 9
_symmetry_cell_setting 'monoclinic'
loop_
_space_group_symop_operation_xyz
x,y,z
x,-y,1/2+z
1/2+x,1/2+y,z
1/2+x,1/2-y,1/2+z
loop_
_atom_site_type_symbol
_atom_site_label
_atom_site_fract_x
_atom_site_fract_y
_atom_site_fract_z
Si Si1 0.515310 0.081588 0.947120
Si Si2 0.983795 0.105140 0.102545
Si Si3 0.801281 0.621403 0.231292
Si Si4 0.859429 0.100469 0.494780
Si Si5 0.968690 0.688907 0.147584
Si Si6 0.572358 0.191981 0.740575
O O1 0.515184 0.135973 0.810940
O O2 0.410655 0.979769 0.828861
O O3 0.739521 0.078521 0.234981
O O4 0.403153 0.137880 0.945459
O O5 0.086501 0.107033 0.067612
O O6 0.089066 0.193672 0.288489
O O7 0.982507 0.995336 0.154315
O O8 0.761618 0.138438 0.881990
O O9 0.831560 0.676088 0.128286
O O10 0.918015 0.679681 0.463840
O O11 0.980828 0.198866 0.620623
O O12 0.671687 0.130845 0.387954
#
# Coordination Sequence:
#
# PCOD9139534 Si02
#       6
#     4   4   4   4   4   4
#     4  10  25  51  75 110 159 198 256 313 379 458
#     4  12  27  48  81 114 150 208 252 314 389 449
#     4  12  25  50  80 113 156 199 256 321 383 449
#     4  10  25  49  78 112 153 205 252 312 388 452
#     4  10  26  48  74 113 156 193 258 316 377 453
#     4  12  26  50  74 118 156 195 260 320 372 465
#
# _framework density 24.706583999999999
#
# number of rings (size 3 to 8) (size 9 to 14) (size 15 to 20)
#    1.000    0.000    3.333    2.000    7.000    0.000 
#    9.000    0.000    0.000    0.000    0.000    0.000 
#    0.000    0.000    0.000    0.000    0.000    0.000 
#
# Total GULP energy -67036.310065 kJ/mol
# GULP energy per Si atom -5586.359172 kJ/mol
# Density = 2.465035 g / cm^3
# Si number density = 24.706584 Si / 1000 Ang^3
#
#
#
# Elastic Constant Matrix: (Units=GPa)
#
#
# Indices 1 2 3 4 5 6 
#
# 1 156.9826 62.5289 45.2957 0.0000 -11.0912 0.0000
# 2 62.5289 235.2657 24.4057 0.0000 -14.7259 0.0000
# 3 45.2957 24.4057 73.2695 0.0000 -6.2937 0.0000
# 4 0.0000 0.0000 0.0000 36.5055 0.0000 3.8626
# 5 -11.0912 -14.7259 -6.2937 0.0000 27.8283 0.0000
# 6 0.0000 0.0000 0.0000 3.8626 0.0000 43.6267
#
#
#
# Elastic Compliance Matrix: (Units=1/GPa)
#
#
# Indices 1 2 3 4 5 6 
#
# 1 0.008454 -0.001685 -0.004540 0.000000 0.001451 0.000000
# 2 -0.001685 0.004855 -0.000421 0.000000 0.001802 0.000000
# 3 -0.004540 -0.000421 0.016746 0.000000 0.001755 0.000000
# 4 0.000000 0.000000 0.000000 0.027652 0.000000 -0.002448
# 5 0.001451 0.001802 0.001755 0.000000 0.037864 0.000000
# 6 0.000000 0.000000 0.000000 -0.002448 0.000000 0.023139
#
#
# Mechanical properties :
#
#
# Convention : Reuss Voigt Hill
#
# Bulk Modulus (GPa) = 59.65625 81.10872 70.38249
# Shear Modulus (GPa) = 36.34027 43.81128 40.07578
#
# Velocity S-wave (km/s) = 3.83936 4.21558 4.03186
# Velocity P-wave (km/s) = 6.62213 7.52296 7.08687
#
# Compressibility (1/GPa) = 0.01676270
#
# Stress axis : x y z
#
# Youngs Moduli (GPa) = 118.28871 205.98134 59.71585
#
# Poissons Ratio (x) = 0.34709 0.27113
# Poissons Ratio (y) = 0.19932 0.02512
# Poissons Ratio (z) = 0.53707 0.08663
#
# Static dielectric constant tensor:
#      x y z
#    x 1.940300 0.000000 0.055660 
#    y 0.000000 2.005440 0.000000 
#    z 0.055660 0.000000 2.008660 
# 
# From -- ./inp_files/18242.got.cif
#   From: 2010.05.17/outbox.cif.g08.bks.cpg/sg9_10_cif.got.tgz:18242.got - 2010.06.03 20:04:27.
