data_PCOD9139382
_publ_section_title
;
Structure prediction by ZEFSAII (Michael W. Deem and Ramdas Pophale) SiO2 
 PCOD9139382
Probable space group: C C
;
_chemical_formula_sum "Si O2"
_cell_formula_units_Z 24
_cell_length_a 20.458061
_cell_length_b 4.952435
_cell_length_c 13.878576
_cell_angle_alpha 90.000000
_cell_angle_beta 41.571437
_cell_angle_gamma 90.000000
_cell_volume 933.048030
_symmetry_space_group_name_H-M "C C"
_symmetry_group_IT_number 9
_symmetry_cell_setting 'monoclinic'
loop_
_space_group_symop_operation_xyz
x,y,z
x,-y,1/2+z
1/2+x,1/2+y,z
1/2+x,1/2-y,1/2+z
loop_
_atom_site_type_symbol
_atom_site_label
_atom_site_fract_x
_atom_site_fract_y
_atom_site_fract_z
Si Si1 0.123620 0.973160 0.311120
Si Si2 0.758648 0.004246 0.641690
Si Si3 0.777269 0.284448 0.916974
Si Si4 0.939777 0.640543 0.717972
Si Si5 0.559180 0.358339 0.166478
Si Si6 0.423232 0.715807 0.593052
O O1 0.187196 0.239341 0.219346
O O2 0.079507 0.876266 0.257556
O O3 0.028919 0.074571 0.474788
O O4 0.197711 0.735845 0.265058
O O5 0.776586 0.867851 0.518555
O O6 0.861246 0.122619 0.569354
O O7 0.827650 0.578599 0.872464
O O8 0.845185 0.135495 0.763216
O O9 0.667364 0.326651 0.001348
O O10 0.940483 0.531699 0.604648
O O11 0.998060 0.891109 0.694579
O O12 0.997261 0.400654 0.708823
#
# Coordination Sequence:
#
# PCOD9139382 Si02
#       6
#     4   4   4   4   4   4
#     4  11  26  46  75 109 145 195 246 314 370 437
#     4  11  25  50  72 107 152 191 252 305 373 448
#     4   9  24  48  75 111 142 208 238 312 377 444
#     4  10  25  42  74 106 142 191 244 302 368 441
#     4  11  22  46  73 103 147 189 249 300 372 444
#     4  10  26  50  73 116 146 200 249 311 376 448
#
# _framework density 25.722149999999999
#
# number of rings (size 3 to 8) (size 9 to 14) (size 15 to 20)
#    1.000    0.667    0.000    3.000    2.333   10.667 
#    3.000    0.000    0.000    0.000    0.000    0.000 
#    0.000    0.000    0.000    0.000    0.000    0.000 
#
# Total GULP energy -67096.651638 kJ/mol
# GULP energy per Si atom -5591.387637 kJ/mol
# Density = 2.566361 g / cm^3
# Si number density = 25.722150 Si / 1000 Ang^3
#
#
#
# Elastic Constant Matrix: (Units=GPa)
#
#
# Indices 1 2 3 4 5 6 
#
# 1 71.2499 7.6539 -0.5172 0.0434 -0.0340 -0.0249
# 2 7.6539 80.5522 -4.0930 -0.0363 13.6581 -0.0570
# 3 -0.5172 -4.0930 99.9690 0.0260 -5.3751 -0.0543
# 4 0.0434 -0.0363 0.0260 33.8481 -0.0219 -5.0314
# 5 -0.0340 13.6581 -5.3751 -0.0219 28.1187 0.0426
# 6 -0.0249 -0.0570 -0.0543 -5.0314 0.0426 39.6901
#
#
#
# Elastic Compliance Matrix: (Units=1/GPa)
#
#
# Indices 1 2 3 4 5 6 
#
# 1 0.014194 -0.001472 0.000053 -0.000019 0.000742 0.000004
# 2 -0.001472 0.013685 0.000197 0.000016 -0.006611 0.000028
# 3 0.000053 0.000197 0.010110 -0.000005 0.001837 0.000012
# 4 -0.000019 0.000016 -0.000005 0.030111 0.000009 0.003817
# 5 0.000742 -0.006611 0.001837 0.000009 0.039127 -0.000047
# 6 0.000004 0.000028 0.000012 0.003817 -0.000047 0.025679
#
#
# Mechanical properties :
#
#
# Convention : Reuss Voigt Hill
#
# Bulk Modulus (GPa) = 28.13227 28.65094 28.39161
# Shear Modulus (GPa) = 33.96772 36.91322 35.44047
#
# Velocity S-wave (km/s) = 3.63790 3.79235 3.71593
# Velocity P-wave (km/s) = 5.34850 5.50806 5.42886
#
# Compressibility (1/GPa) = 0.03554636
#
# Stress axis : x y z
#
# Youngs Moduli (GPa) = 70.45248 73.07153 98.90976
#
# Poissons Ratio (x) = 0.10755 -0.00525
# Poissons Ratio (y) = 0.10369 -0.01951
# Poissons Ratio (z) = -0.00374 -0.01441
#
# Static dielectric constant tensor:
#      x y z
#    x 2.016900 0.000030 0.056670 
#    y 0.000030 2.104030 -0.000110 
#    z 0.056670 -0.000110 2.115660 
# 
# From -- ./inp_files/26989.got.cif
#   From: 2010.05.17/outbox.cif.g08.bks.cpg/sg9_14_cif.got.tgz:26989.got - 2010.06.03 20:04:27.
