data_PCOD9139102
_publ_section_title
;
Structure prediction by ZEFSAII (Michael W. Deem and Ramdas Pophale) SiO2 
 PCOD9139102
Probable space group: C C
;
_chemical_formula_sum "Si O2"
_cell_formula_units_Z 24
_cell_length_a 10.941608
_cell_length_b 10.807556
_cell_length_c 16.003827
_cell_angle_alpha 90.000000
_cell_angle_beta 28.809023
_cell_angle_gamma 90.000000
_cell_volume 911.972858
_symmetry_space_group_name_H-M "C C"
_symmetry_group_IT_number 9
_symmetry_cell_setting 'monoclinic'
loop_
_space_group_symop_operation_xyz
x,y,z
x,-y,1/2+z
1/2+x,1/2+y,z
1/2+x,1/2-y,1/2+z
loop_
_atom_site_type_symbol
_atom_site_label
_atom_site_fract_x
_atom_site_fract_y
_atom_site_fract_z
Si Si1 0.003760 0.729702 0.171350
Si Si2 0.466303 0.890136 0.941528
Si Si3 0.180660 0.128953 0.118814
Si Si4 0.377452 0.778215 0.158372
Si Si5 0.424048 0.465019 0.416434
Si Si6 0.956065 0.849389 0.040949
O O1 0.207508 0.809974 0.098889
O O2 0.897495 0.836908 0.173335
O O3 0.762259 0.661669 0.353863
O O4 0.192096 0.621368 0.025293
O O5 0.544514 0.851509 0.989556
O O6 0.374769 0.024365 0.969839
O O7 0.688392 0.837373 0.750986
O O8 0.341132 0.222675 0.077106
O O9 0.052784 0.213067 0.123404
O O10 0.015285 0.052278 0.286019
O O11 0.161349 0.881386 0.307758
O O12 0.359735 0.548379 0.535039
#
# Coordination Sequence:
#
# PCOD9139102 Si02
#       6
#     4   4   4   4   4   4
#     4  11  25  48  70 101 148 183 234 296 360 415
#     4  10  24  46  69 101 137 186 228 295 348 415
#     4  11  25  42  76 102 141 186 233 289 360 420
#     4  10  24  44  72 100 140 183 234 283 357 417
#     4  10  25  48  69 102 146 192 224 296 362 416
#     4  12  25  44  72 106 136 188 235 289 355 421
#
# _framework density 26.316573000000002
#
# number of rings (size 3 to 8) (size 9 to 14) (size 15 to 20)
#    0.000    1.333    1.667    3.000    9.333    2.667 
#    3.000    0.000    0.000    0.000    0.000    0.000 
#    0.000    0.000    0.000    0.000    0.000    0.000 
#
# Total GULP energy -66985.519426 kJ/mol
# GULP energy per Si atom -5582.126619 kJ/mol
# Density = 2.625667 g / cm^3
# Si number density = 26.316573 Si / 1000 Ang^3
#
#
#
# Elastic Constant Matrix: (Units=GPa)
#
#
# Indices 1 2 3 4 5 6 
#
# 1 109.3555 48.1001 18.8591 -0.0026 -19.8015 0.0007
# 2 48.1001 115.6779 25.3754 -0.0040 -1.1126 0.0017
# 3 18.8591 25.3754 66.9015 -0.0142 -7.8292 -0.0004
# 4 -0.0026 -0.0040 -0.0142 -8.9437 0.0007 23.3720
# 5 -19.8015 -1.1126 -7.8292 0.0007 33.9768 0.0037
# 6 0.0007 0.0017 -0.0004 23.3720 0.0037 50.9524
#
#
#
# Elastic Compliance Matrix: (Units=1/GPa)
#
#
# Indices 1 2 3 4 5 6 
#
# 1 0.012808 -0.005069 -0.000857 0.000000 0.007101 0.000000
# 2 -0.005069 0.011445 -0.003303 0.000000 -0.003341 0.000000
# 3 -0.000857 -0.003303 0.016824 -0.000011 0.003269 0.000005
# 4 0.000000 0.000000 -0.000011 -0.050853 -0.000004 0.023326
# 5 0.007101 -0.003341 0.003269 -0.000004 0.034214 0.000000
# 6 0.000000 0.000000 0.000005 0.023326 0.000000 0.008926
#
#
# Mechanical properties :
#
#
# Convention : Reuss Voigt Hill
#
# Bulk Modulus (GPa) = 44.21056 52.95601 48.58328
# Shear Modulus (GPa) = 84.22861 28.50378 56.36620
#
# Velocity S-wave (km/s) = 5.66351 3.29464 4.63304
# Velocity P-wave (km/s) = 7.72031 5.88551 6.86449
#
# Compressibility (1/GPa) = 0.02261903
#
# Stress axis : x y z
#
# Youngs Moduli (GPa) = 78.07754 87.37437 59.43806
#
# Poissons Ratio (x) = 0.44293 0.05092
# Poissons Ratio (y) = 0.39581 0.19632
# Poissons Ratio (z) = 0.06689 0.28859
#
# Static dielectric constant tensor:
#      x y z
#    x 2.187110 0.000000 0.089960 
#    y 0.000000 2.047520 0.000000 
#    z 0.089960 0.000000 2.114380 
# 
# From -- ./inp_files/7012.got.cif
#   From: 2010.05.17/outbox.cif.g08.bks.cpg/sg9_4_cif.got.tgz:7012.got - 2010.06.03 20:04:27.
