data_PCOD9139477
_publ_section_title
;
Structure prediction by ZEFSAII (Michael W. Deem and Ramdas Pophale) SiO2 
 PCOD9139477
Probable space group: C C
;
_chemical_formula_sum "Si O2"
_cell_formula_units_Z 32
_cell_length_a 13.698082
_cell_length_b 10.944311
_cell_length_c 16.730794
_cell_angle_alpha 90.000000
_cell_angle_beta 30.683994
_cell_angle_gamma 90.000000
_cell_volume 1279.948803
_symmetry_space_group_name_H-M "C C"
_symmetry_group_IT_number 9
_symmetry_cell_setting 'monoclinic'
loop_
_space_group_symop_operation_xyz
x,y,z
x,-y,1/2+z
1/2+x,1/2+y,z
1/2+x,1/2-y,1/2+z
loop_
_atom_site_type_symbol
_atom_site_label
_atom_site_fract_x
_atom_site_fract_y
_atom_site_fract_z
Si Si1 0.751370 0.813730 0.138030
Si Si2 0.526622 0.725558 0.030309
Si Si3 0.182043 0.950980 0.640215
Si Si4 0.568371 0.859879 0.610209
Si Si5 0.366487 0.945302 0.353597
Si Si6 0.782079 0.159767 0.797467
Si Si7 0.812740 0.895594 0.804598
Si Si8 0.949305 0.055176 0.936439
O O1 0.786887 0.678296 0.079676
O O2 0.555142 0.867556 0.239928
O O3 0.729763 0.790829 0.247893
O O4 0.899831 0.922089 0.010556
O O5 0.695335 0.645371 0.952286
O O6 0.600556 0.863685 0.979912
O O7 0.476025 0.658202 0.984562
O O8 0.356425 0.712081 0.212595
O O9 0.294927 0.010127 0.486307
O O10 0.966566 0.909587 0.765693
O O11 0.134608 0.034519 0.749478
O O12 0.623679 0.847488 0.478064
O O13 0.464051 0.732399 0.703614
O O14 0.765250 0.898223 0.515150
O O15 0.415686 0.959361 0.749392
O O16 0.831440 0.020182 0.744510
#
# Coordination Sequence:
#
# PCOD9139477 Si02
#       8
#     4   4   4   4   4   4   4   4
#     4  11  24  44  73 113 149 193 251 309 368 450
#     4  11  25  45  73 104 145 191 247 303 366 442
#     4  11  23  43  75 107 146 193 249 307 372 440
#     4  11  29  47  72 105 156 192 246 306 381 446
#     4  10  25  46  72 109 143 191 246 311 371 441
#     4  12  28  48  74 108 151 197 246 313 380 442
#     4  11  25  48  72 103 145 193 248 302 369 440
#     4  11  25  47  71 107 151 194 245 305 377 447
#
# _framework density 25.001000999999999
#
# number of rings (size 3 to 8) (size 9 to 14) (size 15 to 20)
#    0.000    1.000    3.750    0.750   12.250    1.000 
#    0.000    0.000    0.000    0.000    0.000    0.000 
#    0.000    0.000    0.000    0.000    0.000    0.000 
#
# Total GULP energy -89508.812795 kJ/mol
# GULP energy per Si atom -5594.300800 kJ/mol
# Density = 2.494410 g / cm^3
# Si number density = 25.001001 Si / 1000 Ang^3
#
#
#
# Elastic Constant Matrix: (Units=GPa)
#
#
# Indices 1 2 3 4 5 6 
#
# 1 67.1543 5.8178 19.7222 -0.0019 17.8629 0.0009
# 2 5.8178 60.2099 27.9972 -0.0034 2.9861 0.0016
# 3 19.7222 27.9972 106.1763 -0.0048 26.0394 0.0025
# 4 -0.0019 -0.0034 -0.0048 40.4500 0.0013 0.9404
# 5 17.8629 2.9861 26.0394 0.0013 43.4078 -0.0002
# 6 0.0009 0.0016 0.0025 0.9404 -0.0002 22.4414
#
#
#
# Elastic Compliance Matrix: (Units=1/GPa)
#
#
# Indices 1 2 3 4 5 6 
#
# 1 0.016997 -0.000643 -0.001505 0.000001 -0.006048 -0.000001
# 2 -0.000643 0.019101 -0.005464 0.000001 0.002228 -0.000001
# 3 -0.001505 -0.005464 0.012774 0.000001 -0.006668 -0.000001
# 4 0.000001 0.000001 0.000001 0.024746 -0.000002 -0.001037
# 5 -0.006048 0.002228 -0.006668 -0.000002 0.029373 0.000001
# 6 -0.000001 -0.000001 -0.000001 -0.001037 0.000001 0.044604
#
#
# Mechanical properties :
#
#
# Convention : Reuss Voigt Hill
#
# Bulk Modulus (GPa) = 29.71787 37.84613 33.78200
# Shear Modulus (GPa) = 28.73022 33.26006 30.99514
#
# Velocity S-wave (km/s) = 3.39361 3.65135 3.52484
# Velocity P-wave (km/s) = 5.22187 5.73997 5.48704
#
# Compressibility (1/GPa) = 0.03364979
#
# Stress axis : x y z
#
# Youngs Moduli (GPa) = 58.83270 52.35405 78.28610
#
# Poissons Ratio (x) = 0.03366 0.11778
# Poissons Ratio (y) = 0.03782 0.42772
# Poissons Ratio (z) = 0.08851 0.28604
#
# Static dielectric constant tensor:
#      x y z
#    x 1.986090 0.000000 -0.001120 
#    y 0.000000 1.959800 0.000000 
#    z -0.001120 0.000000 2.035080 
# 
# From -- ./inp_files/30704.got.cif
#   From: 2010.05.17/outbox.cif.g08.bks.cpg/sg9_16_cif.got.tgz:30704.got - 2010.06.03 20:04:27.
