data_PCOD9139519
_publ_section_title
;
Structure prediction by ZEFSAII (Michael W. Deem and Ramdas Pophale) SiO2 
 PCOD9139519
Probable space group: C C
;
_chemical_formula_sum "Si O2"
_cell_formula_units_Z 24
_cell_length_a 11.525400
_cell_length_b 10.371207
_cell_length_c 9.577107
_cell_angle_alpha 90.000000
_cell_angle_beta 53.397196
_cell_angle_gamma 90.000000
_cell_volume 919.010939
_symmetry_space_group_name_H-M "C C"
_symmetry_group_IT_number 9
_symmetry_cell_setting 'monoclinic'
loop_
_space_group_symop_operation_xyz
x,y,z
x,-y,1/2+z
1/2+x,1/2+y,z
1/2+x,1/2-y,1/2+z
loop_
_atom_site_type_symbol
_atom_site_label
_atom_site_fract_x
_atom_site_fract_y
_atom_site_fract_z
Si Si1 0.446880 0.985582 0.341870
Si Si2 0.690155 0.829194 0.045450
Si Si3 0.364661 0.434393 0.696972
Si Si4 0.770336 0.711605 0.549921
Si Si5 0.141494 0.668730 0.872517
Si Si6 0.156513 0.904127 0.393957
O O1 0.586366 0.952103 0.147088
O O2 0.486909 0.897672 0.448654
O O3 0.305274 0.939519 0.362206
O O4 0.413364 0.133099 0.400243
O O5 0.683537 0.757256 0.198599
O O6 0.617238 0.736406 0.985584
O O7 0.754721 0.051327 0.782770
O O8 0.314173 0.332832 0.614738
O O9 0.341392 0.368280 0.866054
O O10 0.520307 0.485074 0.540338
O O11 0.675925 0.754934 0.486423
O O12 0.684440 0.612643 0.711406
#
# Coordination Sequence:
#
# PCOD9139519 Si02
#       6
#     4   4   4   4   4   4
#     4  10  26  48  78 114 161 211 272 330 405 479
#     4   9  22  46  74  99 151 213 251 324 407 469
#     4  11  24  45  73 110 156 201 265 329 404 478
#     4  11  26  47  81 118 157 209 279 325 410 488
#     4  10  25  48  78 114 154 212 271 328 410 474
#     4  11  25  48  74 113 157 208 266 342 400 482
#
# _framework density 26.115030000000001
#
# number of rings (size 3 to 8) (size 9 to 14) (size 15 to 20)
#    1.000    0.667    0.000    3.000    7.000    4.000 
#    6.000    0.000    3.667    0.000    0.000    0.000 
#    0.000    0.000    0.000    0.000    0.000    0.000 
#
# Total GULP energy -67111.883740 kJ/mol
# GULP energy per Si atom -5592.656978 kJ/mol
# Density = 2.605559 g / cm^3
# Si number density = 26.115030 Si / 1000 Ang^3
#
#
#
# Elastic Constant Matrix: (Units=GPa)
#
#
# Indices 1 2 3 4 5 6 
#
# 1 169.0416 35.1607 90.5441 0.0000 18.1332 0.0000
# 2 35.1607 82.4044 33.7819 0.0000 5.0806 0.0000
# 3 90.5441 33.7819 150.9562 0.0000 6.0682 0.0000
# 4 0.0000 0.0000 0.0000 39.9351 0.0000 -2.7981
# 5 18.1332 5.0806 6.0682 0.0000 51.8777 0.0000
# 6 0.0000 0.0000 0.0000 -2.7981 0.0000 42.9141
#
#
#
# Elastic Compliance Matrix: (Units=1/GPa)
#
#
# Indices 1 2 3 4 5 6 
#
# 1 0.009251 -0.001719 -0.005065 0.000000 -0.002473 0.000000
# 2 -0.001719 0.013728 -0.002021 0.000000 -0.000507 0.000000
# 3 -0.005065 -0.002021 0.010083 0.000000 0.000789 0.000000
# 4 0.000000 0.000000 0.000000 0.025156 0.000000 0.001640
# 5 -0.002473 -0.000507 0.000789 0.000000 0.020098 0.000000
# 6 0.000000 0.000000 0.000000 0.001640 0.000000 0.023409
#
#
# Mechanical properties :
#
#
# Convention : Reuss Voigt Hill
#
# Bulk Modulus (GPa) = 64.70991 80.15283 72.43137
# Shear Modulus (GPa) = 40.16513 43.13973 41.65243
#
# Velocity S-wave (km/s) = 3.92600 4.06878 3.99803
# Velocity P-wave (km/s) = 6.73676 7.26857 7.00771
#
# Compressibility (1/GPa) = 0.01545358
#
# Stress axis : x y z
#
# Youngs Moduli (GPa) = 108.09135 72.84189 99.17640
#
# Poissons Ratio (x) = 0.12518 0.50233
# Poissons Ratio (y) = 0.18576 0.20044
# Poissons Ratio (z) = 0.54749 0.14722
#
# Static dielectric constant tensor:
#      x y z
#    x 2.051120 0.000000 0.024580 
#    y 0.000000 2.146000 0.000000 
#    z 0.024580 0.000000 2.140440 
# 
# From -- ./inp_files/16080.got.cif
#   From: 2010.05.17/outbox.cif.g08.bks.cpg/sg9_9_cif.got.tgz:16080.got - 2010.06.03 20:04:27.
