data_PCOD9139399
_publ_section_title
;
Structure prediction by ZEFSAII (Michael W. Deem and Ramdas Pophale) SiO2 
 PCOD9139399
Probable space group: C C
;
_chemical_formula_sum "Si O2"
_cell_formula_units_Z 28
_cell_length_a 28.902621
_cell_length_b 4.641920
_cell_length_c 8.749652
_cell_angle_alpha 90.000000
_cell_angle_beta 120.702608
_cell_angle_gamma 90.000000
_cell_volume 1009.340650
_symmetry_space_group_name_H-M "C C"
_symmetry_group_IT_number 9
_symmetry_cell_setting 'monoclinic'
loop_
_space_group_symop_operation_xyz
x,y,z
x,-y,1/2+z
1/2+x,1/2+y,z
1/2+x,1/2-y,1/2+z
loop_
_atom_site_type_symbol
_atom_site_label
_atom_site_fract_x
_atom_site_fract_y
_atom_site_fract_z
Si Si1 0.670100 0.688489 0.229140
Si Si2 0.734016 0.110577 0.555497
Si Si3 0.528015 0.498673 0.759086
Si Si4 0.378183 0.825380 0.279624
Si Si5 0.452598 0.671283 0.884142
Si Si6 0.097831 0.308691 0.627088
Si Si7 0.814892 0.103882 0.452687
O O1 0.691698 0.730073 0.094065
O O2 0.655721 0.356128 0.227216
O O3 0.707483 0.842133 0.419020
O O4 0.613449 0.859043 0.148625
O O5 0.775100 0.264783 0.505497
O O6 0.774643 0.005896 0.754992
O O7 0.489737 0.694396 0.800252
O O8 0.489242 0.294343 0.593670
O O9 0.563580 0.699434 0.710788
O O10 0.566722 0.303970 0.927198
O O11 0.434801 0.661277 0.360708
O O12 0.355908 0.776585 0.412891
O O13 0.396852 0.153145 0.290939
O O14 0.341847 0.663027 0.090968
#
# Coordination Sequence:
#
# PCOD9139399 Si02
#       7
#     4   4   4   4   4   4   4
#     4  11  22  41  67  98 136 178 227 280 342 419
#     4   9  20  42  67 100 136 178 227 283 347 413
#     4  10  25  44  67  99 138 180 232 290 350 413
#     4  11  24  45  68  97 134 180 233 286 351 416
#     4  11  26  44  68  97 134 180 233 290 348 416
#     4  11  24  42  67  98 136 180 227 283 346 413
#     4   9  21  44  68  99 138 180 229 290 350 416
#
# _framework density 27.740884999999999
#
# number of rings (size 3 to 8) (size 9 to 14) (size 15 to 20)
#    0.000    1.714    0.000    2.571    0.000   11.429 
#    0.000   32.857    0.000    0.000    0.000    0.000 
#    0.000    0.000    0.000    0.000    0.000    0.000 
#
# Total GULP energy -78547.476289 kJ/mol
# GULP energy per Si atom -5610.534021 kJ/mol
# Density = 2.767775 g / cm^3
# Si number density = 27.740885 Si / 1000 Ang^3
#
#
#
# Elastic Constant Matrix: (Units=GPa)
#
#
# Indices 1 2 3 4 5 6 
#
# 1 172.7552 27.7864 49.7098 0.0000 -34.9818 0.0000
# 2 27.7864 96.7728 26.2134 0.0000 -9.7020 0.0000
# 3 49.7098 26.2134 194.3453 0.0000 -17.7732 0.0000
# 4 0.0000 0.0000 0.0000 28.2661 0.0000 0.4575
# 5 -34.9818 -9.7020 -17.7732 0.0000 59.3637 0.0000
# 6 0.0000 0.0000 0.0000 0.4575 0.0000 36.1124
#
#
#
# Elastic Compliance Matrix: (Units=1/GPa)
#
#
# Indices 1 2 3 4 5 6 
#
# 1 0.007103 -0.001326 -0.001311 0.000000 0.003577 0.000000
# 2 -0.001326 0.011080 -0.001091 0.000000 0.000703 0.000000
# 3 -0.001311 -0.001091 0.005697 0.000000 0.000755 0.000000
# 4 0.000000 0.000000 0.000000 0.035385 0.000000 -0.000448
# 5 0.003577 0.000703 0.000755 0.000000 0.019294 0.000000
# 6 0.000000 0.000000 0.000000 -0.000448 0.000000 0.027697
#
#
# Mechanical properties :
#
#
# Convention : Reuss Voigt Hill
#
# Bulk Modulus (GPa) = 60.88427 74.58807 67.73617
# Shear Modulus (GPa) = 41.95079 48.75935 45.35507
#
# Velocity S-wave (km/s) = 3.89297 4.19701 4.04784
# Velocity P-wave (km/s) = 6.49631 7.10157 6.80567
#
# Compressibility (1/GPa) = 0.01642460
#
# Stress axis : x y z
#
# Youngs Moduli (GPa) = 140.78037 90.25103 175.53113
#
# Poissons Ratio (x) = 0.11966 0.23011
# Poissons Ratio (y) = 0.18666 0.19152
# Poissons Ratio (z) = 0.18456 0.09847
#
# Static dielectric constant tensor:
#      x y z
#    x 2.127400 0.000000 0.067410 
#    y 0.000000 2.078080 0.000000 
#    z 0.067410 0.000000 2.184640 
# 
# From -- ./inp_files/12607.got.cif
#   From: 2010.05.17/outbox.cif.g08.bks.cpg/sg9_7_cif.got.tgz:12607.got - 2010.06.03 20:04:27.
