data_PCOD9139963
_publ_section_title
;
Structure prediction by ZEFSAII (Michael W. Deem and Ramdas Pophale) SiO2 
 PCOD9139963
Probable space group: C C
;
_chemical_formula_sum "Si O2"
_cell_formula_units_Z 32
_cell_length_a 15.426187
_cell_length_b 12.622987
_cell_length_c 9.753581
_cell_angle_alpha 90.000000
_cell_angle_beta 45.978639
_cell_angle_gamma 90.000000
_cell_volume 1365.722597
_symmetry_space_group_name_H-M "C C"
_symmetry_group_IT_number 9
_symmetry_cell_setting 'monoclinic'
loop_
_space_group_symop_operation_xyz
x,y,z
x,-y,1/2+z
1/2+x,1/2+y,z
1/2+x,1/2-y,1/2+z
loop_
_atom_site_type_symbol
_atom_site_label
_atom_site_fract_x
_atom_site_fract_y
_atom_site_fract_z
Si Si1 0.992860 0.200751 0.787790
Si Si2 0.708237 0.461125 0.116542
Si Si3 0.984982 0.435884 0.784843
Si Si4 0.614877 0.029239 0.879343
Si Si5 0.775429 0.820023 0.744487
Si Si6 0.351575 0.388342 0.210104
Si Si7 0.157893 0.892065 0.442814
Si Si8 0.899884 0.095136 0.342096
O O1 0.920892 0.200320 0.720911
O O2 0.102566 0.115738 0.671409
O O3 0.040079 0.319886 0.755008
O O4 0.893750 0.177246 0.016704
O O5 0.663226 0.482153 0.320074
O O6 0.722281 0.563193 0.005102
O O7 0.845154 0.421329 0.972745
O O8 0.055140 0.524007 0.796701
O O9 0.006833 0.468147 0.605161
O O10 0.694371 0.922039 0.801357
O O11 0.710138 0.118216 0.825189
O O12 0.707760 0.709394 0.809248
O O13 0.806016 0.826796 0.873439
O O14 0.367617 0.484382 0.302126
O O15 0.404525 0.409612 0.000302
O O16 0.026111 0.870025 0.642137
#
# Coordination Sequence:
#
# PCOD9139963 Si02
#       8
#     4   4   4   4   4   4   4   4
#     4  12  25  47  77 109 142 198 253 302 369 447
#     4  12  26  45  72 103 151 191 243 309 372 438
#     4  12  27  47  72 106 150 197 242 305 379 441
#     4  11  25  48  74 104 147 194 244 302 371 446
#     4  11  24  46  76 102 140 194 247 299 364 445
#     4  11  23  46  76 108 145 192 248 304 359 443
#     4  12  24  44  70 106 145 189 238 301 367 440
#     4  11  22  43  71 108 140 187 239 300 361 430
#
# _framework density 23.430821999999999
#
# number of rings (size 3 to 8) (size 9 to 14) (size 15 to 20)
#    0.000    0.500    3.750    6.000    1.750    0.000 
#    9.000    0.000    0.000    0.000    0.000    0.000 
#    0.000    0.000    0.000    0.000    0.000    0.000 
#
# Total GULP energy -89319.486817 kJ/mol
# GULP energy per Si atom -5582.467926 kJ/mol
# Density = 2.337749 g / cm^3
# Si number density = 23.430822 Si / 1000 Ang^3
#
#
#
# Elastic Constant Matrix: (Units=GPa)
#
#
# Indices 1 2 3 4 5 6 
#
# 1 76.2801 11.7619 31.5344 0.0000 13.0010 0.0000
# 2 11.7619 13.6179 6.7223 0.0000 -0.7272 0.0000
# 3 31.5344 6.7223 135.4589 0.0000 8.6875 0.0000
# 4 0.0000 0.0000 0.0000 27.3206 0.0000 0.6285
# 5 13.0010 -0.7272 8.6875 0.0000 54.5261 0.0000
# 6 0.0000 0.0000 0.0000 0.6285 0.0000 20.3709
#
#
#
# Elastic Compliance Matrix: (Units=1/GPa)
#
#
# Indices 1 2 3 4 5 6 
#
# 1 0.017095 -0.013450 -0.003071 0.000000 -0.003766 0.000000
# 2 -0.013450 0.086001 -0.001431 0.000000 0.004582 0.000000
# 3 -0.003071 -0.001431 0.008206 0.000000 -0.000594 0.000000
# 4 0.000000 0.000000 0.000000 0.036628 0.000000 -0.001130
# 5 -0.003766 0.004582 -0.000594 0.000000 0.019394 0.000000
# 6 0.000000 0.000000 0.000000 -0.001130 0.000000 0.049125
#
#
# Mechanical properties :
#
#
# Convention : Reuss Voigt Hill
#
# Bulk Modulus (GPa) = 13.26276 36.15488 24.70882
# Shear Modulus (GPa) = 18.01901 32.13273 25.07587
#
# Velocity S-wave (km/s) = 2.77615 3.70724 3.27495
# Velocity P-wave (km/s) = 3.99358 5.81282 4.98686
#
# Compressibility (1/GPa) = 0.07539908
#
# Stress axis : x y z
#
# Youngs Moduli (GPa) = 58.49725 11.62778 121.85828
#
# Poissons Ratio (x) = 0.15640 0.37418
# Poissons Ratio (y) = 0.78681 0.17433
# Poissons Ratio (z) = 0.17962 0.01663
#
# Static dielectric constant tensor:
#      x y z
#    x 2.022660 0.000000 -0.006380 
#    y 0.000000 1.986610 0.000000 
#    z -0.006380 0.000000 1.861690 
# 
# From -- ./inp_files/9677.got.cif
#   From: 2010.05.17/outbox.cif.g08.bks.cpg/sg9_5_cif.got.tgz:9677.got - 2010.06.03 20:04:27.
