data_PCOD9139344
_publ_section_title
;
Structure prediction by ZEFSAII (Michael W. Deem and Ramdas Pophale) SiO2 
 PCOD9139344
Probable space group: C C
;
_chemical_formula_sum "Si O2"
_cell_formula_units_Z 28
_cell_length_a 10.122221
_cell_length_b 9.261620
_cell_length_c 13.377651
_cell_angle_alpha 90.000000
_cell_angle_beta 55.151822
_cell_angle_gamma 90.000000
_cell_volume 1029.225831
_symmetry_space_group_name_H-M "C C"
_symmetry_group_IT_number 9
_symmetry_cell_setting 'monoclinic'
loop_
_space_group_symop_operation_xyz
x,y,z
x,-y,1/2+z
1/2+x,1/2+y,z
1/2+x,1/2-y,1/2+z
loop_
_atom_site_type_symbol
_atom_site_label
_atom_site_fract_x
_atom_site_fract_y
_atom_site_fract_z
Si Si1 0.057750 0.075905 0.460310
Si Si2 0.525569 0.998909 0.772216
Si Si3 0.542637 0.249823 0.414267
Si Si4 0.217271 0.362422 0.349189
Si Si5 0.864082 0.764772 0.886340
Si Si6 0.549153 0.485661 0.695044
Si Si7 0.917954 0.521101 0.590657
O O1 0.199223 0.191223 0.374928
O O2 0.230847 0.978568 0.659315
O O3 0.909364 0.158447 0.469723
O O4 0.057343 0.920413 0.407499
O O5 0.679020 0.084571 0.752566
O O6 0.381892 0.092792 0.884586
O O7 0.543851 0.840051 0.811135
O O8 0.481671 0.011332 0.676208
O O9 0.694425 0.201407 0.414710
O O10 0.406426 0.180229 0.543048
O O11 0.053968 0.039610 0.578652
O O12 0.062321 0.428793 0.475301
O O13 0.985464 0.825388 0.749017
O O14 0.391947 0.577841 0.802013
#
# Coordination Sequence:
#
# PCOD9139344 Si02
#       7
#     4   4   4   4   4   4   4
#     4  11  29  50  89 119 172 223 284 354 427 502
#     4  10  24  52  82 116 169 222 275 357 427 507
#     4  11  26  53  82 124 165 225 284 347 428 508
#     4  10  26  55  83 128 171 224 295 353 420 523
#     4  11  26  50  82 123 162 222 282 349 418 511
#     4  12  27  51  87 130 164 234 287 346 443 498
#     4  11  26  51  87 122 173 226 285 356 431 507
#
# _framework density 27.204913000000001
#
# number of rings (size 3 to 8) (size 9 to 14) (size 15 to 20)
#    0.000    1.143    2.857    0.857   10.000    4.571 
#    2.571    0.000    3.143    0.000    0.000    0.000 
#    0.000    0.000    0.000    0.000    0.000    0.000 
#
# Total GULP energy -78212.837492 kJ/mol
# GULP energy per Si atom -5586.631249 kJ/mol
# Density = 2.714299 g / cm^3
# Si number density = 27.204913 Si / 1000 Ang^3
#
#
#
# Elastic Constant Matrix: (Units=GPa)
#
#
# Indices 1 2 3 4 5 6 
#
# 1 155.2901 38.7183 64.8625 0.0000 17.1110 0.0000
# 2 38.7183 210.2263 56.3448 0.0000 -9.7144 0.0000
# 3 64.8625 56.3448 137.3843 0.0000 22.9616 0.0000
# 4 0.0000 0.0000 0.0000 16.8141 0.0000 8.7531
# 5 17.1110 -9.7144 22.9616 0.0000 57.2431 0.0000
# 6 0.0000 0.0000 0.0000 8.7531 0.0000 42.0969
#
#
#
# Elastic Compliance Matrix: (Units=1/GPa)
#
#
# Indices 1 2 3 4 5 6 
#
# 1 0.008144 -0.000649 -0.003380 0.000000 -0.001189 0.000000
# 2 -0.000649 0.005599 -0.002338 0.000000 0.002082 0.000000
# 3 -0.003380 -0.002338 0.010430 0.000000 -0.003570 0.000000
# 4 0.000000 0.000000 0.000000 0.066693 0.000000 -0.013867
# 5 -0.001189 0.002082 -0.003570 0.000000 0.019610 0.000000
# 6 0.000000 0.000000 0.000000 -0.013867 0.000000 0.026638
#
#
# Mechanical properties :
#
#
# Convention : Reuss Voigt Hill
#
# Bulk Modulus (GPa) = 87.41730 91.41690 89.41710
# Shear Modulus (GPa) = 32.53887 46.09582 39.31735
#
# Velocity S-wave (km/s) = 3.46217 4.12077 3.80574
# Velocity P-wave (km/s) = 6.94153 7.50446 7.22848
#
# Compressibility (1/GPa) = 0.01143938
#
# Stress axis : x y z
#
# Youngs Moduli (GPa) = 122.78638 178.59979 95.87425
#
# Poissons Ratio (x) = 0.11589 0.32408
# Poissons Ratio (y) = 0.07968 0.22415
# Poissons Ratio (z) = 0.41505 0.41756
#
# Static dielectric constant tensor:
#      x y z
#    x 2.167960 0.000000 0.028710 
#    y 0.000000 2.208630 0.000000 
#    z 0.028710 0.000000 2.200580 
# 
# From -- ./inp_files/24326.got.cif
#   From: 2010.05.17/outbox.cif.g08.bks.cpg/sg9_13_cif.got.tgz:24326.got - 2010.06.03 20:04:27.
