data_PCOD9139062
_publ_section_title
;
Structure prediction by ZEFSAII (Michael W. Deem and Ramdas Pophale) SiO2 
 PCOD9139062
Probable space group: C C
;
_chemical_formula_sum "Si O2"
_cell_formula_units_Z 28
_cell_length_a 23.065292
_cell_length_b 7.318367
_cell_length_c 17.557192
_cell_angle_alpha 90.000000
_cell_angle_beta 22.094717
_cell_angle_gamma 90.000000
_cell_volume 1114.747148
_symmetry_space_group_name_H-M "C C"
_symmetry_group_IT_number 9
_symmetry_cell_setting 'monoclinic'
loop_
_space_group_symop_operation_xyz
x,y,z
x,-y,1/2+z
1/2+x,1/2+y,z
1/2+x,1/2-y,1/2+z
loop_
_atom_site_type_symbol
_atom_site_label
_atom_site_fract_x
_atom_site_fract_y
_atom_site_fract_z
Si Si1 0.088240 0.250548 0.290990
Si Si2 0.657430 0.482433 0.980537
Si Si3 0.076181 0.662730 0.512175
Si Si4 0.689777 0.151385 0.215831
Si Si5 0.408621 0.098798 0.865467
Si Si6 0.482288 0.772950 0.582781
Si Si7 0.521699 0.287167 0.281031
O O1 0.159306 0.442605 0.232276
O O2 0.992535 0.293749 0.332014
O O3 0.992554 0.205603 0.482902
O O4 0.230086 0.118599 0.102546
O O5 0.690082 0.690758 0.914744
O O6 0.538822 0.396163 0.063860
O O7 0.568586 0.446011 0.167038
O O8 0.813241 0.362933 0.796264
O O9 0.941261 0.671121 0.740431
O O10 0.092260 0.443530 0.477399
O O11 0.083850 0.720388 0.414020
O O12 0.654281 0.245228 0.179021
O O13 0.868539 0.175624 0.016097
O O14 0.481429 0.896367 0.782627
#
# Coordination Sequence:
#
# PCOD9139062 Si02
#       7
#     4   4   4   4   4   4   4
#     4  10  24  44  68 103 140 187 234 297 357 431
#     4  12  26  47  78 104 150 193 243 305 366 430
#     4  11  27  45  73 109 143 194 242 303 361 433
#     4  10  25  44  69 100 146 180 243 292 363 429
#     4  11  24  43  72 101 147 180 245 293 355 435
#     4  11  26  49  72 112 146 189 248 301 366 441
#     4  11  24  46  70 105 138 193 235 299 358 431
#
# _framework density 25.117802000000001
#
# number of rings (size 3 to 8) (size 9 to 14) (size 15 to 20)
#    0.000    1.143    1.429    2.571   10.000    3.429 
#    2.571    0.000    0.000    0.000    0.000    0.000 
#    0.000    0.000    0.000    0.000    0.000    0.000 
#
# Total GULP energy -78172.020914 kJ/mol
# GULP energy per Si atom -5583.715780 kJ/mol
# Density = 2.506063 g / cm^3
# Si number density = 25.117802 Si / 1000 Ang^3
#
#
#
# Elastic Constant Matrix: (Units=GPa)
#
#
# Indices 1 2 3 4 5 6 
#
# 1 91.5954 46.0100 31.8533 0.0004 24.5571 -0.0001
# 2 46.0100 98.9439 25.5339 -0.0016 6.4275 0.0001
# 3 31.8533 25.5339 100.0417 -0.0005 12.0862 0.0000
# 4 0.0004 -0.0016 -0.0005 22.3980 0.0002 5.3505
# 5 24.5571 6.4275 12.0862 0.0002 46.0638 0.0001
# 6 -0.0001 0.0001 0.0000 5.3505 0.0001 29.2391
#
#
#
# Elastic Compliance Matrix: (Units=1/GPa)
#
#
# Indices 1 2 3 4 5 6 
#
# 1 0.017385 -0.006852 -0.002873 -0.000001 -0.007558 0.000000
# 2 -0.006852 0.013549 -0.001538 0.000001 0.002166 0.000000
# 3 -0.002873 -0.001538 0.011455 0.000000 -0.001259 0.000000
# 4 -0.000001 0.000001 0.000000 0.046688 0.000000 -0.008543
# 5 -0.007558 0.002166 -0.001259 0.000000 0.025767 0.000000
# 6 0.000000 0.000000 0.000000 -0.008543 0.000000 0.035764
#
#
# Mechanical properties :
#
#
# Convention : Reuss Voigt Hill
#
# Bulk Modulus (GPa) = 50.34554 55.26394 52.80474
# Shear Modulus (GPa) = 27.81557 32.01912 29.91734
#
# Velocity S-wave (km/s) = 3.33138 3.57425 3.45495
# Velocity P-wave (km/s) = 5.90633 6.25167 6.08145
#
# Compressibility (1/GPa) = 0.01986273
#
# Stress axis : x y z
#
# Youngs Moduli (GPa) = 57.52110 73.80556 87.29445
#
# Poissons Ratio (x) = 0.50569 0.25084
# Poissons Ratio (y) = 0.39411 0.13428
# Poissons Ratio (z) = 0.16529 0.11353
#
# Static dielectric constant tensor:
#      x y z
#    x 1.932700 0.000000 0.001540 
#    y 0.000000 2.037870 0.000000 
#    z 0.001540 0.000000 1.984470 
# 
# From -- ./inp_files/31576.got.cif
#   From: 2010.05.17/outbox.cif.g08.bks.cpg/sg9_16_cif.got.tgz:31576.got - 2010.06.03 20:04:27.
