data_PCOD9139643
_publ_section_title
;
Structure prediction by ZEFSAII (Michael W. Deem and Ramdas Pophale) SiO2 
 PCOD9139643
Probable space group: C C
;
_chemical_formula_sum "Si O2"
_cell_formula_units_Z 28
_cell_length_a 14.610800
_cell_length_b 12.134967
_cell_length_c 8.790242
_cell_angle_alpha 90.000000
_cell_angle_beta 41.914299
_cell_angle_gamma 90.000000
_cell_volume 1041.122374
_symmetry_space_group_name_H-M "C C"
_symmetry_group_IT_number 9
_symmetry_cell_setting 'monoclinic'
loop_
_space_group_symop_operation_xyz
x,y,z
x,-y,1/2+z
1/2+x,1/2+y,z
1/2+x,1/2-y,1/2+z
loop_
_atom_site_type_symbol
_atom_site_label
_atom_site_fract_x
_atom_site_fract_y
_atom_site_fract_z
Si Si1 0.102130 0.054381 0.009490
Si Si2 0.054439 0.850837 0.268053
Si Si3 0.204646 0.538127 0.498684
Si Si4 0.875770 0.351267 0.898877
Si Si5 0.828489 0.851267 0.120112
Si Si6 0.499612 0.961875 0.020301
Si Si7 0.149820 0.149162 0.250929
O O1 0.182321 0.127368 0.033888
O O2 0.029968 0.965121 0.210370
O O3 0.021935 0.127365 0.985098
O O4 0.987380 0.826755 0.952370
O O5 0.216880 0.826753 0.066617
O O6 0.967543 0.757675 0.294282
O O7 0.270716 0.439313 0.315962
O O8 0.309622 0.605224 0.470825
O O9 0.102135 0.600751 0.509477
O O10 0.102122 0.500008 0.759498
O O11 0.894639 0.394771 0.048164
O O12 0.674296 0.534877 0.308604
O O13 0.933540 0.439316 0.703034
O O14 0.736717 0.742324 0.224700
#
# Coordination Sequence:
#
# PCOD9139643 Si02
#       7
#     4   4   4   4   4   4   4
#     4  10  26  52  70 104 156 196 246 290 382 424
#     4  11  26  49  75 109 145 202 238 310 354 453
#     4   9  21  44  69 108 138 189 234 307 350 444
#     4  11  24  48  77 107 149 188 250 294 381 423
#     4  11  24  48  77 107 149 188 250 294 381 423
#     4   9  21  44  69 108 138 189 234 307 350 444
#     4  11  26  49  75 109 145 202 238 310 354 453
#
# _framework density 26.894051999999999
#
# number of rings (size 3 to 8) (size 9 to 14) (size 15 to 20)
#    0.000    1.714    0.000    1.714    8.000    2.286 
#   30.857    0.000    0.000    0.000    0.000    0.000 
#    0.000    0.000    0.000    0.000    0.000    0.000 
#
# Total GULP energy -78351.063687 kJ/mol
# GULP energy per Si atom -5596.504549 kJ/mol
# Density = 2.683284 g / cm^3
# Si number density = 26.894052 Si / 1000 Ang^3
#
#
#
# Elastic Constant Matrix: (Units=GPa)
#
#
# Indices 1 2 3 4 5 6 
#
# 1 192.9367 75.1264 64.5683 0.0000 -1.5562 0.0000
# 2 75.1264 122.5296 42.4369 0.0000 2.1662 0.0000
# 3 64.5683 42.4369 196.7459 0.0000 29.7842 0.0000
# 4 0.0000 0.0000 0.0000 38.5310 0.0000 12.0030
# 5 -1.5562 2.1662 29.7842 0.0000 71.7703 0.0000
# 6 0.0000 0.0000 0.0000 12.0030 0.0000 61.6616
#
#
#
# Elastic Compliance Matrix: (Units=1/GPa)
#
#
# Indices 1 2 3 4 5 6 
#
# 1 0.007273 -0.003889 -0.001696 0.000000 0.000979 0.000000
# 2 -0.003889 0.010921 -0.001085 0.000000 0.000036 0.000000
# 3 -0.001696 -0.001085 0.006268 0.000000 -0.002605 0.000000
# 4 0.000000 0.000000 0.000000 0.027628 0.000000 -0.005378
# 5 0.000979 0.000036 -0.002605 0.000000 0.015035 0.000000
# 6 0.000000 0.000000 0.000000 -0.005378 0.000000 0.017264
#
#
# Mechanical properties :
#
#
# Convention : Reuss Voigt Hill
#
# Bulk Modulus (GPa) = 89.91612 97.38616 93.65114
# Shear Modulus (GPa) = 49.29210 56.39797 52.84503
#
# Velocity S-wave (km/s) = 4.28580 4.58432 4.43757
# Velocity P-wave (km/s) = 7.61556 8.01941 7.82009
#
# Compressibility (1/GPa) = 0.01112148
#
# Stress axis : x y z
#
# Youngs Moduli (GPa) = 137.49598 91.56796 159.54837
#
# Poissons Ratio (x) = 0.35612 0.27062
# Poissons Ratio (y) = 0.53474 0.17306
# Poissons Ratio (z) = 0.23322 0.09933
#
# Static dielectric constant tensor:
#      x y z
#    x 2.208120 0.000000 -0.037150 
#    y 0.000000 2.115910 0.000000 
#    z -0.037150 0.000000 2.344950 
# 
# From -- ./inp_files/11443.got.cif
#   From: 2010.05.17/outbox.cif.g08.bks.cpg/sg9_6_cif.got.tgz:11443.got - 2010.06.03 20:04:27.
