data_PCOD9139078
_publ_section_title
;
Structure prediction by ZEFSAII (Michael W. Deem and Ramdas Pophale) SiO2 
 PCOD9139078
Probable space group: C C
;
_chemical_formula_sum "Si O2"
_cell_formula_units_Z 32
_cell_length_a 15.575322
_cell_length_b 17.479685
_cell_length_c 5.572069
_cell_angle_alpha 90.000000
_cell_angle_beta 52.819721
_cell_angle_gamma 90.000000
_cell_volume 1208.655791
_symmetry_space_group_name_H-M "C C"
_symmetry_group_IT_number 9
_symmetry_cell_setting 'monoclinic'
loop_
_space_group_symop_operation_xyz
x,y,z
x,-y,1/2+z
1/2+x,1/2+y,z
1/2+x,1/2-y,1/2+z
loop_
_atom_site_type_symbol
_atom_site_label
_atom_site_fract_x
_atom_site_fract_y
_atom_site_fract_z
Si Si1 0.748420 0.537843 0.588610
Si Si2 0.986716 0.961684 0.574766
Si Si3 0.885047 0.325533 0.400976
Si Si4 0.584661 0.086653 0.693404
Si Si5 0.673446 0.911447 0.541448
Si Si6 0.243057 0.802126 0.248851
Si Si7 0.004918 0.203249 0.948025
Si Si8 0.873383 0.181437 0.769404
O O1 0.783979 0.496683 0.284642
O O2 0.617645 0.536117 0.831535
O O3 0.783614 0.626290 0.519395
O O4 0.954088 0.872875 0.658085
O O5 0.951576 0.006113 0.874210
O O6 0.768021 0.333078 0.475118
O O7 0.880062 0.250771 0.573668
O O8 0.958278 0.394534 0.372804
O O9 0.955792 0.287406 0.064115
O O10 0.635551 0.117339 0.363492
O O11 0.628993 0.999100 0.622393
O O12 0.623663 0.122204 0.879648
O O13 0.799947 0.890289 0.321410
O O14 0.121441 0.793167 0.370247
O O15 0.302735 0.723013 0.098435
O O16 0.990888 0.175795 0.694237
#
# Coordination Sequence:
#
# PCOD9139078 Si02
#       8
#     4   4   4   4   4   4   4   4
#     4   9  19  38  62  90 127 172 225 276 350 435
#     4   9  19  38  62  90 127 172 225 276 350 435
#     4  11  26  42  71 109 148 193 266 315 388 466
#     4  10  24  49  78 108 151 205 259 326 391 462
#     4  10  24  49  78 108 151 205 259 326 391 462
#     4  10  24  44  68  99 146 197 243 316 389 460
#     4  10  24  44  68  99 146 197 243 316 389 460
#     4  11  26  42  71 109 148 193 266 315 388 466
#
# _framework density 26.475693
#
# number of rings (size 3 to 8) (size 9 to 14) (size 15 to 20)
#    0.000    2.000    0.000    0.750   14.000    0.000 
#    9.000    0.000    0.000    0.000    0.000    0.000 
#    0.000    0.000    0.000    0.000    0.000    0.000 
#
# Total GULP energy -89204.782987 kJ/mol
# GULP energy per Si atom -5575.298937 kJ/mol
# Density = 2.641543 g / cm^3
# Si number density = 26.475693 Si / 1000 Ang^3
#
#
#
# Elastic Constant Matrix: (Units=GPa)
#
#
# Indices 1 2 3 4 5 6 
#
# 1 160.9680 29.1600 34.8662 0.0000 32.4499 0.0000
# 2 29.1600 124.7213 6.2336 0.0000 -4.1248 0.0000
# 3 34.8662 6.2336 99.7086 0.0000 17.5101 0.0000
# 4 0.0000 0.0000 0.0000 29.6742 0.0000 -4.3908
# 5 32.4499 -4.1248 17.5101 0.0000 36.4930 0.0000
# 6 0.0000 0.0000 0.0000 -4.3908 0.0000 47.0295
#
#
#
# Elastic Compliance Matrix: (Units=1/GPa)
#
#
# Indices 1 2 3 4 5 6 
#
# 1 0.008319 -0.002094 -0.001570 0.000000 -0.006881 0.000000
# 2 -0.002094 0.008623 -0.000333 0.000000 0.002997 0.000000
# 3 -0.001570 -0.000333 0.011314 0.000000 -0.004070 0.000000
# 4 0.000000 0.000000 0.000000 0.034171 0.000000 0.003190
# 5 -0.006881 0.002997 -0.004070 0.000000 0.035813 0.000000
# 6 0.000000 0.000000 0.000000 0.003190 0.000000 0.021561
#
#
# Mechanical properties :
#
#
# Convention : Reuss Voigt Hill
#
# Bulk Modulus (GPa) = 49.35309 58.43529 53.89419
# Shear Modulus (GPa) = 37.16125 43.64855 40.40490
#
# Velocity S-wave (km/s) = 3.75053 4.06473 3.91079
# Velocity P-wave (km/s) = 6.11855 6.64444 6.38691
#
# Compressibility (1/GPa) = 0.02026216
#
# Stress axis : x y z
#
# Youngs Moduli (GPa) = 120.20865 115.96588 88.38795
#
# Poissons Ratio (x) = 0.24284 0.13874
# Poissons Ratio (y) = 0.25173 0.02944
# Poissons Ratio (z) = 0.18869 0.03863
#
# Static dielectric constant tensor:
#      x y z
#    x 2.261330 0.000000 -0.117650 
#    y 0.000000 2.582990 0.000000 
#    z -0.117650 0.000000 2.888780 
# 
# From -- ./inp_files/2584.got.cif
#   From: 2010.05.17/outbox.cif.g08.bks.cpg/sg9_2_cif.got.tgz:2584.got - 2010.06.03 20:04:27.
