data_PCOD9139830
_publ_section_title
;
Structure prediction by ZEFSAII (Michael W. Deem and Ramdas Pophale) SiO2 
 PCOD9139830
Probable space group: C C
;
_chemical_formula_sum "Si O2"
_cell_formula_units_Z 32
_cell_length_a 12.004929
_cell_length_b 17.906780
_cell_length_c 8.859614
_cell_angle_alpha 90.000000
_cell_angle_beta 125.831160
_cell_angle_gamma 90.000000
_cell_volume 1544.103760
_symmetry_space_group_name_H-M "C C"
_symmetry_group_IT_number 9
_symmetry_cell_setting 'monoclinic'
loop_
_space_group_symop_operation_xyz
x,y,z
x,-y,1/2+z
1/2+x,1/2+y,z
1/2+x,1/2-y,1/2+z
loop_
_atom_site_type_symbol
_atom_site_label
_atom_site_fract_x
_atom_site_fract_y
_atom_site_fract_z
Si Si1 0.439720 0.227143 0.392600
Si Si2 0.018042 0.817908 0.152408
Si Si3 0.192112 0.677192 0.781146
Si Si4 0.177416 0.469889 0.078277
Si Si5 0.368349 0.945482 0.790307
Si Si6 0.049611 0.319115 0.489712
Si Si7 0.763347 0.906659 0.839187
Si Si8 0.291329 0.084328 0.887120
O O1 0.465806 0.264887 0.249059
O O2 0.333402 0.277860 0.400124
O O3 0.586223 0.221731 0.589982
O O4 0.378798 0.142508 0.341614
O O5 0.027152 0.767135 0.009829
O O6 0.158434 0.862094 0.297918
O O7 0.901239 0.876963 0.019641
O O8 0.217052 0.599932 0.713684
O O9 0.117325 0.667080 0.881378
O O10 0.268493 0.539227 0.200446
O O11 0.193313 0.452702 0.916373
O O12 0.013767 0.479540 0.963033
O O13 0.345690 0.940910 0.593875
O O14 0.263842 0.006706 0.775610
O O15 0.159205 0.342711 0.705031
O O16 0.909603 0.365520 0.401007
#
# Coordination Sequence:
#
# PCOD9139830 Si02
#       8
#     4   4   4   4   4   4   4   4
#     4  11  24  48  71 104 140 194 238 295 366 441
#     4  12  27  46  71 105 149 189 234 300 378 429
#     4  11  26  42  72 102 138 179 243 300 353 429
#     4  11  21  44  69 100 133 181 242 285 348 434
#     4  11  23  42  72  99 138 188 235 289 353 438
#     4  12  25  44  73 101 140 190 246 294 352 448
#     4  12  24  44  73 102 137 187 240 295 362 431
#     4  12  26  44  71 105 143 184 242 296 362 432
#
# _framework density 20.723994999999999
#
# number of rings (size 3 to 8) (size 9 to 14) (size 15 to 20)
#    0.000    0.500    5.000    3.000    7.000    1.000 
#    2.250    0.000    0.000    0.000    0.000    0.000 
#    0.000    0.000    0.000    0.000    0.000    0.000 
#
# Total GULP energy -89375.140593 kJ/mol
# GULP energy per Si atom -5585.946287 kJ/mol
# Density = 2.067683 g / cm^3
# Si number density = 20.723995 Si / 1000 Ang^3
#
#
#
# Elastic Constant Matrix: (Units=GPa)
#
#
# Indices 1 2 3 4 5 6 
#
# 1 50.1977 18.1601 9.8389 0.0000 10.9087 0.0000
# 2 18.1601 79.0637 19.6397 0.0000 16.9266 0.0000
# 3 9.8389 19.6397 49.7075 0.0000 -1.0680 0.0000
# 4 0.0000 0.0000 0.0000 33.1524 0.0000 5.3862
# 5 10.9087 16.9266 -1.0680 0.0000 31.5028 0.0000
# 6 0.0000 0.0000 0.0000 5.3862 0.0000 22.8876
#
#
#
# Elastic Compliance Matrix: (Units=1/GPa)
#
#
# Indices 1 2 3 4 5 6 
#
# 1 0.023123 -0.003050 -0.003511 0.000000 -0.006487 0.000000
# 2 -0.003050 0.016598 -0.006128 0.000000 -0.008070 0.000000
# 3 -0.003511 -0.006128 0.023348 0.000000 0.005300 0.000000
# 4 0.000000 0.000000 0.000000 0.031363 0.000000 -0.007381
# 5 -0.006487 -0.008070 0.005300 0.000000 0.038505 0.000000
# 6 0.000000 0.000000 0.000000 -0.007381 0.000000 0.045429
#
#
# Mechanical properties :
#
#
# Convention : Reuss Voigt Hill
#
# Bulk Modulus (GPa) = 26.53168 30.47184 28.50176
# Shear Modulus (GPa) = 23.11527 26.26389 24.68958
#
# Velocity S-wave (km/s) = 3.34336 3.56380 3.45534
# Velocity P-wave (km/s) = 5.26634 5.62759 5.44996
#
# Compressibility (1/GPa) = 0.03769078
#
# Stress axis : x y z
#
# Youngs Moduli (GPa) = 43.24777 60.24648 42.83083
#
# Poissons Ratio (x) = 0.18375 0.15038
# Poissons Ratio (y) = 0.13191 0.26246
# Poissons Ratio (z) = 0.15185 0.36918
#
# Static dielectric constant tensor:
#      x y z
#    x 1.763070 0.000000 -0.009870 
#    y 0.000000 1.803440 0.000000 
#    z -0.009870 0.000000 1.702600 
# 
# From -- ./inp_files/8046.got.cif
#   From: 2010.05.17/outbox.cif.g08.bks.cpg/sg9_5_cif.got.tgz:8046.got - 2010.06.03 20:04:27.
