data_PCOD9139481
_publ_section_title
;
Structure prediction by ZEFSAII (Michael W. Deem and Ramdas Pophale) SiO2 
 PCOD9139481
Probable space group: C C
;
_chemical_formula_sum "Si O2"
_cell_formula_units_Z 24
_cell_length_a 5.254110
_cell_length_b 23.010908
_cell_length_c 8.223106
_cell_angle_alpha 90.000000
_cell_angle_beta 98.162815
_cell_angle_gamma 90.000000
_cell_volume 984.116127
_symmetry_space_group_name_H-M "C C"
_symmetry_group_IT_number 9
_symmetry_cell_setting 'monoclinic'
loop_
_space_group_symop_operation_xyz
x,y,z
x,-y,1/2+z
1/2+x,1/2+y,z
1/2+x,1/2-y,1/2+z
loop_
_atom_site_type_symbol
_atom_site_label
_atom_site_fract_x
_atom_site_fract_y
_atom_site_fract_z
Si Si1 0.594710 0.931961 0.772140
Si Si2 0.874970 0.892182 0.365915
Si Si3 0.933617 0.412552 0.101705
Si Si4 0.601423 0.816572 0.578467
Si Si5 0.569494 0.485150 0.607223
Si Si6 0.733979 0.307972 0.228882
O O1 0.544176 0.866423 0.704299
O O2 0.326316 0.962421 0.714306
O O3 0.822153 0.964099 0.691896
O O4 0.611825 0.931912 0.968311
O O5 0.602270 0.917528 0.281854
O O6 0.841494 0.847240 0.510757
O O7 0.038719 0.946737 0.440169
O O8 0.996221 0.850537 0.243164
O O9 0.670939 0.449826 0.078084
O O10 0.877943 0.343529 0.099138
O O11 0.660566 0.755763 0.666820
O O12 0.399342 0.807902 0.411638
#
# Coordination Sequence:
#
# PCOD9139481 Si02
#       6
#     4   4   4   4   4   4
#     4  11  27  49  80 112 154 205 261 321 396 456
#     4  10  25  50  71 111 156 202 261 326 395 460
#     4  11  29  47  76 117 150 211 264 323 393 469
#     4  10  25  46  73 110 154 207 259 326 385 469
#     4  11  27  52  77 109 158 204 256 326 390 467
#     4  11  25  46  75 107 156 203 263 320 393 461
#
# _framework density 24.387364000000002
#
# number of rings (size 3 to 8) (size 9 to 14) (size 15 to 20)
#    0.000    1.333    1.667    0.000   11.667    2.667 
#    0.000    5.000    0.000    0.000    0.000    0.000 
#    0.000    0.000    0.000    0.000    0.000    0.000 
#
# Total GULP energy -67045.804327 kJ/mol
# GULP energy per Si atom -5587.150361 kJ/mol
# Density = 2.433186 g / cm^3
# Si number density = 24.387364 Si / 1000 Ang^3
#
#
#
# Elastic Constant Matrix: (Units=GPa)
#
#
# Indices 1 2 3 4 5 6 
#
# 1 112.4707 54.3515 46.9467 0.0000 0.6017 0.0000
# 2 54.3515 219.1236 65.6902 0.0000 5.8705 0.0000
# 3 46.9467 65.6902 97.0208 0.0000 -6.5751 0.0000
# 4 0.0000 0.0000 0.0000 54.1932 0.0000 3.7989
# 5 0.6017 5.8705 -6.5751 0.0000 41.5226 0.0000
# 6 0.0000 0.0000 0.0000 3.7989 0.0000 27.8462
#
#
#
# Elastic Compliance Matrix: (Units=1/GPa)
#
#
# Indices 1 2 3 4 5 6 
#
# 1 0.011535 -0.001449 -0.004648 0.000000 -0.000698 0.000000
# 2 -0.001449 0.005994 -0.003450 0.000000 -0.001373 0.000000
# 3 -0.004648 -0.003450 0.015092 0.000000 0.002945 0.000000
# 4 0.000000 0.000000 0.000000 0.018631 0.000000 -0.002542
# 5 -0.000698 -0.001373 0.002945 0.000000 0.024754 0.000000
# 6 0.000000 0.000000 0.000000 -0.002542 0.000000 0.036258
#
#
# Mechanical properties :
#
#
# Convention : Reuss Voigt Hill
#
# Bulk Modulus (GPa) = 73.92840 84.73244 79.33042
# Shear Modulus (GPa) = 36.80046 42.15416 39.47731
#
# Velocity S-wave (km/s) = 3.88880 4.16206 4.02775
# Velocity P-wave (km/s) = 7.10941 7.61031 7.36412
#
# Compressibility (1/GPa) = 0.01352660
#
# Stress axis : x y z
#
# Youngs Moduli (GPa) = 86.69019 166.82710 66.26103
#
# Poissons Ratio (x) = 0.24176 0.30797
# Poissons Ratio (y) = 0.12563 0.22862
# Poissons Ratio (z) = 0.40293 0.57561
#
# Static dielectric constant tensor:
#      x y z
#    x 1.987000 0.000000 -0.049710 
#    y 0.000000 1.950490 0.000000 
#    z -0.049710 0.000000 2.026570 
# 
# From -- ./inp_files/3835.got.cif
#   From: 2010.05.17/outbox.cif.g08.bks.cpg/sg9_2_cif.got.tgz:3835.got - 2010.06.03 20:04:27.
