data_PCOD9139154
_publ_section_title
;
Structure prediction by ZEFSAII (Michael W. Deem and Ramdas Pophale) SiO2 
 PCOD9139154
Probable space group: C C
;
_chemical_formula_sum "Si O2"
_cell_formula_units_Z 24
_cell_length_a 11.796529
_cell_length_b 8.691014
_cell_length_c 13.516595
_cell_angle_alpha 90.000000
_cell_angle_beta 40.713853
_cell_angle_gamma 90.000000
_cell_volume 903.914131
_symmetry_space_group_name_H-M "C C"
_symmetry_group_IT_number 9
_symmetry_cell_setting 'monoclinic'
loop_
_space_group_symop_operation_xyz
x,y,z
x,-y,1/2+z
1/2+x,1/2+y,z
1/2+x,1/2-y,1/2+z
loop_
_atom_site_type_symbol
_atom_site_label
_atom_site_fract_x
_atom_site_fract_y
_atom_site_fract_z
Si Si1 0.402400 0.470341 0.110720
Si Si2 0.013513 0.197386 0.331971
Si Si3 0.236512 0.126430 0.896603
Si Si4 0.932569 0.317054 0.718355
Si Si5 0.212226 0.235020 0.689922
Si Si6 0.900076 0.446130 0.536848
O O1 0.353853 0.333840 0.217217
O O2 0.263771 0.591199 0.168486
O O3 0.467161 0.395682 0.963324
O O4 0.550133 0.579335 0.063473
O O5 0.849911 0.231829 0.365801
O O6 0.008996 0.369603 0.378828
O O7 0.201000 0.131248 0.171820
O O8 0.193557 0.166637 0.811545
O O9 0.326231 0.956479 0.837611
O O10 0.995227 0.407556 0.577526
O O11 0.058044 0.239884 0.714259
O O12 0.364280 0.125131 0.547058
#
# Coordination Sequence:
#
# PCOD9139154 Si02
#       6
#     4   4   4   4   4   4
#     4  11  25  47  68 106 145 195 240 304 366 436
#     4  11  24  47  76 101 149 189 240 308 363 431
#     4  11  26  45  71 106 143 187 245 300 365 437
#     4  10  24  45  71 100 144 181 244 299 362 432
#     4  11  25  44  71 105 141 194 244 294 368 441
#     4  10  24  50  71 106 144 192 247 301 368 435
#
# _framework density 26.551193999999999
#
# number of rings (size 3 to 8) (size 9 to 14) (size 15 to 20)
#    0.000    1.333    3.333    1.000    9.333    4.000 
#    0.000    1.667    0.000    0.000    0.000    0.000 
#    0.000    0.000    0.000    0.000    0.000    0.000 
#
# Total GULP energy -66953.821120 kJ/mol
# GULP energy per Si atom -5579.485093 kJ/mol
# Density = 2.649076 g / cm^3
# Si number density = 26.551194 Si / 1000 Ang^3
#
#
#
# Elastic Constant Matrix: (Units=GPa)
#
#
# Indices 1 2 3 4 5 6 
#
# 1 189.3509 48.9865 29.1765 0.0000 18.2999 0.0000
# 2 48.9865 158.3623 54.5588 0.0000 -15.1141 0.0000
# 3 29.1765 54.5588 38.8513 0.0000 -7.9710 0.0000
# 4 0.0000 0.0000 0.0000 46.5722 0.0000 -13.2159
# 5 18.2999 -15.1141 -7.9710 0.0000 26.4765 0.0000
# 6 0.0000 0.0000 0.0000 -13.2159 0.0000 47.5352
#
#
#
# Elastic Compliance Matrix: (Units=1/GPa)
#
#
# Indices 1 2 3 4 5 6 
#
# 1 0.007044 -0.001029 -0.005292 0.000000 -0.007049 0.000000
# 2 -0.001029 0.012477 -0.016138 0.000000 0.002975 0.000000
# 3 -0.005292 -0.016138 0.054609 0.000000 0.010886 0.000000
# 4 0.000000 0.000000 0.000000 0.023311 0.000000 0.006481
# 5 -0.007049 0.002975 0.010886 0.000000 0.047617 0.000000
# 6 0.000000 0.000000 0.000000 0.006481 0.000000 0.022839
#
#
# Mechanical properties :
#
#
# Convention : Reuss Voigt Hill
#
# Bulk Modulus (GPa) = 34.23128 72.44534 53.33831
# Shear Modulus (GPa) = 22.46683 41.03962 31.75323
#
# Velocity S-wave (km/s) = 2.91206 3.93578 3.46197
# Velocity P-wave (km/s) = 4.92212 6.92807 6.00939
#
# Compressibility (1/GPa) = 0.02921304
#
# Stress axis : x y z
#
# Youngs Moduli (GPa) = 141.96678 80.15013 18.31201
#
# Poissons Ratio (x) = 0.08244 0.09690
# Poissons Ratio (y) = 0.14603 0.29552
# Poissons Ratio (z) = 0.75122 1.29347
#
# Static dielectric constant tensor:
#      x y z
#    x 2.144820 0.000000 -0.024640 
#    y 0.000000 2.067890 0.000000 
#    z -0.024640 0.000000 2.192500 
# 
# From -- ./inp_files/24005.got.cif
#   From: 2010.05.17/outbox.cif.g08.bks.cpg/sg9_13_cif.got.tgz:24005.got - 2010.06.03 20:04:27.
