data_PCOD9139077
_publ_section_title
;
Structure prediction by ZEFSAII (Michael W. Deem and Ramdas Pophale) SiO2 
 PCOD9139077
Probable space group: C C
;
_chemical_formula_sum "Si O2"
_cell_formula_units_Z 28
_cell_length_a 12.732311
_cell_length_b 8.973113
_cell_length_c 14.000582
_cell_angle_alpha 90.000000
_cell_angle_beta 48.917114
_cell_angle_gamma 90.000000
_cell_volume 1205.672587
_symmetry_space_group_name_H-M "C C"
_symmetry_group_IT_number 9
_symmetry_cell_setting 'monoclinic'
loop_
_space_group_symop_operation_xyz
x,y,z
x,-y,1/2+z
1/2+x,1/2+y,z
1/2+x,1/2-y,1/2+z
loop_
_atom_site_type_symbol
_atom_site_label
_atom_site_fract_x
_atom_site_fract_y
_atom_site_fract_z
Si Si1 0.103210 0.683423 0.415250
Si Si2 0.425876 0.443898 0.576780
Si Si3 0.134464 0.628625 0.173916
Si Si4 0.177122 0.860283 0.987732
Si Si5 0.784124 0.328864 0.453221
Si Si6 0.742542 0.897431 0.323048
Si Si7 0.083814 0.688595 0.730271
O O1 0.103384 0.683537 0.300426
O O2 0.230946 0.777292 0.381456
O O3 0.124751 0.511516 0.431834
O O4 0.977873 0.774801 0.536136
O O5 0.295008 0.436624 0.582026
O O6 0.556348 0.559916 0.494700
O O7 0.364714 0.493105 0.716124
O O8 0.115922 0.760580 0.110358
O O9 0.050610 0.476315 0.208280
O O10 0.266916 0.738998 0.876933
O O11 0.272327 0.993447 0.968926
O O12 0.669980 0.273313 0.598056
O O13 0.938384 0.261778 0.364700
O O14 0.686866 0.829258 0.257932
#
# Coordination Sequence:
#
# PCOD9139077 Si02
#       7
#     4   4   4   4   4   4   4
#     4   9  21  43  68  96 135 183 228 301 360 431
#     4   9  22  42  65  97 139 176 235 291 361 426
#     4  10  24  44  69 100 137 189 236 301 364 441
#     4  11  25  43  70 104 135 194 236 298 371 442
#     4  11  25  43  71 104 139 187 243 291 374 435
#     4  10  24  44  68  99 140 182 235 308 354 444
#     4  10  25  45  67 104 139 189 235 302 362 439
#
# _framework density 23.223552999999999
#
# number of rings (size 3 to 8) (size 9 to 14) (size 15 to 20)
#    0.000    2.286    0.000    0.857   18.000    2.286 
#    0.000    0.000    0.000    0.000    0.000    0.000 
#    0.000    0.000    0.000    0.000    0.000    0.000 
#
# Total GULP energy -77998.853613 kJ/mol
# GULP energy per Si atom -5571.346687 kJ/mol
# Density = 2.317070 g / cm^3
# Si number density = 23.223553 Si / 1000 Ang^3
#
#
#
# Elastic Constant Matrix: (Units=GPa)
#
#
# Indices 1 2 3 4 5 6 
#
# 1 17.4215 1.8015 5.6978 0.0000 0.0725 0.0000
# 2 1.8015 129.7286 57.0678 0.0000 19.1668 0.0000
# 3 5.6978 57.0678 109.1724 0.0000 -1.2031 0.0000
# 4 0.0000 0.0000 0.0000 32.9791 0.0000 3.1161
# 5 0.0725 19.1668 -1.2031 0.0000 37.8422 0.0000
# 6 0.0000 0.0000 0.0000 3.1161 0.0000 29.3027
#
#
#
# Elastic Compliance Matrix: (Units=1/GPa)
#
#
# Indices 1 2 3 4 5 6 
#
# 1 0.058458 0.000815 -0.003484 0.000000 -0.000635 0.000000
# 2 0.000815 0.011180 -0.005951 0.000000 -0.005853 0.000000
# 3 -0.003484 -0.005951 0.012490 0.000000 0.003418 0.000000
# 4 0.000000 0.000000 0.000000 0.030630 0.000000 -0.003257
# 5 -0.000635 -0.005853 0.003418 0.000000 0.029500 0.000000
# 6 0.000000 0.000000 0.000000 -0.003257 0.000000 0.034473
#
#
# Mechanical properties :
#
#
# Convention : Reuss Voigt Hill
#
# Bulk Modulus (GPa) = 15.41127 42.82851 29.11989
# Shear Modulus (GPa) = 23.19104 32.80851 27.99978
#
# Velocity S-wave (km/s) = 3.16349 3.76270 3.47603
# Velocity P-wave (km/s) = 4.47147 6.11221 5.35505
#
# Compressibility (1/GPa) = 0.06488759
#
# Stress axis : x y z
#
# Youngs Moduli (GPa) = 17.10625 89.44764 80.06347
#
# Poissons Ratio (x) = -0.07287 0.27893
# Poissons Ratio (y) = -0.01394 0.47646
# Poissons Ratio (z) = 0.05960 0.53230
#
# Static dielectric constant tensor:
#      x y z
#    x 1.949970 0.000000 -0.093510 
#    y 0.000000 1.900940 0.000000 
#    z -0.093510 0.000000 1.971070 
# 
# From -- ./inp_files/17808.got.cif
#   From: 2010.05.17/outbox.cif.g08.bks.cpg/sg9_9_cif.got.tgz:17808.got - 2010.06.03 20:04:27.
