data_PCOD9139093
_publ_section_title
;
Structure prediction by ZEFSAII (Michael W. Deem and Ramdas Pophale) SiO2 
 PCOD9139093
Probable space group: C C
;
_chemical_formula_sum "Si O2"
_cell_formula_units_Z 32
_cell_length_a 5.019485
_cell_length_b 33.245330
_cell_length_c 8.178860
_cell_angle_alpha 90.000000
_cell_angle_beta 62.689579
_cell_angle_gamma 90.000000
_cell_volume 1212.708818
_symmetry_space_group_name_H-M "C C"
_symmetry_group_IT_number 9
_symmetry_cell_setting 'monoclinic'
loop_
_space_group_symop_operation_xyz
x,y,z
x,-y,1/2+z
1/2+x,1/2+y,z
1/2+x,1/2-y,1/2+z
loop_
_atom_site_type_symbol
_atom_site_label
_atom_site_fract_x
_atom_site_fract_y
_atom_site_fract_z
Si Si1 0.931030 0.055701 0.084700
Si Si2 0.719786 0.185930 0.930085
Si Si3 0.226803 0.483997 0.933029
Si Si4 0.853683 0.729466 0.301305
Si Si5 0.243796 0.680882 0.412663
Si Si6 0.497916 0.875306 0.721359
Si Si7 0.445879 0.370859 0.129529
Si Si8 0.517441 0.942485 0.278649
O O1 0.943205 0.045064 0.271378
O O2 0.631544 0.081360 0.145524
O O3 0.217923 0.077007 0.930754
O O4 0.906539 0.012889 0.002703
O O5 0.770633 0.224172 0.795604
O O6 0.975940 0.156062 0.784862
O O7 0.629783 0.216063 0.106277
O O8 0.486499 0.150922 0.057736
O O9 0.065806 0.516230 0.863603
O O10 0.998572 0.456179 0.096239
O O11 0.553601 0.704945 0.342497
O O12 0.483704 0.787700 0.936631
O O13 0.206993 0.654768 0.587462
O O14 0.244191 0.648274 0.264551
O O15 0.219349 0.875569 0.924995
O O16 0.300909 0.413473 0.211951
#
# Coordination Sequence:
#
# PCOD9139093 Si02
#       8
#     4   4   4   4   4   4   4   4
#     4  11  24  45  72 108 143 196 244 308 368 446
#     4  11  26  49  73 107 150 196 253 312 386 447
#     4  10  24  44  70 106 151 187 247 305 371 446
#     4  11  26  48  77 109 142 205 247 323 369 461
#     4  11  24  51  73 108 151 193 255 308 382 435
#     4  11  27  48  72 107 156 194 251 312 378 451
#     4  12  26  48  71 111 149 202 246 313 378 455
#     4  11  25  43  74 106 144 195 247 303 374 443
#
# _framework density 26.387208000000001
#
# number of rings (size 3 to 8) (size 9 to 14) (size 15 to 20)
#    0.000    1.000    2.500    3.000    1.750   15.000 
#    2.250    0.000    0.000    0.000    0.000    0.000 
#    0.000    0.000    0.000    0.000    0.000    0.000 
#
# Total GULP energy -89202.193081 kJ/mol
# GULP energy per Si atom -5575.137068 kJ/mol
# Density = 2.632715 g / cm^3
# Si number density = 26.387208 Si / 1000 Ang^3
#
#
#
# Elastic Constant Matrix: (Units=GPa)
#
#
# Indices 1 2 3 4 5 6 
#
# 1 106.0767 31.7047 42.2212 0.0000 -18.6064 0.0000
# 2 31.7047 143.7761 63.6574 0.0000 -20.5976 0.0000
# 3 42.2212 63.6574 172.9360 0.0000 -41.9599 0.0000
# 4 0.0000 0.0000 0.0000 2.4287 0.0000 5.2029
# 5 -18.6064 -20.5976 -41.9599 0.0000 39.5650 0.0000
# 6 0.0000 0.0000 0.0000 5.2029 0.0000 -1.4737
#
#
#
# Elastic Compliance Matrix: (Units=1/GPa)
#
#
# Indices 1 2 3 4 5 6 
#
# 1 0.010919 -0.001344 -0.001474 0.000000 0.002872 0.000000
# 2 -0.001344 0.008538 -0.002544 0.000000 0.001115 0.000000
# 3 -0.001474 -0.002544 0.008872 0.000000 0.007392 0.000000
# 4 0.000000 0.000000 0.000000 0.048083 0.000000 0.169757
# 5 0.002872 0.001115 0.007392 0.000000 0.035045 0.000000
# 6 0.000000 0.000000 0.000000 0.169757 0.000000 -0.079242
#
#
# Mechanical properties :
#
#
# Convention : Reuss Voigt Hill
#
# Bulk Modulus (GPa) = 56.80266 77.55060 67.17663
# Shear Modulus (GPa) = 102.44272 27.11770 64.78021
#
# Velocity S-wave (km/s) = 6.23756 3.20923 4.96016
# Velocity P-wave (km/s) = 8.57027 6.57156 7.63659
#
# Compressibility (1/GPa) = 0.01760481
#
# Stress axis : x y z
#
# Youngs Moduli (GPa) = 91.58051 117.12767 112.70868
#
# Poissons Ratio (x) = 0.15737 0.16619
# Poissons Ratio (y) = 0.12305 0.28676
# Poissons Ratio (z) = 0.13504 0.29800
#
# Static dielectric constant tensor:
#      x y z
#    x 2.122400 0.000000 0.064000 
#    y 0.000000 2.135650 0.000000 
#    z 0.064000 0.000000 2.204020 
# 
# From -- ./inp_files/4448.got.cif
#   From: 2010.05.17/outbox.cif.g08.bks.cpg/sg9_3_cif.got.tgz:4448.got - 2010.06.03 20:04:27.
