data_PCOD9139601
_publ_section_title
;
Structure prediction by ZEFSAII (Michael W. Deem and Ramdas Pophale) SiO2 
 PCOD9139601
Probable space group: C C
;
_chemical_formula_sum "Si O2"
_cell_formula_units_Z 32
_cell_length_a 5.244310
_cell_length_b 15.244405
_cell_length_c 16.944575
_cell_angle_alpha 90.000000
_cell_angle_beta 83.414395
_cell_angle_gamma 90.000000
_cell_volume 1345.718969
_symmetry_space_group_name_H-M "C C"
_symmetry_group_IT_number 9
_symmetry_cell_setting 'monoclinic'
loop_
_space_group_symop_operation_xyz
x,y,z
x,-y,1/2+z
1/2+x,1/2+y,z
1/2+x,1/2-y,1/2+z
loop_
_atom_site_type_symbol
_atom_site_label
_atom_site_fract_x
_atom_site_fract_y
_atom_site_fract_z
Si Si1 0.104750 0.718851 0.927720
Si Si2 0.587697 0.114009 0.547567
Si Si3 0.106470 0.999236 0.793273
Si Si4 0.622357 0.586758 0.447265
Si Si5 0.481923 0.047998 0.149130
Si Si6 0.138294 0.816914 0.334566
Si Si7 0.852414 0.840733 0.725622
Si Si8 0.249306 0.197550 0.088560
O O1 0.111066 0.820671 0.901635
O O2 0.392842 0.687895 0.901205
O O3 0.894334 0.673067 0.878956
O O4 0.998312 0.715542 0.021325
O O5 0.360893 0.092990 0.496053
O O6 0.589339 0.218289 0.562225
O O7 0.856643 0.084517 0.501919
O O8 0.559785 0.049031 0.621923
O O9 0.078677 0.101877 0.778743
O O10 0.142274 0.990318 0.884747
O O11 0.347286 0.963992 0.737250
O O12 0.892701 0.930138 0.773697
O O13 0.697664 0.122476 0.154688
O O14 0.285760 0.090931 0.091899
O O15 0.192632 0.730636 0.280034
O O16 0.121337 0.799681 0.683122
#
# Coordination Sequence:
#
# PCOD9139601 Si02
#       8
#     4   4   4   4   4   4   4   4
#     4  11  25  47  73 108 146 189 252 308 383 447
#     4  11  27  46  74 107 147 191 249 305 381 446
#     4  11  27  46  72 108 147 201 248 318 378 453
#     4  11  25  47  74 105 148 190 241 315 372 443
#     4  11  27  45  75 102 152 192 259 303 390 452
#     4  12  27  45  78 107 147 198 254 307 380 458
#     4  11  26  48  73 106 154 197 256 316 381 455
#     4  10  26  46  71 107 145 198 241 318 373 460
#
# _framework density 23.779111
#
# number of rings (size 3 to 8) (size 9 to 14) (size 15 to 20)
#    0.000    1.000    1.250    3.000   17.500    1.000 
#    0.000    0.000    0.000    0.000    0.000    0.000 
#    0.000    0.000    0.000    0.000    0.000    0.000 
#
# Total GULP energy -89071.552861 kJ/mol
# GULP energy per Si atom -5566.972054 kJ/mol
# Density = 2.372499 g / cm^3
# Si number density = 23.779111 Si / 1000 Ang^3
#
#
#
# Elastic Constant Matrix: (Units=GPa)
#
#
# Indices 1 2 3 4 5 6 
#
# 1 115.0435 48.7982 51.1200 0.0000 -13.5120 0.0000
# 2 48.7982 116.1058 27.1917 0.0000 5.2822 0.0000
# 3 51.1200 27.1917 67.3201 0.0000 -10.7688 0.0000
# 4 0.0000 0.0000 0.0000 45.7226 0.0000 0.5763
# 5 -13.5120 5.2822 -10.7688 0.0000 35.6904 0.0000
# 6 0.0000 0.0000 0.0000 0.5763 0.0000 26.3029
#
#
#
# Elastic Compliance Matrix: (Units=1/GPa)
#
#
# Indices 1 2 3 4 5 6 
#
# 1 0.014971 -0.004337 -0.009044 0.000000 0.003581 0.000000
# 2 -0.004337 0.011023 -0.001768 0.000000 -0.003807 0.000000
# 3 -0.009044 -0.001768 0.023042 0.000000 0.003790 0.000000
# 4 0.000000 0.000000 0.000000 0.021877 0.000000 -0.000479
# 5 0.003581 -0.003807 0.003790 0.000000 0.031082 0.000000
# 6 0.000000 0.000000 0.000000 -0.000479 0.000000 0.038029
#
#
# Mechanical properties :
#
#
# Convention : Reuss Voigt Hill
#
# Bulk Modulus (GPa) = 53.36529 61.40992 57.38761
# Shear Modulus (GPa) = 28.31762 32.96714 30.64238
#
# Velocity S-wave (km/s) = 3.45463 3.72747 3.59364
# Velocity P-wave (km/s) = 6.19705 6.66382 6.43467
#
# Compressibility (1/GPa) = 0.01873877
#
# Stress axis : x y z
#
# Youngs Moduli (GPa) = 66.79404 90.71999 43.39842
#
# Poissons Ratio (x) = 0.39347 0.39249
# Poissons Ratio (y) = 0.28970 0.07672
# Poissons Ratio (z) = 0.60408 0.16038
#
# Static dielectric constant tensor:
#      x y z
#    x 2.008290 0.000000 0.045990 
#    y 0.000000 1.918960 0.000000 
#    z 0.045990 0.000000 1.902920 
# 
# From -- ./inp_files/28592.got.cif
#   From: 2010.05.17/outbox.cif.g08.bks.cpg/sg9_15_cif.got.tgz:28592.got - 2010.06.03 20:04:27.
