data_PCOD9139836
_publ_section_title
;
Structure prediction by ZEFSAII (Michael W. Deem and Ramdas Pophale) SiO2 
 PCOD9139836
Probable space group: C C
;
_chemical_formula_sum "Si O2"
_cell_formula_units_Z 32
_cell_length_a 15.338191
_cell_length_b 6.377573
_cell_length_c 25.963144
_cell_angle_alpha 90.000000
_cell_angle_beta 33.519223
_cell_angle_gamma 90.000000
_cell_volume 1402.479169
_symmetry_space_group_name_H-M "C C"
_symmetry_group_IT_number 9
_symmetry_cell_setting 'monoclinic'
loop_
_space_group_symop_operation_xyz
x,y,z
x,-y,1/2+z
1/2+x,1/2+y,z
1/2+x,1/2-y,1/2+z
loop_
_atom_site_type_symbol
_atom_site_label
_atom_site_fract_x
_atom_site_fract_y
_atom_site_fract_z
Si Si1 0.740450 0.930623 0.836780
Si Si2 0.589380 0.723180 0.813250
Si Si3 0.239985 0.884886 0.004546
Si Si4 0.060505 0.186193 0.014477
Si Si5 0.753506 0.956179 0.166981
Si Si6 0.523214 0.990477 0.119827
Si Si7 0.110215 0.145989 0.155980
Si Si8 0.213024 0.805807 0.787976
O O1 0.700443 0.800633 0.805156
O O2 0.655755 0.811158 0.924683
O O3 0.929742 0.934317 0.751705
O O4 0.668897 0.160227 0.858010
O O5 0.649678 0.834473 0.730841
O O6 0.594279 0.471902 0.820098
O O7 0.418899 0.821067 0.907301
O O8 0.134111 0.679741 0.049640
O O9 0.210728 0.968151 0.077227
O O10 0.177602 0.052634 0.993367
O O11 0.976491 0.358137 0.092609
O O12 0.921430 0.035001 0.063128
O O13 0.677564 0.769299 0.171517
O O14 0.772178 0.849363 0.213690
O O15 0.372530 0.075544 0.224011
O O16 0.609346 0.831449 0.114542
#
# Coordination Sequence:
#
# PCOD9139836 Si02
#       8
#     4   4   4   4   4   4   4   4
#     4  11  24  43  69 104 142 182 236 291 350 429
#     4  11  24  44  70 103 140 182 238 292 352 422
#     4  11  24  44  70 102 143 185 237 294 352 420
#     4  11  24  44  70 105 143 185 238 290 353 427
#     4  11  24  44  72 102 141 185 233 295 352 420
#     4  11  21  44  70  93 135 194 224 284 357 418
#     4  11  24  43  70 102 144 184 234 290 357 421
#     4  11  21  46  71  95 140 191 228 290 357 413
#
# _framework density 22.816738000000001
#
# number of rings (size 3 to 8) (size 9 to 14) (size 15 to 20)
#    0.000    1.000    5.000    2.250    1.750    8.000 
#    2.250    0.000    0.000    0.000    0.000    0.000 
#    0.000    0.000    0.000    0.000    0.000    0.000 
#
# Total GULP energy -89354.905526 kJ/mol
# GULP energy per Si atom -5584.681595 kJ/mol
# Density = 2.276481 g / cm^3
# Si number density = 22.816738 Si / 1000 Ang^3
#
#
#
# Elastic Constant Matrix: (Units=GPa)
#
#
# Indices 1 2 3 4 5 6 
#
# 1 54.2881 18.7327 27.1842 0.0000 -11.6593 0.0028
# 2 18.7327 108.3375 38.5002 0.0007 -11.9555 0.0023
# 3 27.1842 38.5002 116.9494 -0.0002 -18.7270 -0.0002
# 4 0.0000 0.0007 -0.0002 34.2361 -0.0003 5.4941
# 5 -11.6593 -11.9555 -18.7270 -0.0003 23.2887 0.0002
# 6 0.0028 0.0023 -0.0002 5.4941 0.0002 23.2386
#
#
#
# Elastic Compliance Matrix: (Units=1/GPa)
#
#
# Indices 1 2 3 4 5 6 
#
# 1 0.022367 -0.001832 -0.003390 0.000001 0.007532 -0.000003
# 2 -0.001832 0.010787 -0.002738 0.000000 0.002419 -0.000001
# 3 -0.003390 -0.002738 0.011183 0.000000 0.005890 0.000001
# 4 0.000001 0.000000 0.000000 0.030361 0.000001 -0.007178
# 5 0.007532 0.002419 0.005890 0.000001 0.052688 -0.000002
# 6 -0.000003 -0.000001 0.000001 -0.007178 -0.000002 0.044729
#
#
# Mechanical properties :
#
#
# Convention : Reuss Voigt Hill
#
# Bulk Modulus (GPa) = 35.18892 49.82326 42.50609
# Shear Modulus (GPa) = 25.31546 29.16321 27.23934
#
# Velocity S-wave (km/s) = 3.33455 3.57900 3.45893
# Velocity P-wave (km/s) = 5.50286 6.24201 5.88405
#
# Compressibility (1/GPa) = 0.02841804
#
# Stress axis : x y z
#
# Youngs Moduli (GPa) = 44.70794 92.70342 89.41952
#
# Poissons Ratio (x) = 0.16980 0.30314
# Poissons Ratio (y) = 0.08189 0.24484
# Poissons Ratio (z) = 0.15157 0.25383
#
# Static dielectric constant tensor:
#      x y z
#    x 1.859320 0.000000 0.011100 
#    y 0.000000 1.954800 0.000000 
#    z 0.011100 0.000000 1.860250 
# 
# From -- ./inp_files/30446.got.cif
#   From: 2010.05.17/outbox.cif.g08.bks.cpg/sg9_16_cif.got.tgz:30446.got - 2010.06.03 20:04:27.
