data_PCOD9139927
_publ_section_title
;
Structure prediction by ZEFSAII (Michael W. Deem and Ramdas Pophale) SiO2 
 PCOD9139927
Probable space group: C C
;
_chemical_formula_sum "Si O2"
_cell_formula_units_Z 32
_cell_length_a 16.832584
_cell_length_b 16.870979
_cell_length_c 10.193661
_cell_angle_alpha 90.000000
_cell_angle_beta 150.694667
_cell_angle_gamma 90.000000
_cell_volume 1416.908091
_symmetry_space_group_name_H-M "C C"
_symmetry_group_IT_number 9
_symmetry_cell_setting 'monoclinic'
loop_
_space_group_symop_operation_xyz
x,y,z
x,-y,1/2+z
1/2+x,1/2+y,z
1/2+x,1/2-y,1/2+z
loop_
_atom_site_type_symbol
_atom_site_label
_atom_site_fract_x
_atom_site_fract_y
_atom_site_fract_z
Si Si1 0.240490 0.902204 0.994420
Si Si2 0.692303 0.005296 0.415991
Si Si3 0.364108 0.561667 0.913166
Si Si4 0.263510 0.081088 0.041211
Si Si5 0.424250 0.145977 0.018255
Si Si6 0.853008 0.779652 0.291150
Si Si7 0.019634 0.192123 0.755619
Si Si8 0.948743 0.635261 0.561332
O O1 0.048382 0.911793 0.703973
O O2 0.303104 0.876819 0.226925
O O3 0.329034 0.851204 0.011244
O O4 0.294629 0.991923 0.042922
O O5 0.780087 0.986536 0.406548
O O6 0.591773 0.924958 0.304834
O O7 0.824957 0.019510 0.719714
O O8 0.575313 0.083231 0.232775
O O9 0.286733 0.648576 0.782474
O O10 0.344535 0.133612 0.045690
O O11 0.352689 0.088295 0.308739
O O12 0.073746 0.106109 0.779820
O O13 0.458753 0.240682 0.066975
O O14 0.982730 0.721945 0.548723
O O15 0.918410 0.810148 0.244524
O O16 0.697044 0.725625 0.045395
#
# Coordination Sequence:
#
# PCOD9139927 Si02
#       8
#     4   4   4   4   4   4   4   4
#     4  12  26  43  69 103 145 186 235 293 367 422
#     4  12  24  43  73 105 141 181 249 298 356 424
#     4  12  28  43  68 110 145 181 233 317 357 422
#     4  11  22  42  76  98 136 188 246 280 356 439
#     4  12  23  45  72 106 139 192 244 291 362 443
#     4  11  23  44  72 103 143 187 243 285 379 426
#     4  11  22  41  75 104 133 191 239 295 341 449
#     4  11  22  45  75  99 132 200 237 287 356 455
#
# _framework density 22.584385999999999
#
# number of rings (size 3 to 8) (size 9 to 14) (size 15 to 20)
#    0.000    0.500    6.250    3.750    5.250    0.000 
#    2.250    1.250    0.000    0.000    0.000    0.000 
#    0.000    0.000    0.000    0.000    0.000    0.000 
#
# Total GULP energy -89349.062529 kJ/mol
# GULP energy per Si atom -5584.316408 kJ/mol
# Density = 2.253298 g / cm^3
# Si number density = 22.584386 Si / 1000 Ang^3
#
#
#
# Elastic Constant Matrix: (Units=GPa)
#
#
# Indices 1 2 3 4 5 6 
#
# 1 107.9627 13.2111 31.4874 0.0000 -8.4489 0.0000
# 2 13.2111 73.6535 15.1024 0.0000 -9.9833 0.0000
# 3 31.4874 15.1024 114.4158 0.0000 -12.3377 0.0000
# 4 0.0000 0.0000 0.0000 18.2784 0.0000 15.3656
# 5 -8.4489 -9.9833 -12.3377 0.0000 24.2409 0.0000
# 6 0.0000 0.0000 0.0000 15.3656 0.0000 -3.4570
#
#
#
# Elastic Compliance Matrix: (Units=1/GPa)
#
#
# Indices 1 2 3 4 5 6 
#
# 1 0.010264 -0.001079 -0.002481 0.000000 0.001871 0.000000
# 2 -0.001079 0.014688 -0.001090 0.000000 0.005118 0.000000
# 3 -0.002481 -0.001090 0.009972 0.000000 0.003762 0.000000
# 4 0.000000 0.000000 0.000000 0.011551 0.000000 0.051340
# 5 0.001871 0.005118 0.003762 0.000000 0.045927 0.000000
# 6 0.000000 0.000000 0.000000 0.051340 0.000000 -0.061073
#
#
# Mechanical properties :
#
#
# Convention : Reuss Voigt Hill
#
# Bulk Modulus (GPa) = 39.02359 46.18155 42.60257
# Shear Modulus (GPa) = 101.68749 23.56121 62.62435
#
# Velocity S-wave (km/s) = 6.71739 3.23345 5.27155
# Velocity P-wave (km/s) = 8.80233 5.86797 7.48044
#
# Compressibility (1/GPa) = 0.02562553
#
# Stress axis : x y z
#
# Youngs Moduli (GPa) = 97.42458 68.08360 100.27826
#
# Poissons Ratio (x) = 0.07346 0.24875
# Poissons Ratio (y) = 0.10511 0.10929
# Poissons Ratio (z) = 0.24167 0.07420
#
# Static dielectric constant tensor:
#      x y z
#    x 1.801540 0.000000 0.040540 
#    y 0.000000 2.087750 0.000000 
#    z 0.040540 0.000000 1.877090 
# 
# From -- ./inp_files/9974.got.cif
#   From: 2010.05.17/outbox.cif.g08.bks.cpg/sg9_5_cif.got.tgz:9974.got - 2010.06.03 20:04:27.
