data_PCOD9139472
_publ_section_title
;
Structure prediction by ZEFSAII (Michael W. Deem and Ramdas Pophale) SiO2 
 PCOD9139472
Probable space group: C C
;
_chemical_formula_sum "Si O2"
_cell_formula_units_Z 20
_cell_length_a 11.002711
_cell_length_b 7.612928
_cell_length_c 12.261585
_cell_angle_alpha 90.000000
_cell_angle_beta 49.445592
_cell_angle_gamma 90.000000
_cell_volume 780.352795
_symmetry_space_group_name_H-M "C C"
_symmetry_group_IT_number 9
_symmetry_cell_setting 'monoclinic'
loop_
_space_group_symop_operation_xyz
x,y,z
x,-y,1/2+z
1/2+x,1/2+y,z
1/2+x,1/2-y,1/2+z
loop_
_atom_site_type_symbol
_atom_site_label
_atom_site_fract_x
_atom_site_fract_y
_atom_site_fract_z
Si Si1 0.586630 0.792242 0.218420
Si Si2 0.577431 0.364729 0.957994
Si Si3 0.237317 0.207739 0.916375
Si Si4 0.568233 0.792241 0.697567
Si Si5 0.417546 0.292261 0.499612
O O1 0.608116 0.742783 0.331163
O O2 0.410003 0.719418 0.286558
O O3 0.577432 0.000000 0.207994
O O4 0.712906 0.713707 0.060522
O O5 0.721251 0.504777 0.890696
O O6 0.433611 0.504778 0.025293
O O7 0.546746 0.257215 0.084824
O O8 0.077432 0.295153 0.957993
O O9 0.441958 0.713704 0.855464
O O10 0.744861 0.719416 0.629427
#
# Coordination Sequence:
#
# PCOD9139472 Si02
#       5
#     4   4   4   4   4
#     4  12  25  45  73 103 135 182 231 278 342 403
#     4  10  26  44  70  98 142 176 228 278 342 398
#     4  10  25  46  70  99 143 175 225 282 340 405
#     4  12  25  45  73 103 135 182 231 278 342 403
#     4  10  25  46  70  99 143 175 225 282 340 405
#
# _framework density 25.629432999999999
#
# number of rings (size 3 to 8) (size 9 to 14) (size 15 to 20)
#    1.200    0.000    0.000    4.800    2.800    6.400 
#    0.000    0.000    0.000    0.000    0.000    0.000 
#    0.000    0.000    0.000    0.000    0.000    0.000 
#
# Total GULP energy -55982.021117 kJ/mol
# GULP energy per Si atom -5598.202112 kJ/mol
# Density = 2.557110 g / cm^3
# Si number density = 25.629433 Si / 1000 Ang^3
#
#
#
# Elastic Constant Matrix: (Units=GPa)
#
#
# Indices 1 2 3 4 5 6 
#
# 1 65.4777 12.4906 22.0627 0.0000 5.4689 0.0000
# 2 12.4906 91.2048 11.2550 0.0000 30.7019 0.0000
# 3 22.0627 11.2550 105.4345 0.0000 12.9741 0.0000
# 4 0.0000 0.0000 0.0000 32.7672 0.0000 20.7616
# 5 5.4689 30.7019 12.9741 0.0000 65.7201 0.0000
# 6 0.0000 0.0000 0.0000 20.7616 0.0000 40.4539
#
#
#
# Elastic Compliance Matrix: (Units=1/GPa)
#
#
# Indices 1 2 3 4 5 6 
#
# 1 0.016746 -0.001941 -0.003318 0.000000 0.000168 0.000000
# 2 -0.001941 0.013280 -0.000275 0.000000 -0.005988 0.000000
# 3 -0.003318 -0.000275 0.010411 0.000000 -0.001651 0.000000
# 4 0.000000 0.000000 0.000000 0.045224 0.000000 -0.023210
# 5 0.000168 -0.005988 -0.001651 0.000000 0.018325 0.000000
# 6 0.000000 0.000000 0.000000 -0.023210 0.000000 0.036631
#
#
# Mechanical properties :
#
#
# Convention : Reuss Voigt Hill
#
# Bulk Modulus (GPa) = 34.04669 39.30373 36.67521
# Shear Modulus (GPa) = 30.96458 42.20882 36.58670
#
# Velocity S-wave (km/s) = 3.47964 4.06259 3.78236
# Velocity P-wave (km/s) = 5.42742 6.11350 5.78065
#
# Compressibility (1/GPa) = 0.02937143
#
# Stress axis : x y z
#
# Youngs Moduli (GPa) = 59.71414 75.30269 96.04946
#
# Poissons Ratio (x) = 0.14613 0.31867
# Poissons Ratio (y) = 0.11588 0.02638
# Poissons Ratio (z) = 0.19812 0.02068
#
# Static dielectric constant tensor:
#      x y z
#    x 2.161280 0.000000 -0.032660 
#    y 0.000000 1.961610 0.000000 
#    z -0.032660 0.000000 1.941220 
# 
# From -- ./inp_files/11277.got.cif
#   From: 2010.05.17/outbox.cif.g08.bks.cpg/sg9_6_cif.got.tgz:11277.got - 2010.06.03 20:04:27.
