data_PCOD9139354
_publ_section_title
;
Structure prediction by ZEFSAII (Michael W. Deem and Ramdas Pophale) SiO2 
 PCOD9139354
Probable space group: C C
;
_chemical_formula_sum "Si O2"
_cell_formula_units_Z 32
_cell_length_a 27.516247
_cell_length_b 5.237347
_cell_length_c 26.695697
_cell_angle_alpha 90.000000
_cell_angle_beta 160.667898
_cell_angle_gamma 90.000000
_cell_volume 1273.580509
_symmetry_space_group_name_H-M "C C"
_symmetry_group_IT_number 9
_symmetry_cell_setting 'monoclinic'
loop_
_space_group_symop_operation_xyz
x,y,z
x,-y,1/2+z
1/2+x,1/2+y,z
1/2+x,1/2-y,1/2+z
loop_
_atom_site_type_symbol
_atom_site_label
_atom_site_fract_x
_atom_site_fract_y
_atom_site_fract_z
Si Si1 0.262500 0.763330 0.859470
Si Si2 0.886876 0.937521 0.581549
Si Si3 0.618513 0.528239 0.542072
Si Si4 0.975647 0.228437 0.814747
Si Si5 0.375205 0.451156 0.888946
Si Si6 0.047728 0.570145 0.275028
Si Si7 0.694375 0.037984 0.587402
Si Si8 0.618872 0.769310 0.691294
O O1 0.139042 0.538717 0.737886
O O2 0.188411 0.036932 0.789741
O O3 0.361124 0.684692 0.001954
O O4 0.344853 0.723898 0.886252
O O5 0.963192 0.701950 0.685931
O O6 0.982742 0.199226 0.677006
O O7 0.721626 0.014312 0.438556
O O8 0.568654 0.483794 0.435349
O O9 0.479572 0.546619 0.443022
O O10 0.698240 0.262497 0.632296
O O11 0.720999 0.768301 0.636720
O O12 0.015876 0.311393 0.798833
O O13 0.810844 0.128919 0.659609
O O14 0.029676 0.456592 0.904211
O O15 0.462752 0.305078 0.018722
O O16 0.219605 0.310386 0.739560
#
# Coordination Sequence:
#
# PCOD9139354 Si02
#       8
#     4   4   4   4   4   4   4   4
#     4  10  26  43  71 102 147 183 237 292 363 420
#     4  12  28  47  82 109 152 192 255 306 381 450
#     4  10  26  40  70 101 141 185 237 285 357 425
#     4  10  26  47  72  99 145 182 239 299 361 425
#     4  10  26  41  71 100 144 185 238 287 353 429
#     4  12  28  49  79 112 147 195 253 309 380 446
#     4  10  25  40  72  94 142 180 237 283 360 414
#     4  10  25  39  71  95 146 182 238 283 357 413
#
# _framework density 25.126014000000001
#
# number of rings (size 3 to 8) (size 9 to 14) (size 15 to 20)
#    1.500    0.000    0.000    2.250   12.250    2.000 
#    0.000    0.000    0.000    0.000    0.000    0.000 
#    0.000    0.000    0.000    0.000    0.000    0.000 
#
# Total GULP energy -89293.152375 kJ/mol
# GULP energy per Si atom -5580.822023 kJ/mol
# Density = 2.506883 g / cm^3
# Si number density = 25.126014 Si / 1000 Ang^3
#
#
#
# Elastic Constant Matrix: (Units=GPa)
#
#
# Indices 1 2 3 4 5 6 
#
# 1 119.0298 40.7757 43.0943 -0.0006 16.9531 -0.0003
# 2 40.7757 178.8497 48.1181 -0.0036 22.1749 0.0118
# 3 43.0943 48.1181 103.7692 -0.0009 21.6674 0.0014
# 4 -0.0006 -0.0036 -0.0009 29.1411 -0.0010 10.4162
# 5 16.9531 22.1749 21.6674 -0.0010 43.4449 -0.0003
# 6 -0.0003 0.0118 0.0014 10.4162 -0.0003 24.1999
#
#
#
# Elastic Compliance Matrix: (Units=1/GPa)
#
#
# Indices 1 2 3 4 5 6 
#
# 1 0.010276 -0.001232 -0.003338 0.000000 -0.001716 0.000001
# 2 -0.001232 0.006694 -0.002209 0.000002 -0.001834 -0.000004
# 3 -0.003338 -0.002209 0.012882 0.000000 -0.003994 0.000000
# 4 0.000000 0.000002 0.000000 0.040555 0.000000 -0.017456
# 5 -0.001716 -0.001834 -0.003994 0.000000 0.026616 0.000001
# 6 0.000001 -0.000004 0.000000 -0.017456 0.000001 0.048836
#
#
# Mechanical properties :
#
#
# Convention : Reuss Voigt Hill
#
# Bulk Modulus (GPa) = 61.37609 73.95833 67.66721
# Shear Modulus (GPa) = 30.33090 37.33454 33.83272
#
# Velocity S-wave (km/s) = 3.47818 3.85891 3.67348
# Velocity P-wave (km/s) = 6.37265 7.02522 6.70688
#
# Compressibility (1/GPa) = 0.01629299
#
# Stress axis : x y z
#
# Youngs Moduli (GPa) = 97.31166 149.38752 77.63067
#
# Poissons Ratio (x) = 0.18405 0.25913
# Poissons Ratio (y) = 0.11989 0.17152
# Poissons Ratio (z) = 0.32482 0.33006
#
# Static dielectric constant tensor:
#      x y z
#    x 2.004870 0.000000 -0.018730 
#    y 0.000000 2.055780 0.000000 
#    z -0.018730 0.000000 2.034220 
# 
# From -- ./inp_files/37756.got.cif
#   From: 2010.05.17/outbox.cif.g08.bks.cpg/sg9_19_cif.got.tgz:37756.got - 2010.06.03 20:04:27.
