data_PCOD9139159
_publ_section_title
;
Structure prediction by ZEFSAII (Michael W. Deem and Ramdas Pophale) SiO2 
 PCOD9139159
Probable space group: C C
;
_chemical_formula_sum "Si O2"
_cell_formula_units_Z 32
_cell_length_a 18.142657
_cell_length_b 5.474745
_cell_length_c 29.220079
_cell_angle_alpha 90.000000
_cell_angle_beta 152.819371
_cell_angle_gamma 90.000000
_cell_volume 1325.774327
_symmetry_space_group_name_H-M "C C"
_symmetry_group_IT_number 9
_symmetry_cell_setting 'monoclinic'
loop_
_space_group_symop_operation_xyz
x,y,z
x,-y,1/2+z
1/2+x,1/2+y,z
1/2+x,1/2-y,1/2+z
loop_
_atom_site_type_symbol
_atom_site_label
_atom_site_fract_x
_atom_site_fract_y
_atom_site_fract_z
Si Si1 0.377740 0.556833 0.901410
Si Si2 0.123893 0.779061 0.916535
Si Si3 0.288138 0.563689 0.261394
Si Si4 0.629191 0.065770 0.506306
Si Si5 0.046188 0.703232 0.054078
Si Si6 0.002423 0.298279 0.145454
Si Si7 0.221120 0.084698 0.377497
Si Si8 0.988852 0.796229 0.191963
O O1 0.322178 0.356779 0.833245
O O2 0.502241 0.720249 0.942258
O O3 0.250282 0.747702 0.849767
O O4 0.461939 0.452957 0.992916
O O5 0.103046 0.569108 0.943321
O O6 0.130228 0.754632 0.865268
O O7 0.967783 0.952806 0.839209
O O8 0.313359 0.844948 0.027427
O O9 0.182460 0.722854 0.167761
O O10 0.158958 0.342219 0.198779
O O11 0.613126 0.894294 0.542272
O O12 0.805271 0.179996 0.606092
O O13 0.897466 0.527434 0.986275
O O14 0.004277 0.018173 0.163607
O O15 0.013884 0.529524 0.186017
O O16 0.109121 0.862179 0.299509
#
# Coordination Sequence:
#
# PCOD9139159 Si02
#       8
#     4   4   4   4   4   4   4   4
#     4  11  24  47  74 106 155 206 261 330 400 476
#     4  11  24  47  74 112 154 196 266 322 394 473
#     4  12  23  46  77 104 149 211 253 322 397 471
#     4  10  24  45  72 105 151 198 256 327 388 474
#     4  11  24  46  70 106 151 201 266 315 391 475
#     4  11  25  46  73 110 149 201 260 316 389 469
#     4  11  24  45  69 110 152 201 258 328 391 474
#     4  11  24  44  75 105 151 204 252 322 394 454
#
# _framework density 24.136837
#
# number of rings (size 3 to 8) (size 9 to 14) (size 15 to 20)
#    0.000    1.000    3.750    2.250    3.500    2.000 
#    6.750    0.000    0.000    0.000    0.000    0.000 
#    0.000    0.000    0.000    0.000    0.000    0.000 
#
# Total GULP energy -89164.288340 kJ/mol
# GULP energy per Si atom -5572.768021 kJ/mol
# Density = 2.408190 g / cm^3
# Si number density = 24.136837 Si / 1000 Ang^3
#
#
#
# Elastic Constant Matrix: (Units=GPa)
#
#
# Indices 1 2 3 4 5 6 
#
# 1 115.1002 25.7631 52.4948 -0.0062 18.9775 0.0085
# 2 25.7631 76.3724 37.5694 -0.0095 1.4925 0.0278
# 3 52.4948 37.5694 129.2314 -0.0025 9.4356 0.0137
# 4 -0.0062 -0.0095 -0.0025 23.1969 -0.0023 -3.3180
# 5 18.9775 1.4925 9.4356 -0.0023 56.5867 -0.0023
# 6 0.0085 0.0278 0.0137 -3.3180 -0.0023 -3.7506
#
#
#
# Elastic Compliance Matrix: (Units=1/GPa)
#
#
# Indices 1 2 3 4 5 6 
#
# 1 0.011380 -0.001886 -0.003846 0.000001 -0.003125 -0.000002
# 2 -0.001886 0.015598 -0.003831 0.000017 0.000860 0.000082
# 3 -0.003846 -0.003831 0.010440 -0.000001 -0.000350 0.000002
# 4 0.000001 0.000017 -0.000001 0.038267 -0.000001 -0.033853
# 5 -0.003125 0.000860 -0.000350 -0.000001 0.018756 -0.000013
# 6 -0.000002 0.000082 0.000002 -0.033853 -0.000013 -0.236674
#
#
# Mechanical properties :
#
#
# Convention : Reuss Voigt Hill
#
# Bulk Modulus (GPa) = 54.67198 61.37316 58.02257
# Shear Modulus (GPa) = -42.73103 28.86505 -6.93299
#
# Velocity S-wave (km/s) = -4.21214 3.46192 -1.69665
# Velocity P-wave (km/s) = 0.97781 6.43912 4.50034
#
# Compressibility (1/GPa) = 0.01829091
#
# Stress axis : x y z
#
# Youngs Moduli (GPa) = 87.87678 64.11195 95.78793
#
# Poissons Ratio (x) = 0.12089 0.36841
# Poissons Ratio (y) = 0.16571 0.36699
# Poissons Ratio (z) = 0.33798 0.24563
#
# Static dielectric constant tensor:
#      x y z
#    x 1.959860 0.000000 -0.040940 
#    y 0.000000 1.925480 0.000000 
#    z -0.040940 0.000000 2.050690 
# 
# From -- ./inp_files/37486.got.cif
#   From: 2010.05.17/outbox.cif.g08.bks.cpg/sg9_19_cif.got.tgz:37486.got - 2010.06.03 20:04:27.
