data_PCOD9139224
_publ_section_title
;
Structure prediction by ZEFSAII (Michael W. Deem and Ramdas Pophale) SiO2 
 PCOD9139224
Probable space group: C C
;
_chemical_formula_sum "Si O2"
_cell_formula_units_Z 32
_cell_length_a 15.111137
_cell_length_b 15.555843
_cell_length_c 9.083011
_cell_angle_alpha 90.000000
_cell_angle_beta 135.558194
_cell_angle_gamma 90.000000
_cell_volume 1494.971829
_symmetry_space_group_name_H-M "C C"
_symmetry_group_IT_number 9
_symmetry_cell_setting 'monoclinic'
loop_
_space_group_symop_operation_xyz
x,y,z
x,-y,1/2+z
1/2+x,1/2+y,z
1/2+x,1/2-y,1/2+z
loop_
_atom_site_type_symbol
_atom_site_label
_atom_site_fract_x
_atom_site_fract_y
_atom_site_fract_z
Si Si1 0.612460 0.793036 0.094570
Si Si2 0.435864 0.882074 0.644853
Si Si3 0.851134 0.311724 0.257082
Si Si4 0.664186 0.946225 0.732126
Si Si5 0.237766 0.988153 0.039229
Si Si6 0.293747 0.412571 0.185584
Si Si7 0.606690 0.199389 0.922845
Si Si8 0.083473 0.088767 0.100272
O O1 0.745099 0.818440 0.175565
O O2 0.604798 0.829384 0.251364
O O3 0.601491 0.690589 0.097295
O O4 0.506798 0.835699 0.864004
O O5 0.391005 0.810629 0.474678
O O6 0.536243 0.943217 0.677728
O O7 0.318339 0.939343 0.552518
O O8 0.965181 0.271671 0.298187
O O9 0.833798 0.411978 0.196218
O O10 0.717428 0.268551 0.069405
O O11 0.643762 0.872255 0.586455
O O12 0.706111 0.026472 0.683791
O O13 0.767531 0.927573 0.981867
O O14 0.129828 0.943325 0.813528
O O15 0.171441 0.034774 0.095491
O O16 0.437368 0.429432 0.396494
#
# Coordination Sequence:
#
# PCOD9139224 Si02
#       8
#     4   4   4   4   4   4   4   4
#     4  11  27  44  75 107 142 190 248 304 364 441
#     4  10  26  45  75 103 142 190 246 297 362 440
#     4  11  26  46  69 106 145 196 243 302 377 428
#     4  10  24  46  73 103 136 194 238 300 367 431
#     4  12  26  47  72 104 146 191 242 296 369 447
#     4  11  25  46  71 105 143 184 243 300 370 438
#     4  11  26  44  72 107 148 190 249 304 367 442
#     4  12  28  46  71 109 144 193 237 305 376 437
#
# _framework density 21.405085
#
# number of rings (size 3 to 8) (size 9 to 14) (size 15 to 20)
#    0.000    1.000    2.500    1.500   15.750    3.000 
#    0.000    0.000    0.000    0.000    0.000    0.000 
#    0.000    0.000    0.000    0.000    0.000    0.000 
#
# Total GULP energy -89450.678188 kJ/mol
# GULP energy per Si atom -5590.667387 kJ/mol
# Density = 2.135637 g / cm^3
# Si number density = 21.405085 Si / 1000 Ang^3
#
#
#
# Elastic Constant Matrix: (Units=GPa)
#
#
# Indices 1 2 3 4 5 6 
#
# 1 75.6558 21.0059 35.2413 0.0000 -3.8044 0.0000
# 2 21.0059 49.2983 3.6331 0.0000 -6.3825 0.0000
# 3 35.2413 3.6331 145.3040 0.0000 -16.5509 0.0000
# 4 0.0000 0.0000 0.0000 25.6354 0.0000 1.1123
# 5 -3.8044 -6.3825 -16.5509 0.0000 45.1731 0.0000
# 6 0.0000 0.0000 0.0000 1.1123 0.0000 17.9390
#
#
#
# Elastic Compliance Matrix: (Units=1/GPa)
#
#
# Indices 1 2 3 4 5 6 
#
# 1 0.017032 -0.007094 -0.004074 0.000000 -0.001061 0.000000
# 2 -0.007094 0.023623 0.001505 0.000000 0.003292 0.000000
# 3 -0.004074 0.001505 0.008158 0.000000 0.002859 0.000000
# 4 0.000000 0.000000 0.000000 0.039114 0.000000 -0.002425
# 5 -0.001061 0.003292 0.002859 0.000000 0.023560 0.000000
# 6 0.000000 0.000000 0.000000 -0.002425 0.000000 0.055895
#
#
# Mechanical properties :
#
#
# Convention : Reuss Voigt Hill
#
# Bulk Modulus (GPa) = 33.91488 43.33540 38.62514
# Shear Modulus (GPa) = 25.44039 31.77470 28.60755
#
# Velocity S-wave (km/s) = 3.45123 3.85703 3.65976
# Velocity P-wave (km/s) = 5.63561 6.33442 5.99521
#
# Compressibility (1/GPa) = 0.02948558
#
# Stress axis : x y z
#
# Youngs Moduli (GPa) = 58.71288 42.33194 122.57512
#
# Poissons Ratio (x) = 0.30032 0.49941
# Poissons Ratio (y) = 0.41653 -0.18447
# Poissons Ratio (z) = 0.23921 -0.06371
#
# Static dielectric constant tensor:
#      x y z
#    x 1.745270 0.000000 -0.001180 
#    y 0.000000 1.790170 0.000000 
#    z -0.001180 0.000000 1.783150 
# 
# From -- ./inp_files/9717.got.cif
#   From: 2010.05.17/outbox.cif.g08.bks.cpg/sg9_5_cif.got.tgz:9717.got - 2010.06.03 20:04:27.
