data_PCOD9139300
_publ_section_title
;
Structure prediction by ZEFSAII (Michael W. Deem and Ramdas Pophale) SiO2 
 PCOD9139300
Probable space group: C C
;
_chemical_formula_sum "Si O2"
_cell_formula_units_Z 32
_cell_length_a 5.023438
_cell_length_b 19.026415
_cell_length_c 15.366586
_cell_angle_alpha 90.000000
_cell_angle_beta 60.629818
_cell_angle_gamma 90.000000
_cell_volume 1279.933572
_symmetry_space_group_name_H-M "C C"
_symmetry_group_IT_number 9
_symmetry_cell_setting 'monoclinic'
loop_
_space_group_symop_operation_xyz
x,y,z
x,-y,1/2+z
1/2+x,1/2+y,z
1/2+x,1/2-y,1/2+z
loop_
_atom_site_type_symbol
_atom_site_label
_atom_site_fract_x
_atom_site_fract_y
_atom_site_fract_z
Si Si1 0.882530 0.541094 0.088900
Si Si2 0.840765 0.569996 0.436985
Si Si3 0.712292 0.786862 0.853230
Si Si4 0.793108 0.702115 0.688063
Si Si5 0.171437 0.636164 0.775345
Si Si6 0.195445 0.484832 0.718625
Si Si7 0.666764 0.820512 0.471404
Si Si8 0.372857 0.683216 0.499346
O O1 0.518612 0.556862 0.160001
O O2 0.031127 0.510259 0.152321
O O3 0.898000 0.485501 0.005358
O O4 0.086500 0.611377 0.040622
O O5 0.510694 0.607532 0.498216
O O6 0.045534 0.640097 0.397381
O O7 0.931169 0.536123 0.330244
O O8 0.809196 0.774964 0.738776
O O9 0.495578 0.719429 0.911280
O O10 0.970901 0.795088 0.885251
O O11 0.450993 0.688424 0.715285
O O12 0.915468 0.649481 0.744146
O O13 0.014035 0.686667 0.573247
O O14 0.301690 0.559585 0.738694
O O15 0.081420 0.649427 0.889188
O O16 0.474582 0.753301 0.533319
#
# Coordination Sequence:
#
# PCOD9139300 Si02
#       8
#     4   4   4   4   4   4   4   4
#     4  12  29  49  78 114 150 208 262 313 394 469
#     4  11  28  50  72 114 162 199 257 329 388 463
#     4  10  25  45  72 109 150 198 252 317 392 453
#     4  11  25  42  76 103 146 192 256 302 378 463
#     4  11  23  48  69 104 143 200 241 307 373 454
#     4  12  29  47  78 111 155 202 258 319 388 463
#     4  10  24  48  72 105 151 196 254 314 383 452
#     4  11  25  45  77 108 151 199 252 321 386 461
#
# _framework density 25.001300000000001
#
# number of rings (size 3 to 8) (size 9 to 14) (size 15 to 20)
#    0.000    1.000    2.500    1.500   14.000    0.000 
#    0.000    0.000    0.000    0.000    0.000    0.000 
#    0.000    0.000    0.000    0.000    0.000    0.000 
#
# Total GULP energy -89281.697166 kJ/mol
# GULP energy per Si atom -5580.106073 kJ/mol
# Density = 2.494440 g / cm^3
# Si number density = 25.001300 Si / 1000 Ang^3
#
#
#
# Elastic Constant Matrix: (Units=GPa)
#
#
# Indices 1 2 3 4 5 6 
#
# 1 61.2709 27.1685 21.2000 0.0000 10.6907 0.0000
# 2 27.1685 103.1507 43.3736 0.0000 22.3745 0.0000
# 3 21.2000 43.3736 120.8942 0.0000 20.2205 0.0000
# 4 0.0000 0.0000 0.0000 32.7038 0.0000 3.9834
# 5 10.6907 22.3745 20.2205 0.0000 39.9549 0.0000
# 6 0.0000 0.0000 0.0000 3.9834 0.0000 14.7933
#
#
#
# Elastic Compliance Matrix: (Units=1/GPa)
#
#
# Indices 1 2 3 4 5 6 
#
# 1 0.018952 -0.003870 -0.001583 0.000000 -0.002103 0.000000
# 2 -0.003870 0.013084 -0.003237 0.000000 -0.004653 0.000000
# 3 -0.001583 -0.003237 0.010200 0.000000 -0.002926 0.000000
# 4 0.000000 0.000000 0.000000 0.031614 0.000000 -0.008513
# 5 -0.002103 -0.004653 -0.002926 0.000000 0.029677 0.000000
# 6 0.000000 0.000000 0.000000 -0.008513 0.000000 0.069891
#
#
# Mechanical properties :
#
#
# Convention : Reuss Voigt Hill
#
# Bulk Modulus (GPa) = 40.23308 52.08888 46.16098
# Shear Modulus (GPa) = 25.11497 30.39531 27.75514
#
# Velocity S-wave (km/s) = 3.17290 3.49054 3.33550
# Velocity P-wave (km/s) = 5.43602 6.09302 5.77387
#
# Compressibility (1/GPa) = 0.02485517
#
# Stress axis : x y z
#
# Youngs Moduli (GPa) = 52.76610 76.42651 98.03756
#
# Poissons Ratio (x) = 0.29575 0.15522
# Poissons Ratio (y) = 0.20419 0.31739
# Poissons Ratio (z) = 0.08355 0.24743
#
# Static dielectric constant tensor:
#      x y z
#    x 2.083880 0.000000 0.023220 
#    y 0.000000 1.999710 0.000000 
#    z 0.023220 0.000000 2.081930 
# 
# From -- ./inp_files/22214.got.cif
#   From: 2010.05.17/outbox.cif.g08.bks.cpg/sg9_12_cif.got.tgz:22214.got - 2010.06.03 20:04:27.
