data_PCOD9139857
_publ_section_title
;
Structure prediction by ZEFSAII (Michael W. Deem and Ramdas Pophale) SiO2 
 PCOD9139857
Probable space group: C C
;
_chemical_formula_sum "Si O2"
_cell_formula_units_Z 28
_cell_length_a 18.465732
_cell_length_b 6.876531
_cell_length_c 9.359101
_cell_angle_alpha 90.000000
_cell_angle_beta 105.782460
_cell_angle_gamma 90.000000
_cell_volume 1143.618417
_symmetry_space_group_name_H-M "C C"
_symmetry_group_IT_number 9
_symmetry_cell_setting 'monoclinic'
loop_
_space_group_symop_operation_xyz
x,y,z
x,-y,1/2+z
1/2+x,1/2+y,z
1/2+x,1/2-y,1/2+z
loop_
_atom_site_type_symbol
_atom_site_label
_atom_site_fract_x
_atom_site_fract_y
_atom_site_fract_z
Si Si1 0.392070 0.501532 0.363090
Si Si2 0.146156 0.193023 0.407346
Si Si3 0.520566 0.981389 0.879184
Si Si4 0.792159 0.309615 0.158288
Si Si5 0.487751 0.643604 0.665893
Si Si6 0.855950 0.562963 0.411689
Si Si7 0.106927 0.142879 0.084163
O O1 0.436795 0.987632 0.396891
O O2 0.336807 0.625082 0.237712
O O3 0.463447 0.456098 0.301287
O O4 0.357901 0.292559 0.380441
O O5 0.072065 0.327531 0.392701
O O6 0.216581 0.259828 0.540682
O O7 0.159362 0.203610 0.244755
O O8 0.138468 0.973354 0.465059
O O9 0.510634 0.861063 0.724672
O O10 0.563068 0.830518 0.005491
O O11 0.790656 0.445960 0.296455
O O12 0.840084 0.437939 0.071087
O O13 0.418529 0.612664 0.519730
O O14 0.553138 0.516018 0.631658
#
# Coordination Sequence:
#
# PCOD9139857 Si02
#       7
#     4   4   4   4   4   4   4
#     4  11  23  45  74 104 149 187 242 310 370 430
#     4  12  30  47  72 108 157 202 246 306 382 451
#     4  11  27  43  81 115 140 195 258 314 371 452
#     4  12  28  48  71 108 151 199 245 301 373 458
#     4  11  21  46  71 109 144 187 239 321 367 430
#     4  11  27  45  78 108 142 192 256 301 371 437
#     4  12  24  48  71 104 157 188 244 313 382 434
#
# _framework density 24.483689999999999
#
# number of rings (size 3 to 8) (size 9 to 14) (size 15 to 20)
#    0.000    0.571    5.714    0.857   12.000    2.286 
#    0.000    0.000    0.000    0.000    0.000    0.000 
#    0.000    0.000    0.000    0.000    0.000    0.000 
#
# Total GULP energy -78360.929961 kJ/mol
# GULP energy per Si atom -5597.209283 kJ/mol
# Density = 2.442796 g / cm^3
# Si number density = 24.483690 Si / 1000 Ang^3
#
#
#
# Elastic Constant Matrix: (Units=GPa)
#
#
# Indices 1 2 3 4 5 6 
#
# 1 48.3831 12.1968 9.2319 0.0000 16.1923 0.0000
# 2 12.1968 107.1647 44.5869 0.0000 13.0520 0.0000
# 3 9.2319 44.5869 178.2356 0.0000 20.2023 0.0000
# 4 0.0000 0.0000 0.0000 52.0493 0.0000 2.7016
# 5 16.1923 13.0520 20.2023 0.0000 42.2585 0.0000
# 6 0.0000 0.0000 0.0000 2.7016 0.0000 30.6624
#
#
#
# Elastic Compliance Matrix: (Units=1/GPa)
#
#
# Indices 1 2 3 4 5 6 
#
# 1 0.023999 -0.001743 0.000184 0.000000 -0.008746 0.000000
# 2 -0.001743 0.010719 -0.002423 0.000000 -0.001484 0.000000
# 3 0.000184 -0.002423 0.006481 0.000000 -0.002421 0.000000
# 4 0.000000 0.000000 0.000000 0.019301 0.000000 -0.001701
# 5 -0.008746 -0.001484 -0.002421 0.000000 0.028631 0.000000
# 6 0.000000 0.000000 0.000000 -0.001701 0.000000 0.032763
#
#
# Mechanical properties :
#
#
# Convention : Reuss Voigt Hill
#
# Bulk Modulus (GPa) = 30.08737 51.75719 40.92228
# Shear Modulus (GPa) = 35.47705 42.84523 39.16114
#
# Velocity S-wave (km/s) = 3.81071 4.18778 4.00369
# Velocity P-wave (km/s) = 5.62827 6.67598 6.17439
#
# Compressibility (1/GPa) = 0.03323654
#
# Stress axis : x y z
#
# Youngs Moduli (GPa) = 41.66754 93.29545 154.28559
#
# Poissons Ratio (x) = 0.16261 -0.02842
# Poissons Ratio (y) = 0.07262 0.37380
# Poissons Ratio (z) = -0.00768 0.22604
#
# Static dielectric constant tensor:
#      x y z
#    x 2.010130 0.000000 0.025260 
#    y 0.000000 1.920560 0.000000 
#    z 0.025260 0.000000 1.976840 
# 
# From -- ./inp_files/20516.got.cif
#   From: 2010.05.17/outbox.cif.g08.bks.cpg/sg9_11_cif.got.tgz:20516.got - 2010.06.03 20:04:27.
