data_PCOD9139853
_publ_section_title
;
Structure prediction by ZEFSAII (Michael W. Deem and Ramdas Pophale) SiO2 
 PCOD9139853
Probable space group: C C
;
_chemical_formula_sum "Si O2"
_cell_formula_units_Z 28
_cell_length_a 9.202277
_cell_length_b 15.037518
_cell_length_c 8.651395
_cell_angle_alpha 90.000000
_cell_angle_beta 68.038285
_cell_angle_gamma 90.000000
_cell_volume 1110.300659
_symmetry_space_group_name_H-M "C C"
_symmetry_group_IT_number 9
_symmetry_cell_setting 'monoclinic'
loop_
_space_group_symop_operation_xyz
x,y,z
x,-y,1/2+z
1/2+x,1/2+y,z
1/2+x,1/2-y,1/2+z
loop_
_atom_site_type_symbol
_atom_site_label
_atom_site_fract_x
_atom_site_fract_y
_atom_site_fract_z
Si Si1 0.528650 0.655383 0.192170
Si Si2 0.743544 0.645009 0.574492
Si Si3 0.670674 0.917306 0.054136
Si Si4 0.927994 0.042364 0.701952
Si Si5 0.283484 0.224625 0.908073
Si Si6 0.775607 0.163041 0.018823
Si Si7 0.035515 0.453559 0.803768
O O1 0.479725 0.554323 0.245213
O O2 0.457291 0.731844 0.332798
O O3 0.418014 0.671056 0.085262
O O4 0.710195 0.662326 0.070445
O O5 0.592934 0.587698 0.599973
O O6 0.750730 0.677207 0.754164
O O7 0.734308 0.737828 0.488634
O O8 0.887640 0.590079 0.445103
O O9 0.525531 0.952866 0.217221
O O10 0.684483 0.815606 0.991722
O O11 0.651387 0.967982 0.901312
O O12 0.817140 0.951601 0.095395
O O13 0.847913 0.108783 0.852747
O O14 0.625446 0.115906 0.156661
#
# Coordination Sequence:
#
# PCOD9139853 Si02
#       7
#     4   4   4   4   4   4   4
#     4  11  23  41  76 102 147 193 250 296 379 438
#     4  11  25  46  76 107 147 194 248 317 371 435
#     4  12  24  46  74 113 145 203 247 308 376 464
#     4  12  26  45  78 114 144 196 262 308 373 455
#     4  11  23  43  72 105 147 192 246 303 374 440
#     4  11  21  45  74 103 145 202 242 303 375 460
#     4  12  24  44  76 106 151 196 251 303 384 446
#
# _framework density 25.218394
#
# number of rings (size 3 to 8) (size 9 to 14) (size 15 to 20)
#    0.000    0.571    5.714    4.286    0.000    2.286 
#    5.143    0.000    3.143    0.000    0.000    0.000 
#    0.000    0.000    0.000    0.000    0.000    0.000 
#
# Total GULP energy -78190.429267 kJ/mol
# GULP energy per Si atom -5585.030662 kJ/mol
# Density = 2.516100 g / cm^3
# Si number density = 25.218394 Si / 1000 Ang^3
#
#
#
# Elastic Constant Matrix: (Units=GPa)
#
#
# Indices 1 2 3 4 5 6 
#
# 1 63.5363 38.9425 49.9354 0.0000 -14.8347 0.0000
# 2 38.9425 95.5930 61.4468 0.0000 -13.0082 0.0000
# 3 49.9354 61.4468 184.5879 0.0000 -30.4948 0.0000
# 4 0.0000 0.0000 0.0000 64.0336 0.0000 -6.7334
# 5 -14.8347 -13.0082 -30.4948 0.0000 41.1720 0.0000
# 6 0.0000 0.0000 0.0000 -6.7334 0.0000 21.4814
#
#
#
# Elastic Compliance Matrix: (Units=1/GPa)
#
#
# Indices 1 2 3 4 5 6 
#
# 1 0.023538 -0.006850 -0.003468 0.000000 0.003748 0.000000
# 2 -0.006850 0.015342 -0.003260 0.000000 -0.000035 0.000000
# 3 -0.003468 -0.003260 0.008049 0.000000 0.003682 0.000000
# 4 0.000000 0.000000 0.000000 0.016149 0.000000 0.005062
# 5 0.003748 -0.000035 0.003682 0.000000 0.028355 0.000000
# 6 0.000000 0.000000 0.000000 0.005062 0.000000 0.048139
#
#
# Mechanical properties :
#
#
# Convention : Reuss Voigt Hill
#
# Bulk Modulus (GPa) = 50.57189 71.59629 61.08409
# Shear Modulus (GPa) = 28.84847 38.23022 33.53935
#
# Velocity S-wave (km/s) = 3.38590 3.89776 3.65081
# Velocity P-wave (km/s) = 5.94835 6.97918 6.48428
#
# Compressibility (1/GPa) = 0.01977383
#
# Stress axis : x y z
#
# Youngs Moduli (GPa) = 42.48410 65.18006 124.23471
#
# Poissons Ratio (x) = 0.44645 0.43089
# Poissons Ratio (y) = 0.29099 0.40501
# Poissons Ratio (z) = 0.14735 0.21249
#
# Static dielectric constant tensor:
#      x y z
#    x 2.028590 0.000000 -0.045280 
#    y 0.000000 2.041050 0.000000 
#    z -0.045280 0.000000 2.091760 
# 
# From -- ./inp_files/16781.got.cif
#   From: 2010.05.17/outbox.cif.g08.bks.cpg/sg9_9_cif.got.tgz:16781.got - 2010.06.03 20:04:27.
