data_PCOD9139680
_publ_section_title
;
Structure prediction by ZEFSAII (Michael W. Deem and Ramdas Pophale) SiO2 
 PCOD9139680
Probable space group: C C
;
_chemical_formula_sum "Si O2"
_cell_formula_units_Z 28
_cell_length_a 12.513292
_cell_length_b 9.222361
_cell_length_c 10.196180
_cell_angle_alpha 90.000000
_cell_angle_beta 72.995494
_cell_angle_gamma 90.000000
_cell_volume 1125.219016
_symmetry_space_group_name_H-M "C C"
_symmetry_group_IT_number 9
_symmetry_cell_setting 'monoclinic'
loop_
_space_group_symop_operation_xyz
x,y,z
x,-y,1/2+z
1/2+x,1/2+y,z
1/2+x,1/2-y,1/2+z
loop_
_atom_site_type_symbol
_atom_site_label
_atom_site_fract_x
_atom_site_fract_y
_atom_site_fract_z
Si Si1 0.670510 0.453873 0.887330
Si Si2 0.502130 0.708715 0.618055
Si Si3 0.582605 0.069881 0.887862
Si Si4 0.996302 0.188393 0.249498
Si Si5 0.817531 0.076571 0.496049
Si Si6 0.613328 0.764738 0.961635
Si Si7 0.318877 0.302778 0.370592
O O1 0.596679 0.395059 0.791616
O O2 0.784081 0.364799 0.866037
O O3 0.601110 0.398720 0.040537
O O4 0.674389 0.625973 0.878889
O O5 0.539548 0.862426 0.543036
O O6 0.396546 0.651875 0.571682
O O7 0.447489 0.692698 0.778709
O O8 0.507096 0.151956 0.809457
O O9 0.712805 0.120399 0.832260
O O10 0.577911 0.898291 0.884650
O O11 0.016634 0.203006 0.089220
O O12 0.882713 0.112441 0.335608
O O13 0.700141 0.155305 0.528651
O O14 0.810606 0.902574 0.503626
#
# Coordination Sequence:
#
# PCOD9139680 Si02
#       7
#     4   4   4   4   4   4   4
#     4   9  20  33  50  79 104 132 175 211 256 317
#     4   9  17  35  53  70 103 138 166 211 256 300
#     4   8  19  33  52  77  99 133 177 205 254 316
#     4   9  19  37  52  72 106 140 169 211 260 303
#     4   9  18  31  52  75  97 137 177 202 250 314
#     4  11  19  35  55  75 106 135 168 220 260 299
#     4   9  16  32  52  72 101 135 168 208 254 303
#
# _framework density 24.884046000000001
#
# number of rings (size 3 to 8) (size 9 to 14) (size 15 to 20)
#    0.000    3.429    0.000    2.571    0.000    1.143 
#    0.000   17.143    0.000    0.000    0.000    0.000 
#    0.000    0.000    0.000    0.000    0.000    0.000 
#
# Total GULP energy -78099.852725 kJ/mol
# GULP energy per Si atom -5578.560909 kJ/mol
# Density = 2.482741 g / cm^3
# Si number density = 24.884046 Si / 1000 Ang^3
#
#
#
# Elastic Constant Matrix: (Units=GPa)
#
#
# Indices 1 2 3 4 5 6 
#
# 1 55.3677 10.4042 -0.2168 0.0000 -2.3272 0.0000
# 2 10.4042 196.9403 11.6656 0.0000 11.0264 0.0000
# 3 -0.2168 11.6656 39.0056 0.0000 -19.1019 0.0000
# 4 0.0000 0.0000 0.0000 14.5614 0.0000 2.8521
# 5 -2.3272 11.0264 -19.1019 0.0000 24.3862 0.0000
# 6 0.0000 0.0000 0.0000 2.8521 0.0000 35.3719
#
#
#
# Elastic Compliance Matrix: (Units=1/GPa)
#
#
# Indices 1 2 3 4 5 6 
#
# 1 0.018526 -0.001397 0.002751 0.000000 0.004554 0.000000
# 2 -0.001397 0.005826 -0.005038 0.000000 -0.006714 0.000000
# 3 0.002751 -0.005038 0.046080 0.000000 0.038635 0.000000
# 4 0.000000 0.000000 0.000000 0.069777 0.000000 -0.005626
# 5 0.004554 -0.006714 0.038635 0.000000 0.074741 0.000000
# 6 0.000000 0.000000 0.000000 -0.005626 0.000000 0.028725
#
#
# Mechanical properties :
#
#
# Convention : Reuss Voigt Hill
#
# Bulk Modulus (GPa) = 15.85683 37.22441 26.54062
# Shear Modulus (GPa) = 18.37813 32.82791 25.60302
#
# Velocity S-wave (km/s) = 2.72058 3.63607 3.21112
# Velocity P-wave (km/s) = 4.03173 5.71136 4.94340
#
# Compressibility (1/GPa) = 0.06306431
#
# Stress axis : x y z
#
# Youngs Moduli (GPa) = 53.97901 171.65076 21.70136
#
# Poissons Ratio (x) = 0.23974 -0.05970
# Poissons Ratio (y) = 0.07539 0.10933
# Poissons Ratio (z) = -0.14850 0.86478
#
# Static dielectric constant tensor:
#      x y z
#    x 1.930260 0.000000 0.022710 
#    y 0.000000 2.024190 0.000000 
#    z 0.022710 0.000000 2.093480 
# 
# From -- ./inp_files/17659.got.cif
#   From: 2010.05.17/outbox.cif.g08.bks.cpg/sg9_9_cif.got.tgz:17659.got - 2010.06.03 20:04:27.
