data_PCOD9139966
_publ_section_title
;
Structure prediction by ZEFSAII (Michael W. Deem and Ramdas Pophale) SiO2 
 PCOD9139966
Probable space group: C C
;
_chemical_formula_sum "Si O2"
_cell_formula_units_Z 28
_cell_length_a 30.948645
_cell_length_b 7.118265
_cell_length_c 14.188128
_cell_angle_alpha 90.000000
_cell_angle_beta 156.247151
_cell_angle_gamma 90.000000
_cell_volume 1258.989024
_symmetry_space_group_name_H-M "C C"
_symmetry_group_IT_number 9
_symmetry_cell_setting 'monoclinic'
loop_
_space_group_symop_operation_xyz
x,y,z
x,-y,1/2+z
1/2+x,1/2+y,z
1/2+x,1/2-y,1/2+z
loop_
_atom_site_type_symbol
_atom_site_label
_atom_site_fract_x
_atom_site_fract_y
_atom_site_fract_z
Si Si1 0.231560 0.005816 0.040420
Si Si2 0.683309 0.931061 0.969710
Si Si3 0.948505 0.195269 0.742043
Si Si4 0.064258 0.857136 0.863874
Si Si5 0.647678 0.769985 0.237575
Si Si6 0.225757 0.555603 0.253207
Si Si7 0.449742 0.007899 0.082713
O O1 0.347225 0.955705 0.313543
O O2 0.140144 0.926453 0.929757
O O3 0.207538 0.915535 0.891142
O O4 0.223495 0.228518 0.022107
O O5 0.472530 0.213069 0.645359
O O6 0.680346 0.075118 0.878692
O O7 0.748064 0.016706 0.187448
O O8 0.830517 0.114061 0.518811
O O9 0.015183 0.034499 0.819216
O O10 0.935804 0.380449 0.652588
O O11 0.020073 0.238907 0.976081
O O12 0.138060 0.722092 0.077170
O O13 0.680959 0.860789 0.205028
O O14 0.560035 0.083085 0.258250
#
# Coordination Sequence:
#
# PCOD9139966 Si02
#       7
#     4   4   4   4   4   4   4
#     4  12  24  42  72  97 135 183 224 281 350 394
#     4  11  24  48  69 100 142 176 230 288 334 410
#     4  12  24  43  72  98 135 185 225 276 351 400
#     4  11  22  44  71  97 131 180 226 277 341 405
#     4  12  26  45  66 107 140 177 235 284 329 418
#     4  11  24  49  68  98 145 176 227 288 337 408
#     4  11  22  43  72  97 132 181 227 278 342 405
#
# _framework density 22.240065999999999
#
# number of rings (size 3 to 8) (size 9 to 14) (size 15 to 20)
#    0.000    0.571    8.571    0.857    2.000    2.286 
#    2.571    0.000    0.000    0.000    0.000    0.000 
#    0.000    0.000    0.000    0.000    0.000    0.000 
#
# Total GULP energy -78329.017983 kJ/mol
# GULP energy per Si atom -5594.929856 kJ/mol
# Density = 2.218945 g / cm^3
# Si number density = 22.240066 Si / 1000 Ang^3
#
#
#
# Elastic Constant Matrix: (Units=GPa)
#
#
# Indices 1 2 3 4 5 6 
#
# 1 29.7139 5.6501 4.2242 0.0000 -5.9398 0.0000
# 2 5.6501 92.3878 27.5927 0.0000 -9.7603 0.0000
# 3 4.2242 27.5927 127.7277 0.0000 -17.6466 0.0000
# 4 0.0000 0.0000 0.0000 34.5984 0.0000 -2.5549
# 5 -5.9398 -9.7603 -17.6466 0.0000 30.1308 0.0000
# 6 0.0000 0.0000 0.0000 -2.5549 0.0000 28.4427
#
#
#
# Elastic Compliance Matrix: (Units=1/GPa)
#
#
# Indices 1 2 3 4 5 6 
#
# 1 0.035227 -0.001484 0.000053 0.000000 0.006495 0.000000
# 2 -0.001484 0.011807 -0.002191 0.000000 0.002249 0.000000
# 3 0.000053 -0.002191 0.008926 0.000000 0.004529 0.000000
# 4 0.000000 0.000000 0.000000 0.029096 0.000000 0.002614
# 5 0.006495 0.002249 0.004529 0.000000 0.037850 0.000000
# 6 0.000000 0.000000 0.000000 0.002614 0.000000 0.035393
#
#
# Mechanical properties :
#
#
# Convention : Reuss Voigt Hill
#
# Bulk Modulus (GPa) = 20.52701 36.08483 28.30592
# Shear Modulus (GPa) = 27.50551 32.79188 30.14869
#
# Velocity S-wave (km/s) = 3.52057 3.84402 3.68585
# Velocity P-wave (km/s) = 5.07697 5.99686 5.55599
#
# Compressibility (1/GPa) = 0.04871631
#
# Stress axis : x y z
#
# Youngs Moduli (GPa) = 28.38709 84.69851 112.02806
#
# Poissons Ratio (x) = 0.12570 -0.00592
# Poissons Ratio (y) = 0.04213 0.24543
# Poissons Ratio (z) = -0.00150 0.18555
#
# Static dielectric constant tensor:
#      x y z
#    x 1.831750 0.000000 -0.010810 
#    y 0.000000 1.809090 0.000000 
#    z -0.010810 0.000000 1.802060 
# 
# From -- ./inp_files/21226.got.cif
#   From: 2010.05.17/outbox.cif.g08.bks.cpg/sg9_11_cif.got.tgz:21226.got - 2010.06.03 20:04:27.
