data_PCOD9139450
_publ_section_title
;
Structure prediction by ZEFSAII (Michael W. Deem and Ramdas Pophale) SiO2 
 PCOD9139450
Probable space group: C C
;
_chemical_formula_sum "Si O2"
_cell_formula_units_Z 28
_cell_length_a 24.765877
_cell_length_b 6.250207
_cell_length_c 10.943064
_cell_angle_alpha 90.000000
_cell_angle_beta 137.503329
_cell_angle_gamma 90.000000
_cell_volume 1144.307801
_symmetry_space_group_name_H-M "C C"
_symmetry_group_IT_number 9
_symmetry_cell_setting 'monoclinic'
loop_
_space_group_symop_operation_xyz
x,y,z
x,-y,1/2+z
1/2+x,1/2+y,z
1/2+x,1/2-y,1/2+z
loop_
_atom_site_type_symbol
_atom_site_label
_atom_site_fract_x
_atom_site_fract_y
_atom_site_fract_z
Si Si1 0.079510 0.354913 0.577140
Si Si2 0.946513 0.313877 0.898370
Si Si3 0.142989 0.975963 0.541082
Si Si4 0.347853 0.326673 0.022497
Si Si5 0.286912 0.992290 0.100869
Si Si6 0.995830 0.062115 0.628471
Si Si7 0.715885 0.860899 0.347834
O O1 0.127552 0.224096 0.553410
O O2 0.146912 0.474807 0.769139
O O3 0.035274 0.172930 0.578497
O O4 0.010934 0.532942 0.439384
O O5 0.982931 0.186154 0.072135
O O6 0.905419 0.142090 0.737875
O O7 0.869312 0.454283 0.805278
O O8 0.211527 0.938959 0.554649
O O9 0.169633 0.825075 0.697303
O O10 0.059219 0.910887 0.342158
O O11 0.412353 0.331011 0.024166
O O12 0.300704 0.116624 0.993508
O O13 0.282633 0.506352 0.886837
O O14 0.266705 0.748734 0.038506
#
# Coordination Sequence:
#
# PCOD9139450 Si02
#       7
#     4   4   4   4   4   4   4
#     4  12  27  46  72 105 149 194 243 301 367 436
#     4  10  26  46  72 109 143 192 245 303 370 436
#     4  12  26  46  74 108 148 194 244 301 366 438
#     4  10  25  45  73 107 145 187 242 306 366 432
#     4  10  26  48  72 108 145 190 247 300 365 437
#     4  12  25  46  75 108 147 191 244 302 371 437
#     4  12  25  47  72 107 145 190 247 295 365 430
#
# _framework density 24.46894
#
# number of rings (size 3 to 8) (size 9 to 14) (size 15 to 20)
#    0.857    0.000    0.000    6.857    4.000    9.143 
#    0.000    0.000    0.000    0.000    0.000    0.000 
#    0.000    0.000    0.000    0.000    0.000    0.000 
#
# Total GULP energy -78153.989562 kJ/mol
# GULP energy per Si atom -5582.427826 kJ/mol
# Density = 2.441325 g / cm^3
# Si number density = 24.468940 Si / 1000 Ang^3
#
#
#
# Elastic Constant Matrix: (Units=GPa)
#
#
# Indices 1 2 3 4 5 6 
#
# 1 91.1853 37.0789 33.2770 0.0000 43.9679 0.0000
# 2 37.0789 97.0730 70.4832 0.0000 20.7002 0.0000
# 3 33.2770 70.4832 125.7913 0.0000 32.7815 0.0000
# 4 0.0000 0.0000 0.0000 55.2139 0.0000 6.0378
# 5 43.9679 20.7002 32.7815 0.0000 42.2831 0.0000
# 6 0.0000 0.0000 0.0000 6.0378 0.0000 30.9336
#
#
#
# Elastic Compliance Matrix: (Units=1/GPa)
#
#
# Indices 1 2 3 4 5 6 
#
# 1 0.024388 -0.006793 0.003881 0.000000 -0.025043 0.000000
# 2 -0.006793 0.019308 -0.010526 0.000000 0.005772 0.000000
# 3 0.003881 -0.010526 0.015702 0.000000 -0.011056 0.000000
# 4 0.000000 0.000000 0.000000 0.018506 0.000000 -0.003612
# 5 -0.025043 0.005772 -0.011056 0.000000 0.055437 0.000000
# 6 0.000000 0.000000 0.000000 -0.003612 0.000000 0.033032
#
#
# Mechanical properties :
#
#
# Convention : Reuss Voigt Hill
#
# Bulk Modulus (GPa) = 30.74827 66.19197 48.47012
# Shear Modulus (GPa) = 24.49898 37.23347 30.86622
#
# Velocity S-wave (km/s) = 3.16765 3.90508 3.55554
# Velocity P-wave (km/s) = 5.09629 6.88789 6.05868
#
# Compressibility (1/GPa) = 0.03252215
#
# Stress axis : x y z
#
# Youngs Moduli (GPa) = 41.00400 51.79183 63.68596
#
# Poissons Ratio (x) = 0.35183 -0.24716
# Poissons Ratio (y) = 0.27854 0.67034
# Poissons Ratio (z) = -0.15913 0.54515
#
# Static dielectric constant tensor:
#      x y z
#    x 1.953140 0.000000 -0.026690 
#    y 0.000000 1.952450 0.000000 
#    z -0.026690 0.000000 1.931050 
# 
# From -- ./inp_files/28217.got.cif
#   From: 2010.05.17/outbox.cif.g08.bks.cpg/sg9_15_cif.got.tgz:28217.got - 2010.06.03 20:04:27.
