data_PCOD9139863
_publ_section_title
;
Structure prediction by ZEFSAII (Michael W. Deem and Ramdas Pophale) SiO2 
 PCOD9139863
Probable space group: C C
;
_chemical_formula_sum "Si O2"
_cell_formula_units_Z 32
_cell_length_a 13.436284
_cell_length_b 9.813542
_cell_length_c 16.575441
_cell_angle_alpha 90.000000
_cell_angle_beta 33.414251
_cell_angle_gamma 90.000000
_cell_volume 1203.582761
_symmetry_space_group_name_H-M "C C"
_symmetry_group_IT_number 9
_symmetry_cell_setting 'monoclinic'
loop_
_space_group_symop_operation_xyz
x,y,z
x,-y,1/2+z
1/2+x,1/2+y,z
1/2+x,1/2-y,1/2+z
loop_
_atom_site_type_symbol
_atom_site_label
_atom_site_fract_x
_atom_site_fract_y
_atom_site_fract_z
Si Si1 0.175140 0.944836 0.599830
Si Si2 0.881413 0.736368 0.730442
Si Si3 0.234068 0.777068 0.712017
Si Si4 0.887529 0.084037 0.490463
Si Si5 0.161228 0.573330 0.482678
Si Si6 0.349438 0.690276 0.067312
Si Si7 0.364244 0.335490 0.281260
Si Si8 0.940193 0.374981 0.858005
O O1 0.345180 0.979037 0.428400
O O2 0.043891 0.076408 0.680330
O O3 0.242311 0.904077 0.643786
O O4 0.050121 0.821460 0.653746
O O5 0.965927 0.587459 0.656403
O O6 0.716189 0.788729 0.896515
O O7 0.843015 0.782807 0.665722
O O8 0.244199 0.643892 0.649647
O O9 0.369342 0.742083 0.692962
O O10 0.041173 0.802313 0.883147
O O11 0.803271 0.062552 0.459854
O O12 0.968081 0.942150 0.466485
O O13 0.204598 0.448489 0.394193
O O14 0.144124 0.640170 0.188725
O O15 0.412878 0.811132 0.966355
O O16 0.333107 0.225528 0.371387
#
# Coordination Sequence:
#
# PCOD9139863 Si02
#       8
#     4   4   4   4   4   4   4   4
#     4  11  24  50  72 113 158 193 257 326 378 473
#     4  11  24  45  72 109 146 201 244 323 382 465
#     4  12  27  46  80 107 158 202 260 320 400 462
#     4  12  24  47  72 110 152 204 253 326 382 465
#     4  11  21  47  72 105 159 192 258 320 384 458
#     4  12  27  47  76 106 152 202 256 318 394 461
#     4  11  25  49  77 112 153 207 257 329 383 477
#     4  12  26  49  75 108 152 203 257 324 391 459
#
# _framework density 26.587285999999999
#
# number of rings (size 3 to 8) (size 9 to 14) (size 15 to 20)
#    0.000    0.500    6.250    2.250    5.250    1.000 
#    0.000    0.000    0.000    0.000    0.000    0.000 
#    0.000    0.000    0.000    0.000    0.000    0.000 
#
# Total GULP energy -89562.559265 kJ/mol
# GULP energy per Si atom -5597.659954 kJ/mol
# Density = 2.652677 g / cm^3
# Si number density = 26.587286 Si / 1000 Ang^3
#
#
#
# Elastic Constant Matrix: (Units=GPa)
#
#
# Indices 1 2 3 4 5 6 
#
# 1 118.1324 21.5253 11.8032 0.0000 27.2177 0.0000
# 2 21.5253 74.4082 12.5795 -0.0001 -1.6922 0.0000
# 3 11.8032 12.5795 97.3092 -0.0001 2.9402 0.0000
# 4 0.0000 -0.0001 -0.0001 49.1256 0.0000 14.7161
# 5 27.2177 -1.6922 2.9402 0.0000 41.5443 0.0000
# 6 0.0000 0.0000 0.0000 14.7161 0.0000 33.3787
#
#
#
# Elastic Compliance Matrix: (Units=1/GPa)
#
#
# Indices 1 2 3 4 5 6 
#
# 1 0.010749 -0.003157 -0.000681 0.000000 -0.007123 0.000000
# 2 -0.003157 0.014686 -0.001600 0.000000 0.002779 0.000000
# 3 -0.000681 -0.001600 0.010577 0.000000 -0.000368 0.000000
# 4 0.000000 0.000000 0.000000 0.023454 0.000000 -0.010340
# 5 -0.007123 0.002779 -0.000368 0.000000 0.028876 0.000000
# 6 0.000000 0.000000 0.000000 -0.010340 0.000000 0.034518
#
#
# Mechanical properties :
#
#
# Convention : Reuss Voigt Hill
#
# Bulk Modulus (GPa) = 39.77894 42.40733 41.09314
# Shear Modulus (GPa) = 35.18309 41.07250 38.12779
#
# Velocity S-wave (km/s) = 3.64167 3.93468 3.79101
# Velocity P-wave (km/s) = 5.71634 6.05204 5.88658
#
# Compressibility (1/GPa) = 0.02513893
#
# Stress axis : x y z
#
# Youngs Moduli (GPa) = 93.02892 68.09127 94.54496
#
# Poissons Ratio (x) = 0.21494 0.06435
# Poissons Ratio (y) = 0.29365 0.15124
# Poissons Ratio (z) = 0.06331 0.10892
#
# Static dielectric constant tensor:
#      x y z
#    x 2.050640 0.000000 -0.074120 
#    y 0.000000 2.095910 0.000000 
#    z -0.074120 0.000000 2.138140 
# 
# From -- ./inp_files/30689.got.cif
#   From: 2010.05.17/outbox.cif.g08.bks.cpg/sg9_16_cif.got.tgz:30689.got - 2010.06.03 20:04:27.
