data_PCOD9139484
_publ_section_title
;
Structure prediction by ZEFSAII (Michael W. Deem and Ramdas Pophale) SiO2 
 PCOD9139484
Probable space group: C C
;
_chemical_formula_sum "Si O2"
_cell_formula_units_Z 28
_cell_length_a 22.934366
_cell_length_b 5.213530
_cell_length_c 9.892514
_cell_angle_alpha 90.000000
_cell_angle_beta 64.676556
_cell_angle_gamma 90.000000
_cell_volume 1069.176321
_symmetry_space_group_name_H-M "C C"
_symmetry_group_IT_number 9
_symmetry_cell_setting 'monoclinic'
loop_
_space_group_symop_operation_xyz
x,y,z
x,-y,1/2+z
1/2+x,1/2+y,z
1/2+x,1/2-y,1/2+z
loop_
_atom_site_type_symbol
_atom_site_label
_atom_site_fract_x
_atom_site_fract_y
_atom_site_fract_z
Si Si1 0.791200 0.183655 0.008870
Si Si2 0.137984 0.929100 0.561073
Si Si3 0.676991 0.784670 0.759964
Si Si4 0.409313 0.639207 0.298894
Si Si5 0.817166 0.468295 0.738065
Si Si6 0.449244 0.285233 0.039077
Si Si7 0.573064 0.043330 0.021491
O O1 0.729670 0.036024 0.131602
O O2 0.793553 0.389028 0.128213
O O3 0.774481 0.289536 0.877305
O O4 0.862389 0.074154 0.915708
O O5 0.190142 0.816636 0.400054
O O6 0.089437 0.687221 0.608575
O O7 0.163203 0.042631 0.676350
O O8 0.103511 0.182392 0.532337
O O9 0.611416 0.938810 0.852470
O O10 0.355495 0.839044 0.300755
O O11 0.448264 0.540663 0.130262
O O12 0.458055 0.705316 0.370561
O O13 0.875247 0.296880 0.625287
O O14 0.499017 0.096116 0.061203
#
# Coordination Sequence:
#
# PCOD9139484 Si02
#       7
#     4   4   4   4   4   4   4
#     4  11  23  43  71 109 143 193 244 309 378 459
#     4  10  25  47  70 111 138 203 249 305 381 435
#     4  10  25  46  75 105 152 197 253 314 376 455
#     4  11  24  42  74 105 148 192 250 308 392 443
#     4  11  23  42  67 108 145 188 243 306 383 446
#     4  11  25  47  69 109 143 197 249 319 369 459
#     4  10  27  45  76 105 149 192 254 305 377 439
#
# _framework density 26.188383999999999
#
# number of rings (size 3 to 8) (size 9 to 14) (size 15 to 20)
#    0.857    0.571    2.857    0.857    4.000    4.571 
#    0.000    0.000    0.000    0.000    0.000    0.000 
#    0.000    0.000    0.000    0.000    0.000    0.000 
#
# Total GULP energy -78156.187906 kJ/mol
# GULP energy per Si atom -5582.584850 kJ/mol
# Density = 2.612878 g / cm^3
# Si number density = 26.188384 Si / 1000 Ang^3
#
#
#
# Elastic Constant Matrix: (Units=GPa)
#
#
# Indices 1 2 3 4 5 6 
#
# 1 41.9181 6.6130 19.6852 0.0000 17.6766 0.0000
# 2 6.6130 86.1440 12.2020 0.0000 14.4231 0.0000
# 3 19.6852 12.2020 116.1595 0.0000 17.6236 0.0000
# 4 0.0000 0.0000 0.0000 44.8891 0.0000 15.5244
# 5 17.6766 14.4231 17.6236 0.0000 50.0743 0.0000
# 6 0.0000 0.0000 0.0000 15.5244 0.0000 5.4581
#
#
#
# Elastic Compliance Matrix: (Units=1/GPa)
#
#
# Indices 1 2 3 4 5 6 
#
# 1 0.029391 -0.000234 -0.003584 0.000000 -0.009046 0.000000
# 2 -0.000234 0.012268 -0.000766 0.000000 -0.003181 0.000000
# 3 -0.003584 -0.000766 0.009583 0.000000 -0.001887 0.000000
# 4 0.000000 0.000000 0.000000 1.362749 0.000000 -3.876005
# 5 -0.009046 -0.003181 -0.001887 0.000000 0.024744 0.000000
# 6 0.000000 0.000000 0.000000 -3.876005 0.000000 11.207562
#
#
# Mechanical properties :
#
#
# Convention : Reuss Voigt Hill
#
# Bulk Modulus (GPa) = 23.76802 35.69131 29.72967
# Shear Modulus (GPa) = 0.39465 33.79907 17.09686
#
# Velocity S-wave (km/s) = 0.38862 3.59641 2.55785
# Velocity P-wave (km/s) = 3.04907 5.55912 4.48334
#
# Compressibility (1/GPa) = 0.04207333
#
# Stress axis : x y z
#
# Youngs Moduli (GPa) = 34.02438 81.51546 104.35201
#
# Poissons Ratio (x) = 0.01907 0.37396
# Poissons Ratio (y) = 0.00796 0.07997
# Poissons Ratio (z) = 0.12193 0.06247
#
# Static dielectric constant tensor:
#      x y z
#    x 2.153050 0.000000 -0.026670 
#    y 0.000000 2.156650 0.000000 
#    z -0.026670 0.000000 2.099870 
# 
# From -- ./inp_files/12614.got.cif
#   From: 2010.05.17/outbox.cif.g08.bks.cpg/sg9_7_cif.got.tgz:12614.got - 2010.06.03 20:04:27.
