data_PCOD9139666
_publ_section_title
;
Structure prediction by ZEFSAII (Michael W. Deem and Ramdas Pophale) SiO2 
 PCOD9139666
Probable space group: C C
;
_chemical_formula_sum "Si O2"
_cell_formula_units_Z 28
_cell_length_a 13.765521
_cell_length_b 4.824653
_cell_length_c 16.962622
_cell_angle_alpha 90.000000
_cell_angle_beta 108.075946
_cell_angle_gamma 90.000000
_cell_volume 1070.953417
_symmetry_space_group_name_H-M "C C"
_symmetry_group_IT_number 9
_symmetry_cell_setting 'monoclinic'
loop_
_space_group_symop_operation_xyz
x,y,z
x,-y,1/2+z
1/2+x,1/2+y,z
1/2+x,1/2-y,1/2+z
loop_
_atom_site_type_symbol
_atom_site_label
_atom_site_fract_x
_atom_site_fract_y
_atom_site_fract_z
Si Si1 0.617280 0.791752 0.432200
Si Si2 0.631127 0.036303 0.160772
Si Si3 0.411912 0.938539 0.867308
Si Si4 0.924042 0.161328 0.605594
Si Si5 0.725937 0.508675 0.104372
Si Si6 0.818464 0.942437 0.921410
Si Si7 0.509349 0.254920 0.759950
O O1 0.522626 0.989288 0.432618
O O2 0.668936 0.623043 0.514920
O O3 0.705314 0.977341 0.416335
O O4 0.566593 0.607448 0.349357
O O5 0.526209 0.179030 0.108435
O O6 0.715802 0.274235 0.169787
O O7 0.666063 0.777218 0.118848
O O8 0.597576 0.914452 0.236321
O O9 0.332847 0.132328 0.894701
O O10 0.432305 0.041661 0.783622
O O11 0.368158 0.634863 0.866846
O O12 0.883046 0.008322 0.517734
O O13 0.955279 0.957066 0.684678
O O14 0.836256 0.378587 0.607321
#
# Coordination Sequence:
#
# PCOD9139666 Si02
#       7
#     4   4   4   4   4   4   4
#     4  10  27  52  73 120 152 205 264 328 377 496
#     4  12  28  53  77 117 157 213 260 341 394 476
#     4  10  28  49  77 110 155 208 255 326 390 470
#     4  12  29  51  81 123 155 209 267 342 382 498
#     4  12  28  49  87 110 158 212 275 314 410 472
#     4  12  26  49  82 108 150 209 267 309 400 468
#     4  10  28  53  77 114 175 196 270 334 409 460
#
# _framework density 26.144926999999999
#
# number of rings (size 3 to 8) (size 9 to 14) (size 15 to 20)
#    0.857    0.000    1.429    2.571   10.000    4.571 
#   10.286    0.000    0.000    0.000    0.000    0.000 
#    0.000    0.000    0.000    0.000    0.000    0.000 
#
# Total GULP energy -78487.056402 kJ/mol
# GULP energy per Si atom -5606.218314 kJ/mol
# Density = 2.608542 g / cm^3
# Si number density = 26.144927 Si / 1000 Ang^3
#
#
#
# Elastic Constant Matrix: (Units=GPa)
#
#
# Indices 1 2 3 4 5 6 
#
# 1 129.2001 34.5906 2.9981 0.0000 -31.6656 0.0000
# 2 34.5906 98.0600 6.0226 0.0000 -9.8166 0.0000
# 3 2.9981 6.0226 69.4788 0.0000 -7.8800 0.0000
# 4 0.0000 0.0000 0.0000 36.2062 0.0000 -7.7637
# 5 -31.6656 -9.8166 -7.8800 0.0000 34.8948 0.0000
# 6 0.0000 0.0000 0.0000 -7.7637 0.0000 57.5344
#
#
#
# Elastic Compliance Matrix: (Units=1/GPa)
#
#
# Indices 1 2 3 4 5 6 
#
# 1 0.010736 -0.002926 0.000823 0.000000 0.009105 0.000000
# 2 -0.002926 0.011314 -0.000816 0.000000 0.000343 0.000000
# 3 0.000823 -0.000816 0.014868 0.000000 0.003875 0.000000
# 4 0.000000 0.000000 0.000000 0.028443 0.000000 0.003838
# 5 0.009105 0.000343 0.003875 0.000000 0.037892 0.000000
# 6 0.000000 0.000000 0.000000 0.003838 0.000000 0.017899
#
#
# Mechanical properties :
#
#
# Convention : Reuss Voigt Hill
#
# Bulk Modulus (GPa) = 32.17445 42.66238 37.41842
# Shear Modulus (GPa) = 36.40382 42.60226 39.50304
#
# Velocity S-wave (km/s) = 3.73552 4.04104 3.89128
# Velocity P-wave (km/s) = 5.56223 6.17466 5.87643
#
# Compressibility (1/GPa) = 0.03108056
#
# Stress axis : x y z
#
# Youngs Moduli (GPa) = 93.14653 88.38223 67.26062
#
# Poissons Ratio (x) = 0.25862 -0.05536
# Poissons Ratio (y) = 0.27256 0.05485
# Poissons Ratio (z) = -0.07666 0.07208
#
# Static dielectric constant tensor:
#      x y z
#    x 2.000300 0.000000 0.002290 
#    y 0.000000 2.013660 0.000000 
#    z 0.002290 0.000000 2.095430 
# 
# From -- ./inp_files/30307.got.cif
#   From: 2010.05.17/outbox.cif.g08.bks.cpg/sg9_16_cif.got.tgz:30307.got - 2010.06.03 20:04:27.
