data_PCOD9139999
_publ_section_title
;
Structure prediction by ZEFSAII (Michael W. Deem and Ramdas Pophale) SiO2 
 PCOD9139999
Probable space group: C C
;
_chemical_formula_sum "Si O2"
_cell_formula_units_Z 32
_cell_length_a 12.668393
_cell_length_b 8.241472
_cell_length_c 15.076842
_cell_angle_alpha 90.000000
_cell_angle_beta 106.327905
_cell_angle_gamma 90.000000
_cell_volume 1510.629395
_symmetry_space_group_name_H-M "C C"
_symmetry_group_IT_number 9
_symmetry_cell_setting 'monoclinic'
loop_
_space_group_symop_operation_xyz
x,y,z
x,-y,1/2+z
1/2+x,1/2+y,z
1/2+x,1/2-y,1/2+z
loop_
_atom_site_type_symbol
_atom_site_label
_atom_site_fract_x
_atom_site_fract_y
_atom_site_fract_z
Si Si1 0.296270 0.673183 0.515180
Si Si2 0.137596 0.831759 0.356911
Si Si3 0.000408 0.622819 0.013010
Si Si4 0.559410 0.306436 0.865507
Si Si5 0.933715 0.371563 0.839631
Si Si6 0.325605 0.833015 0.250104
Si Si7 0.767326 0.094014 0.855333
Si Si8 0.722051 0.949950 0.652629
O O1 0.190349 0.779156 0.462957
O O2 0.397341 0.796586 0.536522
O O3 0.300302 0.536098 0.438214
O O4 0.281495 0.574184 0.601146
O O5 0.235769 0.830221 0.308482
O O6 0.041409 0.701699 0.318714
O O7 0.088329 0.010469 0.349456
O O8 0.093989 0.552263 0.097756
O O9 0.965519 0.490398 0.929764
O O10 0.052229 0.769811 0.968039
O O11 0.439668 0.259490 0.799393
O O12 0.655675 0.188128 0.854336
O O13 0.862803 0.480260 0.754830
O O14 0.862263 0.225634 0.862075
O O15 0.270541 0.732831 0.157833
O O16 0.745282 0.005560 0.757567
#
# Coordination Sequence:
#
# PCOD9139999 Si02
#       8
#     4   4   4   4   4   4   4   4
#     4  12  23  48  69 100 146 183 231 290 347 421
#     4  12  21  43  77  97 136 186 231 286 343 416
#     4  11  23  45  71 104 139 185 234 291 349 417
#     4  11  22  45  76  99 137 188 232 285 359 415
#     4  11  22  44  77 101 136 195 230 285 359 416
#     4  11  24  44  68 104 138 178 234 280 350 414
#     4  12  23  47  75 101 146 187 233 292 354 416
#     4  12  26  44  65 108 144 182 237 291 345 417
#
# _framework density 21.183225
#
# number of rings (size 3 to 8) (size 9 to 14) (size 15 to 20)
#    0.000    0.500    7.500    2.250    0.000    2.000 
#    4.500    0.000    0.000    0.000    0.000    0.000 
#    0.000    0.000    0.000    0.000    0.000    0.000 
#
# Total GULP energy -89446.809952 kJ/mol
# GULP energy per Si atom -5590.425622 kJ/mol
# Density = 2.113501 g / cm^3
# Si number density = 21.183225 Si / 1000 Ang^3
#
#
#
# Elastic Constant Matrix: (Units=GPa)
#
#
# Indices 1 2 3 4 5 6 
#
# 1 120.8240 40.8523 6.1398 0.0000 9.6825 0.0000
# 2 40.8523 110.0286 4.4986 0.0000 7.6197 0.0000
# 3 6.1398 4.4986 39.4590 0.0000 5.1288 0.0000
# 4 0.0000 0.0000 0.0000 19.8799 0.0000 6.6019
# 5 9.6825 7.6197 5.1288 0.0000 25.4063 0.0000
# 6 0.0000 0.0000 0.0000 6.6019 0.0000 56.9412
#
#
#
# Elastic Compliance Matrix: (Units=1/GPa)
#
#
# Indices 1 2 3 4 5 6 
#
# 1 0.009661 -0.003381 -0.000792 0.000000 -0.002508 0.000000
# 2 -0.003381 0.010484 -0.000440 0.000000 -0.001767 0.000000
# 3 -0.000792 -0.000440 0.026146 0.000000 -0.004844 0.000000
# 4 0.000000 0.000000 0.000000 0.052317 0.000000 -0.006066
# 5 -0.002508 -0.001767 -0.004844 0.000000 0.041824 0.000000
# 6 0.000000 0.000000 0.000000 -0.006066 0.000000 0.018265
#
#
# Mechanical properties :
#
#
# Convention : Reuss Voigt Hill
#
# Bulk Modulus (GPa) = 26.97866 41.47701 34.22784
# Shear Modulus (GPa) = 27.73517 35.03354 31.38435
#
# Velocity S-wave (km/s) = 3.62235 4.07115 3.85329
# Velocity P-wave (km/s) = 5.50079 6.45923 5.99918
#
# Compressibility (1/GPa) = 0.03706633
#
# Stress axis : x y z
#
# Youngs Moduli (GPa) = 103.51057 95.38181 38.24715
#
# Poissons Ratio (x) = 0.32248 0.03028
# Poissons Ratio (y) = 0.34996 0.01681
# Poissons Ratio (z) = 0.08196 0.04192
#
# Static dielectric constant tensor:
#      x y z
#    x 1.782390 0.000000 0.013290 
#    y 0.000000 1.795860 0.000000 
#    z 0.013290 0.000000 1.757630 
# 
# From -- ./inp_files/24399.got.cif
#   From: 2010.05.17/outbox.cif.g08.bks.cpg/sg9_13_cif.got.tgz:24399.got - 2010.06.03 20:04:27.
