data_PCOD9139594
_publ_section_title
;
Structure prediction by ZEFSAII (Michael W. Deem and Ramdas Pophale) SiO2 
 PCOD9139594
Probable space group: C C
;
_chemical_formula_sum "Si O2"
_cell_formula_units_Z 28
_cell_length_a 26.785012
_cell_length_b 5.706093
_cell_length_c 9.592396
_cell_angle_alpha 90.000000
_cell_angle_beta 53.827028
_cell_angle_gamma 90.000000
_cell_volume 1183.477030
_symmetry_space_group_name_H-M "C C"
_symmetry_group_IT_number 9
_symmetry_cell_setting 'monoclinic'
loop_
_space_group_symop_operation_xyz
x,y,z
x,-y,1/2+z
1/2+x,1/2+y,z
1/2+x,1/2-y,1/2+z
loop_
_atom_site_type_symbol
_atom_site_label
_atom_site_fract_x
_atom_site_fract_y
_atom_site_fract_z
Si Si1 0.728520 0.066946 0.990200
Si Si2 0.825803 0.699417 0.481182
Si Si3 0.098551 0.717624 0.158209
Si Si4 0.997273 0.388390 0.233499
Si Si5 0.799202 0.815127 0.096472
Si Si6 0.441270 0.783968 0.604373
Si Si7 0.063187 0.000751 0.473255
O O1 0.754879 0.269396 0.049128
O O2 0.751053 0.144623 0.800722
O O3 0.655219 0.055213 0.108035
O O4 0.764764 0.850405 0.002140
O O5 0.828815 0.443954 0.544808
O O6 0.871613 0.736369 0.274147
O O7 0.839099 0.941119 0.543603
O O8 0.032831 0.588885 0.261257
O O9 0.092540 0.922593 0.280977
O O10 0.103870 0.817888 0.993476
O O11 0.051359 0.221943 0.090505
O O12 0.951153 0.285824 0.423380
O O13 0.963092 0.486428 0.154638
O O14 0.493347 0.598436 0.567892
#
# Coordination Sequence:
#
# PCOD9139594 Si02
#       7
#     4   4   4   4   4   4   4
#     4  10  27  44  72 103 144 186 235 293 356 424
#     4  10  27  45  74 102 143 185 239 288 358 414
#     4  11  25  44  70 101 138 184 228 293 348 431
#     4  11  24  41  65  99 139 175 229 281 354 408
#     4  10  26  46  68 108 138 186 237 282 359 412
#     4  11  25  42  69 100 135 185 228 294 345 426
#     4  11  24  44  66 103 137 179 232 283 358 411
#
# _framework density 23.659099999999999
#
# number of rings (size 3 to 8) (size 9 to 14) (size 15 to 20)
#    0.857    0.571    2.857    0.000   10.000    1.143 
#    0.000    0.000    0.000    0.000    0.000    0.000 
#    0.000    0.000    0.000    0.000    0.000    0.000 
#
# Total GULP energy -78025.435086 kJ/mol
# GULP energy per Si atom -5573.245363 kJ/mol
# Density = 2.360525 g / cm^3
# Si number density = 23.659100 Si / 1000 Ang^3
#
#
#
# Elastic Constant Matrix: (Units=GPa)
#
#
# Indices 1 2 3 4 5 6 
#
# 1 71.4137 8.0660 -6.0529 0.0000 0.6106 0.0000
# 2 8.0660 97.5430 9.2472 0.0000 7.4693 0.0000
# 3 -6.0529 9.2472 67.6734 0.0000 14.5625 0.0000
# 4 0.0000 0.0000 0.0000 27.2673 0.0000 5.8345
# 5 0.6106 7.4693 14.5625 0.0000 21.7634 0.0000
# 6 0.0000 0.0000 0.0000 5.8345 0.0000 13.9499
#
#
#
# Elastic Compliance Matrix: (Units=1/GPa)
#
#
# Indices 1 2 3 4 5 6 
#
# 1 0.014297 -0.001258 0.001687 0.000000 -0.001098 0.000000
# 2 -0.001258 0.010674 -0.000923 0.000000 -0.003010 0.000000
# 3 0.001687 -0.000923 0.017518 0.000000 -0.011452 0.000000
# 4 0.000000 0.000000 0.000000 0.040279 0.000000 -0.016846
# 5 -0.001098 -0.003010 -0.011452 0.000000 0.054676 0.000000
# 6 0.000000 0.000000 0.000000 -0.016846 0.000000 0.078731
#
#
# Mechanical properties :
#
#
# Convention : Reuss Voigt Hill
#
# Bulk Modulus (GPa) = 24.09585 28.79453 26.44519
# Shear Modulus (GPa) = 21.64522 27.62076 24.63299
#
# Velocity S-wave (km/s) = 3.02798 3.42050 3.23021
# Velocity P-wave (km/s) = 4.73620 5.27226 5.01140
#
# Compressibility (1/GPa) = 0.04150092
#
# Stress axis : x y z
#
# Youngs Moduli (GPa) = 69.94286 93.68587 57.08300
#
# Poissons Ratio (x) = 0.11787 -0.09630
# Poissons Ratio (y) = 0.08800 0.05270
# Poissons Ratio (z) = -0.11800 0.08650
#
# Static dielectric constant tensor:
#      x y z
#    x 1.900080 0.000000 0.002440 
#    y 0.000000 1.954120 0.000000 
#    z 0.002440 0.000000 1.887530 
# 
# From -- ./inp_files/11930.got.cif
#   From: 2010.05.17/outbox.cif.g08.bks.cpg/sg9_6_cif.got.tgz:11930.got - 2010.06.03 20:04:27.
