data_PCOD9139222
_publ_section_title
;
Structure prediction by ZEFSAII (Michael W. Deem and Ramdas Pophale) SiO2 
 PCOD9139222
Probable space group: C C
;
_chemical_formula_sum "Si O2"
_cell_formula_units_Z 20
_cell_length_a 4.901967
_cell_length_b 20.706880
_cell_length_c 7.692833
_cell_angle_alpha 90.000000
_cell_angle_beta 77.955775
_cell_angle_gamma 90.000000
_cell_volume 763.667591
_symmetry_space_group_name_H-M "C C"
_symmetry_group_IT_number 9
_symmetry_cell_setting 'monoclinic'
loop_
_space_group_symop_operation_xyz
x,y,z
x,-y,1/2+z
1/2+x,1/2+y,z
1/2+x,1/2-y,1/2+z
loop_
_atom_site_type_symbol
_atom_site_label
_atom_site_fract_x
_atom_site_fract_y
_atom_site_fract_z
Si Si1 0.383090 0.915496 0.735770
Si Si2 0.115220 0.201377 0.350709
Si Si3 0.395107 0.407347 0.424737
Si Si4 0.140937 0.219419 0.750315
Si Si5 0.160594 0.969266 0.085158
O O1 0.111157 0.868650 0.760436
O O2 0.611697 0.892481 0.566524
O O3 0.348544 0.990134 0.691433
O O4 0.370639 0.923715 0.947378
O O5 0.057728 0.202387 0.563346
O O6 0.439786 0.220320 0.312475
O O7 0.942514 0.253659 0.264466
O O8 0.567293 0.340990 0.382407
O O9 0.418590 0.431765 0.221022
O O10 0.519545 0.470459 0.503686
#
# Coordination Sequence:
#
# PCOD9139222 Si02
#       5
#     4   4   4   4   4
#     4  11  24  46  75 110 154 202 260 324 393 473
#     4  12  28  50  77 113 157 207 264 329 396 467
#     4  11  24  46  75 110 154 202 260 324 393 473
#     4  12  28  50  77 113 157 207 264 329 396 467
#     4  10  24  46  72 110 154 200 262 316 398 466
#
# _framework density 26.189402000000001
#
# number of rings (size 3 to 8) (size 9 to 14) (size 15 to 20)
#    0.000    0.800    2.000    3.600   11.200    0.000 
#    0.000    0.000    0.000    0.000    0.000    0.000 
#    0.000    0.000    0.000    0.000    0.000    0.000 
#
# Total GULP energy -55717.557733 kJ/mol
# GULP energy per Si atom -5571.755773 kJ/mol
# Density = 2.612979 g / cm^3
# Si number density = 26.189402 Si / 1000 Ang^3
#
#
#
# Elastic Constant Matrix: (Units=GPa)
#
#
# Indices 1 2 3 4 5 6 
#
# 1 62.0433 10.5129 43.4479 0.0000 -9.9577 0.0000
# 2 10.5129 121.3138 64.5278 0.0000 -13.2346 0.0000
# 3 43.4479 64.5278 188.2458 0.0000 -24.4278 0.0000
# 4 0.0000 0.0000 0.0000 1022.3877 0.0000 10.8380
# 5 -9.9577 -13.2346 -24.4278 0.0000 37.2306 0.0000
# 6 0.0000 0.0000 0.0000 10.8380 0.0000 38.2134
#
#
#
# Elastic Compliance Matrix: (Units=1/GPa)
#
#
# Indices 1 2 3 4 5 6 
#
# 1 0.019526 0.000991 -0.004507 0.000000 0.002618 0.000000
# 2 0.000991 0.010202 -0.003521 0.000000 0.001582 0.000000
# 3 -0.004507 -0.003521 0.007914 0.000000 0.002736 0.000000
# 4 0.000000 0.000000 0.000000 0.000981 0.000000 -0.000278
# 5 0.002618 0.001582 0.002736 0.000000 0.029917 0.000000
# 6 0.000000 0.000000 0.000000 -0.000278 0.000000 0.026248
#
#
# Mechanical properties :
#
#
# Convention : Reuss Voigt Hill
#
# Bulk Modulus (GPa) = 42.42802 67.62001 55.02402
# Shear Modulus (GPa) = 42.83831 236.44063 139.63947
#
# Velocity S-wave (km/s) = 4.04878 9.51194 7.30991
# Velocity P-wave (km/s) = 6.17191 12.10420 9.60740
#
# Compressibility (1/GPa) = 0.02356933
#
# Stress axis : x y z
#
# Youngs Moduli (GPa) = 51.21407 98.01574 126.35593
#
# Poissons Ratio (x) = -0.09709 0.56942
# Poissons Ratio (y) = -0.05073 0.44485
# Poissons Ratio (z) = 0.23080 0.34508
#
# Static dielectric constant tensor:
#      x y z
#    x 2.097030 0.000000 0.067510 
#    y 0.000000 -6.326670 0.000000 
#    z 0.067510 0.000000 2.162650 
# 
# From -- ./inp_files/3742.got.cif
#   From: 2010.05.17/outbox.cif.g08.bks.cpg/sg9_2_cif.got.tgz:3742.got - 2010.06.03 20:04:27.
