data_PCOD9139191
_publ_section_title
;
Structure prediction by ZEFSAII (Michael W. Deem and Ramdas Pophale) SiO2 
 PCOD9139191
Probable space group: C C
;
_chemical_formula_sum "Si O2"
_cell_formula_units_Z 32
_cell_length_a 18.209950
_cell_length_b 14.270258
_cell_length_c 13.134875
_cell_angle_alpha 90.000000
_cell_angle_beta 159.714002
_cell_angle_gamma 90.000000
_cell_volume 1183.391457
_symmetry_space_group_name_H-M "C C"
_symmetry_group_IT_number 9
_symmetry_cell_setting 'monoclinic'
loop_
_space_group_symop_operation_xyz
x,y,z
x,-y,1/2+z
1/2+x,1/2+y,z
1/2+x,1/2-y,1/2+z
loop_
_atom_site_type_symbol
_atom_site_label
_atom_site_fract_x
_atom_site_fract_y
_atom_site_fract_z
Si Si1 0.490540 0.632848 0.315870
Si Si2 0.476033 0.121465 0.901817
Si Si3 0.954548 0.726301 0.457652
Si Si4 0.033656 0.063914 0.768618
Si Si5 0.496420 0.297903 0.037415
Si Si6 0.328558 0.824016 0.003382
Si Si7 0.034615 0.432428 0.940499
Si Si8 0.684701 0.167301 0.447035
O O1 0.748639 0.634779 0.660096
O O2 0.455175 0.539661 0.203061
O O3 0.394669 0.646281 0.305566
O O4 0.408615 0.723669 0.149481
O O5 0.408040 0.110251 0.695391
O O6 0.604147 0.027323 0.087318
O O7 0.601235 0.215859 0.092827
O O8 0.904979 0.661967 0.489449
O O9 0.112566 0.660624 0.598790
O O10 0.079012 0.815526 0.663085
O O11 0.785798 0.758159 0.155834
O O12 0.048978 0.109756 0.675125
O O13 0.876615 0.129350 0.629249
O O14 0.280003 0.065229 0.123749
O O15 0.516887 0.221001 0.158119
O O16 0.091395 0.414203 0.897013
#
# Coordination Sequence:
#
# PCOD9139191 Si02
#       8
#     4   4   4   4   4   4   4   4
#     4  10  24  46  69 106 144 190 244 302 372 439
#     4  10  24  46  68 108 145 192 242 302 371 443
#     4  12  22  43  69 100 139 188 240 296 361 437
#     4  11  25  46  71 106 143 188 242 301 368 435
#     4  11  24  46  78 102 151 195 240 310 375 443
#     4  11  23  42  72  94 143 189 235 296 367 433
#     4  11  25  45  70 106 147 187 247 299 367 438
#     4  12  25  46  71 110 142 193 246 304 367 444
#
# _framework density 27.040925999999999
#
# number of rings (size 3 to 8) (size 9 to 14) (size 15 to 20)
#    0.000    1.000    3.750    2.250    1.750    4.000 
#   11.250    0.000    0.000    0.000    0.000    0.000 
#    0.000    0.000    0.000    0.000    0.000    0.000 
#
# Total GULP energy -89105.792800 kJ/mol
# GULP energy per Si atom -5569.112050 kJ/mol
# Density = 2.697938 g / cm^3
# Si number density = 27.040926 Si / 1000 Ang^3
#
#
#
# Elastic Constant Matrix: (Units=GPa)
#
#
# Indices 1 2 3 4 5 6 
#
# 1 153.5321 32.4157 37.1641 0.0000 -29.1679 0.0000
# 2 32.4157 149.9931 28.8246 0.0000 -17.4345 0.0000
# 3 37.1641 28.8246 120.3903 0.0000 -13.1892 0.0000
# 4 0.0000 0.0000 0.0000 33.1107 0.0000 -13.6423
# 5 -29.1679 -17.4345 -13.1892 0.0000 58.2728 0.0000
# 6 0.0000 0.0000 0.0000 -13.6423 0.0000 62.6832
#
#
#
# Elastic Compliance Matrix: (Units=1/GPa)
#
#
# Indices 1 2 3 4 5 6 
#
# 1 0.007761 -0.000958 -0.001817 0.000000 0.003187 0.000000
# 2 -0.000958 0.007286 -0.001295 0.000000 0.001408 0.000000
# 3 -0.001817 -0.001295 0.009265 0.000000 0.000800 0.000000
# 4 0.000000 0.000000 0.000000 0.033177 0.000000 0.007221
# 5 0.003187 0.001408 0.000800 0.000000 0.019358 0.000000
# 6 0.000000 0.000000 0.000000 0.007221 0.000000 0.017525
#
#
# Mechanical properties :
#
#
# Convention : Reuss Voigt Hill
#
# Bulk Modulus (GPa) = 61.83214 68.96936 65.40075
# Shear Modulus (GPa) = 46.33846 52.51408 49.42627
#
# Velocity S-wave (km/s) = 4.14411 4.41162 4.27995
# Velocity P-wave (km/s) = 6.76860 7.17710 6.97584
#
# Compressibility (1/GPa) = 0.01617282
#
# Stress axis : x y z
#
# Youngs Moduli (GPa) = 128.85283 137.24294 107.93356
#
# Poissons Ratio (x) = 0.13142 0.19615
# Poissons Ratio (y) = 0.12338 0.13975
# Poissons Ratio (z) = 0.23417 0.17769
#
# Static dielectric constant tensor:
#      x y z
#    x 2.271240 0.000000 0.142460 
#    y 0.000000 2.030420 0.000000 
#    z 0.142460 0.000000 2.173200 
# 
# From -- ./inp_files/19421.got.cif
#   From: 2010.05.17/outbox.cif.g08.bks.cpg/sg9_10_cif.got.tgz:19421.got - 2010.06.03 20:04:27.
