data_PCOD9139465
_publ_section_title
;
Structure prediction by ZEFSAII (Michael W. Deem and Ramdas Pophale) SiO2 
 PCOD9139465
Probable space group: C C
;
_chemical_formula_sum "Si O2"
_cell_formula_units_Z 28
_cell_length_a 30.017636
_cell_length_b 5.167863
_cell_length_c 8.965031
_cell_angle_alpha 90.000000
_cell_angle_beta 120.101315
_cell_angle_gamma 90.000000
_cell_volume 1203.166196
_symmetry_space_group_name_H-M "C C"
_symmetry_group_IT_number 9
_symmetry_cell_setting 'monoclinic'
loop_
_space_group_symop_operation_xyz
x,y,z
x,-y,1/2+z
1/2+x,1/2+y,z
1/2+x,1/2-y,1/2+z
loop_
_atom_site_type_symbol
_atom_site_label
_atom_site_fract_x
_atom_site_fract_y
_atom_site_fract_z
Si Si1 0.415280 0.307052 0.936680
Si Si2 0.295285 0.772609 0.298749
Si Si3 0.135713 0.295223 0.146438
Si Si4 0.256406 0.724751 0.901554
Si Si5 0.454917 0.810521 0.833133
Si Si6 0.049286 0.357890 0.500722
Si Si7 0.573355 0.502968 0.293350
O O1 0.353978 0.290265 0.855010
O O2 0.434939 0.578125 0.902709
O O3 0.430186 0.078362 0.848122
O O4 0.439078 0.250812 0.138496
O O5 0.277355 0.551347 0.382812
O O6 0.286205 0.048205 0.362969
O O7 0.263861 0.760619 0.090917
O O8 0.110254 0.579502 0.096594
O O9 0.111808 0.154439 0.963616
O O10 0.196247 0.272622 0.258540
O O11 0.109043 0.172611 0.246320
O O12 0.515539 0.883002 0.943878
O O13 0.038192 0.185355 0.337548
O O14 0.041751 0.193461 0.636766
#
# Coordination Sequence:
#
# PCOD9139465 Si02
#       7
#     4   4   4   4   4   4   4
#     4  12  27  52  78 111 150 197 255 322 379 448
#     4  12  26  50  76 112 152 195 254 318 381 451
#     4  11  25  42  71 103 151 192 250 304 370 452
#     4  12  27  44  79 112 151 200 251 307 387 448
#     4  12  29  48  80 110 148 200 258 308 386 450
#     4  11  27  44  72 105 152 200 258 306 378 451
#     4  10  25  46  68  99 156 198 244 307 371 440
#
# _framework density 23.271932
#
# number of rings (size 3 to 8) (size 9 to 14) (size 15 to 20)
#    0.000    0.571    0.000    6.000   16.000    0.000 
#    0.000    0.000    0.000    0.000    0.000    0.000 
#    0.000    0.000    0.000    0.000    0.000    0.000 
#
# Total GULP energy -78523.237773 kJ/mol
# GULP energy per Si atom -5608.802698 kJ/mol
# Density = 2.321896 g / cm^3
# Si number density = 23.271932 Si / 1000 Ang^3
#
#
#
# Elastic Constant Matrix: (Units=GPa)
#
#
# Indices 1 2 3 4 5 6 
#
# 1 76.8229 20.9779 20.6024 0.0000 19.7592 0.0000
# 2 20.9779 114.4549 20.3937 0.0000 -0.0823 0.0000
# 3 20.6024 20.3937 85.2828 0.0000 -17.1782 0.0000
# 4 0.0000 0.0000 0.0000 29.1746 0.0000 -6.4389
# 5 19.7592 -0.0823 -17.1782 0.0000 45.0417 0.0000
# 6 0.0000 0.0000 0.0000 -6.4389 0.0000 35.2356
#
#
#
# Elastic Compliance Matrix: (Units=1/GPa)
#
#
# Indices 1 2 3 4 5 6 
#
# 1 0.017740 -0.002232 -0.005763 0.000000 -0.009984 0.000000
# 2 -0.002232 0.009439 -0.001644 0.000000 0.000369 0.000000
# 3 -0.005763 -0.001644 0.015186 0.000000 0.008317 0.000000
# 4 0.000000 0.000000 0.000000 0.035717 0.000000 0.006527
# 5 -0.009984 0.000369 0.008317 0.000000 0.029754 0.000000
# 6 0.000000 0.000000 0.000000 0.006527 0.000000 0.029573
#
#
# Mechanical properties :
#
#
# Convention : Reuss Voigt Hill
#
# Bulk Modulus (GPa) = 43.31151 44.50094 43.90623
# Shear Modulus (GPa) = 30.41690 36.19616 33.30653
#
# Velocity S-wave (km/s) = 3.61920 3.94808 3.78721
# Velocity P-wave (km/s) = 6.00968 6.32035 6.16697
#
# Compressibility (1/GPa) = 0.02308855
#
# Stress axis : x y z
#
# Youngs Moduli (GPa) = 56.37029 105.94066 65.84943
#
# Poissons Ratio (x) = 0.23644 0.37949
# Poissons Ratio (y) = 0.12581 0.10823
# Poissons Ratio (z) = 0.32486 0.17413
#
# Static dielectric constant tensor:
#      x y z
#    x 1.883230 0.000000 0.016490 
#    y 0.000000 1.889410 0.000000 
#    z 0.016490 0.000000 1.852680 
# 
# From -- ./inp_files/12643.got.cif
#   From: 2010.05.17/outbox.cif.g08.bks.cpg/sg9_7_cif.got.tgz:12643.got - 2010.06.03 20:04:27.
