data_PCOD9139586
_publ_section_title
;
Structure prediction by ZEFSAII (Michael W. Deem and Ramdas Pophale) SiO2 
 PCOD9139586
Probable space group: C C
;
_chemical_formula_sum "Si O2"
_cell_formula_units_Z 32
_cell_length_a 14.482190
_cell_length_b 13.985312
_cell_length_c 9.284801
_cell_angle_alpha 90.000000
_cell_angle_beta 135.550918
_cell_angle_gamma 90.000000
_cell_volume 1316.884555
_symmetry_space_group_name_H-M "C C"
_symmetry_group_IT_number 9
_symmetry_cell_setting 'monoclinic'
loop_
_space_group_symop_operation_xyz
x,y,z
x,-y,1/2+z
1/2+x,1/2+y,z
1/2+x,1/2-y,1/2+z
loop_
_atom_site_type_symbol
_atom_site_label
_atom_site_fract_x
_atom_site_fract_y
_atom_site_fract_z
Si Si1 0.663390 0.042902 0.183550
Si Si2 0.832544 0.928386 0.600731
Si Si3 0.562085 0.696826 0.265934
Si Si4 0.497449 0.203094 0.166795
Si Si5 0.546498 0.617462 0.536002
Si Si6 0.268007 0.098771 0.300372
Si Si7 0.032236 0.660511 0.513895
Si Si8 0.773541 0.441627 0.491316
O O1 0.775548 0.000149 0.417561
O O2 0.573970 0.949772 0.044014
O O3 0.722532 0.082485 0.100961
O O4 0.583859 0.126654 0.174188
O O5 0.909316 0.837799 0.614128
O O6 0.954964 0.955831 0.844743
O O7 0.618521 0.675730 0.486925
O O8 0.638571 0.634212 0.233891
O O9 0.588695 0.799100 0.225228
O O10 0.476465 0.299248 0.052499
O O11 0.564388 0.214794 0.400181
O O12 0.361287 0.149775 0.051523
O O13 0.641486 0.568595 0.753757
O O14 0.376445 0.174181 0.369455
O O15 0.342828 0.033810 0.501109
O O16 0.244610 0.044354 0.125323
#
# Coordination Sequence:
#
# PCOD9139586 Si02
#       8
#     4   4   4   4   4   4   4   4
#     4  12  24  48  74 104 148 190 250 300 372 442
#     4  10  28  46  68 108 144 194 238 306 364 444
#     4  10  26  45  68 100 143 189 238 297 365 430
#     4  11  25  45  70 106 141 192 237 304 362 438
#     4  10  26  45  68 100 143 189 238 297 365 430
#     4  11  24  43  69 101 137 180 237 293 358 426
#     4  11  25  45  70 106 141 192 237 304 362 438
#     4  11  24  43  69 101 137 180 237 293 358 426
#
# _framework density 24.299776999999999
#
# number of rings (size 3 to 8) (size 9 to 14) (size 15 to 20)
#    0.750    0.500    2.500    1.500    7.000    2.000 
#    2.250    0.000    0.000    0.000    0.000    0.000 
#    0.000    0.000    0.000    0.000    0.000    0.000 
#
# Total GULP energy -89203.718126 kJ/mol
# GULP energy per Si atom -5575.232383 kJ/mol
# Density = 2.424447 g / cm^3
# Si number density = 24.299777 Si / 1000 Ang^3
#
#
#
# Elastic Constant Matrix: (Units=GPa)
#
#
# Indices 1 2 3 4 5 6 
#
# 1 155.8325 31.9083 36.1579 0.0000 -40.2498 0.0000
# 2 31.9083 56.3458 12.0428 0.0000 -10.0722 0.0000
# 3 36.1579 12.0428 99.2961 0.0000 -29.6268 0.0000
# 4 0.0000 0.0000 0.0000 20.6928 0.0000 -46.1179
# 5 -40.2498 -10.0722 -29.6268 0.0000 43.5904 0.0000
# 6 0.0000 0.0000 0.0000 -46.1179 0.0000 -104.3703
#
#
#
# Elastic Compliance Matrix: (Units=1/GPa)
#
#
# Indices 1 2 3 4 5 6 
#
# 1 0.009204 -0.003778 -0.000775 0.000000 0.007099 0.000000
# 2 -0.003778 0.020180 -0.000905 0.000000 0.000560 0.000000
# 3 -0.000775 -0.000905 0.012778 0.000000 0.007760 0.000000
# 4 0.000000 0.000000 0.000000 0.024348 0.000000 -0.010759
# 5 0.007099 0.000560 0.007760 0.000000 0.034899 0.000000
# 6 0.000000 0.000000 0.000000 -0.010759 0.000000 -0.004827
#
#
# Mechanical properties :
#
#
# Convention : Reuss Voigt Hill
#
# Bulk Modulus (GPa) = 32.00306 52.41028 42.20667
# Shear Modulus (GPa) = 42.40383 7.40694 24.90539
#
# Velocity S-wave (km/s) = 4.18189 1.74779 3.20491
# Velocity P-wave (km/s) = 6.04287 5.06834 5.57693
#
# Compressibility (1/GPa) = 0.03124701
#
# Stress axis : x y z
#
# Youngs Moduli (GPa) = 108.64707 49.55347 78.25780
#
# Poissons Ratio (x) = 0.18719 0.06068
# Poissons Ratio (y) = 0.41042 0.07081
# Poissons Ratio (z) = 0.08424 0.04484
#
# Static dielectric constant tensor:
#      x y z
#    x 1.920250 0.000000 0.051240 
#    y 0.000000 2.029410 0.000000 
#    z 0.051240 0.000000 2.035380 
# 
# From -- ./inp_files/9900.got.cif
#   From: 2010.05.17/outbox.cif.g08.bks.cpg/sg9_5_cif.got.tgz:9900.got - 2010.06.03 20:04:27.
