data_PCOD9139313
_publ_section_title
;
Structure prediction by ZEFSAII (Michael W. Deem and Ramdas Pophale) SiO2 
 PCOD9139313
Probable space group: C C
;
_chemical_formula_sum "Si O2"
_cell_formula_units_Z 20
_cell_length_a 6.597265
_cell_length_b 12.707534
_cell_length_c 9.494590
_cell_angle_alpha 90.000000
_cell_angle_beta 106.847428
_cell_angle_gamma 90.000000
_cell_volume 761.815190
_symmetry_space_group_name_H-M "C C"
_symmetry_group_IT_number 9
_symmetry_cell_setting 'monoclinic'
loop_
_space_group_symop_operation_xyz
x,y,z
x,-y,1/2+z
1/2+x,1/2+y,z
1/2+x,1/2-y,1/2+z
loop_
_atom_site_type_symbol
_atom_site_label
_atom_site_fract_x
_atom_site_fract_y
_atom_site_fract_z
Si Si1 0.478440 0.562805 0.642250
Si Si2 0.173205 0.365081 0.299127
Si Si3 0.610942 0.215447 0.095187
Si Si4 0.105079 0.586934 0.350332
Si Si5 0.205399 0.158739 0.172930
O O1 0.400584 0.596804 0.782549
O O2 0.616741 0.659863 0.614707
O O3 0.261470 0.567641 0.508564
O O4 0.578141 0.448631 0.645669
O O5 0.180110 0.325933 0.459701
O O6 0.044614 0.473523 0.273793
O O7 0.094163 0.267993 0.188632
O O8 0.715159 0.155188 0.249122
O O9 0.884839 0.645052 0.332084
O O10 0.861188 0.319271 0.571274
#
# Coordination Sequence:
#
# PCOD9139313 Si02
#       5
#     4   4   4   4   4
#     4  11  24  49  80 106 154 207 249 306 394 445
#     4  11  23  47  78 108 154 197 252 316 372 450
#     4   9  24  48  71 114 156 191 255 317 372 450
#     4  10  24  49  72 111 155 195 251 316 373 460
#     4   9  25  49  71 111 151 200 249 313 375 453
#
# _framework density 26.253087000000001
#
# number of rings (size 3 to 8) (size 9 to 14) (size 15 to 20)
#    1.200    0.800    0.000    1.200    2.800    6.400 
#    7.200    0.000    4.400    0.000    0.000    0.000 
#    0.000    0.000    0.000    0.000    0.000    0.000 
#
# Total GULP energy -55942.090941 kJ/mol
# GULP energy per Si atom -5594.209094 kJ/mol
# Density = 2.619333 g / cm^3
# Si number density = 26.253087 Si / 1000 Ang^3
#
#
#
# Elastic Constant Matrix: (Units=GPa)
#
#
# Indices 1 2 3 4 5 6 
#
# 1 82.3795 48.6946 42.1568 0.0000 0.1705 0.0000
# 2 48.6946 235.6029 50.8923 0.0000 -15.1226 0.0000
# 3 42.1568 50.8923 125.7097 0.0000 -19.8351 0.0000
# 4 0.0000 0.0000 0.0000 26.2740 0.0000 -3.7415
# 5 0.1705 -15.1226 -19.8351 0.0000 37.2550 0.0000
# 6 0.0000 0.0000 0.0000 -3.7415 0.0000 57.6212
#
#
#
# Elastic Compliance Matrix: (Units=1/GPa)
#
#
# Indices 1 2 3 4 5 6 
#
# 1 0.016191 -0.002506 -0.005008 0.000000 -0.003758 0.000000
# 2 -0.002506 0.005071 -0.000967 0.000000 0.001555 0.000000
# 3 -0.005008 -0.000967 0.010882 0.000000 0.005424 0.000000
# 4 0.000000 0.000000 0.000000 0.038416 0.000000 0.002494
# 5 -0.003758 0.001555 0.005424 0.000000 0.030378 0.000000
# 6 0.000000 0.000000 0.000000 0.002494 0.000000 0.017517
#
#
# Mechanical properties :
#
#
# Convention : Reuss Voigt Hill
#
# Bulk Modulus (GPa) = 65.87064 80.79773 73.33418
# Shear Modulus (GPa) = 35.59317 44.35994 39.97655
#
# Velocity S-wave (km/s) = 3.68607 4.11506 3.90646
# Velocity P-wave (km/s) = 6.57733 7.30901 6.95280
#
# Compressibility (1/GPa) = 0.01518127
#
# Stress axis : x y z
#
# Youngs Moduli (GPa) = 61.76410 197.19707 91.89746
#
# Poissons Ratio (x) = 0.49412 0.46022
# Poissons Ratio (y) = 0.15476 0.08890
# Poissons Ratio (z) = 0.30932 0.19076
#
# Static dielectric constant tensor:
#      x y z
#    x 2.163320 0.000000 0.008080 
#    y 0.000000 2.014960 0.000000 
#    z 0.008080 0.000000 2.060640 
# 
# From -- ./inp_files/4762.got.cif
#   From: 2010.05.17/outbox.cif.g08.bks.cpg/sg9_3_cif.got.tgz:4762.got - 2010.06.03 20:04:27.
