data_PCOD9139939
_publ_section_title
;
Structure prediction by ZEFSAII (Michael W. Deem and Ramdas Pophale) SiO2 
 PCOD9139939
Probable space group: C C
;
_chemical_formula_sum "Si O2"
_cell_formula_units_Z 32
_cell_length_a 14.263978
_cell_length_b 14.367464
_cell_length_c 21.056287
_cell_angle_alpha 90.000000
_cell_angle_beta 160.634323
_cell_angle_gamma 90.000000
_cell_volume 1430.908616
_symmetry_space_group_name_H-M "C C"
_symmetry_group_IT_number 9
_symmetry_cell_setting 'monoclinic'
loop_
_space_group_symop_operation_xyz
x,y,z
x,-y,1/2+z
1/2+x,1/2+y,z
1/2+x,1/2-y,1/2+z
loop_
_atom_site_type_symbol
_atom_site_label
_atom_site_fract_x
_atom_site_fract_y
_atom_site_fract_z
Si Si1 0.500000 0.036692 0.655450
Si Si2 0.708350 0.697540 0.072435
Si Si3 0.350845 0.345939 0.455370
Si Si4 0.433824 0.320329 0.648438
Si Si5 0.871604 0.062328 0.224145
Si Si6 0.739793 0.160214 0.332323
Si Si7 0.279892 0.242838 0.731476
Si Si8 0.723455 0.869644 0.172891
O O1 0.622817 0.073859 0.800131
O O2 0.565664 0.109828 0.640015
O O3 0.165686 0.034039 0.445155
O O4 0.650641 0.937682 0.743498
O O5 0.662050 0.797537 0.076561
O O6 0.026878 0.679617 0.254264
O O7 0.582811 0.635438 0.049360
O O8 0.516568 0.672658 0.888697
O O9 0.497297 0.338789 0.615981
O O10 0.157563 0.253806 0.319219
O O11 0.434514 0.412000 0.691706
O O12 0.110764 0.283170 0.441641
O O13 0.757271 0.158357 0.180277
O O14 0.694081 0.970521 0.122049
O O15 0.695965 0.237867 0.250267
O O16 0.064354 0.170298 0.561991
#
# Coordination Sequence:
#
# PCOD9139939 Si02
#       8
#     4   4   4   4   4   4   4   4
#     4  11  24  43  72 103 139 187 243 306 361 435
#     4  11  24  44  68 100 139 190 233 294 372 440
#     4  11  22  42  70 101 136 185 241 308 361 427
#     4  12  22  43  72 103 143 185 245 308 365 424
#     4  12  23  44  71 103 138 192 249 295 365 447
#     4  12  25  45  69 103 153 195 235 294 381 454
#     4  12  24  43  72 104 142 193 244 296 368 442
#     4  11  24  44  70  99 140 185 242 297 369 437
#
# _framework density 22.363413000000001
#
# number of rings (size 3 to 8) (size 9 to 14) (size 15 to 20)
#    0.000    0.500    6.250    3.000    0.000    0.000 
#    4.500    1.250    0.000    0.000    0.000    0.000 
#    0.000    0.000    0.000    0.000    0.000    0.000 
#
# Total GULP energy -89277.542823 kJ/mol
# GULP energy per Si atom -5579.846426 kJ/mol
# Density = 2.231251 g / cm^3
# Si number density = 22.363413 Si / 1000 Ang^3
#
#
#
# Elastic Constant Matrix: (Units=GPa)
#
#
# Indices 1 2 3 4 5 6 
#
# 1 89.8702 5.0175 35.6350 -0.0412 -8.3032 -0.0206
# 2 5.0175 68.5652 22.5326 0.1697 -3.1006 -0.0043
# 3 35.6350 22.5326 75.9614 0.1478 -0.5749 -0.0094
# 4 -0.0412 0.1697 0.1478 29.0554 -0.0330 -10.6323
# 5 -8.3032 -3.1006 -0.5749 -0.0330 30.0638 -0.0420
# 6 -0.0206 -0.0043 -0.0094 -10.6323 -0.0420 37.7863
#
#
#
# Elastic Compliance Matrix: (Units=1/GPa)
#
#
# Indices 1 2 3 4 5 6 
#
# 1 0.014214 0.001462 -0.007072 0.000062 0.003941 0.000028
# 2 0.001462 0.016385 -0.005531 -0.000069 0.001988 -0.000016
# 3 -0.007072 -0.005531 0.018107 -0.000082 -0.002178 -0.000025
# 4 0.000062 -0.000069 -0.000082 0.038369 0.000066 0.010796
# 5 0.003941 0.001988 -0.002178 0.000066 0.034515 0.000059
# 6 0.000028 -0.000016 -0.000025 0.010796 0.000059 0.029503
#
#
# Mechanical properties :
#
#
# Convention : Reuss Voigt Hill
#
# Bulk Modulus (GPa) = 37.84483 40.08519 38.96501
# Shear Modulus (GPa) = 27.44510 30.79521 29.12015
#
# Velocity S-wave (km/s) = 3.50699 3.71487 3.61242
# Velocity P-wave (km/s) = 5.77564 6.03023 5.90431
#
# Compressibility (1/GPa) = 0.02642369
#
# Stress axis : x y z
#
# Youngs Moduli (GPa) = 70.35387 61.02981 55.22859
#
# Poissons Ratio (x) = -0.08923 0.39057
# Poissons Ratio (y) = -0.10286 0.30548
# Poissons Ratio (z) = 0.49754 0.33756
#
# Static dielectric constant tensor:
#      x y z
#    x 1.865460 0.000010 0.017830 
#    y 0.000010 1.864800 -0.000090 
#    z 0.017830 -0.000090 1.853880 
# 
# From -- ./inp_files/9681.got.cif
#   From: 2010.05.17/outbox.cif.g08.bks.cpg/sg9_5_cif.got.tgz:9681.got - 2010.06.03 20:04:27.
