data_PCOD9139057
_publ_section_title
;
Structure prediction by ZEFSAII (Michael W. Deem and Ramdas Pophale) SiO2 
 PCOD9139057
Probable space group: C C
;
_chemical_formula_sum "Si O2"
_cell_formula_units_Z 28
_cell_length_a 16.624808
_cell_length_b 7.398974
_cell_length_c 15.360557
_cell_angle_alpha 90.000000
_cell_angle_beta 33.994353
_cell_angle_gamma 90.000000
_cell_volume 1056.411912
_symmetry_space_group_name_H-M "C C"
_symmetry_group_IT_number 9
_symmetry_cell_setting 'monoclinic'
loop_
_space_group_symop_operation_xyz
x,y,z
x,-y,1/2+z
1/2+x,1/2+y,z
1/2+x,1/2-y,1/2+z
loop_
_atom_site_type_symbol
_atom_site_label
_atom_site_fract_x
_atom_site_fract_y
_atom_site_fract_z
Si Si1 0.733530 0.706800 0.226180
Si Si2 0.932716 0.770640 0.208886
Si Si3 0.586698 0.081014 0.334796
Si Si4 0.202996 0.348212 0.544865
Si Si5 0.819566 0.756356 0.955809
Si Si6 0.821075 0.330892 0.183716
Si Si7 0.033968 0.183383 0.134614
O O1 0.855737 0.766633 0.185110
O O2 0.788361 0.682337 0.078391
O O3 0.712590 0.503601 0.281839
O O4 0.614764 0.865364 0.323917
O O5 0.818876 0.727957 0.388560
O O6 0.071029 0.643441 0.095185
O O7 0.990274 0.974225 0.169163
O O8 0.625162 0.177278 0.207488
O O9 0.714893 0.163221 0.277885
O O10 0.428250 0.142739 0.505163
O O11 0.288201 0.530921 0.487824
O O12 0.704489 0.692004 0.987295
O O13 0.978159 0.733904 0.776510
O O14 0.942443 0.293337 0.146932
#
# Coordination Sequence:
#
# PCOD9139057 Si02
#       7
#     4   4   4   4   4   4   4
#     4  11  27  45  70 106 143 189 234 296 359 426
#     4  11  24  43  71 100 143 180 239 287 355 421
#     4  11  26  49  71 110 145 185 246 296 359 435
#     4  10  24  44  68 100 139 184 229 295 348 425
#     4  10  25  44  68  97 145 179 239 285 352 425
#     4  12  26  46  78 102 147 192 238 301 361 420
#     4  11  24  45  68 105 136 189 231 292 352 424
#
# _framework density 26.504816000000002
#
# number of rings (size 3 to 8) (size 9 to 14) (size 15 to 20)
#    0.000    1.143    1.429    2.571   10.000    4.571 
#    0.000    0.000    0.000    0.000    0.000    0.000 
#    0.000    0.000    0.000    0.000    0.000    0.000 
#
# Total GULP energy -78256.990844 kJ/mol
# GULP energy per Si atom -5589.785060 kJ/mol
# Density = 2.644449 g / cm^3
# Si number density = 26.504816 Si / 1000 Ang^3
#
#
#
# Elastic Constant Matrix: (Units=GPa)
#
#
# Indices 1 2 3 4 5 6 
#
# 1 121.0343 0.1909 14.5411 0.0000 -0.2142 0.0000
# 2 0.1909 76.9568 10.2451 0.0000 2.3603 0.0000
# 3 14.5411 10.2451 129.9941 0.0000 -6.8054 0.0000
# 4 0.0000 0.0000 0.0000 20.1638 0.0000 -7.2230
# 5 -0.2142 2.3603 -6.8054 0.0000 37.3076 0.0000
# 6 0.0000 0.0000 0.0000 -7.2230 0.0000 38.3355
#
#
#
# Elastic Compliance Matrix: (Units=1/GPa)
#
#
# Indices 1 2 3 4 5 6 
#
# 1 0.008376 0.000110 -0.000953 0.000000 -0.000133 0.000000
# 2 0.000110 0.013173 -0.001105 0.000000 -0.001034 0.000000
# 3 -0.000953 -0.001105 0.007966 0.000000 0.001517 0.000000
# 4 0.000000 0.000000 0.000000 0.053183 0.000000 0.010020
# 5 -0.000133 -0.001034 0.001517 0.000000 0.027146 0.000000
# 6 0.000000 0.000000 0.000000 0.010020 0.000000 0.027974
#
#
# Mechanical properties :
#
#
# Convention : Reuss Voigt Hill
#
# Bulk Modulus (GPa) = 39.03129 41.99326 40.51227
# Shear Modulus (GPa) = 33.27755 39.36192 36.31973
#
# Velocity S-wave (km/s) = 3.54719 3.85786 3.70578
# Velocity P-wave (km/s) = 5.61559 5.97680 5.79901
#
# Compressibility (1/GPa) = 0.02562047
#
# Stress axis : x y z
#
# Youngs Moduli (GPa) = 119.38654 75.91391 125.53807
#
# Poissons Ratio (x) = -0.00836 0.11958
# Poissons Ratio (y) = -0.01315 0.13867
# Poissons Ratio (z) = 0.11372 0.08386
#
# Static dielectric constant tensor:
#      x y z
#    x 2.074750 0.000000 0.093790 
#    y 0.000000 2.109060 0.000000 
#    z 0.093790 0.000000 2.057020 
# 
# From -- ./inp_files/30965.got.cif
#   From: 2010.05.17/outbox.cif.g08.bks.cpg/sg9_16_cif.got.tgz:30965.got - 2010.06.03 20:04:27.
