data_PCOD9139401
_publ_section_title
;
Structure prediction by ZEFSAII (Michael W. Deem and Ramdas Pophale) SiO2 
 PCOD9139401
Probable space group: C C
;
_chemical_formula_sum "Si O2"
_cell_formula_units_Z 24
_cell_length_a 5.360051
_cell_length_b 21.845193
_cell_length_c 7.855921
_cell_angle_alpha 90.000000
_cell_angle_beta 84.658341
_cell_angle_gamma 90.000000
_cell_volume 915.865682
_symmetry_space_group_name_H-M "C C"
_symmetry_group_IT_number 9
_symmetry_cell_setting 'monoclinic'
loop_
_space_group_symop_operation_xyz
x,y,z
x,-y,1/2+z
1/2+x,1/2+y,z
1/2+x,1/2-y,1/2+z
loop_
_atom_site_type_symbol
_atom_site_label
_atom_site_fract_x
_atom_site_fract_y
_atom_site_fract_z
Si Si1 0.588960 0.944958 0.799240
Si Si2 0.747840 0.723668 0.459329
Si Si3 0.396905 0.165172 0.107213
Si Si4 0.050051 0.040092 0.493350
Si Si5 0.088025 0.176464 0.817861
Si Si6 0.344712 0.565519 0.836641
O O1 0.640012 0.018348 0.775070
O O2 0.951172 0.969783 0.493175
O O3 0.312426 0.946010 0.894037
O O4 0.819679 0.926876 0.909240
O O5 0.545197 0.775367 0.525967
O O6 0.732972 0.683484 0.631408
O O7 0.008546 0.758765 0.406476
O O8 0.728419 0.687237 0.281293
O O9 0.236721 0.143517 0.957684
O O10 0.565260 0.107424 0.156880
O O11 0.068066 0.056077 0.687017
O O12 0.828446 0.137859 0.820381
#
# Coordination Sequence:
#
# PCOD9139401 Si02
#       6
#     4   4   4   4   4   4
#     4  10  26  43  74 104 152 198 245 314 384 455
#     4  10  25  47  73 118 144 207 260 326 381 463
#     4  11  24  46  77 107 158 197 263 321 390 458
#     4  10  25  44  68 108 148 193 249 303 388 452
#     4  11  24  47  76 112 150 203 261 315 394 461
#     4  10  26  43  72 107 152 200 252 311 389 459
#
# _framework density 26.204716000000001
#
# number of rings (size 3 to 8) (size 9 to 14) (size 15 to 20)
#    1.000    0.667    0.000    2.000    9.333    1.333 
#   15.000    0.000    0.000    0.000    0.000    0.000 
#    0.000    0.000    0.000    0.000    0.000    0.000 
#
# Total GULP energy -66876.146027 kJ/mol
# GULP energy per Si atom -5573.012169 kJ/mol
# Density = 2.614507 g / cm^3
# Si number density = 26.204716 Si / 1000 Ang^3
#
#
#
# Elastic Constant Matrix: (Units=GPa)
#
#
# Indices 1 2 3 4 5 6 
#
# 1 96.0344 19.7962 39.1438 0.0000 -6.0661 0.0000
# 2 19.7962 115.4880 47.9871 0.0000 2.5759 0.0000
# 3 39.1438 47.9871 164.5197 0.0000 0.8292 0.0000
# 4 0.0000 0.0000 0.0000 25.5684 0.0000 -2.6535
# 5 -6.0661 2.5759 0.8292 0.0000 35.3488 0.0000
# 6 0.0000 0.0000 0.0000 -2.6535 0.0000 27.4965
#
#
#
# Elastic Compliance Matrix: (Units=1/GPa)
#
#
# Indices 1 2 3 4 5 6 
#
# 1 0.011786 -0.001023 -0.002517 0.000000 0.002156 0.000000
# 2 -0.001023 0.009957 -0.002657 0.000000 -0.000839 0.000000
# 3 -0.002517 -0.002657 0.007454 0.000000 -0.000413 0.000000
# 4 0.000000 0.000000 0.000000 0.039506 0.000000 0.003813
# 5 0.002156 -0.000839 -0.000413 0.000000 0.028730 0.000000
# 6 0.000000 0.000000 0.000000 0.003813 0.000000 0.036736
#
#
# Mechanical properties :
#
#
# Convention : Reuss Voigt Hill
#
# Bulk Modulus (GPa) = 59.50744 65.54402 62.52573
# Shear Modulus (GPa) = 32.85949 35.62375 34.24162
#
# Velocity S-wave (km/s) = 3.54496 3.69106 3.61875
# Velocity P-wave (km/s) = 6.28599 6.57509 6.43216
#
# Compressibility (1/GPa) = 0.01680462
#
# Stress axis : x y z
#
# Youngs Moduli (GPa) = 84.84826 100.43398 134.15458
#
# Poissons Ratio (x) = 0.10270 0.33763
# Poissons Ratio (y) = 0.08676 0.35640
# Poissons Ratio (z) = 0.21354 0.26682
#
# Static dielectric constant tensor:
#      x y z
#    x 2.052280 0.000000 -0.024520 
#    y 0.000000 2.341290 0.000000 
#    z -0.024520 0.000000 2.072010 
# 
# From -- ./inp_files/4043.got.cif
#   From: 2010.05.17/outbox.cif.g08.bks.cpg/sg9_3_cif.got.tgz:4043.got - 2010.06.03 20:04:27.
