data_PCOD9139555
_publ_section_title
;
Structure prediction by ZEFSAII (Michael W. Deem and Ramdas Pophale) SiO2 
 PCOD9139555
Probable space group: C C
;
_chemical_formula_sum "Si O2"
_cell_formula_units_Z 20
_cell_length_a 18.828515
_cell_length_b 7.238059
_cell_length_c 13.562466
_cell_angle_alpha 90.000000
_cell_angle_beta 21.616881
_cell_angle_gamma 90.000000
_cell_volume 680.917780
_symmetry_space_group_name_H-M "C C"
_symmetry_group_IT_number 9
_symmetry_cell_setting 'monoclinic'
loop_
_space_group_symop_operation_xyz
x,y,z
x,-y,1/2+z
1/2+x,1/2+y,z
1/2+x,1/2-y,1/2+z
loop_
_atom_site_type_symbol
_atom_site_label
_atom_site_fract_x
_atom_site_fract_y
_atom_site_fract_z
Si Si1 0.888330 0.139349 0.918550
Si Si2 0.937663 0.056854 0.060037
Si Si3 0.219443 0.991019 0.854794
Si Si4 0.732402 0.250485 0.650705
Si Si5 0.989385 0.486770 0.180438
O O1 0.889419 0.324716 0.851936
O O2 0.073123 0.047696 0.631238
O O3 0.924584 0.194632 0.985116
O O4 0.735425 0.968454 0.122457
O O5 0.723897 0.021824 0.379820
O O6 0.086953 0.113221 0.952307
O O7 0.045878 0.880370 0.868979
O O8 0.242140 0.815172 0.753115
O O9 0.408974 0.033509 0.672823
O O10 0.903397 0.336030 0.365306
#
# Coordination Sequence:
#
# PCOD9139555 Si02
#       5
#     4   4   4   4   4
#     4  12  26  49  86 119 163 224 275 346 427 493
#     4  10  27  52  83 119 171 216 273 357 415 489
#     4  10  25  53  81 116 170 217 274 349 420 495
#     4  10  27  55  77 127 170 211 286 353 412 510
#     4  12  27  55  87 117 168 228 278 345 428 507
#
# _framework density 29.372119999999999
#
# number of rings (size 3 to 8) (size 9 to 14) (size 15 to 20)
#    1.200    0.000    2.000    1.200    5.600    4.800 
#    3.600    2.000    4.400    0.000    0.000    0.000 
#    0.000    0.000    0.000    0.000    0.000    0.000 
#
# Total GULP energy -55865.092713 kJ/mol
# GULP energy per Si atom -5586.509271 kJ/mol
# Density = 2.930527 g / cm^3
# Si number density = 29.372120 Si / 1000 Ang^3
#
#
#
# Elastic Constant Matrix: (Units=GPa)
#
#
# Indices 1 2 3 4 5 6 
#
# 1 226.1161 67.2897 91.4257 0.0002 7.4734 -0.0013
# 2 67.2897 179.7952 102.0543 -0.0018 -7.4014 0.0002
# 3 91.4257 102.0543 230.8535 -0.0009 21.0657 -0.0007
# 4 0.0002 -0.0018 -0.0009 75.7162 0.0002 -51.5244
# 5 7.4734 -7.4014 21.0657 0.0002 52.6666 0.0010
# 6 -0.0013 0.0002 -0.0007 -51.5244 0.0010 185.7196
#
#
#
# Elastic Compliance Matrix: (Units=1/GPa)
#
#
# Indices 1 2 3 4 5 6 
#
# 1 0.005422 -0.001116 -0.001629 0.000000 -0.000275 0.000000
# 2 -0.001116 0.007971 -0.003320 0.000000 0.002606 0.000000
# 3 -0.001629 -0.003320 0.006711 0.000000 -0.002920 0.000000
# 4 0.000000 0.000000 0.000000 0.016281 0.000000 0.004517
# 5 -0.000275 0.002606 -0.002920 0.000000 0.020560 0.000000
# 6 0.000000 0.000000 0.000000 0.004517 0.000000 0.006638
#
#
# Mechanical properties :
#
#
# Convention : Reuss Voigt Hill
#
# Bulk Modulus (GPa) = 125.39288 128.70048 127.04668
# Shear Modulus (GPa) = 63.79909 87.88683 75.84296
#
# Velocity S-wave (km/s) = 4.66563 5.47602 5.08699
# Velocity P-wave (km/s) = 8.47396 9.15941 8.82334
#
# Compressibility (1/GPa) = 0.00797493
#
# Stress axis : x y z
#
# Youngs Moduli (GPa) = 184.42155 125.45211 149.01218
#
# Poissons Ratio (x) = 0.14001 0.24274
# Poissons Ratio (y) = 0.20582 0.49468
# Poissons Ratio (z) = 0.30042 0.41646
#
# Static dielectric constant tensor:
#      x y z
#    x 2.312100 0.000000 -0.127620 
#    y 0.000000 2.182410 0.000000 
#    z -0.127620 0.000000 2.224280 
# 
# From -- ./inp_files/27255.got.cif
#   From: 2010.05.17/outbox.cif.g08.bks.cpg/sg9_14_cif.got.tgz:27255.got - 2010.06.03 20:04:27.
