data_PCOD9139417
_publ_section_title
;
Structure prediction by ZEFSAII (Michael W. Deem and Ramdas Pophale) SiO2 
 PCOD9139417
Probable space group: C C
;
_chemical_formula_sum "Si O2"
_cell_formula_units_Z 32
_cell_length_a 7.875179
_cell_length_b 25.894524
_cell_length_c 8.532180
_cell_angle_alpha 90.000000
_cell_angle_beta 128.513693
_cell_angle_gamma 90.000000
_cell_volume 1361.413854
_symmetry_space_group_name_H-M "C C"
_symmetry_group_IT_number 9
_symmetry_cell_setting 'monoclinic'
loop_
_space_group_symop_operation_xyz
x,y,z
x,-y,1/2+z
1/2+x,1/2+y,z
1/2+x,1/2-y,1/2+z
loop_
_atom_site_type_symbol
_atom_site_label
_atom_site_fract_x
_atom_site_fract_y
_atom_site_fract_z
Si Si1 0.731620 0.346139 0.638180
Si Si2 0.168810 0.321408 0.778323
Si Si3 0.566738 0.745307 0.166302
Si Si4 0.150014 0.325238 0.406293
Si Si5 0.080810 0.562663 0.737169
Si Si6 0.335057 0.013373 0.878364
Si Si7 0.565226 0.549205 0.999405
Si Si8 0.458643 0.292052 0.200179
O O1 0.723995 0.304370 0.773856
O O2 0.597724 0.396322 0.603909
O O3 0.617247 0.322845 0.411753
O O4 0.982697 0.356213 0.750023
O O5 0.175807 0.337575 0.601966
O O6 0.069886 0.262885 0.726573
O O7 0.392090 0.321886 0.003503
O O8 0.359701 0.711512 0.991679
O O9 0.480632 0.781030 0.256586
O O10 0.714018 0.778939 0.129251
O O11 0.100794 0.375940 0.277270
O O12 0.920249 0.537554 0.517981
O O13 0.316214 0.544123 0.816377
O O14 0.012542 0.538834 0.866769
O O15 0.230180 0.050058 0.948483
O O16 0.141068 0.996266 0.654176
#
# Coordination Sequence:
#
# PCOD9139417 Si02
#       8
#     4   4   4   4   4   4   4   4
#     4  11  22  40  64  90 124 176 219 254 312 397
#     4  11  22  37  57  85 129 167 218 255 306 370
#     4  11  20  38  59  88 131 168 209 250 304 387
#     4  12  24  39  61  97 133 170 209 268 319 382
#     4  11  23  47  68  99 133 168 218 281 333 386
#     4  10  25  44  73  98 126 167 222 282 338 389
#     4  11  22  45  69  98 128 168 217 274 339 393
#     4  11  20  40  59  83 124 182 212 254 303 374
#
# _framework density 23.504978000000001
#
# number of rings (size 3 to 8) (size 9 to 14) (size 15 to 20)
#    0.000    1.000    5.000    3.000    0.000    3.000 
#    0.000    3.750    0.000    0.000    0.000    0.000 
#    0.000    0.000    0.000    0.000    0.000    0.000 
#
# Total GULP energy -89175.604075 kJ/mol
# GULP energy per Si atom -5573.475255 kJ/mol
# Density = 2.345148 g / cm^3
# Si number density = 23.504978 Si / 1000 Ang^3
#
#
#
# Elastic Constant Matrix: (Units=GPa)
#
#
# Indices 1 2 3 4 5 6 
#
# 1 52.4607 -0.5674 4.7725 0.0000 2.7112 0.0000
# 2 -0.5674 65.1296 3.6139 0.0000 0.3759 0.0000
# 3 4.7725 3.6139 64.7694 0.0000 5.8393 0.0000
# 4 0.0000 0.0000 0.0000 29.1867 0.0000 -3.5116
# 5 2.7112 0.3759 5.8393 0.0000 27.0554 0.0000
# 6 0.0000 0.0000 0.0000 -3.5116 0.0000 24.8490
#
#
#
# Elastic Compliance Matrix: (Units=1/GPa)
#
#
# Indices 1 2 3 4 5 6 
#
# 1 0.019267 0.000249 -0.001284 0.000000 -0.001657 0.000000
# 2 0.000249 0.015405 -0.000873 0.000000 -0.000050 0.000000
# 3 -0.001284 -0.000873 0.015879 0.000000 -0.003286 0.000000
# 4 0.000000 0.000000 0.000000 0.034855 0.000000 0.004926
# 5 -0.001657 -0.000050 -0.003286 0.000000 0.037837 0.000000
# 6 0.000000 0.000000 0.000000 0.004926 0.000000 0.040939
#
#
# Mechanical properties :
#
#
# Convention : Reuss Voigt Hill
#
# Bulk Modulus (GPa) = 21.39800 21.99976 21.69888
# Shear Modulus (GPa) = 27.23643 27.85425 27.54534
#
# Velocity S-wave (km/s) = 3.40774 3.44617 3.42701
# Velocity P-wave (km/s) = 4.96054 5.02143 4.99107
#
# Compressibility (1/GPa) = 0.04673334
#
# Stress axis : x y z
#
# Youngs Moduli (GPa) = 51.90211 64.91435 62.97613
#
# Poissons Ratio (x) = -0.01614 0.08087
# Poissons Ratio (y) = -0.01291 0.05500
# Poissons Ratio (z) = 0.06665 0.05669
#
# Static dielectric constant tensor:
#      x y z
#    x 2.000050 0.000000 0.076050 
#    y 0.000000 2.074970 0.000000 
#    z 0.076050 0.000000 2.086480 
# 
# From -- ./inp_files/6395.got.cif
#   From: 2010.05.17/outbox.cif.g08.bks.cpg/sg9_4_cif.got.tgz:6395.got - 2010.06.03 20:04:27.
