data_PCOD9139037
_publ_section_title
;
Structure prediction by ZEFSAII (Michael W. Deem and Ramdas Pophale) SiO2 
 PCOD9139037
Probable space group: C C
;
_chemical_formula_sum "Si O2"
_cell_formula_units_Z 32
_cell_length_a 6.609196
_cell_length_b 18.552141
_cell_length_c 12.457619
_cell_angle_alpha 90.000000
_cell_angle_beta 93.028448
_cell_angle_gamma 90.000000
_cell_volume 1525.354417
_symmetry_space_group_name_H-M "C C"
_symmetry_group_IT_number 9
_symmetry_cell_setting 'monoclinic'
loop_
_space_group_symop_operation_xyz
x,y,z
x,-y,1/2+z
1/2+x,1/2+y,z
1/2+x,1/2-y,1/2+z
loop_
_atom_site_type_symbol
_atom_site_label
_atom_site_fract_x
_atom_site_fract_y
_atom_site_fract_z
Si Si1 0.861470 0.775784 0.658530
Si Si2 0.417692 0.080425 0.439795
Si Si3 0.681309 0.789753 0.042268
Si Si4 0.686994 0.993788 0.765712
Si Si5 0.385568 0.945244 0.582871
Si Si6 0.024111 0.698292 0.984166
Si Si7 0.073601 0.908577 0.763867
Si Si8 0.624453 0.836669 0.260506
O O1 0.649941 0.785478 0.595363
O O2 0.025004 0.773947 0.565870
O O3 0.929422 0.840802 0.735705
O O4 0.909190 0.699769 0.718552
O O5 0.547732 0.144353 0.495689
O O6 0.568397 0.040743 0.361736
O O7 0.225348 0.106772 0.366007
O O8 0.344610 0.020354 0.521972
O O9 0.761416 0.810094 0.164527
O O10 0.855852 0.760370 0.972216
O O11 0.592458 0.958535 0.655815
O O12 0.923360 0.975210 0.780978
O O13 0.636670 0.078007 0.762003
O O14 0.420652 0.879480 0.501982
O O15 0.213761 0.925628 0.664693
O O16 0.157485 0.692977 0.880621
#
# Coordination Sequence:
#
# PCOD9139037 Si02
#       8
#     4   4   4   4   4   4   4   4
#     4  10  24  44  65 103 133 178 233 281 339 422
#     4  11  25  42  70  99 139 183 227 287 352 408
#     4  10  25  45  64 102 138 174 232 287 334 414
#     4  11  23  45  66  99 139 180 228 288 343 417
#     4  11  21  44  69  97 139 177 234 286 343 412
#     4  12  23  45  75  95 140 189 222 290 351 400
#     4  11  25  42  69 101 136 183 229 282 358 416
#     4  10  24  45  66 102 136 176 235 281 340 411
#
# _framework density 20.978731
#
# number of rings (size 3 to 8) (size 9 to 14) (size 15 to 20)
#    0.750    0.500    5.000    0.000    3.500    2.000 
#    9.000    0.000    0.000    0.000    0.000    0.000 
#    0.000    0.000    0.000    0.000    0.000    0.000 
#
# Total GULP energy -89245.157589 kJ/mol
# GULP energy per Si atom -5577.822349 kJ/mol
# Density = 2.093098 g / cm^3
# Si number density = 20.978731 Si / 1000 Ang^3
#
#
#
# Elastic Constant Matrix: (Units=GPa)
#
#
# Indices 1 2 3 4 5 6 
#
# 1 65.2108 38.0501 24.0516 0.0000 15.6436 0.0000
# 2 38.0501 122.9179 40.5616 0.0000 14.0088 0.0000
# 3 24.0516 40.5616 93.0618 0.0000 5.3501 0.0000
# 4 0.0000 0.0000 0.0000 29.2229 0.0000 1.3538
# 5 15.6436 14.0088 5.3501 0.0000 20.2286 0.0000
# 6 0.0000 0.0000 0.0000 1.3538 0.0000 23.0421
#
#
#
# Elastic Compliance Matrix: (Units=1/GPa)
#
#
# Indices 1 2 3 4 5 6 
#
# 1 0.022204 -0.004335 -0.003082 0.000000 -0.013355 0.000000
# 2 -0.004335 0.011009 -0.003486 0.000000 -0.003350 0.000000
# 3 -0.003082 -0.003486 0.012983 0.000000 0.001363 0.000000
# 4 0.000000 0.000000 0.000000 0.034313 0.000000 -0.002016
# 5 -0.013355 -0.003350 0.001363 0.000000 0.061722 0.000000
# 6 0.000000 0.000000 0.000000 -0.002016 0.000000 0.043517
#
#
# Mechanical properties :
#
#
# Convention : Reuss Voigt Hill
#
# Bulk Modulus (GPa) = 40.99562 54.05747 47.52654
# Shear Modulus (GPa) = 23.18207 26.40054 24.79131
#
# Velocity S-wave (km/s) = 3.32780 3.55130 3.44137
# Velocity P-wave (km/s) = 5.86086 6.52988 6.20439
#
# Compressibility (1/GPa) = 0.02439285
#
# Stress axis : x y z
#
# Youngs Moduli (GPa) = 45.03612 90.83184 77.02470
#
# Poissons Ratio (x) = 0.39372 0.23736
# Poissons Ratio (y) = 0.19521 0.26848
# Poissons Ratio (z) = 0.13879 0.31661
#
# Static dielectric constant tensor:
#      x y z
#    x 1.729270 0.000000 0.017840 
#    y 0.000000 1.749250 0.000000 
#    z 0.017840 0.000000 1.793810 
# 
# From -- ./inp_files/13493.got.cif
#   From: 2010.05.17/outbox.cif.g08.bks.cpg/sg9_7_cif.got.tgz:13493.got - 2010.06.03 20:04:27.
