data_PCOD9139567
_publ_section_title
;
Structure prediction by ZEFSAII (Michael W. Deem and Ramdas Pophale) SiO2 
 PCOD9139567
Probable space group: C C
;
_chemical_formula_sum "Si O2"
_cell_formula_units_Z 24
_cell_length_a 27.733891
_cell_length_b 5.396063
_cell_length_c 10.008223
_cell_angle_alpha 90.000000
_cell_angle_beta 135.728107
_cell_angle_gamma 90.000000
_cell_volume 1045.538670
_symmetry_space_group_name_H-M "C C"
_symmetry_group_IT_number 9
_symmetry_cell_setting 'monoclinic'
loop_
_space_group_symop_operation_xyz
x,y,z
x,-y,1/2+z
1/2+x,1/2+y,z
1/2+x,1/2-y,1/2+z
loop_
_atom_site_type_symbol
_atom_site_label
_atom_site_fract_x
_atom_site_fract_y
_atom_site_fract_z
Si Si1 0.707190 0.794675 0.273350
Si Si2 0.327154 0.029134 0.641559
Si Si3 0.276679 0.529018 0.647965
Si Si4 0.048400 0.633544 0.189502
Si Si5 0.471239 0.096504 0.306623
Si Si6 0.078106 0.138714 0.162296
O O1 0.760759 0.573853 0.415049
O O2 0.732140 0.927007 0.190424
O O3 0.630732 0.693862 0.146114
O O4 0.723431 0.992383 0.421406
O O5 0.323501 0.279447 0.725776
O O6 0.394142 0.986349 0.684033
O O7 0.319391 0.779097 0.710121
O O8 0.085701 0.369736 0.278781
O O9 0.991381 0.635841 0.193203
O O10 0.090322 0.885374 0.262962
O O11 0.017359 0.605725 0.977718
O O12 0.500200 0.333956 0.448278
#
# Coordination Sequence:
#
# PCOD9139567 Si02
#       6
#     4   4   4   4   4   4
#     4  10  26  44  72  98 141 176 234 282 347 404
#     4  10  26  41  69  97 137 176 230 273 351 399
#     4  10  26  42  70  99 134 181 224 288 336 421
#     4  10  26  43  69 100 132 184 224 288 336 417
#     4  10  26  44  70  98 141 177 231 282 346 407
#     4  10  26  40  72  98 139 176 233 277 346 406
#
# _framework density 22.954674000000001
#
# number of rings (size 3 to 8) (size 9 to 14) (size 15 to 20)
#    2.000    0.000    0.000    0.000   14.000    0.000 
#    0.000    0.000    0.000    0.000    0.000    0.000 
#    0.000    0.000    0.000    0.000    0.000    0.000 
#
# Total GULP energy -66806.272972 kJ/mol
# GULP energy per Si atom -5567.189414 kJ/mol
# Density = 2.290243 g / cm^3
# Si number density = 22.954674 Si / 1000 Ang^3
#
#
#
# Elastic Constant Matrix: (Units=GPa)
#
#
# Indices 1 2 3 4 5 6 
#
# 1 188.2962 66.6134 28.6665 0.0000 -8.0868 0.0000
# 2 66.6134 168.1216 17.0573 0.0000 -1.1687 0.0000
# 3 28.6665 17.0573 33.5758 0.0000 6.8439 0.0000
# 4 0.0000 0.0000 0.0000 9.7608 0.0000 7.1243
# 5 -8.0868 -1.1687 6.8439 0.0000 34.4527 0.0000
# 6 0.0000 0.0000 0.0000 7.1243 0.0000 27.4167
#
#
#
# Elastic Compliance Matrix: (Units=1/GPa)
#
#
# Indices 1 2 3 4 5 6 
#
# 1 0.007035 -0.002219 -0.005420 0.000000 0.002653 0.000000
# 2 -0.002219 0.006997 -0.001670 0.000000 0.000048 0.000000
# 3 -0.005420 -0.001670 0.037029 0.000000 -0.008684 0.000000
# 4 0.000000 0.000000 0.000000 0.126430 0.000000 -0.032853
# 5 0.002653 0.000048 -0.008684 0.000000 0.031375 0.000000
# 6 0.000000 0.000000 0.000000 -0.032853 0.000000 0.045011
#
#
# Mechanical properties :
#
#
# Convention : Reuss Voigt Hill
#
# Bulk Modulus (GPa) = 30.82247 68.29645 49.55946
# Shear Modulus (GPa) = 17.64860 32.83648 25.24254
#
# Velocity S-wave (km/s) = 2.77582 3.78629 3.31972
# Velocity P-wave (km/s) = 4.87137 6.99514 6.02753
#
# Compressibility (1/GPa) = 0.03244386
#
# Stress axis : x y z
#
# Youngs Moduli (GPa) = 142.15027 142.91696 27.00583
#
# Poissons Ratio (x) = 0.31714 0.14636
# Poissons Ratio (y) = 0.31544 0.04510
# Poissons Ratio (z) = 0.77039 0.23866
#
# Static dielectric constant tensor:
#      x y z
#    x 1.853600 0.000000 0.016650 
#    y 0.000000 1.909110 0.000000 
#    z 0.016650 0.000000 1.910060 
# 
# From -- ./inp_files/19744.got.cif
#   From: 2010.05.17/outbox.cif.g08.bks.cpg/sg9_10_cif.got.tgz:19744.got - 2010.06.03 20:04:27.
