data_PCOD9139533
_publ_section_title
;
Structure prediction by ZEFSAII (Michael W. Deem and Ramdas Pophale) SiO2 
 PCOD9139533
Probable space group: C C
;
_chemical_formula_sum "Si O2"
_cell_formula_units_Z 32
_cell_length_a 24.503814
_cell_length_b 5.567299
_cell_length_c 26.760997
_cell_angle_alpha 90.000000
_cell_angle_beta 21.838330
_cell_angle_gamma 90.000000
_cell_volume 1358.033547
_symmetry_space_group_name_H-M "C C"
_symmetry_group_IT_number 9
_symmetry_cell_setting 'monoclinic'
loop_
_space_group_symop_operation_xyz
x,y,z
x,-y,1/2+z
1/2+x,1/2+y,z
1/2+x,1/2-y,1/2+z
loop_
_atom_site_type_symbol
_atom_site_label
_atom_site_fract_x
_atom_site_fract_y
_atom_site_fract_z
Si Si1 0.848050 0.373377 0.268170
Si Si2 0.587493 0.138999 0.382970
Si Si3 0.330257 0.538524 0.445840
Si Si4 0.171092 0.458489 0.984507
Si Si5 0.801180 0.755510 0.565278
Si Si6 0.649277 0.748993 0.181125
Si Si7 0.123785 0.250100 0.422423
Si Si8 0.401180 0.632438 0.122737
O O1 0.742647 0.286501 0.401946
O O2 0.759286 0.567109 0.311715
O O3 0.882347 0.167440 0.197790
O O4 0.010725 0.447530 0.145849
O O5 0.457835 0.227973 0.458770
O O6 0.529745 0.216825 0.487167
O O7 0.747906 0.222381 0.230229
O O8 0.623590 0.866067 0.367347
O O9 0.287916 0.460150 0.426424
O O10 0.335658 0.309026 0.477693
O O11 0.477633 0.693383 0.326845
O O12 0.203331 0.702197 0.578556
O O13 0.147018 0.613077 0.955223
O O14 0.721826 0.499286 0.638706
O O15 0.709141 0.002959 0.656701
O O16 0.963507 0.130041 0.560856
#
# Coordination Sequence:
#
# PCOD9139533 Si02
#       8
#     4   4   4   4   4   4   4   4
#     4  12  23  44  66 108 152 186 246 298 373 457
#     4  12  27  44  73 101 144 195 245 305 372 447
#     4  10  26  48  77 107 151 196 257 315 380 453
#     4  12  25  43  73 108 147 197 237 311 371 452
#     4  10  28  48  75 108 147 191 257 313 375 445
#     4  10  25  49  78 106 146 191 253 313 377 443
#     4  12  24  42  74 105 147 195 249 297 381 453
#     4  12  24  46  66 103 148 185 242 300 369 450
#
# _framework density 23.563483999999999
#
# number of rings (size 3 to 8) (size 9 to 14) (size 15 to 20)
#    0.750    0.000    5.000    1.500    5.250    2.000 
#    0.000    0.000    0.000    0.000    0.000    0.000 
#    0.000    0.000    0.000    0.000    0.000    0.000 
#
# Total GULP energy -89154.318052 kJ/mol
# GULP energy per Si atom -5572.144878 kJ/mol
# Density = 2.350985 g / cm^3
# Si number density = 23.563484 Si / 1000 Ang^3
#
#
#
# Elastic Constant Matrix: (Units=GPa)
#
#
# Indices 1 2 3 4 5 6 
#
# 1 91.7132 26.2697 4.8030 -0.0045 -21.6794 0.1851
# 2 26.2697 82.6563 21.2704 -0.3586 -10.4554 0.9419
# 3 4.8030 21.2704 124.1584 0.0181 -16.5347 0.3882
# 4 -0.0045 -0.3586 0.0181 29.0510 0.0175 -3.8910
# 5 -21.6794 -10.4554 -16.5347 0.0175 27.3262 -0.3989
# 6 0.1851 0.9419 0.3882 -3.8910 -0.3989 27.4664
#
#
#
# Elastic Compliance Matrix: (Units=1/GPa)
#
#
# Indices 1 2 3 4 5 6 
#
# 1 0.014458 -0.003595 0.001524 -0.000028 0.011019 0.000160
# 2 -0.003595 0.013936 -0.002086 0.000120 0.001212 -0.000390
# 3 0.001524 -0.002086 0.009144 -0.000033 0.005944 0.000014
# 4 -0.000028 0.000120 -0.000033 0.035089 0.000054 0.004968
# 5 0.011019 0.001212 0.005944 0.000054 0.049405 0.000525
# 6 0.000160 -0.000390 0.000014 0.004968 0.000525 0.037132
#
#
# Mechanical properties :
#
#
# Convention : Reuss Voigt Hill
#
# Bulk Modulus (GPa) = 34.21943 44.80157 39.51050
# Shear Modulus (GPa) = 28.21362 33.18104 30.69733
#
# Velocity S-wave (km/s) = 3.46402 3.75661 3.61328
# Velocity P-wave (km/s) = 5.52748 6.15391 5.84908
#
# Compressibility (1/GPa) = 0.02922316
#
# Stress axis : x y z
#
# Youngs Moduli (GPa) = 69.16636 71.75699 109.35949
#
# Poissons Ratio (x) = 0.25798 -0.16662
# Poissons Ratio (y) = 0.24867 0.22810
# Poissons Ratio (z) = -0.10538 0.14967
#
# Static dielectric constant tensor:
#      x y z
#    x 1.904830 -0.000320 0.016120 
#    y -0.000320 2.103120 0.000140 
#    z 0.016120 0.000140 1.925250 
# 
# From -- ./inp_files/37731.got.cif
#   From: 2010.05.17/outbox.cif.g08.bks.cpg/sg9_19_cif.got.tgz:37731.got - 2010.06.03 20:04:27.
