data_PCOD9139575
_publ_section_title
;
Structure prediction by ZEFSAII (Michael W. Deem and Ramdas Pophale) SiO2 
 PCOD9139575
Probable space group: C C
;
_chemical_formula_sum "Si O2"
_cell_formula_units_Z 32
_cell_length_a 16.562041
_cell_length_b 15.177758
_cell_length_c 11.273133
_cell_angle_alpha 90.000000
_cell_angle_beta 30.505865
_cell_angle_gamma 90.000000
_cell_volume 1438.501924
_symmetry_space_group_name_H-M "C C"
_symmetry_group_IT_number 9
_symmetry_cell_setting 'monoclinic'
loop_
_space_group_symop_operation_xyz
x,y,z
x,-y,1/2+z
1/2+x,1/2+y,z
1/2+x,1/2-y,1/2+z
loop_
_atom_site_type_symbol
_atom_site_label
_atom_site_fract_x
_atom_site_fract_y
_atom_site_fract_z
Si Si1 0.147680 0.674889 0.988780
Si Si2 0.694751 0.716875 0.830827
Si Si3 0.379616 0.046943 0.251402
Si Si4 0.245969 0.843885 0.707749
Si Si5 0.018836 0.026749 0.734622
Si Si6 0.432440 0.455556 0.090953
Si Si7 0.021146 0.797974 0.329457
Si Si8 0.417473 0.145442 0.743995
O O1 0.206169 0.751835 0.824513
O O2 0.273676 0.597574 0.819184
O O3 0.977100 0.628479 0.181855
O O4 0.127682 0.720095 0.141461
O O5 0.851162 0.765350 0.585134
O O6 0.615879 0.663683 0.822223
O O7 0.766585 0.662262 0.848263
O O8 0.560541 0.787272 0.036500
O O9 0.334466 0.084929 0.179840
O O10 0.207212 0.020497 0.522397
O O11 0.471958 0.954878 0.148913
O O12 0.354805 0.835062 0.454733
O O13 0.077896 0.887687 0.889504
O O14 0.971108 0.991204 0.665050
O O15 0.999351 0.132307 0.752785
O O16 0.922267 0.000105 0.974124
#
# Coordination Sequence:
#
# PCOD9139575 Si02
#       8
#     4   4   4   4   4   4   4   4
#     4  12  25  45  76 108 136 187 246 300 346 435
#     4  10  26  43  70 100 143 187 231 293 371 434
#     4  11  25  44  71 106 140 189 245 293 353 428
#     4  11  25  44  74 100 144 186 240 293 370 425
#     4  11  24  44  70  99 147 187 237 292 365 427
#     4  11  25  45  69 107 140 191 239 299 361 430
#     4  11  22  43  75  97 140 182 239 285 360 434
#     4  11  26  48  69 105 146 189 235 301 366 437
#
# _framework density 22.245366000000001
#
# number of rings (size 3 to 8) (size 9 to 14) (size 15 to 20)
#    0.000    1.000    3.750    2.250    8.750    2.000 
#    4.500    0.000    0.000    0.000    0.000    0.000 
#    0.000    0.000    0.000    0.000    0.000    0.000 
#
# Total GULP energy -89320.620493 kJ/mol
# GULP energy per Si atom -5582.538781 kJ/mol
# Density = 2.219473 g / cm^3
# Si number density = 22.245366 Si / 1000 Ang^3
#
#
#
# Elastic Constant Matrix: (Units=GPa)
#
#
# Indices 1 2 3 4 5 6 
#
# 1 90.6811 28.1337 47.5301 0.0000 18.9364 0.0000
# 2 28.1337 80.0372 29.7303 -0.0001 13.2201 0.0000
# 3 47.5301 29.7303 117.5977 -0.0002 17.5274 0.0000
# 4 0.0000 -0.0001 -0.0002 43.1699 0.0001 4.3298
# 5 18.9364 13.2201 17.5274 0.0001 24.9553 0.0000
# 6 0.0000 0.0000 0.0000 4.3298 0.0000 24.1470
#
#
#
# Elastic Compliance Matrix: (Units=1/GPa)
#
#
# Indices 1 2 3 4 5 6 
#
# 1 0.015802 -0.002621 -0.004628 0.000000 -0.007351 0.000000
# 2 -0.002621 0.014914 -0.002044 0.000000 -0.004476 0.000000
# 3 -0.004628 -0.002044 0.011399 0.000000 -0.003411 0.000000
# 4 0.000000 0.000000 0.000000 0.023588 0.000000 -0.004230
# 5 -0.007351 -0.004476 -0.003411 0.000000 0.050417 0.000000
# 6 0.000000 0.000000 0.000000 -0.004230 0.000000 0.042171
#
#
# Mechanical properties :
#
#
# Convention : Reuss Voigt Hill
#
# Bulk Modulus (GPa) = 42.50118 55.45601 48.97859
# Shear Modulus (GPa) = 27.06763 30.64925 28.85844
#
# Velocity S-wave (km/s) = 3.49202 3.71587 3.60568
# Velocity P-wave (km/s) = 5.95029 6.58739 6.27693
#
# Compressibility (1/GPa) = 0.02352876
#
# Stress axis : x y z
#
# Youngs Moduli (GPa) = 63.28327 67.05065 87.72323
#
# Poissons Ratio (x) = 0.17574 0.40602
# Poissons Ratio (y) = 0.16586 0.17930
# Poissons Ratio (z) = 0.29290 0.13705
#
# Static dielectric constant tensor:
#      x y z
#    x 1.866450 0.000000 0.009010 
#    y 0.000000 1.847540 0.000000 
#    z 0.009010 0.000000 1.806770 
# 
# From -- ./inp_files/7387.got.cif
#   From: 2010.05.17/outbox.cif.g08.bks.cpg/sg9_4_cif.got.tgz:7387.got - 2010.06.03 20:04:27.
