data_PCOD9139901
_publ_section_title
;
Structure prediction by ZEFSAII (Michael W. Deem and Ramdas Pophale) SiO2 
 PCOD9139901
Probable space group: C C
;
_chemical_formula_sum "Si O2"
_cell_formula_units_Z 28
_cell_length_a 4.952197
_cell_length_b 13.021324
_cell_length_c 17.917387
_cell_angle_alpha 90.000000
_cell_angle_beta 91.745407
_cell_angle_gamma 90.000000
_cell_volume 1154.851621
_symmetry_space_group_name_H-M "C C"
_symmetry_group_IT_number 9
_symmetry_cell_setting 'monoclinic'
loop_
_space_group_symop_operation_xyz
x,y,z
x,-y,1/2+z
1/2+x,1/2+y,z
1/2+x,1/2-y,1/2+z
loop_
_atom_site_type_symbol
_atom_site_label
_atom_site_fract_x
_atom_site_fract_y
_atom_site_fract_z
Si Si1 0.598940 0.717277 0.657680
Si Si2 0.873383 0.495822 0.471154
Si Si3 0.340740 0.399296 0.734240
Si Si4 0.599318 0.126803 0.736650
Si Si5 0.372752 0.859464 0.832871
Si Si6 0.014469 0.710114 0.899990
Si Si7 0.372500 0.384354 0.009662
O O1 0.747158 0.828642 0.663936
O O2 0.343127 0.701116 0.711274
O O3 0.480113 0.684461 0.577725
O O4 0.838766 0.639962 0.682609
O O5 0.877473 0.545550 0.388926
O O6 0.968102 0.380191 0.458943
O O7 0.576822 0.520228 0.498788
O O8 0.083724 0.564395 0.519321
O O9 0.235824 0.515329 0.730929
O O10 0.642025 0.386951 0.768886
O O11 0.482847 0.158149 0.817335
O O12 0.655624 0.848459 0.795944
O O13 0.304951 0.761029 0.883486
O O14 0.877181 0.809958 0.937564
#
# Coordination Sequence:
#
# PCOD9139901 Si02
#       7
#     4   4   4   4   4   4   4
#     4  12  26  48  66 101 145 184 225 285 347 418
#     4  11  25  44  70 100 139 174 231 285 338 406
#     4  12  23  42  67 103 137 173 225 284 339 404
#     4  12  26  41  76 102 136 179 236 289 345 398
#     4  11  22  40  67 105 135 163 224 287 337 391
#     4  11  24  43  74 102 135 182 228 289 346 394
#     4  11  28  46  68  99 145 185 229 277 346 425
#
# _framework density 24.245540999999999
#
# number of rings (size 3 to 8) (size 9 to 14) (size 15 to 20)
#    0.000    0.571    4.286    3.429    0.000    5.714 
#    0.000    0.000    0.000    0.000    0.000    0.000 
#    0.000    0.000    0.000    0.000    0.000    0.000 
#
# Total GULP energy -78163.345554 kJ/mol
# GULP energy per Si atom -5583.096111 kJ/mol
# Density = 2.419036 g / cm^3
# Si number density = 24.245541 Si / 1000 Ang^3
#
#
#
# Elastic Constant Matrix: (Units=GPa)
#
#
# Indices 1 2 3 4 5 6 
#
# 1 73.7109 28.6940 34.3238 0.0000 23.8418 0.0000
# 2 28.6940 126.7152 17.5214 0.0000 10.3684 0.0000
# 3 34.3238 17.5214 82.4061 0.0000 21.3050 0.0000
# 4 0.0000 0.0000 0.0000 20.5552 0.0000 1.1080
# 5 23.8418 10.3684 21.3050 0.0000 37.4149 0.0000
# 6 0.0000 0.0000 0.0000 1.1080 0.0000 26.5692
#
#
#
# Elastic Compliance Matrix: (Units=1/GPa)
#
#
# Indices 1 2 3 4 5 6 
#
# 1 0.020187 -0.003089 -0.005449 0.000000 -0.008905 0.000000
# 2 -0.003089 0.008675 -0.000522 0.000000 -0.000138 0.000000
# 3 -0.005449 -0.000522 0.015925 0.000000 -0.005451 0.000000
# 4 0.000000 0.000000 0.000000 0.048759 0.000000 -0.002033
# 5 -0.008905 -0.000138 -0.005451 0.000000 0.035544 0.000000
# 6 0.000000 0.000000 0.000000 -0.002033 0.000000 0.037722
#
#
# Mechanical properties :
#
#
# Convention : Reuss Voigt Hill
#
# Bulk Modulus (GPa) = 37.50123 49.32340 43.41232
# Shear Modulus (GPa) = 25.79702 30.39406 28.09554
#
# Velocity S-wave (km/s) = 3.26542 3.54445 3.40780
# Velocity P-wave (km/s) = 5.45144 6.09412 5.78172
#
# Compressibility (1/GPa) = 0.02666579
#
# Stress axis : x y z
#
# Youngs Moduli (GPa) = 49.53767 115.27758 62.79422
#
# Poissons Ratio (x) = 0.35610 0.34218
# Poissons Ratio (y) = 0.15303 0.03278
# Poissons Ratio (z) = 0.26994 0.06018
#
# Static dielectric constant tensor:
#      x y z
#    x 1.892390 0.000000 -0.000730 
#    y 0.000000 2.005490 0.000000 
#    z -0.000730 0.000000 2.009880 
# 
# From -- ./inp_files/31931.got.cif
#   From: 2010.05.17/outbox.cif.g08.bks.cpg/sg9_16_cif.got.tgz:31931.got - 2010.06.03 20:04:27.
