data_PCOD9139104
_publ_section_title
;
Structure prediction by ZEFSAII (Michael W. Deem and Ramdas Pophale) SiO2 
 PCOD9139104
Probable space group: C C
;
_chemical_formula_sum "Si O2"
_cell_formula_units_Z 28
_cell_length_a 8.502239
_cell_length_b 13.554018
_cell_length_c 15.884598
_cell_angle_alpha 90.000000
_cell_angle_beta 140.778193
_cell_angle_gamma 90.000000
_cell_volume 1157.490409
_symmetry_space_group_name_H-M "C C"
_symmetry_group_IT_number 9
_symmetry_cell_setting 'monoclinic'
loop_
_space_group_symop_operation_xyz
x,y,z
x,-y,1/2+z
1/2+x,1/2+y,z
1/2+x,1/2-y,1/2+z
loop_
_atom_site_type_symbol
_atom_site_label
_atom_site_fract_x
_atom_site_fract_y
_atom_site_fract_z
Si Si1 0.468840 0.958335 0.330390
Si Si2 0.596430 0.650259 0.463640
Si Si3 0.625271 0.717497 0.735688
Si Si4 0.693913 0.543277 0.079056
Si Si5 0.905420 0.159711 0.090693
Si Si6 0.628395 0.712851 0.937223
Si Si7 0.795611 0.622967 0.372738
O O1 0.234576 0.887962 0.253253
O O2 0.697291 0.891783 0.448823
O O3 0.443357 0.999931 0.225596
O O4 0.468514 0.046311 0.397062
O O5 0.348072 0.701346 0.324203
O O6 0.542193 0.558990 0.502777
O O7 0.777679 0.739276 0.569327
O O8 0.769228 0.610099 0.459933
O O9 0.578715 0.716514 0.817162
O O10 0.387475 0.740091 0.578869
O O11 0.629988 0.632226 0.118901
O O12 0.665805 0.600277 0.980730
O O13 0.019568 0.110826 0.220463
O O14 0.403662 0.769709 0.891728
#
# Coordination Sequence:
#
# PCOD9139104 Si02
#       7
#     4   4   4   4   4   4   4
#     4  10  24  44  72 102 144 189 244 307 373 450
#     4  11  25  44  72 102 139 192 241 303 369 452
#     4  11  26  45  73 106 148 188 251 307 380 448
#     4  11  24  44  71 107 144 193 246 300 385 434
#     4  10  24  45  69 106 140 189 241 312 363 449
#     4  12  26  47  70 111 147 196 245 314 375 457
#     4  11  25  45  71 102 146 189 240 305 373 444
#
# _framework density 24.190263999999999
#
# number of rings (size 3 to 8) (size 9 to 14) (size 15 to 20)
#    0.000    1.143    1.429    3.429   16.000    0.000 
#    0.000    0.000    0.000    0.000    0.000    0.000 
#    0.000    0.000    0.000    0.000    0.000    0.000 
#
# Total GULP energy -78034.834667 kJ/mol
# GULP energy per Si atom -5573.916762 kJ/mol
# Density = 2.413521 g / cm^3
# Si number density = 24.190264 Si / 1000 Ang^3
#
#
#
# Elastic Constant Matrix: (Units=GPa)
#
#
# Indices 1 2 3 4 5 6 
#
# 1 44.1257 18.9271 9.0781 0.0000 -14.0795 0.0000
# 2 18.9271 112.9164 18.1011 0.0000 -1.6261 0.0000
# 3 9.0781 18.1011 79.7226 -0.0001 4.5484 0.0000
# 4 0.0000 0.0000 -0.0001 30.9111 0.0000 -6.3720
# 5 -14.0795 -1.6261 4.5484 0.0000 31.6170 0.0000
# 6 0.0000 0.0000 0.0000 -6.3720 0.0000 21.5841
#
#
#
# Elastic Compliance Matrix: (Units=1/GPa)
#
#
# Indices 1 2 3 4 5 6 
#
# 1 0.029371 -0.004227 -0.003144 0.000000 0.013314 0.000000
# 2 -0.004227 0.009818 -0.001683 0.000000 -0.001135 0.000000
# 3 -0.003144 -0.001683 0.013479 0.000000 -0.003426 0.000000
# 4 0.000000 0.000000 0.000000 0.034447 0.000000 0.010169
# 5 0.013314 -0.001135 -0.003426 0.000000 0.037992 0.000000
# 6 0.000000 0.000000 0.000000 0.010169 0.000000 0.049333
#
#
# Mechanical properties :
#
#
# Convention : Reuss Voigt Hill
#
# Bulk Modulus (GPa) = 28.93623 36.55305 32.74464
# Shear Modulus (GPa) = 24.50150 29.53301 27.01725
#
# Velocity S-wave (km/s) = 3.18601 3.49788 3.34558
# Velocity P-wave (km/s) = 5.05194 5.60865 5.33756
#
# Compressibility (1/GPa) = 0.03455875
#
# Stress axis : x y z
#
# Youngs Moduli (GPa) = 34.04722 101.85205 74.18874
#
# Poissons Ratio (x) = 0.43057 0.23327
# Poissons Ratio (y) = 0.14393 0.12486
# Poissons Ratio (z) = 0.10705 0.17142
#
# Static dielectric constant tensor:
#      x y z
#    x 2.103200 0.000000 0.006810 
#    y 0.000000 1.974020 0.000000 
#    z 0.006810 0.000000 1.931380 
# 
# From -- ./inp_files/14515.got.cif
#   From: 2010.05.17/outbox.cif.g08.bks.cpg/sg9_8_cif.got.tgz:14515.got - 2010.06.03 20:04:27.
