data_PCOD9139117
_publ_section_title
;
Structure prediction by ZEFSAII (Michael W. Deem and Ramdas Pophale) SiO2 
 PCOD9139117
Probable space group: C C
;
_chemical_formula_sum "Si O2"
_cell_formula_units_Z 24
_cell_length_a 13.726280
_cell_length_b 5.192901
_cell_length_c 11.570090
_cell_angle_alpha 90.000000
_cell_angle_beta 89.670880
_cell_angle_gamma 90.000000
_cell_volume 824.693305
_symmetry_space_group_name_H-M "C C"
_symmetry_group_IT_number 9
_symmetry_cell_setting 'monoclinic'
loop_
_space_group_symop_operation_xyz
x,y,z
x,-y,1/2+z
1/2+x,1/2+y,z
1/2+x,1/2-y,1/2+z
loop_
_atom_site_type_symbol
_atom_site_label
_atom_site_fract_x
_atom_site_fract_y
_atom_site_fract_z
Si Si1 0.989930 0.505944 0.937370
Si Si2 0.571532 0.504396 0.814791
Si Si3 0.167730 0.463372 0.065345
Si Si4 0.330562 0.634810 0.918299
Si Si5 0.404664 0.407658 0.672298
Si Si6 0.247456 0.963851 0.188469
O O1 0.020136 0.779160 0.887446
O O2 0.040140 0.277631 0.863223
O O3 0.877152 0.421672 0.933940
O O4 0.051740 0.475073 0.053854
O O5 0.356576 0.550761 0.786539
O O6 0.517522 0.464127 0.693036
O O7 0.687248 0.478898 0.804787
O O8 0.221194 0.547908 0.946390
O O9 0.200282 0.694087 0.148242
O O10 0.213470 0.194883 0.106447
O O11 0.379262 0.518663 0.039590
O O12 0.360136 0.118456 0.689020
#
# Coordination Sequence:
#
# PCOD9139117 Si02
#       6
#     4   4   4   4   4   4
#     4  11  24  42  70 106 148 199 255 317 385 458
#     4  11  24  42  69 106 149 198 255 317 384 458
#     4  11  24  44  72 107 151 201 256 320 387 459
#     4  10  24  46  72 108 149 199 254 312 380 453
#     4  10  24  44  74 109 154 203 256 318 384 458
#     4  11  24  44  73 108 151 202 256 318 388 460
#
# _framework density 29.101728999999999
#
# number of rings (size 3 to 8) (size 9 to 14) (size 15 to 20)
#    0.000    1.333    0.000    4.000    0.000   14.667 
#    0.000    3.333    0.000    0.000    0.000    0.000 
#    0.000    0.000    0.000    0.000    0.000    0.000 
#
# Total GULP energy -67067.645051 kJ/mol
# GULP energy per Si atom -5588.970421 kJ/mol
# Density = 2.903549 g / cm^3
# Si number density = 29.101729 Si / 1000 Ang^3
#
#
#
# Elastic Constant Matrix: (Units=GPa)
#
#
# Indices 1 2 3 4 5 6 
#
# 1 173.6626 52.2725 19.8578 0.0000 -1.2926 0.0000
# 2 52.2725 155.1832 57.0526 0.0000 -2.8497 0.0000
# 3 19.8578 57.0526 146.1818 0.0000 -2.0289 0.0000
# 4 0.0000 0.0000 0.0000 74.0752 0.0000 3.3788
# 5 -1.2926 -2.8497 -2.0289 0.0000 70.6109 0.0000
# 6 0.0000 0.0000 0.0000 3.3788 0.0000 41.8167
#
#
#
# Elastic Compliance Matrix: (Units=1/GPa)
#
#
# Indices 1 2 3 4 5 6 
#
# 1 0.006408 -0.002146 -0.000033 0.000000 0.000030 0.000000
# 2 -0.002146 0.008246 -0.002924 0.000000 0.000209 0.000000
# 3 -0.000033 -0.002924 0.007988 0.000000 0.000111 0.000000
# 4 0.000000 0.000000 0.000000 0.013550 0.000000 -0.001095
# 5 0.000030 0.000209 0.000111 0.000000 0.014174 0.000000
# 6 0.000000 0.000000 0.000000 -0.001095 0.000000 0.024002
#
#
# Mechanical properties :
#
#
# Convention : Reuss Voigt Hill
#
# Bulk Modulus (GPa) = 80.40476 81.48815 80.94645
# Shear Modulus (GPa) = 56.35813 60.35686 58.35749
#
# Velocity S-wave (km/s) = 4.40544 4.55905 4.48291
# Velocity P-wave (km/s) = 7.31889 7.46828 7.39396
#
# Compressibility (1/GPa) = 0.01243708
#
# Stress axis : x y z
#
# Youngs Moduli (GPa) = 156.05012 121.27643 125.19033
#
# Poissons Ratio (x) = 0.26027 0.00407
# Poissons Ratio (y) = 0.33489 0.36602
# Poissons Ratio (z) = 0.00507 0.35458
#
# Static dielectric constant tensor:
#      x y z
#    x 2.373890 0.000000 0.019110 
#    y 0.000000 2.310610 0.000000 
#    z 0.019110 0.000000 2.340000 
# 
# From -- ./inp_files/25178.got.cif
#   From: 2010.05.17/outbox.cif.g08.bks.cpg/sg9_13_cif.got.tgz:25178.got - 2010.06.03 20:04:27.
