data_PCOD9139669
_publ_section_title
;
Structure prediction by ZEFSAII (Michael W. Deem and Ramdas Pophale) SiO2 
 PCOD9139669
Probable space group: C C
;
_chemical_formula_sum "Si O2"
_cell_formula_units_Z 32
_cell_length_a 6.324681
_cell_length_b 16.995964
_cell_length_c 14.328046
_cell_angle_alpha 90.000000
_cell_angle_beta 110.766094
_cell_angle_gamma 90.000000
_cell_volume 1440.122936
_symmetry_space_group_name_H-M "C C"
_symmetry_group_IT_number 9
_symmetry_cell_setting 'monoclinic'
loop_
_space_group_symop_operation_xyz
x,y,z
x,-y,1/2+z
1/2+x,1/2+y,z
1/2+x,1/2-y,1/2+z
loop_
_atom_site_type_symbol
_atom_site_label
_atom_site_fract_x
_atom_site_fract_y
_atom_site_fract_z
Si Si1 0.816070 0.556061 0.687720
Si Si2 0.830577 0.679685 0.220687
Si Si3 0.269219 0.506057 0.359305
Si Si4 0.588167 0.148437 0.068113
Si Si5 0.962454 0.953926 0.697418
Si Si6 0.503446 0.115219 0.432701
Si Si7 0.930335 0.711573 0.606466
Si Si8 0.746389 0.529090 0.976680
O O1 0.579175 0.537822 0.701613
O O2 0.834564 0.645984 0.660797
O O3 0.805827 0.504848 0.589526
O O4 0.036744 0.532327 0.783926
O O5 0.986548 0.671759 0.153846
O O6 0.664224 0.604786 0.204007
O O7 0.656310 0.750571 0.183882
O O8 0.959080 0.672382 0.338255
O O9 0.362635 0.553290 0.284689
O O10 0.221265 0.565938 0.435813
O O11 0.480834 0.454070 0.424030
O O12 0.756334 0.073689 0.101782
O O13 0.740469 0.221413 0.058618
O O14 0.381724 0.109735 0.979610
O O15 0.502928 0.166856 0.524299
O O16 0.323729 0.043994 0.423376
#
# Coordination Sequence:
#
# PCOD9139669 Si02
#       8
#     4   4   4   4   4   4   4   4
#     4  11  23  45  67 110 134 188 244 304 365 424
#     4  11  21  47  68  99 143 196 236 293 375 434
#     4  12  22  39  75 102 139 181 250 310 344 431
#     4  11  23  46  71 105 146 195 231 309 369 438
#     4  11  19  41  74  96 133 183 242 294 357 422
#     4  11  23  45  68 107 139 194 251 295 365 440
#     4  10  28  44  73 101 156 190 239 301 376 443
#     4  11  23  39  74 106 134 187 251 300 361 428
#
# _framework density 22.220324000000002
#
# number of rings (size 3 to 8) (size 9 to 14) (size 15 to 20)
#    0.000    1.000    6.250    0.000    1.750    3.000 
#    6.750    0.000    0.000    0.000    0.000    0.000 
#    0.000    0.000    0.000    0.000    0.000    0.000 
#
# Total GULP energy -89310.676759 kJ/mol
# GULP energy per Si atom -5581.917297 kJ/mol
# Density = 2.216975 g / cm^3
# Si number density = 22.220324 Si / 1000 Ang^3
#
#
#
# Elastic Constant Matrix: (Units=GPa)
#
#
# Indices 1 2 3 4 5 6 
#
# 1 110.2744 50.8986 36.0897 0.0000 1.7865 0.0000
# 2 50.8986 99.8563 35.1546 0.0000 -0.7089 0.0000
# 3 36.0897 35.1546 60.0621 0.0000 0.6617 0.0000
# 4 0.0000 0.0000 0.0000 27.7389 0.0000 -6.1566
# 5 1.7865 -0.7089 0.6617 0.0000 43.6503 0.0000
# 6 0.0000 0.0000 0.0000 -6.1566 0.0000 37.1375
#
#
#
# Elastic Compliance Matrix: (Units=1/GPa)
#
#
# Indices 1 2 3 4 5 6 
#
# 1 0.012931 -0.004864 -0.004917 0.000000 -0.000534 0.000000
# 2 -0.004864 0.014447 -0.005539 0.000000 0.000518 0.000000
# 3 -0.004917 -0.005539 0.022849 0.000000 -0.000235 0.000000
# 4 0.000000 0.000000 0.000000 0.037428 0.000000 0.006205
# 5 -0.000534 0.000518 -0.000235 0.000000 0.022943 0.000000
# 6 0.000000 0.000000 0.000000 0.006205 0.000000 0.027956
#
#
# Mechanical properties :
#
#
# Convention : Reuss Voigt Hill
#
# Bulk Modulus (GPa) = 51.05535 57.16431 54.10983
# Shear Modulus (GPa) = 28.45380 31.57534 30.01457
#
# Velocity S-wave (km/s) = 3.58233 3.77372 3.67927
# Velocity P-wave (km/s) = 6.33542 6.69103 6.51565
#
# Compressibility (1/GPa) = 0.01958658
#
# Stress axis : x y z
#
# Youngs Moduli (GPa) = 77.33213 69.21664 43.76593
#
# Poissons Ratio (x) = 0.33667 0.21521
# Poissons Ratio (y) = 0.37614 0.24243
# Poissons Ratio (z) = 0.38026 0.38341
#
# Static dielectric constant tensor:
#      x y z
#    x 1.865170 0.000000 0.014550 
#    y 0.000000 1.827490 0.000000 
#    z 0.014550 0.000000 1.884000 
# 
# From -- ./inp_files/21944.got.cif
#   From: 2010.05.17/outbox.cif.g08.bks.cpg/sg9_11_cif.got.tgz:21944.got - 2010.06.03 20:04:27.
