data_PCOD9139899
_publ_section_title
;
Structure prediction by ZEFSAII (Michael W. Deem and Ramdas Pophale) SiO2 
 PCOD9139899
Probable space group: C C
;
_chemical_formula_sum "Si O2"
_cell_formula_units_Z 32
_cell_length_a 27.419155
_cell_length_b 6.413201
_cell_length_c 9.933744
_cell_angle_alpha 90.000000
_cell_angle_beta 125.406248
_cell_angle_gamma 90.000000
_cell_volume 1423.750614
_symmetry_space_group_name_H-M "C C"
_symmetry_group_IT_number 9
_symmetry_cell_setting 'monoclinic'
loop_
_space_group_symop_operation_xyz
x,y,z
x,-y,1/2+z
1/2+x,1/2+y,z
1/2+x,1/2-y,1/2+z
loop_
_atom_site_type_symbol
_atom_site_label
_atom_site_fract_x
_atom_site_fract_y
_atom_site_fract_z
Si Si1 0.508970 0.534471 0.030920
Si Si2 0.695392 0.709131 0.587951
Si Si3 0.293529 0.507868 0.686530
Si Si4 0.259081 0.914076 0.466236
Si Si5 0.053855 0.763603 0.865980
Si Si6 0.370432 0.826357 0.145715
Si Si7 0.970825 0.391587 0.793698
Si Si8 0.902601 0.029184 0.523029
O O1 0.534983 0.571798 0.220133
O O2 0.537986 0.357895 0.986870
O O3 0.510905 0.750509 0.954268
O O4 0.438983 0.488808 0.942875
O O5 0.727817 0.926583 0.608955
O O6 0.721319 0.549496 0.515533
O O7 0.717675 0.641337 0.772555
O O8 0.625085 0.746381 0.469693
O O9 0.287535 0.721047 0.595566
O O10 0.330885 0.331362 0.668294
O O11 0.331952 0.496918 0.884827
O O12 0.317474 0.032629 0.499060
O O13 0.016604 0.548261 0.792413
O O14 0.419284 0.979130 0.290593
O O15 0.412091 0.686463 0.117064
O O16 0.931075 0.230425 0.639989
#
# Coordination Sequence:
#
# PCOD9139899 Si02
#       8
#     4   4   4   4   4   4   4   4
#     4  12  26  47  70 106 143 194 247 307 363 440
#     4  11  26  47  71 106 144 194 250 298 364 441
#     4  11  24  40  70 107 146 183 233 297 368 438
#     4  11  24  46  76 106 148 193 239 310 373 436
#     4  12  28  47  73 104 147 199 254 303 364 436
#     4  11  22  40  66 108 139 183 232 294 364 436
#     4  12  25  42  70 104 144 193 234 299 370 430
#     4  12  23  43  70 105 147 181 241 302 366 441
#
# _framework density 22.475849
#
# number of rings (size 3 to 8) (size 9 to 14) (size 15 to 20)
#    0.000    0.500    2.500    6.000    3.500    5.000 
#    0.000    0.000    0.000    0.000    0.000    0.000 
#    0.000    0.000    0.000    0.000    0.000    0.000 
#
# Total GULP energy -89319.191259 kJ/mol
# GULP energy per Si atom -5582.449454 kJ/mol
# Density = 2.242469 g / cm^3
# Si number density = 22.475849 Si / 1000 Ang^3
#
#
#
# Elastic Constant Matrix: (Units=GPa)
#
#
# Indices 1 2 3 4 5 6 
#
# 1 110.8000 43.3412 36.4746 0.0000 21.4367 0.0000
# 2 43.3412 102.2767 33.8121 0.0000 7.5997 0.0000
# 3 36.4746 33.8121 95.3928 0.0000 14.5637 0.0000
# 4 0.0000 0.0000 0.0000 23.4391 0.0000 0.7929
# 5 21.4367 7.5997 14.5637 0.0000 48.0019 0.0000
# 6 0.0000 0.0000 0.0000 0.7929 0.0000 34.3885
#
#
#
# Elastic Compliance Matrix: (Units=1/GPa)
#
#
# Indices 1 2 3 4 5 6 
#
# 1 0.012246 -0.004016 -0.002644 0.000000 -0.004031 0.000000
# 2 -0.004016 0.012408 -0.002974 0.000000 0.000731 0.000000
# 3 -0.002644 -0.002974 0.012893 0.000000 -0.002260 0.000000
# 4 0.000000 0.000000 0.000000 0.042697 0.000000 -0.000984
# 5 -0.004031 0.000731 -0.002260 0.000000 0.023203 0.000000
# 6 0.000000 0.000000 0.000000 -0.000984 0.000000 0.029102
#
#
# Mechanical properties :
#
#
# Convention : Reuss Voigt Hill
#
# Bulk Modulus (GPa) = 54.70491 59.52507 57.11499
# Shear Modulus (GPa) = 31.66346 34.15531 32.90939
#
# Velocity S-wave (km/s) = 3.75744 3.90249 3.83065
# Velocity P-wave (km/s) = 6.57394 6.84452 6.71059
#
# Compressibility (1/GPa) = 0.01827990
#
# Stress axis : x y z
#
# Youngs Moduli (GPa) = 81.65664 80.59210 77.56109
#
# Poissons Ratio (x) = 0.32367 0.20504
# Poissons Ratio (y) = 0.32794 0.23068
# Poissons Ratio (z) = 0.21587 0.23969
#
# Static dielectric constant tensor:
#      x y z
#    x 1.813360 0.000000 -0.026810 
#    y 0.000000 1.912580 0.000000 
#    z -0.026810 0.000000 1.943010 
# 
# From -- ./inp_files/20470.got.cif
#   From: 2010.05.17/outbox.cif.g08.bks.cpg/sg9_11_cif.got.tgz:20470.got - 2010.06.03 20:04:27.
