data_PCOD9139026
_publ_section_title
;
Structure prediction by ZEFSAII (Michael W. Deem and Ramdas Pophale) SiO2 
 PCOD9139026
Probable space group: C C
;
_chemical_formula_sum "Si O2"
_cell_formula_units_Z 28
_cell_length_a 12.655046
_cell_length_b 10.958424
_cell_length_c 8.693852
_cell_angle_alpha 90.000000
_cell_angle_beta 69.149978
_cell_angle_gamma 90.000000
_cell_volume 1126.705682
_symmetry_space_group_name_H-M "C C"
_symmetry_group_IT_number 9
_symmetry_cell_setting 'monoclinic'
loop_
_space_group_symop_operation_xyz
x,y,z
x,-y,1/2+z
1/2+x,1/2+y,z
1/2+x,1/2-y,1/2+z
loop_
_atom_site_type_symbol
_atom_site_label
_atom_site_fract_x
_atom_site_fract_y
_atom_site_fract_z
Si Si1 0.623050 0.362546 0.919230
Si Si2 0.939999 0.746818 0.780637
Si Si3 0.734321 0.124851 0.548608
Si Si4 0.168300 0.608832 0.931856
Si Si5 0.449055 0.985651 0.909022
Si Si6 0.698910 0.552510 0.664550
Si Si7 0.055328 0.751945 0.431758
O O1 0.528779 0.307291 0.856091
O O2 0.668227 0.246239 0.989213
O O3 0.705040 0.428484 0.759001
O O4 0.610556 0.456510 0.066678
O O5 0.827827 0.797301 0.916900
O O6 0.932619 0.598050 0.798107
O O7 0.953103 0.793933 0.597525
O O8 0.725417 0.123086 0.735074
O O9 0.622735 0.184317 0.534067
O O10 0.737527 0.985044 0.495835
O O11 0.042049 0.553090 0.972002
O O12 0.512372 0.856769 0.841096
O O13 0.326009 0.942474 0.031703
O O14 0.636866 0.650945 0.808188
#
# Coordination Sequence:
#
# PCOD9139026 Si02
#       7
#     4   4   4   4   4   4   4
#     4  11  26  46  67 105 147 190 247 308 364 445
#     4  11  24  48  75 103 148 193 246 303 377 436
#     4  11  23  44  74 101 146 186 243 305 364 435
#     4  10  24  45  71 105 140 187 252 302 363 448
#     4  10  24  43  76 103 138 197 244 296 369 448
#     4  12  27  45  73 103 152 191 247 305 375 430
#     4  11  24  45  70 108 141 188 247 307 358 442
#
# _framework density 24.851210999999999
#
# number of rings (size 3 to 8) (size 9 to 14) (size 15 to 20)
#    0.000    1.143    2.857    2.571    8.000    3.429 
#    5.143    0.000    0.000    0.000    0.000    0.000 
#    0.000    0.000    0.000    0.000    0.000    0.000 
#
# Total GULP energy -78053.104453 kJ/mol
# GULP energy per Si atom -5575.221747 kJ/mol
# Density = 2.479465 g / cm^3
# Si number density = 24.851211 Si / 1000 Ang^3
#
#
#
# Elastic Constant Matrix: (Units=GPa)
#
#
# Indices 1 2 3 4 5 6 
#
# 1 32.1149 32.4514 27.3240 0.0000 -16.6283 0.0000
# 2 32.4514 99.7084 48.9410 0.0000 -19.3820 0.0000
# 3 27.3240 48.9410 133.8175 0.0000 -10.1497 0.0000
# 4 0.0000 0.0000 0.0000 46.0133 0.0000 0.6066
# 5 -16.6283 -19.3820 -10.1497 0.0000 41.4930 0.0000
# 6 0.0000 0.0000 0.0000 0.6066 0.0000 23.3891
#
#
#
# Elastic Compliance Matrix: (Units=1/GPa)
#
#
# Indices 1 2 3 4 5 6 
#
# 1 0.056873 -0.012651 -0.005813 0.000000 0.015460 0.000000
# 2 -0.012651 0.016011 -0.003148 0.000000 0.001639 0.000000
# 3 -0.005813 -0.003148 0.009703 0.000000 -0.001427 0.000000
# 4 0.000000 0.000000 0.000000 0.021740 0.000000 -0.000564
# 5 0.015460 0.001639 -0.001427 0.000000 0.030713 0.000000
# 6 0.000000 0.000000 0.000000 -0.000564 0.000000 0.042770
#
#
# Mechanical properties :
#
#
# Convention : Reuss Voigt Hill
#
# Bulk Modulus (GPa) = 25.40565 53.67483 39.54024
# Shear Modulus (GPa) = 21.35340 32.64070 26.99705
#
# Velocity S-wave (km/s) = 2.93448 3.62808 3.29955
# Velocity P-wave (km/s) = 4.66121 6.26067 5.51919
#
# Compressibility (1/GPa) = 0.03936132
#
# Stress axis : x y z
#
# Youngs Moduli (GPa) = 17.58300 62.45896 103.06154
#
# Poissons Ratio (x) = 0.79020 0.59912
# Poissons Ratio (y) = 0.22245 0.32443
# Poissons Ratio (z) = 0.10221 0.19662
#
# Static dielectric constant tensor:
#      x y z
#    x 2.129690 0.000000 -0.041500 
#    y 0.000000 2.042820 0.000000 
#    z -0.041500 0.000000 2.044650 
# 
# From -- ./inp_files/9025.got.cif
#   From: 2010.05.17/outbox.cif.g08.bks.cpg/sg9_5_cif.got.tgz:9025.got - 2010.06.03 20:04:27.
