data_PCOD9139149
_publ_section_title
;
Structure prediction by ZEFSAII (Michael W. Deem and Ramdas Pophale) SiO2 
 PCOD9139149
Probable space group: C C
;
_chemical_formula_sum "Si O2"
_cell_formula_units_Z 24
_cell_length_a 21.609379
_cell_length_b 9.246867
_cell_length_c 14.460116
_cell_angle_alpha 90.000000
_cell_angle_beta 160.004077
_cell_angle_gamma 90.000000
_cell_volume 988.042087
_symmetry_space_group_name_H-M "C C"
_symmetry_group_IT_number 9
_symmetry_cell_setting 'monoclinic'
loop_
_space_group_symop_operation_xyz
x,y,z
x,-y,1/2+z
1/2+x,1/2+y,z
1/2+x,1/2-y,1/2+z
loop_
_atom_site_type_symbol
_atom_site_label
_atom_site_fract_x
_atom_site_fract_y
_atom_site_fract_z
Si Si1 0.457090 0.320684 0.500000
Si Si2 0.017905 0.356686 0.732308
Si Si3 0.134809 0.863565 0.937396
Si Si4 0.270005 0.576908 0.172913
Si Si5 0.816093 0.630201 0.139699
Si Si6 0.641713 0.464898 0.131284
O O1 0.520987 0.301155 0.693109
O O2 0.308130 0.449840 0.298955
O O3 0.384259 0.192026 0.334047
O O4 0.613170 0.391823 0.653705
O O5 0.943067 0.334432 0.731379
O O6 0.842358 0.405064 0.427975
O O7 0.165652 0.486254 0.946697
O O8 0.126829 0.214433 0.854193
O O9 0.169583 0.724041 0.049191
O O10 0.082307 0.981482 0.941082
O O11 0.291745 0.957418 0.108810
O O12 0.472761 0.627416 0.432186
#
# Coordination Sequence:
#
# PCOD9139149 Si02
#       6
#     4   4   4   4   4   4
#     4   9  23  49  63 107 145 182 250 291 364 454
#     4  11  24  47  78 103 153 193 249 310 369 445
#     4  12  24  43  76 101 143 197 241 303 370 432
#     4   9  25  48  65 109 145 190 247 308 363 448
#     4  11  24  46  76 107 143 198 243 308 371 434
#     4  10  24  45  70 103 151 186 250 300 371 435
#
# _framework density 24.290464
#
# number of rings (size 3 to 8) (size 9 to 14) (size 15 to 20)
#    1.000    0.667    1.667    1.000    9.333    0.000 
#    6.000    0.000    0.000    0.000    0.000    0.000 
#    0.000    0.000    0.000    0.000    0.000    0.000 
#
# Total GULP energy -66800.647647 kJ/mol
# GULP energy per Si atom -5566.720637 kJ/mol
# Density = 2.423518 g / cm^3
# Si number density = 24.290464 Si / 1000 Ang^3
#
#
#
# Elastic Constant Matrix: (Units=GPa)
#
#
# Indices 1 2 3 4 5 6 
#
# 1 54.1622 -1.9499 25.1213 0.0000 -6.5568 0.0000
# 2 -1.9499 103.8675 35.9790 0.0000 -0.5563 0.0000
# 3 25.1213 35.9790 120.3941 0.0000 -8.5199 0.0000
# 4 0.0000 0.0000 0.0000 29.8877 0.0000 1.6945
# 5 -6.5568 -0.5563 -8.5199 0.0000 42.1237 0.0000
# 6 0.0000 0.0000 0.0000 1.6945 0.0000 16.4927
#
#
#
# Elastic Compliance Matrix: (Units=1/GPa)
#
#
# Indices 1 2 3 4 5 6 
#
# 1 0.021073 0.002091 -0.004857 0.000000 0.002325 0.000000
# 2 0.002091 0.010958 -0.003731 0.000000 -0.000285 0.000000
# 3 -0.004857 -0.003731 0.010528 0.000000 0.001324 0.000000
# 4 0.000000 0.000000 0.000000 0.033655 0.000000 -0.003458
# 5 0.002325 -0.000285 0.001324 0.000000 0.024366 0.000000
# 6 0.000000 0.000000 0.000000 -0.003458 0.000000 0.060988
#
#
# Mechanical properties :
#
#
# Convention : Reuss Voigt Hill
#
# Bulk Modulus (GPa) = 33.82565 44.08053 38.95309
# Shear Modulus (GPa) = 27.11249 32.31903 29.71576
#
# Velocity S-wave (km/s) = 3.34455 3.65159 3.50144
# Velocity P-wave (km/s) = 5.37312 5.99712 5.69368
#
# Compressibility (1/GPa) = 0.02956336
#
# Stress axis : x y z
#
# Youngs Moduli (GPa) = 47.45483 91.25943 94.98259
#
# Poissons Ratio (x) = -0.19078 0.46135
# Poissons Ratio (y) = -0.09921 0.35438
# Poissons Ratio (z) = 0.23050 0.34049
#
# Static dielectric constant tensor:
#      x y z
#    x 1.986470 0.000000 0.027020 
#    y 0.000000 1.993560 0.000000 
#    z 0.027020 0.000000 2.003270 
# 
# From -- ./inp_files/27722.got.cif
#   From: 2010.05.17/outbox.cif.g08.bks.cpg/sg9_14_cif.got.tgz:27722.got - 2010.06.03 20:04:27.
