data_PCOD9140294
_publ_section_title
;
Structure prediction by ZEFSAII (Michael W. Deem and Ramdas Pophale) SiO2 
 PCOD9140294
Probable space group: C C
;
_chemical_formula_sum "Si O2"
_cell_formula_units_Z 32
_cell_length_a 13.979483
_cell_length_b 19.193483
_cell_length_c 8.694545
_cell_angle_alpha 90.000000
_cell_angle_beta 139.816180
_cell_angle_gamma 90.000000
_cell_volume 1505.269878
_symmetry_space_group_name_H-M "C C"
_symmetry_group_IT_number 9
_symmetry_cell_setting 'monoclinic'
loop_
_space_group_symop_operation_xyz
x,y,z
x,-y,1/2+z
1/2+x,1/2+y,z
1/2+x,1/2-y,1/2+z
loop_
_atom_site_type_symbol
_atom_site_label
_atom_site_fract_x
_atom_site_fract_y
_atom_site_fract_z
Si Si1 0.025090 0.941941 0.393280
Si Si2 0.103826 0.416356 0.688719
Si Si3 0.579856 0.185480 0.680313
Si Si4 0.731525 0.672347 0.300169
Si Si5 0.540778 0.411599 0.054075
Si Si6 0.775986 0.815148 0.718756
Si Si7 0.698322 0.056331 0.635026
Si Si8 0.306955 0.157881 0.745471
O O1 0.143891 0.887134 0.602616
O O2 0.010075 0.932419 0.192252
O O3 0.867162 0.933858 0.285664
O O4 0.072155 0.020244 0.492466
O O5 0.207944 0.349060 0.788029
O O6 0.171115 0.481248 0.677618
O O7 0.944044 0.393614 0.432361
O O8 0.100410 0.437135 0.861437
O O9 0.643396 0.254892 0.678759
O O10 0.402287 0.182141 0.459796
O O11 0.648654 0.116878 0.688639
O O12 0.643389 0.188678 0.932245
O O13 0.740360 0.653148 0.492146
O O14 0.682421 0.362416 0.214825
O O15 0.401450 0.368748 0.817674
O O16 0.845583 0.738957 0.819271
#
# Coordination Sequence:
#
# PCOD9140294 Si02
#       8
#     4   4   4   4   4   4   4   4
#     4  12  26  47  70 103 139 190 236 290 354 419
#     4  12  25  46  71 105 139 188 236 285 355 411
#     4  11  26  45  75 104 142 188 231 294 348 424
#     4  11  26  47  72 106 142 184 237 286 357 417
#     4  12  27  45  73 103 144 186 234 293 351 416
#     4  11  23  48  72 103 141 187 236 279 354 416
#     4  12  26  45  74  99 145 187 235 294 348 422
#     4  11  27  43  73 105 144 184 229 295 343 425
#
# _framework density 21.258647
#
# number of rings (size 3 to 8) (size 9 to 14) (size 15 to 20)
#    0.000    0.500    3.750    3.000   12.250    2.000 
#    0.000    0.000    0.000    0.000    0.000    0.000 
#    0.000    0.000    0.000    0.000    0.000    0.000 
#
# Total GULP energy -89546.096688 kJ/mol
# GULP energy per Si atom -5596.631043 kJ/mol
# Density = 2.121026 g / cm^3
# Si number density = 21.258647 Si / 1000 Ang^3
#
#
#
# Elastic Constant Matrix: (Units=GPa)
#
#
# Indices 1 2 3 4 5 6 
#
# 1 75.5651 28.5040 17.3872 0.0000 13.6676 0.0000
# 2 28.5040 127.3381 49.2924 0.0000 14.0012 0.0000
# 3 17.3872 49.2924 81.8048 0.0000 15.5547 0.0000
# 4 0.0000 0.0000 0.0000 39.1614 0.0000 4.0966
# 5 13.6676 14.0012 15.5547 0.0000 32.9001 0.0000
# 6 0.0000 0.0000 0.0000 4.0966 0.0000 24.1646
#
#
#
# Elastic Compliance Matrix: (Units=1/GPa)
#
#
# Indices 1 2 3 4 5 6 
#
# 1 0.015267 -0.002587 -0.000757 0.000000 -0.004883 0.000000
# 2 -0.002587 0.010756 -0.005785 0.000000 -0.000767 0.000000
# 3 -0.000757 -0.005785 0.016859 0.000000 -0.005194 0.000000
# 4 0.000000 0.000000 0.000000 0.025996 0.000000 -0.004407
# 5 -0.004883 -0.000767 -0.005194 0.000000 0.035206 0.000000
# 6 0.000000 0.000000 0.000000 -0.004407 0.000000 0.042130
#
#
# Mechanical properties :
#
#
# Convention : Reuss Voigt Hill
#
# Bulk Modulus (GPa) = 40.61440 52.78613 46.70027
# Shear Modulus (GPa) = 28.95496 31.88018 30.41757
#
# Velocity S-wave (km/s) = 3.69458 3.87671 3.78674
# Velocity P-wave (km/s) = 6.11116 6.70245 6.41362
#
# Compressibility (1/GPa) = 0.02462181
#
# Stress axis : x y z
#
# Youngs Moduli (GPa) = 65.50025 92.96981 59.31597
#
# Poissons Ratio (x) = 0.24055 0.04493
# Poissons Ratio (y) = 0.16947 0.34317
# Poissons Ratio (z) = 0.04961 0.53787
#
# Static dielectric constant tensor:
#      x y z
#    x 1.760860 0.000000 0.014780 
#    y 0.000000 1.738270 0.000000 
#    z 0.014780 0.000000 1.749910 
# 
# From -- ./inp_files/9958.got.cif
#   From: 2010.05.17/outbox.cif.g08.bks.cpg/sg9_5_cif.got.tgz:9958.got - 2010.06.03 20:04:27.
