data_PCOD9140837
_publ_section_title
;
Structure prediction by ZEFSAII (Michael W. Deem and Ramdas Pophale) SiO2 
 PCOD9140837
Probable space group: C C
;
_chemical_formula_sum "Si O2"
_cell_formula_units_Z 28
_cell_length_a 20.514251
_cell_length_b 7.574809
_cell_length_c 9.699219
_cell_angle_alpha 90.000000
_cell_angle_beta 49.150040
_cell_angle_gamma 90.000000
_cell_volume 1140.066002
_symmetry_space_group_name_H-M "C C"
_symmetry_group_IT_number 9
_symmetry_cell_setting 'monoclinic'
loop_
_space_group_symop_operation_xyz
x,y,z
x,-y,1/2+z
1/2+x,1/2+y,z
1/2+x,1/2-y,1/2+z
loop_
_atom_site_type_symbol
_atom_site_label
_atom_site_fract_x
_atom_site_fract_y
_atom_site_fract_z
Si Si1 0.564230 0.170225 0.388160
Si Si2 0.828586 0.130151 0.538098
Si Si3 0.884300 0.143864 0.758435
Si Si4 0.189429 0.844891 0.429371
Si Si5 0.563677 0.357516 0.112514
Si Si6 0.140376 0.670284 0.777009
Si Si7 0.375713 0.071879 0.762898
O O1 0.636520 0.215183 0.402582
O O2 0.562402 0.318270 0.274206
O O3 0.467711 0.131105 0.574109
O O4 0.602496 0.001672 0.256233
O O5 0.882410 0.096611 0.600598
O O6 0.731481 0.150470 0.725015
O O7 0.861316 0.310191 0.420411
O O8 0.819275 0.972934 0.438984
O O9 0.873371 0.357589 0.788269
O O10 0.972196 0.063511 0.699854
O O11 0.159727 0.804055 0.626785
O O12 0.292822 0.865592 0.284993
O O13 0.145731 0.030138 0.457091
O O14 0.570748 0.200778 0.992610
#
# Coordination Sequence:
#
# PCOD9140837 Si02
#       7
#     4   4   4   4   4   4   4
#     4  12  27  47  80 109 152 201 257 321 393 467
#     4  11  30  49  78 115 156 208 270 326 388 476
#     4  12  29  48  82 114 160 210 267 322 399 466
#     4  11  27  50  78 110 154 202 261 319 387 470
#     4  12  27  46  73 111 152 200 258 322 384 462
#     4  11  26  49  72 109 151 199 253 321 390 460
#     4  11  28  53  81 114 159 208 262 323 401 473
#
# _framework density 24.559981000000001
#
# number of rings (size 3 to 8) (size 9 to 14) (size 15 to 20)
#    0.000    0.571    1.429    3.429   18.000    1.143 
#    0.000    0.000    0.000    0.000    0.000    0.000 
#    0.000    0.000    0.000    0.000    0.000    0.000 
#
# Total GULP energy -78213.400734 kJ/mol
# GULP energy per Si atom -5586.671481 kJ/mol
# Density = 2.450408 g / cm^3
# Si number density = 24.559981 Si / 1000 Ang^3
#
#
#
# Elastic Constant Matrix: (Units=GPa)
#
#
# Indices 1 2 3 4 5 6 
#
# 1 97.5497 20.1099 15.5508 0.0000 5.2828 0.0000
# 2 20.1099 108.6530 39.1563 0.0000 0.0170 0.0000
# 3 15.5508 39.1563 81.3670 0.0000 -2.4976 0.0000
# 4 0.0000 0.0000 0.0000 9.7261 0.0000 -3.4940
# 5 5.2828 0.0170 -2.4976 0.0000 53.2949 0.0000
# 6 0.0000 0.0000 0.0000 -3.4940 0.0000 30.0698
#
#
#
# Elastic Compliance Matrix: (Units=1/GPa)
#
#
# Indices 1 2 3 4 5 6 
#
# 1 0.010844 -0.001509 -0.001381 0.000000 -0.001139 0.000000
# 2 -0.001509 0.011348 -0.005176 0.000000 -0.000097 0.000000
# 3 -0.001381 -0.005176 0.015071 0.000000 0.000845 0.000000
# 4 0.000000 0.000000 0.000000 0.107294 0.000000 0.012467
# 5 -0.001139 -0.000097 0.000845 0.000000 0.018916 0.000000
# 6 0.000000 0.000000 0.000000 0.012467 0.000000 0.034705
#
#
# Mechanical properties :
#
#
# Convention : Reuss Voigt Hill
#
# Bulk Modulus (GPa) = 47.32410 48.57820 47.95115
# Shear Modulus (GPa) = 22.58830 32.80168 27.69499
#
# Velocity S-wave (km/s) = 3.03598 3.65852 3.36169
# Velocity P-wave (km/s) = 5.62140 6.13748 5.88510
#
# Compressibility (1/GPa) = 0.02113088
#
# Stress axis : x y z
#
# Youngs Moduli (GPa) = 92.21536 88.12026 66.35444
#
# Poissons Ratio (x) = 0.13298 0.09165
# Poissons Ratio (y) = 0.13916 0.34343
# Poissons Ratio (z) = 0.12737 0.45608
#
# Static dielectric constant tensor:
#      x y z
#    x 2.033330 0.000000 -0.086020 
#    y 0.000000 2.028170 0.000000 
#    z -0.086020 0.000000 1.899660 
# 
# From -- ./inp_files/11403.got.cif
#   From: 2010.05.17/outbox.cif.g08.bks.cpg/sg9_6_cif.got.tgz:11403.got - 2010.06.03 20:04:27.
