data_PCOD9140473
_publ_section_title
;
Structure prediction by ZEFSAII (Michael W. Deem and Ramdas Pophale) SiO2 
 PCOD9140473
Probable space group: C C
;
_chemical_formula_sum "Si O2"
_cell_formula_units_Z 32
_cell_length_a 27.822528
_cell_length_b 9.756881
_cell_length_c 8.668539
_cell_angle_alpha 90.000000
_cell_angle_beta 143.382007
_cell_angle_gamma 90.000000
_cell_volume 1403.612337
_symmetry_space_group_name_H-M "C C"
_symmetry_group_IT_number 9
_symmetry_cell_setting 'monoclinic'
loop_
_space_group_symop_operation_xyz
x,y,z
x,-y,1/2+z
1/2+x,1/2+y,z
1/2+x,1/2-y,1/2+z
loop_
_atom_site_type_symbol
_atom_site_label
_atom_site_fract_x
_atom_site_fract_y
_atom_site_fract_z
Si Si1 0.630010 0.076004 0.485670
Si Si2 0.861700 0.453463 0.104867
Si Si3 0.708484 0.838623 0.505033
Si Si4 0.420325 0.319053 0.651461
Si Si5 0.182588 0.941091 0.098392
Si Si6 0.452234 0.146675 0.136551
Si Si7 0.107354 0.175961 0.714396
Si Si8 0.885980 0.919172 0.895381
O O1 0.682280 0.123185 0.765230
O O2 0.639982 0.183992 0.372026
O O3 0.656090 0.929354 0.488545
O O4 0.538034 0.087411 0.307235
O O5 0.769248 0.492494 0.855090
O O6 0.918948 0.579669 0.205803
O O7 0.881083 0.329756 0.036028
O O8 0.888396 0.396493 0.339376
O O9 0.694416 0.679877 0.504827
O O10 0.801774 0.879802 0.757857
O O11 0.381477 0.389987 0.702223
O O12 0.408232 0.424534 0.483128
O O13 0.514004 0.302154 0.933827
O O14 0.151479 0.872109 0.174208
O O15 0.122425 0.055933 0.877951
O O16 0.451228 0.311563 0.132415
#
# Coordination Sequence:
#
# PCOD9140473 Si02
#       8
#     4   4   4   4   4   4   4   4
#     4  12  26  48  75 105 150 186 239 303 355 437
#     4  11  24  47  69 103 141 187 238 291 353 433
#     4  12  27  46  74 108 144 191 239 296 365 427
#     4  11  26  46  72 102 145 186 244 291 356 427
#     4  12  27  44  74 106 145 188 242 299 365 426
#     4  11  24  46  71 101 143 187 237 289 357 425
#     4  12  26  46  72 107 142 192 242 296 366 424
#     4  11  24  47  69 102 144 183 239 291 355 427
#
# _framework density 22.798317999999998
#
# number of rings (size 3 to 8) (size 9 to 14) (size 15 to 20)
#    0.000    0.500    3.750    4.500   10.500    1.000 
#    2.250    0.000    0.000    0.000    0.000    0.000 
#    0.000    0.000    0.000    0.000    0.000    0.000 
#
# Total GULP energy -89665.341653 kJ/mol
# GULP energy per Si atom -5604.083853 kJ/mol
# Density = 2.274643 g / cm^3
# Si number density = 22.798318 Si / 1000 Ang^3
#
#
#
# Elastic Constant Matrix: (Units=GPa)
#
#
# Indices 1 2 3 4 5 6 
#
# 1 81.8819 8.6421 20.0812 0.0000 22.6158 0.0000
# 2 8.6421 85.4293 21.3774 0.0000 11.9547 0.0000
# 3 20.0812 21.3774 38.9661 0.0000 13.7118 0.0000
# 4 0.0000 0.0000 0.0000 34.0312 0.0000 -6.4270
# 5 22.6158 11.9547 13.7118 0.0000 33.7838 0.0000
# 6 0.0000 0.0000 0.0000 -6.4270 0.0000 46.5712
#
#
#
# Elastic Compliance Matrix: (Units=1/GPa)
#
#
# Indices 1 2 3 4 5 6 
#
# 1 0.015905 0.001036 -0.005704 0.000000 -0.008699 0.000000
# 2 0.001036 0.013762 -0.007147 0.000000 -0.002662 0.000000
# 3 -0.005704 -0.007147 0.035337 0.000000 -0.007995 0.000000
# 4 0.000000 0.000000 0.000000 0.030171 0.000000 0.004164
# 5 -0.008699 -0.002662 -0.007995 0.000000 0.039610 0.000000
# 6 0.000000 0.000000 0.000000 0.004164 0.000000 0.022047
#
#
# Mechanical properties :
#
#
# Convention : Reuss Voigt Hill
#
# Bulk Modulus (GPa) = 24.16994 34.05319 29.11157
# Shear Modulus (GPa) = 25.73968 33.28903 29.51435
#
# Velocity S-wave (km/s) = 3.36373 3.82534 3.60194
# Velocity P-wave (km/s) = 5.07059 5.87198 5.48594
#
# Compressibility (1/GPa) = 0.04137370
#
# Stress axis : x y z
#
# Youngs Moduli (GPa) = 62.87422 72.66522 28.29905
#
# Poissons Ratio (x) = -0.07525 0.16141
# Poissons Ratio (y) = -0.06511 0.20225
# Poissons Ratio (z) = 0.35862 0.51932
#
# Static dielectric constant tensor:
#      x y z
#    x 1.846140 0.000000 -0.007370 
#    y 0.000000 1.855470 0.000000 
#    z -0.007370 0.000000 1.814360 
# 
# From -- ./inp_files/12700.got.cif
#   From: 2010.05.17/outbox.cif.g08.bks.cpg/sg9_7_cif.got.tgz:12700.got - 2010.06.03 20:04:27.
