data_PCOD9140688
_publ_section_title
;
Structure prediction by ZEFSAII (Michael W. Deem and Ramdas Pophale) SiO2 
 PCOD9140688
Probable space group: C C
;
_chemical_formula_sum "Si O2"
_cell_formula_units_Z 20
_cell_length_a 18.194795
_cell_length_b 4.886686
_cell_length_c 18.781082
_cell_angle_alpha 90.000000
_cell_angle_beta 25.290677
_cell_angle_gamma 90.000000
_cell_volume 713.385668
_symmetry_space_group_name_H-M "C C"
_symmetry_group_IT_number 9
_symmetry_cell_setting 'monoclinic'
loop_
_space_group_symop_operation_xyz
x,y,z
x,-y,1/2+z
1/2+x,1/2+y,z
1/2+x,1/2-y,1/2+z
loop_
_atom_site_type_symbol
_atom_site_label
_atom_site_fract_x
_atom_site_fract_y
_atom_site_fract_z
Si Si1 0.767610 0.159535 0.551820
Si Si2 0.419215 0.901944 0.815863
Si Si3 0.538383 0.483081 0.106880
Si Si4 0.575274 0.350331 0.858152
Si Si5 0.914865 0.486364 0.121231
O O1 0.849022 0.437041 0.447988
O O2 0.680212 0.219101 0.702842
O O3 0.929217 0.986612 0.441313
O O4 0.615611 0.025210 0.637234
O O5 0.458926 0.583281 0.756638
O O6 0.244441 0.978933 0.926377
O O7 0.473078 0.722330 0.113573
O O8 0.465661 0.220598 0.131535
O O9 0.712689 0.529086 0.780684
O O10 0.506187 0.109949 0.970391
#
# Coordination Sequence:
#
# PCOD9140688 Si02
#       5
#     4   4   4   4   4
#     4   9  21  49  82 120 160 214 273 342 412 488
#     4  11  25  46  81 120 165 215 274 338 415 493
#     4  12  28  48  78 117 165 217 270 336 410 498
#     4   9  21  46  80 117 162 212 275 342 411 487
#     4  11  25  47  77 116 162 214 272 338 412 492
#
# _framework density 28.035325
#
# number of rings (size 3 to 8) (size 9 to 14) (size 15 to 20)
#    0.000    1.600    0.000    2.400    0.000   14.400 
#    0.000   32.000    0.000    0.000    0.000    0.000 
#    0.000    0.000    0.000    0.000    0.000    0.000 
#
# Total GULP energy -55754.885639 kJ/mol
# GULP energy per Si atom -5575.488564 kJ/mol
# Density = 2.797152 g / cm^3
# Si number density = 28.035325 Si / 1000 Ang^3
#
#
#
# Elastic Constant Matrix: (Units=GPa)
#
#
# Indices 1 2 3 4 5 6 
#
# 1 235.2943 83.5857 97.3635 -0.0044 -53.6934 -0.0018
# 2 83.5857 187.7973 60.9136 -0.0219 -8.0681 0.0152
# 3 97.3635 60.9136 162.6746 -0.0057 -6.2100 0.0052
# 4 -0.0044 -0.0219 -0.0057 31.6723 -0.0020 -4.6877
# 5 -53.6934 -8.0681 -6.2100 -0.0020 84.3530 0.0003
# 6 -0.0018 0.0152 0.0052 -4.6877 0.0003 33.1695
#
#
#
# Elastic Compliance Matrix: (Units=1/GPa)
#
#
# Indices 1 2 3 4 5 6 
#
# 1 0.007368 -0.001957 -0.003515 0.000000 0.004244 0.000002
# 2 -0.001957 0.006595 -0.001326 0.000004 -0.000712 -0.000002
# 3 -0.003515 -0.001326 0.008682 0.000000 -0.001725 -0.000001
# 4 0.000000 0.000004 0.000000 0.032248 0.000001 0.004557
# 5 0.004244 -0.000712 -0.001725 0.000001 0.014361 0.000001
# 6 0.000002 -0.000002 -0.000001 0.004557 0.000001 0.030792
#
#
# Mechanical properties :
#
#
# Convention : Reuss Voigt Hill
#
# Bulk Modulus (GPa) = 110.50041 118.83243 114.66642
# Shear Modulus (GPa) = 42.86010 52.76587 47.81298
#
# Velocity S-wave (km/s) = 3.91421 4.34305 4.13420
# Velocity P-wave (km/s) = 7.74134 8.22363 7.98613
#
# Compressibility (1/GPa) = 0.00904974
#
# Stress axis : x y z
#
# Youngs Moduli (GPa) = 135.71680 151.62450 115.18557
#
# Poissons Ratio (x) = 0.29673 0.40490
# Poissons Ratio (y) = 0.26559 0.15268
# Poissons Ratio (z) = 0.47708 0.20098
#
# Static dielectric constant tensor:
#      x y z
#    x 2.273700 0.000000 0.062160 
#    y 0.000000 2.232930 0.000010 
#    z 0.062160 0.000010 2.358840 
# 
# From -- ./inp_files/10229.got.cif
#   From: 2010.05.17/outbox.cif.g08.bks.cpg/sg9_6_cif.got.tgz:10229.got - 2010.06.03 20:04:27.
