data_PCOD9140998
_publ_section_title
;
Structure prediction by ZEFSAII (Michael W. Deem and Ramdas Pophale) SiO2 
 PCOD9140998
Probable space group: C C
;
_chemical_formula_sum "Si O2"
_cell_formula_units_Z 32
_cell_length_a 26.939785
_cell_length_b 7.911826
_cell_length_c 8.950587
_cell_angle_alpha 90.000000
_cell_angle_beta 38.110360
_cell_angle_gamma 90.000000
_cell_volume 1177.424091
_symmetry_space_group_name_H-M "C C"
_symmetry_group_IT_number 9
_symmetry_cell_setting 'monoclinic'
loop_
_space_group_symop_operation_xyz
x,y,z
x,-y,1/2+z
1/2+x,1/2+y,z
1/2+x,1/2-y,1/2+z
loop_
_atom_site_type_symbol
_atom_site_label
_atom_site_fract_x
_atom_site_fract_y
_atom_site_fract_z
Si Si1 0.512950 0.165194 0.450430
Si Si2 0.236083 0.615889 0.520137
Si Si3 0.629547 0.561631 0.717648
Si Si4 0.884646 0.114081 0.602726
Si Si5 0.339552 0.126889 0.954113
Si Si6 0.068878 0.485592 0.564849
Si Si7 0.984747 0.153299 0.663382
Si Si8 0.231059 0.162158 0.752942
O O1 0.564362 0.325744 0.284311
O O2 0.418577 0.154625 0.666642
O O3 0.533584 0.153103 0.577109
O O4 0.559904 0.010272 0.263370
O O5 0.305045 0.473737 0.360063
O O6 0.268545 0.778220 0.534384
O O7 0.155023 0.559634 0.794892
O O8 0.230340 0.673081 0.359520
O O9 0.684637 0.663060 0.705363
O O10 0.684714 0.471697 0.467257
O O11 0.572756 0.428254 0.934292
O O12 0.856727 0.270540 0.565714
O O13 0.942490 0.161653 0.601995
O O14 0.929833 0.972983 0.392964
O O15 0.316563 0.931077 0.028298
O O16 0.002919 0.338914 0.684987
#
# Coordination Sequence:
#
# PCOD9140998 Si02
#       8
#     4   4   4   4   4   4   4   4
#     4  12  30  48  77 109 151 194 250 312 370 442
#     4  12  27  50  72 114 150 193 251 306 380 447
#     4  12  24  48  76 108 147 199 255 298 370 449
#     4  12  27  45  81 108 152 201 247 314 376 450
#     4  12  27  50  72 114 150 193 251 306 380 447
#     4  12  30  48  77 109 151 194 250 312 370 442
#     4  12  24  48  76 108 147 199 255 298 370 449
#     4  12  27  45  81 108 152 201 247 314 376 450
#
# _framework density 27.177973999999999
#
# number of rings (size 3 to 8) (size 9 to 14) (size 15 to 20)
#    0.000    0.000    5.000    3.750   10.500    1.000 
#    0.000    0.000    0.000    0.000    0.000    0.000 
#    0.000    0.000    0.000    0.000    0.000    0.000 
#
# Total GULP energy -89785.923137 kJ/mol
# GULP energy per Si atom -5611.620196 kJ/mol
# Density = 2.711612 g / cm^3
# Si number density = 27.177974 Si / 1000 Ang^3
#
#
#
# Elastic Constant Matrix: (Units=GPa)
#
#
# Indices 1 2 3 4 5 6 
#
# 1 116.6556 26.8967 43.6473 0.0000 -2.8156 0.0000
# 2 26.8967 56.0722 12.8054 0.0000 -12.2553 0.0000
# 3 43.6473 12.8054 143.3356 0.0000 -16.2956 0.0000
# 4 0.0000 0.0000 0.0000 50.2417 0.0000 -1.0674
# 5 -2.8156 -12.2553 -16.2956 0.0000 42.4274 0.0000
# 6 0.0000 0.0000 0.0000 -1.0674 0.0000 51.7049
#
#
#
# Elastic Compliance Matrix: (Units=1/GPa)
#
#
# Indices 1 2 3 4 5 6 
#
# 1 0.010802 -0.004891 -0.003065 0.000000 -0.001873 0.000000
# 2 -0.004891 0.021425 0.000253 0.000000 0.005961 0.000000
# 3 -0.003065 0.000253 0.008232 0.000000 0.003031 0.000000
# 4 0.000000 0.000000 0.000000 0.019913 0.000000 0.000411
# 5 -0.001873 0.005961 0.003031 0.000000 0.026332 0.000000
# 6 0.000000 0.000000 0.000000 0.000411 0.000000 0.019349
#
#
# Mechanical properties :
#
#
# Convention : Reuss Voigt Hill
#
# Bulk Modulus (GPa) = 39.91553 53.64023 46.77788
# Shear Modulus (GPa) = 38.51815 44.38907 41.45361
#
# Velocity S-wave (km/s) = 3.76873 4.04576 3.90970
# Velocity P-wave (km/s) = 5.80141 6.45010 6.13434
#
# Compressibility (1/GPa) = 0.02505291
#
# Stress axis : x y z
#
# Youngs Moduli (GPa) = 92.57969 46.67387 121.47614
#
# Poissons Ratio (x) = 0.22827 0.37235
# Poissons Ratio (y) = 0.45277 -0.03072
# Poissons Ratio (z) = 0.28378 -0.01180
#
# Static dielectric constant tensor:
#      x y z
#    x 2.216850 0.000000 0.167480 
#    y 0.000000 2.147160 0.000000 
#    z 0.167480 0.000000 2.212560 
# 
# From -- ./inp_files/12406.got.cif
#   From: 2010.05.17/outbox.cif.g08.bks.cpg/sg9_7_cif.got.tgz:12406.got - 2010.06.03 20:04:27.
