data_PCOD9140600
_publ_section_title
;
Structure prediction by ZEFSAII (Michael W. Deem and Ramdas Pophale) SiO2 
 PCOD9140600
Probable space group: C C
;
_chemical_formula_sum "Si O2"
_cell_formula_units_Z 28
_cell_length_a 8.814216
_cell_length_b 15.791150
_cell_length_c 13.753043
_cell_angle_alpha 90.000000
_cell_angle_beta 38.802300
_cell_angle_gamma 90.000000
_cell_volume 1199.529584
_symmetry_space_group_name_H-M "C C"
_symmetry_group_IT_number 9
_symmetry_cell_setting 'monoclinic'
loop_
_space_group_symop_operation_xyz
x,y,z
x,-y,1/2+z
1/2+x,1/2+y,z
1/2+x,1/2-y,1/2+z
loop_
_atom_site_type_symbol
_atom_site_label
_atom_site_fract_x
_atom_site_fract_y
_atom_site_fract_z
Si Si1 0.930540 0.246624 0.040190
Si Si2 0.797155 0.540217 0.046461
Si Si3 0.062251 0.875014 0.145149
Si Si4 0.106396 0.650665 0.743064
Si Si5 0.907292 0.176971 0.268363
Si Si6 0.957432 0.922268 0.418299
Si Si7 0.471078 0.009732 0.666784
O O1 0.703630 0.289988 0.102351
O O2 0.890661 0.206497 0.164981
O O3 0.023627 0.168419 0.929957
O O4 0.134702 0.318920 0.942256
O O5 0.732400 0.452338 0.026767
O O6 0.554676 0.590331 0.200354
O O7 0.952727 0.511896 0.061634
O O8 0.931293 0.605432 0.908940
O O9 0.867780 0.858344 0.160033
O O10 0.959989 0.908299 0.300408
O O11 0.044831 0.748368 0.756987
O O12 0.067762 0.597546 0.663975
O O13 0.690800 0.947638 0.589850
O O14 0.180136 0.985006 0.334777
#
# Coordination Sequence:
#
# PCOD9140600 Si02
#       7
#     4   4   4   4   4   4   4
#     4  12  25  50  77 108 154 205 248 322 389 472
#     4  11  26  48  71 111 149 197 249 322 380 461
#     4  11  27  45  78 106 147 198 254 310 385 455
#     4  12  26  48  70 113 146 192 258 312 379 468
#     4  12  25  47  78 104 154 195 253 313 387 454
#     4  11  24  50  74 112 150 202 253 318 381 471
#     4  11  25  46  76 106 156 195 255 317 385 453
#
# _framework density 23.342483000000001
#
# number of rings (size 3 to 8) (size 9 to 14) (size 15 to 20)
#    0.000    0.571    5.714    0.857    8.000    3.429 
#    0.000    0.000    0.000    0.000    0.000    0.000 
#    0.000    0.000    0.000    0.000    0.000    0.000 
#
# Total GULP energy -78221.870216 kJ/mol
# GULP energy per Si atom -5587.276444 kJ/mol
# Density = 2.328935 g / cm^3
# Si number density = 23.342483 Si / 1000 Ang^3
#
#
#
# Elastic Constant Matrix: (Units=GPa)
#
#
# Indices 1 2 3 4 5 6 
#
# 1 145.4418 27.3443 30.4980 -0.0010 -8.0519 0.0013
# 2 27.3443 81.8384 14.3161 0.0009 4.3371 0.0005
# 3 30.4980 14.3161 38.4981 0.0020 2.6636 0.0036
# 4 -0.0010 0.0009 0.0020 38.4469 0.0013 -5.7530
# 5 -8.0519 4.3371 2.6636 0.0013 41.7295 -0.0014
# 6 0.0013 0.0005 0.0036 -5.7530 -0.0014 40.8022
#
#
#
# Elastic Compliance Matrix: (Units=1/GPa)
#
#
# Indices 1 2 3 4 5 6 
#
# 1 0.008689 -0.001917 -0.006328 0.000001 0.002280 0.000000
# 2 -0.001917 0.013539 -0.003408 0.000000 -0.001560 0.000000
# 3 -0.006328 -0.003408 0.032459 -0.000002 -0.002939 -0.000003
# 4 0.000001 0.000000 -0.000002 0.026570 0.000000 0.003746
# 5 0.002280 -0.001560 -0.002939 0.000000 0.024753 0.000001
# 6 0.000000 0.000000 -0.000003 0.003746 0.000001 0.025037
#
#
# Mechanical properties :
#
#
# Convention : Reuss Voigt Hill
#
# Bulk Modulus (GPa) = 31.86716 45.56610 38.71663
# Shear Modulus (GPa) = 30.33710 37.10371 33.72041
#
# Velocity S-wave (km/s) = 3.60898 3.99122 3.80490
# Velocity P-wave (km/s) = 5.57207 6.38771 5.99378
#
# Compressibility (1/GPa) = 0.03138027
#
# Stress axis : x y z
#
# Youngs Moduli (GPa) = 115.08445 73.86322 30.80781
#
# Poissons Ratio (x) = 0.14160 0.19497
# Poissons Ratio (y) = 0.22063 0.10499
# Poissons Ratio (z) = 0.72830 0.25172
#
# Static dielectric constant tensor:
#      x y z
#    x 1.849470 0.000000 -0.009620 
#    y 0.000000 1.822900 0.000000 
#    z -0.009620 0.000000 1.972720 
# 
# From -- ./inp_files/5001.got.cif
#   From: 2010.05.17/outbox.cif.g08.bks.cpg/sg9_3_cif.got.tgz:5001.got - 2010.06.03 20:04:27.
