data_PCOD9140714
_publ_section_title
;
Structure prediction by ZEFSAII (Michael W. Deem and Ramdas Pophale) SiO2 
 PCOD9140714
Probable space group: C C
;
_chemical_formula_sum "Si O2"
_cell_formula_units_Z 28
_cell_length_a 7.057469
_cell_length_b 20.797761
_cell_length_c 12.529104
_cell_angle_alpha 90.000000
_cell_angle_beta 43.428465
_cell_angle_gamma 90.000000
_cell_volume 1264.228796
_symmetry_space_group_name_H-M "C C"
_symmetry_group_IT_number 9
_symmetry_cell_setting 'monoclinic'
loop_
_space_group_symop_operation_xyz
x,y,z
x,-y,1/2+z
1/2+x,1/2+y,z
1/2+x,1/2-y,1/2+z
loop_
_atom_site_type_symbol
_atom_site_label
_atom_site_fract_x
_atom_site_fract_y
_atom_site_fract_z
Si Si1 0.776420 0.436609 0.837130
Si Si2 0.920873 0.694608 0.169597
Si Si3 0.191181 0.505990 0.519588
Si Si4 0.215807 0.615999 0.862881
Si Si5 0.970541 0.696738 0.799021
Si Si6 0.923249 0.740038 0.579939
Si Si7 0.343938 0.111282 0.545667
O O1 0.770323 0.366403 0.783990
O O2 0.039093 0.473333 0.681535
O O3 0.503218 0.475589 0.918266
O O4 0.803813 0.425063 0.951022
O O5 0.702294 0.750028 0.232540
O O6 0.150888 0.723092 0.154845
O O7 0.081534 0.667544 0.999649
O O8 0.170834 0.453483 0.433002
O O9 0.028130 0.568377 0.547370
O O10 0.082211 0.630252 0.802137
O O11 0.541770 0.623962 0.717213
O O12 0.916158 0.704505 0.696366
O O13 0.681817 0.712837 0.972744
O O14 0.975132 0.681611 0.475879
#
# Coordination Sequence:
#
# PCOD9140714 Si02
#       7
#     4   4   4   4   4   4   4
#     4  11  27  46  77 103 146 187 242 304 353 437
#     4  11  25  48  69 110 151 186 244 301 361 442
#     4  11  26  51  71 106 141 194 240 297 370 425
#     4  11  25  48  72 102 150 186 238 306 354 434
#     4  12  25  44  71 109 145 189 233 304 366 439
#     4  12  26  43  75 107 145 192 238 292 381 428
#     4  12  26  44  75 103 142 188 243 294 359 435
#
# _framework density 22.147888999999999
#
# number of rings (size 3 to 8) (size 9 to 14) (size 15 to 20)
#    0.000    0.571    4.286    2.571    8.000    0.000 
#    5.143    0.000    0.000    0.000    0.000    0.000 
#    0.000    0.000    0.000    0.000    0.000    0.000 
#
# Total GULP energy -78393.456960 kJ/mol
# GULP energy per Si atom -5599.532640 kJ/mol
# Density = 2.209748 g / cm^3
# Si number density = 22.147889 Si / 1000 Ang^3
#
#
#
# Elastic Constant Matrix: (Units=GPa)
#
#
# Indices 1 2 3 4 5 6 
#
# 1 116.0552 37.1464 39.4744 0.0000 -6.4128 0.0000
# 2 37.1464 98.6936 15.8773 0.0000 -12.5271 0.0000
# 3 39.4744 15.8773 68.7979 0.0000 -2.4506 0.0000
# 4 0.0000 0.0000 0.0000 24.6905 0.0000 -9.0441
# 5 -6.4128 -12.5271 -2.4506 0.0000 33.2144 0.0000
# 6 0.0000 0.0000 0.0000 -9.0441 0.0000 44.8514
#
#
#
# Elastic Compliance Matrix: (Units=1/GPa)
#
#
# Indices 1 2 3 4 5 6 
#
# 1 0.011756 -0.003399 -0.005941 0.000000 0.000549 0.000000
# 2 -0.003399 0.012007 -0.000685 0.000000 0.003822 0.000000
# 3 -0.005941 -0.000685 0.018100 0.000000 -0.000070 0.000000
# 4 0.000000 0.000000 0.000000 0.043732 0.000000 0.008818
# 5 0.000549 0.003822 -0.000070 0.000000 0.031650 0.000000
# 6 0.000000 0.000000 0.000000 0.008818 0.000000 0.024074
#
#
# Mechanical properties :
#
#
# Convention : Reuss Voigt Hill
#
# Bulk Modulus (GPa) = 45.84454 52.06030 48.95242
# Shear Modulus (GPa) = 29.64930 33.28782 31.46856
#
# Velocity S-wave (km/s) = 3.66279 3.88103 3.77349
# Velocity P-wave (km/s) = 6.21549 6.60606 6.41375
#
# Compressibility (1/GPa) = 0.02181285
#
# Stress axis : x y z
#
# Youngs Moduli (GPa) = 85.06533 83.28511 55.24973
#
# Poissons Ratio (x) = 0.28310 0.32824
# Poissons Ratio (y) = 0.28915 0.03782
# Poissons Ratio (z) = 0.50538 0.05701
#
# Static dielectric constant tensor:
#      x y z
#    x 1.770280 0.000000 0.040910 
#    y 0.000000 1.831570 0.000000 
#    z 0.040910 0.000000 1.813710 
# 
# From -- ./inp_files/4011.got.cif
#   From: 2010.05.17/outbox.cif.g08.bks.cpg/sg9_3_cif.got.tgz:4011.got - 2010.06.03 20:04:27.
