data_PCOD9140876
_publ_section_title
;
Structure prediction by ZEFSAII (Michael W. Deem and Ramdas Pophale) SiO2 
 PCOD9140876
Probable space group: C C
;
_chemical_formula_sum "Si O2"
_cell_formula_units_Z 32
_cell_length_a 10.150503
_cell_length_b 16.685062
_cell_length_c 9.752888
_cell_angle_alpha 90.000000
_cell_angle_beta 46.888086
_cell_angle_gamma 90.000000
_cell_volume 1205.822802
_symmetry_space_group_name_H-M "C C"
_symmetry_group_IT_number 9
_symmetry_cell_setting 'monoclinic'
loop_
_space_group_symop_operation_xyz
x,y,z
x,-y,1/2+z
1/2+x,1/2+y,z
1/2+x,1/2-y,1/2+z
loop_
_atom_site_type_symbol
_atom_site_label
_atom_site_fract_x
_atom_site_fract_y
_atom_site_fract_z
Si Si1 0.467580 0.474906 0.899210
Si Si2 0.075339 0.335971 0.460698
Si Si3 0.478952 0.011788 0.439975
Si Si4 0.676960 0.325528 0.838796
Si Si5 0.233417 0.371953 0.882624
Si Si6 0.242596 0.952493 0.373336
Si Si7 0.978414 0.851303 0.270060
Si Si8 0.077274 0.206134 0.996716
O O1 0.855216 0.506449 0.395994
O O2 0.485424 0.554147 0.796540
O O3 0.288515 0.430280 0.970322
O O4 0.539018 0.514486 0.991424
O O5 0.095421 0.259133 0.347072
O O6 0.266465 0.332695 0.402466
O O7 0.057864 0.423488 0.408865
O O8 0.892749 0.325048 0.678198
O O9 0.106471 0.899947 0.799050
O O10 0.639495 0.074979 0.331455
O O11 0.351140 0.039153 0.655174
O O12 0.590793 0.334724 0.051759
O O13 0.110400 0.297353 0.011186
O O14 0.402471 0.327705 0.695756
O O15 0.229745 0.859923 0.424301
O O16 0.052761 0.803910 0.349179
#
# Coordination Sequence:
#
# PCOD9140876 Si02
#       8
#     4   4   4   4   4   4   4   4
#     4  11  27  48  83 116 158 216 265 349 413 501
#     4  12  27  50  79 125 161 219 276 345 420 501
#     4  12  28  49  83 116 163 216 279 345 416 510
#     4  12  28  48  83 118 169 212 282 341 423 505
#     4  12  28  51  79 113 162 211 275 342 423 502
#     4  11  27  50  81 115 161 207 276 341 423 497
#     4  11  28  53  78 121 162 217 276 348 417 507
#     4  11  29  47  78 112 162 206 267 343 427 487
#
# _framework density 26.537896
#
# number of rings (size 3 to 8) (size 9 to 14) (size 15 to 20)
#    0.000    0.500    3.750    1.500   12.250    2.000 
#    0.000    0.000    0.000    0.000    0.000    0.000 
#    0.000    0.000    0.000    0.000    0.000    0.000 
#
# Total GULP energy -89625.953582 kJ/mol
# GULP energy per Si atom -5601.622099 kJ/mol
# Density = 2.647749 g / cm^3
# Si number density = 26.537896 Si / 1000 Ang^3
#
#
#
# Elastic Constant Matrix: (Units=GPa)
#
#
# Indices 1 2 3 4 5 6 
#
# 1 146.2345 55.2146 50.7973 0.0000 -15.1760 0.0000
# 2 55.2146 219.3422 21.2613 0.0000 -23.9958 0.0000
# 3 50.7973 21.2613 116.3761 0.0000 -15.9093 0.0000
# 4 0.0000 0.0000 0.0000 28.8039 0.0000 -18.9203
# 5 -15.1760 -23.9958 -15.9093 0.0000 34.4046 0.0000
# 6 0.0000 0.0000 0.0000 -18.9203 0.0000 50.4145
#
#
#
# Elastic Compliance Matrix: (Units=1/GPa)
#
#
# Indices 1 2 3 4 5 6 
#
# 1 0.008787 -0.001767 -0.003364 0.000000 0.001088 0.000000
# 2 -0.001767 0.005314 0.000214 0.000000 0.003026 0.000000
# 3 -0.003364 0.000214 0.010504 0.000000 0.003522 0.000000
# 4 0.000000 0.000000 0.000000 0.046076 0.000000 0.017292
# 5 0.001088 0.003026 0.003522 0.000000 0.033285 0.000000
# 6 0.000000 0.000000 0.000000 0.017292 0.000000 0.026325
#
#
# Mechanical properties :
#
#
# Convention : Reuss Voigt Hill
#
# Bulk Modulus (GPa) = 67.69898 81.83324 74.76611
# Shear Modulus (GPa) = 34.47134 46.36993 40.42064
#
# Velocity S-wave (km/s) = 3.60800 4.18462 3.90696
# Velocity P-wave (km/s) = 6.55153 7.36555 6.97044
#
# Compressibility (1/GPa) = 0.01477127
#
# Stress axis : x y z
#
# Youngs Moduli (GPa) = 113.80638 188.17732 95.20569
#
# Poissons Ratio (x) = 0.33247 0.32026
# Poissons Ratio (y) = 0.20107 -0.02037
# Poissons Ratio (z) = 0.38283 -0.04027
#
# Static dielectric constant tensor:
#      x y z
#    x 2.119030 0.000000 -0.015360 
#    y 0.000000 2.097490 0.000000 
#    z -0.015360 0.000000 2.097270 
# 
# From -- ./inp_files/18490.got.cif
#   From: 2010.05.17/outbox.cif.g08.bks.cpg/sg9_10_cif.got.tgz:18490.got - 2010.06.03 20:04:27.
