data_PCOD9140096
_publ_section_title
;
Structure prediction by ZEFSAII (Michael W. Deem and Ramdas Pophale) SiO2 
 PCOD9140096
Probable space group: C C
;
_chemical_formula_sum "Si O2"
_cell_formula_units_Z 32
_cell_length_a 13.795256
_cell_length_b 16.452367
_cell_length_c 8.818947
_cell_angle_alpha 90.000000
_cell_angle_beta 48.276226
_cell_angle_gamma 90.000000
_cell_volume 1493.910082
_symmetry_space_group_name_H-M "C C"
_symmetry_group_IT_number 9
_symmetry_cell_setting 'monoclinic'
loop_
_space_group_symop_operation_xyz
x,y,z
x,-y,1/2+z
1/2+x,1/2+y,z
1/2+x,1/2-y,1/2+z
loop_
_atom_site_type_symbol
_atom_site_label
_atom_site_fract_x
_atom_site_fract_y
_atom_site_fract_z
Si Si1 0.894040 0.410836 0.270390
Si Si2 0.706262 0.688991 0.180452
Si Si3 0.995017 0.890080 0.032284
Si Si4 0.802455 0.574155 0.517256
Si Si5 0.097976 0.713887 0.534802
Si Si6 0.492348 0.467621 0.345676
Si Si7 0.873871 0.186188 0.102650
Si Si8 0.848370 0.745060 0.307211
O O1 0.814484 0.347236 0.457386
O O2 0.873838 0.497303 0.369032
O O3 0.038050 0.374869 0.120064
O O4 0.842064 0.411989 0.151722
O O5 0.647146 0.613571 0.335129
O O6 0.600449 0.730538 0.182323
O O7 0.755553 0.748785 0.258574
O O8 0.950201 0.941065 0.932733
O O9 0.954013 0.944125 0.216171
O O10 0.966889 0.797894 0.114760
O O11 0.647500 0.554180 0.682053
O O12 0.846185 0.652527 0.371230
O O13 0.248570 0.703279 0.334758
O O14 0.999148 0.759090 0.520471
O O15 0.426873 0.404758 0.530603
O O16 0.819892 0.208512 0.991944
#
# Coordination Sequence:
#
# PCOD9140096 Si02
#       8
#     4   4   4   4   4   4   4   4
#     4  12  25  42  72 104 139 195 242 302 357 433
#     4  12  23  42  69 107 142 188 246 300 359 433
#     4  11  25  39  69 103 141 184 238 296 367 421
#     4  12  22  45  72 101 145 186 250 298 361 431
#     4  12  25  46  70 106 143 189 239 293 367 435
#     4  11  23  42  68 104 136 179 242 295 354 429
#     4  11  25  46  75 100 142 190 233 294 367 430
#     4  11  24  44  69 107 142 187 238 302 362 438
#
# _framework density 21.420299
#
# number of rings (size 3 to 8) (size 9 to 14) (size 15 to 20)
#    0.000    0.500    5.000    3.750    3.500    0.000 
#    0.000    5.000    0.000    0.000    0.000    0.000 
#    0.000    0.000    0.000    0.000    0.000    0.000 
#
# Total GULP energy -89110.269101 kJ/mol
# GULP energy per Si atom -5569.391819 kJ/mol
# Density = 2.137155 g / cm^3
# Si number density = 21.420299 Si / 1000 Ang^3
#
#
#
# Elastic Constant Matrix: (Units=GPa)
#
#
# Indices 1 2 3 4 5 6 
#
# 1 56.6041 19.9442 22.0659 0.0000 17.3178 0.0000
# 2 19.9442 97.6233 42.7319 0.0000 -7.0786 0.0000
# 3 22.0659 42.7319 102.7578 0.0000 1.6288 0.0000
# 4 0.0000 0.0000 0.0000 38.9965 0.0000 5.5144
# 5 17.3178 -7.0786 1.6288 0.0000 35.0716 0.0000
# 6 0.0000 0.0000 0.0000 5.5144 0.0000 28.7163
#
#
#
# Elastic Compliance Matrix: (Units=1/GPa)
#
#
# Indices 1 2 3 4 5 6 
#
# 1 0.024419 -0.004539 -0.003153 0.000000 -0.012828 0.000000
# 2 -0.004539 0.013642 -0.004781 0.000000 0.005217 0.000000
# 3 -0.003153 -0.004781 0.012397 0.000000 0.000016 0.000000
# 4 0.000000 0.000000 0.000000 0.026359 0.000000 -0.005062
# 5 -0.012828 0.005217 0.000016 0.000000 0.035899 0.000000
# 6 0.000000 0.000000 0.000000 -0.005062 0.000000 0.035795
#
#
# Mechanical properties :
#
#
# Convention : Reuss Voigt Hill
#
# Bulk Modulus (GPa) = 39.19681 47.38546 43.29113
# Shear Modulus (GPa) = 27.47839 32.03976 29.75907
#
# Velocity S-wave (km/s) = 3.58553 3.87171 3.73137
# Velocity P-wave (km/s) = 5.95651 6.49281 6.23044
#
# Compressibility (1/GPa) = 0.02551228
#
# Stress axis : x y z
#
# Youngs Moduli (GPa) = 40.95094 73.30469 80.66747
#
# Poissons Ratio (x) = 0.33272 0.25434
# Poissons Ratio (y) = 0.18587 0.38567
# Poissons Ratio (z) = 0.12912 0.35046
#
# Static dielectric constant tensor:
#      x y z
#    x 1.823310 0.000000 -0.002000 
#    y 0.000000 1.840540 0.000000 
#    z -0.002000 0.000000 1.784690 
# 
# From -- ./inp_files/9667.got.cif
#   From: 2010.05.17/outbox.cif.g08.bks.cpg/sg9_5_cif.got.tgz:9667.got - 2010.06.03 20:04:27.
