data_PCOD9140610
_publ_section_title
;
Structure prediction by ZEFSAII (Michael W. Deem and Ramdas Pophale) SiO2 
 PCOD9140610
Probable space group: C C
;
_chemical_formula_sum "Si O2"
_cell_formula_units_Z 32
_cell_length_a 5.102379
_cell_length_b 23.014242
_cell_length_c 10.702958
_cell_angle_alpha 90.000000
_cell_angle_beta 89.133112
_cell_angle_gamma 90.000000
_cell_volume 1256.676519
_symmetry_space_group_name_H-M "C C"
_symmetry_group_IT_number 9
_symmetry_cell_setting 'monoclinic'
loop_
_space_group_symop_operation_xyz
x,y,z
x,-y,1/2+z
1/2+x,1/2+y,z
1/2+x,1/2-y,1/2+z
loop_
_atom_site_type_symbol
_atom_site_label
_atom_site_fract_x
_atom_site_fract_y
_atom_site_fract_z
Si Si1 0.289910 0.254781 0.366400
Si Si2 0.784007 0.755524 0.992558
Si Si3 0.379033 0.391205 0.334933
Si Si4 0.783270 0.881855 0.066790
Si Si5 0.839630 0.079953 0.124775
Si Si6 0.849251 0.655360 0.170343
Si Si7 0.813368 0.555585 0.477032
Si Si8 0.706250 0.487724 0.230127
O O1 0.470222 0.242360 0.485911
O O2 0.370437 0.321691 0.345998
O O3 0.385012 0.205388 0.271688
O O4 0.978326 0.244069 0.372750
O O5 0.854687 0.813940 0.065423
O O6 0.867996 0.693681 0.045971
O O7 0.211729 0.399864 0.209160
O O8 0.327611 0.419132 0.471988
O O9 0.640634 0.423648 0.284245
O O10 0.535963 0.896034 0.982660
O O11 0.030191 0.916214 0.007352
O O12 0.570653 0.107152 0.172540
O O13 0.069482 0.124290 0.166602
O O14 0.937306 0.020726 0.188544
O O15 0.816154 0.521756 0.347955
O O16 0.858190 0.514245 0.597359
#
# Coordination Sequence:
#
# PCOD9140610 Si02
#       8
#     4   4   4   4   4   4   4   4
#     4  12  26  44  74 110 154 196 248 315 385 461
#     4  12  24  45  71 110 148 194 247 309 383 462
#     4  11  24  51  75 109 149 203 256 314 382 456
#     4  11  27  46  75 110 152 200 252 313 387 459
#     4  12  27  48  76 110 155 200 259 316 389 451
#     4  12  26  47  72 112 147 198 248 314 387 459
#     4  11  27  48  77 108 152 205 256 318 383 448
#     4  11  27  53  76 113 153 208 262 325 376 462
#
# _framework density 25.463991
#
# number of rings (size 3 to 8) (size 9 to 14) (size 15 to 20)
#    0.000    0.500    5.000    1.500    5.250    8.000 
#    0.000    0.000    0.000    0.000    0.000    0.000 
#    0.000    0.000    0.000    0.000    0.000    0.000 
#
# Total GULP energy -89407.770888 kJ/mol
# GULP energy per Si atom -5587.985680 kJ/mol
# Density = 2.540603 g / cm^3
# Si number density = 25.463991 Si / 1000 Ang^3
#
#
#
# Elastic Constant Matrix: (Units=GPa)
#
#
# Indices 1 2 3 4 5 6 
#
# 1 107.4334 38.9380 22.7694 0.0000 2.8616 0.0000
# 2 38.9380 121.2055 39.6890 0.0000 -0.5685 0.0000
# 3 22.7694 39.6890 121.3998 0.0000 3.5188 0.0000
# 4 0.0000 0.0000 0.0000 42.2310 0.0000 4.0752
# 5 2.8616 -0.5685 3.5188 0.0000 22.0897 0.0000
# 6 0.0000 0.0000 0.0000 4.0752 0.0000 28.5634
#
#
#
# Elastic Compliance Matrix: (Units=1/GPa)
#
#
# Indices 1 2 3 4 5 6 
#
# 1 0.010676 -0.003128 -0.000942 0.000000 -0.001314 0.000000
# 2 -0.003128 0.010167 -0.002769 0.000000 0.001108 0.000000
# 3 -0.000942 -0.002769 0.009361 0.000000 -0.001440 0.000000
# 4 0.000000 0.000000 0.000000 0.024010 0.000000 -0.003426
# 5 -0.001314 0.001108 -0.001440 0.000000 0.045698 0.000000
# 6 0.000000 0.000000 0.000000 -0.003426 0.000000 0.035499
#
#
# Mechanical properties :
#
#
# Convention : Reuss Voigt Hill
#
# Bulk Modulus (GPa) = 60.50777 61.42572 60.96675
# Shear Modulus (GPa) = 32.34201 35.15300 33.74751
#
# Velocity S-wave (km/s) = 3.56772 3.71954 3.64442
# Velocity P-wave (km/s) = 6.38633 6.52852 6.45782
#
# Compressibility (1/GPa) = 0.01652680
#
# Stress axis : x y z
#
# Youngs Moduli (GPa) = 93.66595 98.35491 106.82545
#
# Poissons Ratio (x) = 0.30761 0.10061
# Poissons Ratio (y) = 0.29295 0.29585
# Poissons Ratio (z) = 0.08822 0.27239
#
# Static dielectric constant tensor:
#      x y z
#    x 2.014940 0.000000 0.020880 
#    y 0.000000 2.062210 0.000000 
#    z 0.020880 0.000000 2.061960 
# 
# From -- ./inp_files/13645.got.cif
#   From: 2010.05.17/outbox.cif.g08.bks.cpg/sg9_7_cif.got.tgz:13645.got - 2010.06.03 20:04:27.
