data_PCOD9140057
_publ_section_title
;
Structure prediction by ZEFSAII (Michael W. Deem and Ramdas Pophale) SiO2 
 PCOD9140057
Probable space group: C C
;
_chemical_formula_sum "Si O2"
_cell_formula_units_Z 28
_cell_length_a 11.984312
_cell_length_b 9.098071
_cell_length_c 12.350724
_cell_angle_alpha 90.000000
_cell_angle_beta 112.472556
_cell_angle_gamma 90.000000
_cell_volume 1244.389387
_symmetry_space_group_name_H-M "C C"
_symmetry_group_IT_number 9
_symmetry_cell_setting 'monoclinic'
loop_
_space_group_symop_operation_xyz
x,y,z
x,-y,1/2+z
1/2+x,1/2+y,z
1/2+x,1/2-y,1/2+z
loop_
_atom_site_type_symbol
_atom_site_label
_atom_site_fract_x
_atom_site_fract_y
_atom_site_fract_z
Si Si1 0.089950 0.290313 0.894500
Si Si2 0.929207 0.458885 0.236978
Si Si3 0.022279 0.157985 0.484672
Si Si4 0.878258 0.895323 0.334067
Si Si5 0.182049 0.933416 0.242921
Si Si6 0.340447 0.244276 0.093824
Si Si7 0.130793 0.738873 0.811206
O O1 0.129146 0.184618 0.808504
O O2 0.033372 0.441066 0.830737
O O3 0.978747 0.216550 0.916612
O O4 0.208048 0.292921 0.010215
O O5 0.824374 0.403407 0.277766
O O6 0.855485 0.576414 0.137854
O O7 0.007985 0.328857 0.214563
O O8 0.112777 0.080504 0.602961
O O9 0.099912 0.247144 0.426784
O O10 0.932897 0.243131 0.530223
O O11 0.935732 0.050680 0.383315
O O12 0.873335 0.851494 0.205780
O O13 0.746662 0.862341 0.331450
O O14 0.162479 0.098266 0.280160
#
# Coordination Sequence:
#
# PCOD9140057 Si02
#       7
#     4   4   4   4   4   4   4
#     4  11  22  48  75 101 152 189 242 300 364 440
#     4  11  25  47  68 109 143 187 245 298 366 428
#     4  12  24  47  72 109 147 193 241 302 365 443
#     4  11  24  45  72 106 143 190 240 295 373 427
#     4  12  24  48  75 106 146 197 240 300 371 436
#     4  11  23  48  74 100 151 199 232 311 367 432
#     4  12  26  45  72 109 146 185 252 294 360 442
#
# _framework density 22.500995
#
# number of rings (size 3 to 8) (size 9 to 14) (size 15 to 20)
#    0.000    0.571    7.143    2.571    0.000    1.143 
#    7.714    0.000    0.000    0.000    0.000    0.000 
#    0.000    0.000    0.000    0.000    0.000    0.000 
#
# Total GULP energy -78248.830226 kJ/mol
# GULP energy per Si atom -5589.202159 kJ/mol
# Density = 2.244978 g / cm^3
# Si number density = 22.500995 Si / 1000 Ang^3
#
#
#
# Elastic Constant Matrix: (Units=GPa)
#
#
# Indices 1 2 3 4 5 6 
#
# 1 184.2030 32.7428 43.7596 0.0000 17.3932 0.0000
# 2 32.7428 58.4711 18.9062 0.0000 2.9386 0.0000
# 3 43.7596 18.9062 85.6346 0.0000 20.7324 0.0000
# 4 0.0000 0.0000 0.0000 -61.1625 0.0000 -2.2559
# 5 17.3932 2.9386 20.7324 0.0000 39.2756 0.0000
# 6 0.0000 0.0000 0.0000 -2.2559 0.0000 36.8108
#
#
#
# Elastic Compliance Matrix: (Units=1/GPa)
#
#
# Indices 1 2 3 4 5 6 
#
# 1 0.006650 -0.002871 -0.002411 0.000000 -0.001457 0.000000
# 2 -0.002871 0.019683 -0.003245 0.000000 0.001511 0.000000
# 3 -0.002411 -0.003245 0.015259 0.000000 -0.006744 0.000000
# 4 0.000000 0.000000 0.000000 -0.016313 0.000000 -0.001000
# 5 -0.001457 0.001511 -0.006744 0.000000 0.029553 0.000000
# 6 0.000000 0.000000 0.000000 -0.001000 0.000000 0.027105
#
#
# Mechanical properties :
#
#
# Convention : Reuss Voigt Hill
#
# Bulk Modulus (GPa) = 40.75271 57.68064 49.21667
# Shear Modulus (GPa) = 46.65526 18.51145 32.58336
#
# Velocity S-wave (km/s) = 4.55848 2.87138 3.80950
# Velocity P-wave (km/s) = 6.77179 6.05668 6.42420
#
# Compressibility (1/GPa) = 0.02453825
#
# Stress axis : x y z
#
# Youngs Moduli (GPa) = 150.38716 50.80488 65.53581
#
# Poissons Ratio (x) = 0.14584 0.15803
# Poissons Ratio (y) = 0.43171 0.21263
# Poissons Ratio (z) = 0.36264 0.16484
#
# Static dielectric constant tensor:
#      x y z
#    x 1.832850 0.000000 0.006130 
#    y 0.000000 1.877100 0.000000 
#    z 0.006130 0.000000 1.867910 
# 
# From -- ./inp_files/24411.got.cif
#   From: 2010.05.17/outbox.cif.g08.bks.cpg/sg9_13_cif.got.tgz:24411.got - 2010.06.03 20:04:27.
