data_PCOD9140393
_publ_section_title
;
Structure prediction by ZEFSAII (Michael W. Deem and Ramdas Pophale) SiO2 
 PCOD9140393
Probable space group: C C
;
_chemical_formula_sum "Si O2"
_cell_formula_units_Z 32
_cell_length_a 23.778079
_cell_length_b 8.463210
_cell_length_c 8.767297
_cell_angle_alpha 90.000000
_cell_angle_beta 135.982425
_cell_angle_gamma 90.000000
_cell_volume 1225.989589
_symmetry_space_group_name_H-M "C C"
_symmetry_group_IT_number 9
_symmetry_cell_setting 'monoclinic'
loop_
_space_group_symop_operation_xyz
x,y,z
x,-y,1/2+z
1/2+x,1/2+y,z
1/2+x,1/2-y,1/2+z
loop_
_atom_site_type_symbol
_atom_site_label
_atom_site_fract_x
_atom_site_fract_y
_atom_site_fract_z
Si Si1 0.521580 0.588796 0.209540
Si Si2 0.022490 0.423944 0.284328
Si Si3 0.292842 0.929138 0.493299
Si Si4 0.884867 0.940138 0.639245
Si Si5 0.128681 0.896582 0.626280
Si Si6 0.785291 0.130161 0.655393
Si Si7 0.891943 0.647899 0.890959
Si Si8 0.135140 0.559457 0.733299
O O1 0.479893 0.755103 0.182311
O O2 0.601468 0.523088 0.448652
O O3 0.555175 0.585393 0.105510
O O4 0.451714 0.487261 0.153348
O O5 0.068733 0.442210 0.532855
O O6 0.095489 0.385274 0.311892
O O7 0.970046 0.573812 0.130345
O O8 0.261779 0.803212 0.556590
O O9 0.321809 0.856194 0.386642
O O10 0.219737 0.052618 0.341823
O O11 0.368562 0.014930 0.719826
O O12 0.897997 0.802812 0.794596
O O13 0.862249 0.088389 0.701225
O O14 0.811956 0.892138 0.381124
O O15 0.135879 0.707105 0.617973
O O16 0.717130 0.016138 0.452748
#
# Coordination Sequence:
#
# PCOD9140393 Si02
#       8
#     4   4   4   4   4   4   4   4
#     4  11  24  45  69 102 140 184 239 298 365 434
#     4  11  24  44  70 101 140 185 237 296 365 438
#     4  12  25  44  69 103 144 192 248 306 372 442
#     4  12  26  46  73 106 144 191 246 309 375 445
#     4  11  26  44  68 100 140 186 241 302 360 433
#     4  12  26  45  70 104 145 192 250 308 370 444
#     4  12  26  46  73 106 146 193 246 309 376 447
#     4  11  25  44  68 100 139 187 239 298 363 431
#
# _framework density 26.101362000000002
#
# number of rings (size 3 to 8) (size 9 to 14) (size 15 to 20)
#    0.000    0.500    0.000    8.250    0.000   12.000 
#    0.000    0.000    0.000    0.000    0.000    0.000 
#    0.000    0.000    0.000    0.000    0.000    0.000 
#
# Total GULP energy -89290.458712 kJ/mol
# GULP energy per Si atom -5580.653669 kJ/mol
# Density = 2.604195 g / cm^3
# Si number density = 26.101362 Si / 1000 Ang^3
#
#
#
# Elastic Constant Matrix: (Units=GPa)
#
#
# Indices 1 2 3 4 5 6 
#
# 1 91.0120 -3.2356 34.3391 0.0000 -12.0249 0.0000
# 2 -3.2356 71.9989 34.8358 0.0000 -20.0155 0.0000
# 3 34.3391 34.8358 152.0287 0.0000 -8.0802 0.0000
# 4 0.0000 0.0000 0.0000 45.3348 0.0000 -1.4862
# 5 -12.0249 -20.0155 -8.0802 0.0000 35.1162 0.0000
# 6 0.0000 0.0000 0.0000 -1.4862 0.0000 26.5957
#
#
#
# Elastic Compliance Matrix: (Units=1/GPa)
#
#
# Indices 1 2 3 4 5 6 
#
# 1 0.013281 0.004007 -0.003599 0.000000 0.006004 0.000000
# 2 0.004007 0.019556 -0.004779 0.000000 0.011419 0.000000
# 3 -0.003599 -0.004779 0.008378 0.000000 -0.002029 0.000000
# 4 0.000000 0.000000 0.000000 0.022099 0.000000 0.001235
# 5 0.006004 0.011419 -0.002029 0.000000 0.036574 0.000000
# 6 0.000000 0.000000 0.000000 0.001235 0.000000 0.037669
#
#
# Mechanical properties :
#
#
# Convention : Reuss Voigt Hill
#
# Bulk Modulus (GPa) = 30.79480 49.65758 40.22619
# Shear Modulus (GPa) = 31.82207 38.01603 34.91905
#
# Velocity S-wave (km/s) = 3.49545 3.82052 3.66160
# Velocity P-wave (km/s) = 5.30233 6.20710 5.77247
#
# Compressibility (1/GPa) = 0.03247302
#
# Stress axis : x y z
#
# Youngs Moduli (GPa) = 75.29461 51.13519 119.36164
#
# Poissons Ratio (x) = -0.20491 0.42958
# Poissons Ratio (y) = -0.30172 0.57046
# Poissons Ratio (z) = 0.27098 0.24439
#
# Static dielectric constant tensor:
#      x y z
#    x 2.163280 0.000000 0.078590 
#    y 0.000000 2.373040 0.000000 
#    z 0.078590 0.000000 2.077330 
# 
# From -- ./inp_files/12450.got.cif
#   From: 2010.05.17/outbox.cif.g08.bks.cpg/sg9_7_cif.got.tgz:12450.got - 2010.06.03 20:04:27.
