data_PCOD9140510
_publ_section_title
;
Structure prediction by ZEFSAII (Michael W. Deem and Ramdas Pophale) SiO2 
 PCOD9140510
Probable space group: C C
;
_chemical_formula_sum "Si O2"
_cell_formula_units_Z 28
_cell_length_a 23.269777
_cell_length_b 4.898672
_cell_length_c 9.736797
_cell_angle_alpha 90.000000
_cell_angle_beta 114.592026
_cell_angle_gamma 90.000000
_cell_volume 1009.232065
_symmetry_space_group_name_H-M "C C"
_symmetry_group_IT_number 9
_symmetry_cell_setting 'monoclinic'
loop_
_space_group_symop_operation_xyz
x,y,z
x,-y,1/2+z
1/2+x,1/2+y,z
1/2+x,1/2-y,1/2+z
loop_
_atom_site_type_symbol
_atom_site_label
_atom_site_fract_x
_atom_site_fract_y
_atom_site_fract_z
Si Si1 0.157070 0.471338 0.512290
Si Si2 0.923650 0.637239 0.644496
Si Si3 0.771758 0.782287 0.291840
Si Si4 0.036721 0.010378 0.118311
Si Si5 0.852957 0.701961 0.831710
Si Si6 0.673140 0.486370 0.367792
Si Si7 0.023596 0.308243 0.855124
O O1 0.212596 0.572951 0.662331
O O2 0.163780 0.149433 0.500521
O O3 0.084151 0.531891 0.471392
O O4 0.169892 0.664452 0.390977
O O5 0.880251 0.800919 0.710206
O O6 0.891129 0.448695 0.495327
O O7 0.957362 0.450738 0.794538
O O8 0.979565 0.812407 0.628429
O O9 0.806060 0.544241 0.241287
O O10 0.738063 0.604781 0.376577
O O11 0.820730 0.028020 0.365384
O O12 0.109832 0.082312 0.224079
O O13 0.031684 0.736476 0.200831
O O14 0.024424 0.034226 0.945401
#
# Coordination Sequence:
#
# PCOD9140510 Si02
#       7
#     4   4   4   4   4   4   4
#     4  11  24  46  78 114 148 190 250 324 392 451
#     4  12  28  50  72 114 150 208 258 312 370 468
#     4  12  28  51  73 108 150 206 252 314 371 461
#     4  11  25  47  77 114 150 194 251 324 392 451
#     4  12  32  47  79 104 160 210 256 300 371 457
#     4  11  24  46  78 114 148 190 250 324 392 451
#     4  11  25  47  77 114 150 194 251 324 392 451
#
# _framework density 27.743867000000002
#
# number of rings (size 3 to 8) (size 9 to 14) (size 15 to 20)
#    0.000    0.571    4.286    1.714   12.000    0.000 
#    2.571    0.000    0.000    0.000    0.000    0.000 
#    0.000    0.000    0.000    0.000    0.000    0.000 
#
# Total GULP energy -78267.709718 kJ/mol
# GULP energy per Si atom -5590.550694 kJ/mol
# Density = 2.768072 g / cm^3
# Si number density = 27.743867 Si / 1000 Ang^3
#
#
#
# Elastic Constant Matrix: (Units=GPa)
#
#
# Indices 1 2 3 4 5 6 
#
# 1 130.9014 44.9074 50.2979 0.0000 -9.8452 0.0000
# 2 44.9074 103.4114 9.1535 0.0000 6.0475 0.0000
# 3 50.2979 9.1535 104.7342 0.0000 14.0549 0.0000
# 4 0.0000 0.0000 0.0000 38.5051 0.0000 6.9177
# 5 -9.8452 6.0475 14.0549 0.0000 24.4097 0.0000
# 6 0.0000 0.0000 0.0000 6.9177 0.0000 48.5742
#
#
#
# Elastic Compliance Matrix: (Units=1/GPa)
#
#
# Indices 1 2 3 4 5 6 
#
# 1 0.013261 -0.005752 -0.007342 0.000000 0.011002 0.000000
# 2 -0.005752 0.012340 0.002607 0.000000 -0.006878 0.000000
# 3 -0.007342 0.002607 0.014447 0.000000 -0.011926 0.000000
# 4 0.000000 0.000000 0.000000 0.026653 0.000000 -0.003796
# 5 0.011002 -0.006878 -0.011926 0.000000 0.053975 0.000000
# 6 0.000000 0.000000 0.000000 -0.003796 0.000000 0.021128
#
#
# Mechanical properties :
#
#
# Convention : Reuss Voigt Hill
#
# Bulk Modulus (GPa) = 52.43148 60.86273 56.64711
# Shear Modulus (GPa) = 29.56204 37.94367 33.75286
#
# Velocity S-wave (km/s) = 3.26779 3.70218 3.49175
# Velocity P-wave (km/s) = 5.75998 6.34506 6.05959
#
# Compressibility (1/GPa) = 0.01907251
#
# Stress axis : x y z
#
# Youngs Moduli (GPa) = 75.40665 81.03979 69.22055
#
# Poissons Ratio (x) = 0.46617 0.50824
# Poissons Ratio (y) = 0.43377 -0.18047
# Poissons Ratio (z) = 0.55366 -0.21128
#
# Static dielectric constant tensor:
#      x y z
#    x 2.265880 0.000000 0.016870 
#    y 0.000000 2.115520 0.000000 
#    z 0.016870 0.000000 2.190250 
# 
# From -- ./inp_files/19862.got.cif
#   From: 2010.05.17/outbox.cif.g08.bks.cpg/sg9_10_cif.got.tgz:19862.got - 2010.06.03 20:04:27.
