data_PCOD9140152
_publ_section_title
;
Structure prediction by ZEFSAII (Michael W. Deem and Ramdas Pophale) SiO2 
 PCOD9140152
Probable space group: C C
;
_chemical_formula_sum "Si O2"
_cell_formula_units_Z 32
_cell_length_a 12.657515
_cell_length_b 8.672570
_cell_length_c 15.466972
_cell_angle_alpha 90.000000
_cell_angle_beta 58.149596
_cell_angle_gamma 90.000000
_cell_volume 1442.210131
_symmetry_space_group_name_H-M "C C"
_symmetry_group_IT_number 9
_symmetry_cell_setting 'monoclinic'
loop_
_space_group_symop_operation_xyz
x,y,z
x,-y,1/2+z
1/2+x,1/2+y,z
1/2+x,1/2-y,1/2+z
loop_
_atom_site_type_symbol
_atom_site_label
_atom_site_fract_x
_atom_site_fract_y
_atom_site_fract_z
Si Si1 0.965360 0.858331 0.225290
Si Si2 0.107257 0.547846 0.127531
Si Si3 0.341311 0.096594 0.749926
Si Si4 0.767653 0.059872 0.229890
Si Si5 0.743739 0.229154 0.946719
Si Si6 0.665074 0.400990 0.700530
Si Si7 0.578983 0.838190 0.376272
Si Si8 0.801098 0.556603 0.972663
O O1 0.864967 0.792047 0.335766
O O2 0.039600 0.714512 0.157005
O O3 0.888052 0.951719 0.187102
O O4 0.057203 0.973527 0.234437
O O5 0.194426 0.543581 0.172853
O O6 0.990066 0.433348 0.178375
O O7 0.205053 0.569116 0.008290
O O8 0.305827 0.266945 0.734105
O O9 0.297291 0.081709 0.869811
O O10 0.272150 0.976061 0.715461
O O11 0.666662 0.988879 0.339373
O O12 0.627772 0.265649 0.933845
O O13 0.773952 0.373683 0.994996
O O14 0.610221 0.257648 0.776683
O O15 0.713466 0.363848 0.582562
O O16 0.438848 0.892055 0.439427
#
# Coordination Sequence:
#
# PCOD9140152 Si02
#       8
#     4   4   4   4   4   4   4   4
#     4  11  23  44  69 100 146 185 234 302 355 427
#     4  12  23  47  73 102 146 188 242 300 359 428
#     4  12  23  46  76 104 148 192 239 305 360 431
#     4  11  24  45  70 104 145 186 236 304 359 421
#     4  11  23  44  73 105 139 197 237 291 375 427
#     4  12  25  47  74 109 147 192 245 301 367 440
#     4  11  24  46  71 103 151 188 240 311 354 435
#     4  12  23  45  78 105 142 196 243 292 375 429
#
# _framework density 22.188168000000001
#
# number of rings (size 3 to 8) (size 9 to 14) (size 15 to 20)
#    0.000    0.500    6.250    2.250    0.000    0.000 
#   11.250    1.250    0.000    0.000    0.000    0.000 
#    0.000    0.000    0.000    0.000    0.000    0.000 
#
# Total GULP energy -89396.189284 kJ/mol
# GULP energy per Si atom -5587.261830 kJ/mol
# Density = 2.213767 g / cm^3
# Si number density = 22.188168 Si / 1000 Ang^3
#
#
#
# Elastic Constant Matrix: (Units=GPa)
#
#
# Indices 1 2 3 4 5 6 
#
# 1 136.5809 29.1609 17.9486 0.0000 4.8332 0.0000
# 2 29.1609 77.5830 3.9313 0.0000 -3.8177 0.0000
# 3 17.9486 3.9313 91.8469 0.0000 2.1523 0.0000
# 4 0.0000 0.0000 0.0000 22.1415 0.0000 8.7048
# 5 4.8332 -3.8177 2.1523 0.0000 11.3164 0.0000
# 6 0.0000 0.0000 0.0000 8.7048 0.0000 23.6466
#
#
#
# Elastic Compliance Matrix: (Units=1/GPa)
#
#
# Indices 1 2 3 4 5 6 
#
# 1 0.008363 -0.003290 -0.001390 0.000000 -0.004418 0.000000
# 2 -0.003290 0.014442 -0.000123 0.000000 0.006301 0.000000
# 3 -0.001390 -0.000123 0.011202 0.000000 -0.001578 0.000000
# 4 0.000000 0.000000 0.000000 0.052807 0.000000 -0.019439
# 5 -0.004418 0.006301 -0.001578 0.000000 0.092680 0.000000
# 6 0.000000 0.000000 0.000000 -0.019439 0.000000 0.049445
#
#
# Mechanical properties :
#
#
# Convention : Reuss Voigt Hill
#
# Bulk Modulus (GPa) = 40.98223 45.34361 43.16292
# Shear Modulus (GPa) = 20.26921 28.41887 24.34404
#
# Velocity S-wave (km/s) = 3.02572 3.58273 3.31594
# Velocity P-wave (km/s) = 5.54230 6.13147 5.84431
#
# Compressibility (1/GPa) = 0.02440082
#
# Stress axis : x y z
#
# Youngs Moduli (GPa) = 119.57176 69.24028 89.27338
#
# Poissons Ratio (x) = 0.22783 0.12409
# Poissons Ratio (y) = 0.39344 0.01096
# Poissons Ratio (z) = 0.16620 0.00850
#
# Static dielectric constant tensor:
#      x y z
#    x 1.804380 0.000000 0.052730 
#    y 0.000000 1.832750 0.000000 
#    z 0.052730 0.000000 1.890570 
# 
# From -- ./inp_files/24194.got.cif
#   From: 2010.05.17/outbox.cif.g08.bks.cpg/sg9_13_cif.got.tgz:24194.got - 2010.06.03 20:04:27.
