data_PCOD9140840
_publ_section_title
;
Structure prediction by ZEFSAII (Michael W. Deem and Ramdas Pophale) SiO2 
 PCOD9140840
Probable space group: C C
;
_chemical_formula_sum "Si O2"
_cell_formula_units_Z 24
_cell_length_a 13.477255
_cell_length_b 4.953687
_cell_length_c 14.303691
_cell_angle_alpha 90.000000
_cell_angle_beta 96.937963
_cell_angle_gamma 90.000000
_cell_volume 947.951932
_symmetry_space_group_name_H-M "C C"
_symmetry_group_IT_number 9
_symmetry_cell_setting 'monoclinic'
loop_
_space_group_symop_operation_xyz
x,y,z
x,-y,1/2+z
1/2+x,1/2+y,z
1/2+x,1/2-y,1/2+z
loop_
_atom_site_type_symbol
_atom_site_label
_atom_site_fract_x
_atom_site_fract_y
_atom_site_fract_z
Si Si1 0.984140 0.186754 0.282680
Si Si2 0.557974 0.672696 0.962782
Si Si3 0.781663 0.016479 0.163605
Si Si4 0.256521 0.484677 0.945546
Si Si5 0.875803 0.543411 0.398903
Si Si6 0.153865 0.990588 0.663214
O O1 0.887772 0.061251 0.221618
O O2 0.288971 0.267873 0.383379
O O3 0.941128 0.472952 0.314370
O O4 0.075728 0.149800 0.223337
O O5 0.519672 0.470246 0.879388
O O6 0.460513 0.845742 0.978765
O O7 0.602309 0.510774 0.055381
O O8 0.747075 0.709586 0.165384
O O9 0.780676 0.081279 0.053149
O O10 0.697808 0.219379 0.196651
O O11 0.324656 0.230142 0.926566
O O12 0.144059 0.373012 0.934629
#
# Coordination Sequence:
#
# PCOD9140840 Si02
#       6
#     4   4   4   4   4   4
#     4  12  30  46  80 115 153 195 259 314 379 447
#     4  11  28  50  79 110 148 208 251 312 384 448
#     4  11  28  51  73 112 150 201 245 317 380 442
#     4  11  26  49  78 102 155 199 253 307 386 456
#     4  12  27  45  75 111 146 197 253 313 377 449
#     4  11  29  51  75 108 158 196 253 307 380 456
#
# _framework density 25.317743
#
# number of rings (size 3 to 8) (size 9 to 14) (size 15 to 20)
#    0.000    0.667    1.667    3.000   14.000    0.000 
#    0.000    0.000    0.000    0.000    0.000    0.000 
#    0.000    0.000    0.000    0.000    0.000    0.000 
#
# Total GULP energy -67292.497903 kJ/mol
# GULP energy per Si atom -5607.708159 kJ/mol
# Density = 2.526012 g / cm^3
# Si number density = 25.317743 Si / 1000 Ang^3
#
#
#
# Elastic Constant Matrix: (Units=GPa)
#
#
# Indices 1 2 3 4 5 6 
#
# 1 150.7999 33.9146 37.1107 0.0000 5.0901 0.0000
# 2 33.9146 120.0175 16.4582 0.0000 -2.5520 0.0000
# 3 37.1107 16.4582 75.2582 0.0000 2.9916 0.0000
# 4 0.0000 0.0000 0.0000 27.5170 0.0000 -6.2838
# 5 5.0901 -2.5520 2.9916 0.0000 52.8447 0.0000
# 6 0.0000 0.0000 0.0000 -6.2838 0.0000 49.7666
#
#
#
# Elastic Compliance Matrix: (Units=1/GPa)
#
#
# Indices 1 2 3 4 5 6 
#
# 1 0.007910 -0.001771 -0.003487 0.000000 -0.000650 0.000000
# 2 -0.001771 0.009001 -0.001122 0.000000 0.000669 0.000000
# 3 -0.003487 -0.001122 0.015276 0.000000 -0.000583 0.000000
# 4 0.000000 0.000000 0.000000 0.037420 0.000000 0.004725
# 5 -0.000650 0.000669 -0.000583 0.000000 0.019051 0.000000
# 6 0.000000 0.000000 0.000000 0.004725 0.000000 0.020690
#
#
# Mechanical properties :
#
#
# Convention : Reuss Voigt Hill
#
# Bulk Modulus (GPa) = 51.47628 57.89361 54.68495
# Shear Modulus (GPa) = 38.88547 43.26513 41.07530
#
# Velocity S-wave (km/s) = 3.92331 4.13835 4.03226
# Velocity P-wave (km/s) = 6.39526 6.76395 6.58219
#
# Compressibility (1/GPa) = 0.01942642
#
# Stress axis : x y z
#
# Youngs Moduli (GPa) = 126.42762 111.10445 65.46346
#
# Poissons Ratio (x) = 0.19674 0.22829
# Poissons Ratio (y) = 0.22387 0.07343
# Poissons Ratio (z) = 0.44089 0.12463
#
# Static dielectric constant tensor:
#      x y z
#    x 1.957690 0.000000 -0.027360 
#    y 0.000000 1.988270 0.000000 
#    z -0.027360 0.000000 2.038320 
# 
# From -- ./inp_files/25215.got.cif
#   From: 2010.05.17/outbox.cif.g08.bks.cpg/sg9_13_cif.got.tgz:25215.got - 2010.06.03 20:04:27.
