data_PCOD9140822
_publ_section_title
;
Structure prediction by ZEFSAII (Michael W. Deem and Ramdas Pophale) SiO2 
 PCOD9140822
Probable space group: C C
;
_chemical_formula_sum "Si O2"
_cell_formula_units_Z 24
_cell_length_a 7.627655
_cell_length_b 14.277362
_cell_length_c 8.090361
_cell_angle_alpha 90.000000
_cell_angle_beta 86.859528
_cell_angle_gamma 90.000000
_cell_volume 879.739737
_symmetry_space_group_name_H-M "C C"
_symmetry_group_IT_number 9
_symmetry_cell_setting 'monoclinic'
loop_
_space_group_symop_operation_xyz
x,y,z
x,-y,1/2+z
1/2+x,1/2+y,z
1/2+x,1/2-y,1/2+z
loop_
_atom_site_type_symbol
_atom_site_label
_atom_site_fract_x
_atom_site_fract_y
_atom_site_fract_z
Si Si1 0.947900 0.951102 0.984610
Si Si2 0.304594 0.608816 0.827162
Si Si3 0.795014 0.387028 0.142383
Si Si4 0.848925 0.703914 0.166947
Si Si5 0.941225 0.213989 0.294248
Si Si6 0.467882 0.020162 0.348625
O O1 0.882783 0.891646 0.830934
O O2 0.937831 0.058132 0.941632
O O3 0.825682 0.927115 0.140775
O O4 0.130985 0.909537 0.036516
O O5 0.370074 0.715025 0.805398
O O6 0.117062 0.559669 0.869880
O O7 0.820589 0.280336 0.190375
O O8 0.804924 0.453648 0.301402
O O9 0.952651 0.425215 0.021729
O O10 0.633700 0.703594 0.198026
O O11 0.943309 0.607958 0.220434
O O12 0.920998 0.738989 0.982883
#
# Coordination Sequence:
#
# PCOD9140822 Si02
#       6
#     4   4   4   4   4   4
#     4  11  26  48  74 117 158 211 269 338 407 483
#     4  11  26  47  75 113 163 206 273 332 402 492
#     4  12  25  49  78 115 160 214 273 340 412 492
#     4  11  26  51  80 120 161 219 272 337 419 496
#     4  11  26  51  76 118 166 210 277 337 417 495
#     4  12  25  46  83 111 160 218 270 338 417 484
#
# _framework density 27.280794
#
# number of rings (size 3 to 8) (size 9 to 14) (size 15 to 20)
#    0.000    0.667    3.333    3.000    4.667    4.000 
#    0.000    0.000    0.000    0.000    0.000    0.000 
#    0.000    0.000    0.000    0.000    0.000    0.000 
#
# Total GULP energy -66969.760693 kJ/mol
# GULP energy per Si atom -5580.813391 kJ/mol
# Density = 2.721870 g / cm^3
# Si number density = 27.280794 Si / 1000 Ang^3
#
#
#
# Elastic Constant Matrix: (Units=GPa)
#
#
# Indices 1 2 3 4 5 6 
#
# 1 97.0361 26.0437 46.7954 0.0000 -7.9124 0.0000
# 2 26.0437 145.1721 21.7463 0.0000 20.0496 0.0000
# 3 46.7954 21.7463 86.0090 0.0000 -1.5213 0.0000
# 4 0.0000 0.0000 0.0000 85.1749 0.0000 14.1027
# 5 -7.9124 20.0496 -1.5213 0.0000 39.5430 0.0000
# 6 0.0000 0.0000 0.0000 14.1027 0.0000 30.1231
#
#
#
# Elastic Compliance Matrix: (Units=1/GPa)
#
#
# Indices 1 2 3 4 5 6 
#
# 1 0.014743 -0.002041 -0.007440 0.000000 0.003699 0.000000
# 2 -0.002041 0.008028 -0.000999 0.000000 -0.004517 0.000000
# 3 -0.007440 -0.000999 0.015920 0.000000 -0.000370 0.000000
# 4 0.000000 0.000000 0.000000 0.012727 0.000000 -0.005958
# 5 0.003699 -0.004517 -0.000370 0.000000 0.028305 0.000000
# 6 0.000000 0.000000 0.000000 -0.005958 0.000000 0.035987
#
#
# Mechanical properties :
#
#
# Convention : Reuss Voigt Hill
#
# Bulk Modulus (GPa) = 56.39730 57.48756 56.94243
# Shear Modulus (GPa) = 35.06786 46.54363 40.80575
#
# Velocity S-wave (km/s) = 3.58919 4.13497 3.87171
# Velocity P-wave (km/s) = 6.15583 6.62688 6.39569
#
# Compressibility (1/GPa) = 0.01773135
#
# Stress axis : x y z
#
# Youngs Moduli (GPa) = 67.83056 124.56201 62.81215
#
# Poissons Ratio (x) = 0.25426 0.46730
# Poissons Ratio (y) = 0.13846 0.06276
# Poissons Ratio (z) = 0.50463 0.12445
#
# Static dielectric constant tensor:
#      x y z
#    x 2.279380 0.000000 -0.051670 
#    y 0.000000 2.132610 0.000000 
#    z -0.051670 0.000000 2.159570 
# 
# From -- ./inp_files/4956.got.cif
#   From: 2010.05.17/outbox.cif.g08.bks.cpg/sg9_3_cif.got.tgz:4956.got - 2010.06.03 20:04:27.
