data_PCOD9140918
_publ_section_title
;
Structure prediction by ZEFSAII (Michael W. Deem and Ramdas Pophale) SiO2 
 PCOD9140918
Probable space group: C C
;
_chemical_formula_sum "Si O2"
_cell_formula_units_Z 24
_cell_length_a 4.928054
_cell_length_b 12.854094
_cell_length_c 15.237536
_cell_angle_alpha 90.000000
_cell_angle_beta 111.970697
_cell_angle_gamma 90.000000
_cell_volume 895.132258
_symmetry_space_group_name_H-M "C C"
_symmetry_group_IT_number 9
_symmetry_cell_setting 'monoclinic'
loop_
_space_group_symop_operation_xyz
x,y,z
x,-y,1/2+z
1/2+x,1/2+y,z
1/2+x,1/2-y,1/2+z
loop_
_atom_site_type_symbol
_atom_site_label
_atom_site_fract_x
_atom_site_fract_y
_atom_site_fract_z
Si Si1 0.496740 0.662843 0.477230
Si Si2 0.541460 0.916154 0.066992
Si Si3 0.749849 0.583831 0.975741
Si Si4 0.395667 0.718744 0.271367
Si Si5 0.794569 0.162829 0.065503
Si Si6 0.395667 0.360141 0.271367
O O1 0.252396 0.629340 0.517454
O O2 0.456483 0.799393 0.483687
O O3 0.393811 0.659278 0.362758
O O4 0.834828 0.700622 0.559044
O O5 0.683338 0.920984 0.180926
O O6 0.592622 0.047680 0.045682
O O7 0.198689 0.952305 0.997050
O O8 0.607957 0.579004 0.861807
O O9 0.538922 0.629325 0.025283
O O10 0.397487 0.659268 0.179975
O O11 0.104039 0.789081 0.236286
O O12 0.687327 0.789064 0.306449
#
# Coordination Sequence:
#
# PCOD9140918 Si02
#       6
#     4   4   4   4   4   4
#     4  12  23  45  70 105 135 187 242 294 345 426
#     4  12  26  44  70 103 148 183 233 296 367 430
#     4  12  26  44  70 103 148 183 233 296 367 430
#     4  12  24  39  76 103 134 182 248 294 348 419
#     4  12  23  45  70 105 135 187 242 294 345 426
#     4  12  22  43  68 101 136 192 232 294 370 419
#
# _framework density 26.811681
#
# number of rings (size 3 to 8) (size 9 to 14) (size 15 to 20)
#    0.000    0.000    6.667    4.000    0.000    1.333 
#    0.000    3.333    0.000    0.000    0.000    0.000 
#    0.000    0.000    0.000    0.000    0.000    0.000 
#
# Total GULP energy -67181.346566 kJ/mol
# GULP energy per Si atom -5598.445547 kJ/mol
# Density = 2.675066 g / cm^3
# Si number density = 26.811681 Si / 1000 Ang^3
#
#
#
# Elastic Constant Matrix: (Units=GPa)
#
#
# Indices 1 2 3 4 5 6 
#
# 1 162.8211 24.6022 81.6794 0.0000 0.4161 0.0000
# 2 24.6022 201.6080 72.1255 0.0000 29.2092 0.0000
# 3 81.6794 72.1255 261.6728 0.0000 3.9893 0.0000
# 4 0.0000 0.0000 0.0000 17.3401 0.0000 2.2404
# 5 0.4161 29.2092 3.9893 0.0000 42.7509 0.0000
# 6 0.0000 0.0000 0.0000 2.2404 0.0000 66.1811
#
#
#
# Elastic Compliance Matrix: (Units=1/GPa)
#
#
# Indices 1 2 3 4 5 6 
#
# 1 0.007285 -0.000118 -0.002245 0.000000 0.000219 0.000000
# 2 -0.000118 0.006129 -0.001591 0.000000 -0.004038 0.000000
# 3 -0.002245 -0.001591 0.004951 0.000000 0.000647 0.000000
# 4 0.000000 0.000000 0.000000 0.057923 0.000000 -0.001961
# 5 0.000219 -0.004038 0.000647 0.000000 0.026088 0.000000
# 6 0.000000 0.000000 0.000000 -0.001961 0.000000 0.015176
#
#
# Mechanical properties :
#
#
# Convention : Reuss Voigt Hill
#
# Bulk Modulus (GPa) = 95.62336 109.21290 102.41813
# Shear Modulus (GPa) = 38.77632 55.10076 46.93854
#
# Velocity S-wave (km/s) = 3.80708 4.53824 4.18865
# Velocity P-wave (km/s) = 7.42074 8.26333 7.85334
#
# Compressibility (1/GPa) = 0.01045770
#
# Stress axis : x y z
#
# Youngs Moduli (GPa) = 137.26679 163.16829 201.98071
#
# Poissons Ratio (x) = 0.01919 0.45343
# Poissons Ratio (y) = 0.01614 0.32135
# Poissons Ratio (z) = 0.30815 0.25960
#
# Static dielectric constant tensor:
#      x y z
#    x 2.079110 0.000000 -0.002710 
#    y 0.000000 2.532040 0.000000 
#    z -0.002710 0.000000 1.905250 
# 
# From -- ./inp_files/21600.got.cif
#   From: 2010.05.17/outbox.cif.g08.bks.cpg/sg9_11_cif.got.tgz:21600.got - 2010.06.03 20:04:27.
