data_PCOD9140846
_publ_section_title
;
Structure prediction by ZEFSAII (Michael W. Deem and Ramdas Pophale) SiO2 
 PCOD9140846
Probable space group: C C
;
_chemical_formula_sum "Si O2"
_cell_formula_units_Z 32
_cell_length_a 19.141227
_cell_length_b 13.722471
_cell_length_c 12.371195
_cell_angle_alpha 90.000000
_cell_angle_beta 152.970329
_cell_angle_gamma 90.000000
_cell_volume 1476.731796
_symmetry_space_group_name_H-M "C C"
_symmetry_group_IT_number 9
_symmetry_cell_setting 'monoclinic'
loop_
_space_group_symop_operation_xyz
x,y,z
x,-y,1/2+z
1/2+x,1/2+y,z
1/2+x,1/2-y,1/2+z
loop_
_atom_site_type_symbol
_atom_site_label
_atom_site_fract_x
_atom_site_fract_y
_atom_site_fract_z
Si Si1 0.638400 0.375918 0.298110
Si Si2 0.403157 0.715115 0.025252
Si Si3 0.994562 0.385551 0.754689
Si Si4 0.020446 0.674253 0.047429
Si Si5 0.133518 0.810697 0.537273
Si Si6 0.246422 0.238199 0.530650
Si Si7 0.953894 0.053287 0.958625
Si Si8 0.168274 0.426561 0.553232
O O1 0.553839 0.288548 0.117138
O O2 0.625719 0.359754 0.408997
O O3 0.815012 0.367670 0.512932
O O4 0.577860 0.480934 0.180159
O O5 0.356975 0.734029 0.084228
O O6 0.586357 0.697725 0.263720
O O7 0.306974 0.795195 0.823487
O O8 0.354247 0.611082 0.910978
O O9 0.036343 0.374521 0.686237
O O10 0.070203 0.298518 0.928652
O O11 0.037808 0.492937 0.854312
O O12 0.139889 0.620899 0.132047
O O13 0.850895 0.675262 0.757205
O O14 0.026994 0.873672 0.471236
O O15 0.174582 0.332931 0.486957
O O16 0.824511 0.981087 0.735883
#
# Coordination Sequence:
#
# PCOD9140846 Si02
#       8
#     4   4   4   4   4   4   4   4
#     4  11  27  45  75 106 143 194 242 310 370 435
#     4  12  26  47  75 104 151 198 242 306 372 435
#     4  11  27  45  75 106 143 194 242 310 370 435
#     4  11  26  50  73 105 151 190 249 306 370 439
#     4  11  26  50  73 105 151 190 249 306 370 439
#     4  12  26  47  75 104 151 198 242 306 372 435
#     4  12  27  46  73 109 143 195 250 297 366 442
#     4  12  27  46  73 109 143 195 250 297 366 442
#
# _framework density 21.669473
#
# number of rings (size 3 to 8) (size 9 to 14) (size 15 to 20)
#    0.000    0.500    5.000    1.500   10.500    1.000 
#    0.000    0.000    0.000    0.000    0.000    0.000 
#    0.000    0.000    0.000    0.000    0.000    0.000 
#
# Total GULP energy -89294.176674 kJ/mol
# GULP energy per Si atom -5580.886042 kJ/mol
# Density = 2.162015 g / cm^3
# Si number density = 21.669473 Si / 1000 Ang^3
#
#
#
# Elastic Constant Matrix: (Units=GPa)
#
#
# Indices 1 2 3 4 5 6 
#
# 1 105.4825 42.7949 23.3205 0.0000 -11.5715 0.0000
# 2 42.7949 69.2845 9.0244 0.0000 -20.4462 0.0000
# 3 23.3205 9.0244 84.5675 0.0000 3.7465 0.0000
# 4 0.0000 0.0000 0.0000 29.1113 0.0000 19.1956
# 5 -11.5715 -20.4462 3.7465 0.0000 28.3407 0.0000
# 6 0.0000 0.0000 0.0000 19.1956 0.0000 30.8152
#
#
#
# Elastic Compliance Matrix: (Units=1/GPa)
#
#
# Indices 1 2 3 4 5 6 
#
# 1 0.013286 -0.007781 -0.002842 0.000000 0.000187 0.000000
# 2 -0.007781 0.023461 -0.000973 0.000000 0.013878 0.000000
# 3 -0.002842 -0.000973 0.012870 0.000000 -0.003563 0.000000
# 4 0.000000 0.000000 0.000000 0.058296 0.000000 -0.036314
# 5 0.000187 0.013878 -0.003563 0.000000 0.045844 0.000000
# 6 0.000000 0.000000 0.000000 -0.036314 0.000000 0.055073
#
#
# Mechanical properties :
#
#
# Convention : Reuss Voigt Hill
#
# Bulk Modulus (GPa) = 37.84070 45.51267 41.67669
# Shear Modulus (GPa) = 20.76158 29.93309 25.34734
#
# Velocity S-wave (km/s) = 3.09868 3.72068 3.42384
# Velocity P-wave (km/s) = 5.50482 6.28543 5.90803
#
# Compressibility (1/GPa) = 0.02642657
#
# Stress axis : x y z
#
# Youngs Moduli (GPa) = 75.26850 42.62327 77.69907
#
# Poissons Ratio (x) = 0.33165 0.22079
# Poissons Ratio (y) = 0.58566 0.07558
# Poissons Ratio (z) = 0.21389 0.04146
#
# Static dielectric constant tensor:
#      x y z
#    x 1.775000 0.000000 -0.009320 
#    y 0.000000 1.847570 0.000000 
#    z -0.009320 0.000000 1.860470 
# 
# From -- ./inp_files/19392.got.cif
#   From: 2010.05.17/outbox.cif.g08.bks.cpg/sg9_10_cif.got.tgz:19392.got - 2010.06.03 20:04:27.
