data_PCOD9140047
_publ_section_title
;
Structure prediction by ZEFSAII (Michael W. Deem and Ramdas Pophale) SiO2 
 PCOD9140047
Probable space group: C C
;
_chemical_formula_sum "Si O2"
_cell_formula_units_Z 28
_cell_length_a 6.031763
_cell_length_b 18.253769
_cell_length_c 10.690144
_cell_angle_alpha 90.000000
_cell_angle_beta 111.775249
_cell_angle_gamma 90.000000
_cell_volume 1093.026382
_symmetry_space_group_name_H-M "C C"
_symmetry_group_IT_number 9
_symmetry_cell_setting 'monoclinic'
loop_
_space_group_symop_operation_xyz
x,y,z
x,-y,1/2+z
1/2+x,1/2+y,z
1/2+x,1/2-y,1/2+z
loop_
_atom_site_type_symbol
_atom_site_label
_atom_site_fract_x
_atom_site_fract_y
_atom_site_fract_z
Si Si1 0.350530 0.368068 0.771630
Si Si2 0.151019 0.323689 0.114380
Si Si3 0.668776 0.512823 0.234103
Si Si4 0.545516 0.561371 0.958643
Si Si5 0.893651 0.308860 0.553185
Si Si6 0.670294 0.045417 0.450311
Si Si7 0.697043 0.761093 0.391833
O O1 0.449048 0.431003 0.703312
O O2 0.343904 0.403276 0.905768
O O3 0.532391 0.302613 0.801274
O O4 0.086280 0.341744 0.687510
O O5 0.338802 0.274191 0.077362
O O6 0.229989 0.310757 0.274573
O O7 0.155111 0.409371 0.076591
O O8 0.904850 0.283003 0.012894
O O9 0.688827 0.507459 0.088091
O O10 0.607792 0.452184 0.325868
O O11 0.909100 0.546780 0.337701
O O12 0.656416 0.641283 0.009016
O O13 0.278567 0.534456 0.937614
O O14 0.032820 0.306889 0.452040
#
# Coordination Sequence:
#
# PCOD9140047 Si02
#       7
#     4   4   4   4   4   4   4
#     4  11  22  47  72 101 142 199 240 307 393 456
#     4  12  26  45  75 116 152 203 247 326 387 458
#     4  11  25  47  75  98 147 200 252 302 386 462
#     4  11  28  45  72 106 142 201 247 309 375 459
#     4  12  26  46  77 108 153 190 263 316 384 466
#     4  11  24  46  76  99 153 198 247 301 391 457
#     4  12  25  42  77 114 151 193 260 319 388 454
#
# _framework density 25.616947
#
# number of rings (size 3 to 8) (size 9 to 14) (size 15 to 20)
#    0.000    0.571    5.714    1.714    2.000    2.286 
#    0.000    0.000    0.000    0.000    0.000    0.000 
#    0.000    0.000    0.000    0.000    0.000    0.000 
#
# Total GULP energy -78141.373557 kJ/mol
# GULP energy per Si atom -5581.526683 kJ/mol
# Density = 2.555864 g / cm^3
# Si number density = 25.616947 Si / 1000 Ang^3
#
#
#
# Elastic Constant Matrix: (Units=GPa)
#
#
# Indices 1 2 3 4 5 6 
#
# 1 71.3646 22.8571 18.3502 0.0000 4.0875 0.0000
# 2 22.8571 70.2995 4.0133 0.0000 -0.9176 0.0000
# 3 18.3502 4.0133 115.9748 0.0000 -0.8068 0.0000
# 4 0.0000 0.0000 0.0000 32.7615 0.0000 -3.0298
# 5 4.0875 -0.9176 -0.8068 0.0000 39.1505 0.0000
# 6 0.0000 0.0000 0.0000 -3.0298 0.0000 46.8197
#
#
#
# Elastic Compliance Matrix: (Units=1/GPa)
#
#
# Indices 1 2 3 4 5 6 
#
# 1 0.016419 -0.005224 -0.002430 0.000000 -0.001887 0.000000
# 2 -0.005224 0.015919 0.000282 0.000000 0.000924 0.000000
# 3 -0.002430 0.000282 0.009000 0.000000 0.000446 0.000000
# 4 0.000000 0.000000 0.000000 0.030707 0.000000 0.001987
# 5 -0.001887 0.000924 0.000446 0.000000 0.025770 0.000000
# 6 0.000000 0.000000 0.000000 0.001987 0.000000 0.021487
#
#
# Mechanical properties :
#
#
# Convention : Reuss Voigt Hill
#
# Bulk Modulus (GPa) = 37.60251 38.67555 38.13903
# Shear Modulus (GPa) = 34.98640 37.90757 36.44699
#
# Velocity S-wave (km/s) = 3.69962 3.85097 3.77605
# Velocity P-wave (km/s) = 5.74110 5.90794 5.82511
#
# Compressibility (1/GPa) = 0.02659397
#
# Stress axis : x y z
#
# Youngs Moduli (GPa) = 60.90596 62.81635 111.10594
#
# Poissons Ratio (x) = 0.32817 0.27001
# Poissons Ratio (y) = 0.31819 -0.03135
# Poissons Ratio (z) = 0.14801 -0.01772
#
# Static dielectric constant tensor:
#      x y z
#    x 2.017080 0.000000 -0.062720 
#    y 0.000000 2.102790 0.000000 
#    z -0.062720 0.000000 2.115290 
# 
# From -- ./inp_files/13191.got.cif
#   From: 2010.05.17/outbox.cif.g08.bks.cpg/sg9_7_cif.got.tgz:13191.got - 2010.06.03 20:04:27.
