data_PCOD9140976
_publ_section_title
;
Structure prediction by ZEFSAII (Michael W. Deem and Ramdas Pophale) SiO2 
 PCOD9140976
Probable space group: C C
;
_chemical_formula_sum "Si O2"
_cell_formula_units_Z 24
_cell_length_a 4.958520
_cell_length_b 12.955959
_cell_length_c 18.714699
_cell_angle_alpha 90.000000
_cell_angle_beta 47.388540
_cell_angle_gamma 90.000000
_cell_volume 884.829691
_symmetry_space_group_name_H-M "C C"
_symmetry_group_IT_number 9
_symmetry_cell_setting 'monoclinic'
loop_
_space_group_symop_operation_xyz
x,y,z
x,-y,1/2+z
1/2+x,1/2+y,z
1/2+x,1/2-y,1/2+z
loop_
_atom_site_type_symbol
_atom_site_label
_atom_site_fract_x
_atom_site_fract_y
_atom_site_fract_z
Si Si1 0.248480 0.536827 0.905850
Si Si2 0.400609 0.601815 0.602252
Si Si3 0.538800 0.669594 0.427591
Si Si4 0.209902 0.999941 0.188998
Si Si5 0.866531 0.772195 0.759003
Si Si6 0.152658 0.158931 0.939801
O O1 0.531200 0.554846 0.790320
O O2 0.300947 0.616888 0.961706
O O3 0.871883 0.562781 0.933967
O O4 0.375843 0.428277 0.914952
O O5 0.140442 0.507286 0.624634
O O6 0.122272 0.695520 0.668518
O O7 0.626368 0.640380 0.493725
O O8 0.608621 0.560984 0.634848
O O9 0.930471 0.706500 0.325047
O O10 0.206787 0.752867 0.488473
O O11 0.048624 0.114842 0.219953
O O12 0.867193 0.716727 0.836507
#
# Coordination Sequence:
#
# PCOD9140976 Si02
#       6
#     4   4   4   4   4   4
#     4  12  24  44  76 107 148 201 261 308 400 458
#     4  12  30  48  75 117 160 197 269 325 387 467
#     4  12  29  48  80 117 157 209 266 328 388 476
#     4  12  25  47  74 110 149 206 254 327 387 472
#     4  12  26  49  80 111 154 210 255 320 402 461
#     4  12  24  44  77 110 144 205 251 318 384 472
#
# _framework density 27.123863
#
# number of rings (size 3 to 8) (size 9 to 14) (size 15 to 20)
#    0.000    0.000    6.667    2.000    2.333    2.667 
#    0.000    0.000    0.000    0.000    0.000    0.000 
#    0.000    0.000    0.000    0.000    0.000    0.000 
#
# Total GULP energy -67182.386455 kJ/mol
# GULP energy per Si atom -5598.532205 kJ/mol
# Density = 2.706213 g / cm^3
# Si number density = 27.123863 Si / 1000 Ang^3
#
#
#
# Elastic Constant Matrix: (Units=GPa)
#
#
# Indices 1 2 3 4 5 6 
#
# 1 167.6473 41.5412 35.8341 -0.0022 15.5929 0.0037
# 2 41.5412 155.2533 23.8208 -0.0008 4.3479 0.0007
# 3 35.8341 23.8208 98.8079 -0.0027 20.5759 0.0006
# 4 -0.0022 -0.0008 -0.0027 39.4000 0.0019 2.3568
# 5 15.5929 4.3479 20.5759 0.0019 44.3183 -0.0006
# 6 0.0037 0.0007 0.0006 2.3568 -0.0006 42.7530
#
#
#
# Elastic Compliance Matrix: (Units=1/GPa)
#
#
# Indices 1 2 3 4 5 6 
#
# 1 0.006863 -0.001516 -0.001828 0.000000 -0.001417 -0.000001
# 2 -0.001516 0.007024 -0.001230 0.000000 0.000415 0.000000
# 3 -0.001828 -0.001230 0.012090 0.000001 -0.004849 0.000000
# 4 0.000000 0.000000 0.000001 0.025465 -0.000002 -0.001404
# 5 -0.001417 0.000415 -0.004849 -0.000002 0.025273 0.000001
# 6 -0.000001 0.000000 0.000000 -0.001404 0.000001 0.023468
#
#
# Mechanical properties :
#
#
# Convention : Reuss Voigt Hill
#
# Bulk Modulus (GPa) = 59.42471 69.34453 64.38462
# Shear Modulus (GPa) = 43.50058 46.66177 45.08117
#
# Velocity S-wave (km/s) = 4.00906 4.15218 4.08125
# Velocity P-wave (km/s) = 6.58683 6.97200 6.78215
#
# Compressibility (1/GPa) = 0.01682802
#
# Stress axis : x y z
#
# Youngs Moduli (GPa) = 145.70420 142.37201 82.71256
#
# Poissons Ratio (x) = 0.21586 0.15123
# Poissons Ratio (y) = 0.22091 0.10173
# Poissons Ratio (z) = 0.26641 0.17511
#
# Static dielectric constant tensor:
#      x y z
#    x 2.058580 0.000000 -0.000050 
#    y 0.000000 2.230510 0.000000 
#    z -0.000050 0.000000 2.148480 
# 
# From -- ./inp_files/28436.got.cif
#   From: 2010.05.17/outbox.cif.g08.bks.cpg/sg9_15_cif.got.tgz:28436.got - 2010.06.03 20:04:27.
