data_PCOD9140111
_publ_section_title
;
Structure prediction by ZEFSAII (Michael W. Deem and Ramdas Pophale) SiO2 
 PCOD9140111
Probable space group: C C
;
_chemical_formula_sum "Si O2"
_cell_formula_units_Z 32
_cell_length_a 11.423910
_cell_length_b 19.939150
_cell_length_c 6.095585
_cell_angle_alpha 90.000000
_cell_angle_beta 116.850535
_cell_angle_gamma 90.000000
_cell_volume 1238.776858
_symmetry_space_group_name_H-M "C C"
_symmetry_group_IT_number 9
_symmetry_cell_setting 'monoclinic'
loop_
_space_group_symop_operation_xyz
x,y,z
x,-y,1/2+z
1/2+x,1/2+y,z
1/2+x,1/2-y,1/2+z
loop_
_atom_site_type_symbol
_atom_site_label
_atom_site_fract_x
_atom_site_fract_y
_atom_site_fract_z
Si Si1 0.972270 0.636370 0.155870
Si Si2 0.858804 0.551121 0.440104
Si Si3 0.006979 0.156691 0.515371
Si Si4 0.404761 0.467594 0.665693
Si Si5 0.942150 0.771182 0.359484
Si Si6 0.250396 0.905752 0.238117
Si Si7 0.664063 0.754423 0.348839
Si Si8 0.122660 0.411993 0.413693
O O1 0.896270 0.588881 0.255199
O O2 0.993987 0.703231 0.296468
O O3 0.862114 0.648502 0.878233
O O4 0.091710 0.600292 0.143390
O O5 0.802227 0.479226 0.336506
O O6 0.745020 0.590562 0.471208
O O7 0.994991 0.554688 0.692718
O O8 0.113759 0.109966 0.726651
O O9 0.100677 0.218151 0.510366
O O10 0.946657 0.108881 0.275587
O O11 0.909586 0.181558 0.623806
O O12 0.439465 0.492535 0.435684
O O13 0.248365 0.458469 0.504844
O O14 0.817285 0.754571 0.408082
O O15 0.074655 0.787073 0.601801
O O16 0.636048 0.835123 0.337232
#
# Coordination Sequence:
#
# PCOD9140111 Si02
#       8
#     4   4   4   4   4   4   4   4
#     4  11  23  43  72 114 147 199 269 342 423 485
#     4  11  23  42  73 113 149 202 260 350 406 494
#     4  12  30  52  79 117 171 221 285 347 436 520
#     4  12  34  55  83 118 174 240 291 347 434 527
#     4  12  27  48  83 118 163 214 276 351 434 510
#     4  11  25  42  73 110 153 195 265 335 416 484
#     4  12  27  50  83 120 165 212 282 360 431 514
#     4  11  27  46  78 114 160 207 284 350 422 498
#
# _framework density 25.831931999999998
#
# number of rings (size 3 to 8) (size 9 to 14) (size 15 to 20)
#    0.000    0.500    3.750    2.250   14.000    2.000 
#    0.000    0.000    0.000    0.000    0.000    0.000 
#    0.000    0.000    0.000    0.000    0.000    0.000 
#
# Total GULP energy -89144.650689 kJ/mol
# GULP energy per Si atom -5571.540668 kJ/mol
# Density = 2.577314 g / cm^3
# Si number density = 25.831932 Si / 1000 Ang^3
#
#
#
# Elastic Constant Matrix: (Units=GPa)
#
#
# Indices 1 2 3 4 5 6 
#
# 1 82.1012 13.0854 22.8797 0.0000 -9.7714 0.0000
# 2 13.0854 84.7751 44.7088 0.0000 -11.8446 0.0000
# 3 22.8797 44.7088 76.9118 0.0000 -13.4518 0.0000
# 4 0.0000 0.0000 0.0000 39.0721 0.0000 -10.5711
# 5 -9.7714 -11.8446 -13.4518 0.0000 44.4622 0.0000
# 6 0.0000 0.0000 0.0000 -10.5711 0.0000 32.4680
#
#
#
# Elastic Compliance Matrix: (Units=1/GPa)
#
#
# Indices 1 2 3 4 5 6 
#
# 1 0.013424 0.000176 -0.003771 0.000000 0.001856 0.000000
# 2 0.000176 0.017125 -0.009717 0.000000 0.001661 0.000000
# 3 -0.003771 -0.009717 0.020246 0.000000 0.002708 0.000000
# 4 0.000000 0.000000 0.000000 0.028066 0.000000 0.009138
# 5 0.001856 0.001661 0.002708 0.000000 0.024161 0.000000
# 6 0.000000 0.000000 0.000000 0.009138 0.000000 0.033775
#
#
# Mechanical properties :
#
#
# Convention : Reuss Voigt Hill
#
# Bulk Modulus (GPa) = 41.37133 45.01510 43.19321
# Shear Modulus (GPa) = 29.15845 34.07471 31.61658
#
# Velocity S-wave (km/s) = 3.36337 3.63587 3.50227
# Velocity P-wave (km/s) = 5.57973 5.92369 5.75428
#
# Compressibility (1/GPa) = 0.02417133
#
# Stress axis : x y z
#
# Youngs Moduli (GPa) = 74.49431 58.39322 49.39322
#
# Poissons Ratio (x) = -0.01028 0.18626
# Poissons Ratio (y) = -0.01312 0.47994
# Poissons Ratio (z) = 0.28092 0.56739
#
# Static dielectric constant tensor:
#      x y z
#    x 2.026810 0.000000 -0.083270 
#    y 0.000000 2.145760 0.000000 
#    z -0.083270 0.000000 2.475720 
# 
# From -- ./inp_files/1874.got.cif
#   From: 2010.05.17/outbox.cif.g08.bks.cpg/sg9_1_cif.got.tgz:1874.got - 2010.06.03 20:04:27.
