data_PCOD9140130
_publ_section_title
;
Structure prediction by ZEFSAII (Michael W. Deem and Ramdas Pophale) SiO2 
 PCOD9140130
Probable space group: C C
;
_chemical_formula_sum "Si O2"
_cell_formula_units_Z 20
_cell_length_a 6.753089
_cell_length_b 23.863372
_cell_length_c 5.621022
_cell_angle_alpha 90.000000
_cell_angle_beta 106.927742
_cell_angle_gamma 90.000000
_cell_volume 866.588574
_symmetry_space_group_name_H-M "C C"
_symmetry_group_IT_number 9
_symmetry_cell_setting 'monoclinic'
loop_
_space_group_symop_operation_xyz
x,y,z
x,-y,1/2+z
1/2+x,1/2+y,z
1/2+x,1/2-y,1/2+z
loop_
_atom_site_type_symbol
_atom_site_label
_atom_site_fract_x
_atom_site_fract_y
_atom_site_fract_z
Si Si1 0.061110 0.325476 0.402940
Si Si2 0.094929 0.532739 0.338590
Si Si3 0.976833 0.196901 0.335918
Si Si4 0.231273 0.886573 0.614302
Si Si5 0.857015 0.118052 0.666565
O O1 0.258624 0.318340 0.642209
O O2 0.146363 0.364283 0.223240
O O3 0.007081 0.262501 0.309384
O O4 0.877340 0.354914 0.476978
O O5 0.107581 0.495267 0.582437
O O6 0.286935 0.575742 0.437428
O O7 0.874834 0.564931 0.268736
O O8 0.954653 0.175465 0.597774
O O9 0.153528 0.159334 0.276685
O O10 0.025538 0.907087 0.404737
#
# Coordination Sequence:
#
# PCOD9140130 Si02
#       5
#     4   4   4   4   4
#     4  11  23  43  69 112 152 192 236 291 371 450
#     4  12  29  51  77 106 146 196 257 321 376 430
#     4  11  24  40  73 109 149 193 241 291 366 456
#     4  11  26  46  74 105 149 193 244 304 370 442
#     4  11  26  46  73 106 150 190 248 303 365 450
#
# _framework density 23.079001000000002
#
# number of rings (size 3 to 8) (size 9 to 14) (size 15 to 20)
#    0.000    0.800    2.000    3.600   11.200    4.800 
#    0.000    0.000    0.000    0.000    0.000    0.000 
#    0.000    0.000    0.000    0.000    0.000    0.000 
#
# Total GULP energy -55972.065156 kJ/mol
# GULP energy per Si atom -5597.206516 kJ/mol
# Density = 2.302647 g / cm^3
# Si number density = 23.079001 Si / 1000 Ang^3
#
#
#
# Elastic Constant Matrix: (Units=GPa)
#
#
# Indices 1 2 3 4 5 6 
#
# 1 101.0073 23.4648 17.7424 0.0000 -13.5345 0.0000
# 2 23.4648 86.2746 38.4279 0.0000 12.8300 0.0000
# 3 17.7424 38.4279 81.9637 0.0000 4.8527 0.0000
# 4 0.0000 0.0000 0.0000 48.3084 0.0000 5.0333
# 5 -13.5345 12.8300 4.8527 0.0000 41.4712 0.0000
# 6 0.0000 0.0000 0.0000 5.0333 0.0000 30.2917
#
#
#
# Elastic Compliance Matrix: (Units=1/GPa)
#
#
# Indices 1 2 3 4 5 6 
#
# 1 0.011553 -0.003328 -0.001233 0.000000 0.004944 0.000000
# 2 -0.003328 0.016214 -0.006565 0.000000 -0.005334 0.000000
# 3 -0.001233 -0.006565 0.015557 0.000000 -0.000192 0.000000
# 4 0.000000 0.000000 0.000000 0.021065 0.000000 -0.003500
# 5 0.004944 -0.005334 -0.000192 0.000000 0.027399 0.000000
# 6 0.000000 0.000000 0.000000 -0.003500 0.000000 0.033594
#
#
# Mechanical properties :
#
#
# Convention : Reuss Voigt Hill
#
# Bulk Modulus (GPa) = 47.46107 47.61290 47.53698
# Shear Modulus (GPa) = 32.32948 36.65496 34.49222
#
# Velocity S-wave (km/s) = 3.74681 3.98959 3.87011
# Velocity P-wave (km/s) = 6.27115 6.47284 6.37280
#
# Compressibility (1/GPa) = 0.02106990
#
# Stress axis : x y z
#
# Youngs Moduli (GPa) = 86.56131 61.67671 64.28008
#
# Poissons Ratio (x) = 0.20526 0.07927
# Poissons Ratio (y) = 0.28808 0.42202
# Poissons Ratio (z) = 0.10674 0.40493
#
# Static dielectric constant tensor:
#      x y z
#    x 1.825120 0.000000 -0.008940 
#    y 0.000000 1.935250 0.000000 
#    z -0.008940 0.000000 1.936170 
# 
# From -- ./inp_files/158.got.cif
#   From: 2010.05.17/outbox.cif.g08.bks.cpg/sg9_1_cif.got.tgz:158.got - 2010.06.03 20:04:27.
