data_PCOD9140061
_publ_section_title
;
Structure prediction by ZEFSAII (Michael W. Deem and Ramdas Pophale) SiO2 
 PCOD9140061
Probable space group: C C
;
_chemical_formula_sum "Si O2"
_cell_formula_units_Z 28
_cell_length_a 17.582930
_cell_length_b 7.303937
_cell_length_c 26.743059
_cell_angle_alpha 90.000000
_cell_angle_beta 159.799874
_cell_angle_gamma 90.000000
_cell_volume 1185.922359
_symmetry_space_group_name_H-M "C C"
_symmetry_group_IT_number 9
_symmetry_cell_setting 'monoclinic'
loop_
_space_group_symop_operation_xyz
x,y,z
x,-y,1/2+z
1/2+x,1/2+y,z
1/2+x,1/2-y,1/2+z
loop_
_atom_site_type_symbol
_atom_site_label
_atom_site_fract_x
_atom_site_fract_y
_atom_site_fract_z
Si Si1 0.763950 0.611914 0.019450
Si Si2 0.598552 0.961159 0.639274
Si Si3 0.216939 0.938634 0.600285
Si Si4 0.286616 0.206270 0.311068
Si Si5 0.335845 0.544704 0.699330
Si Si6 0.896783 0.626130 0.807589
Si Si7 0.369457 0.541611 0.108960
O O1 0.800674 0.513918 0.096045
O O2 0.894183 0.578468 0.048514
O O3 0.817405 0.827185 0.063610
O O4 0.522683 0.538820 0.856425
O O5 0.768886 0.794335 0.753989
O O6 0.662480 0.163566 0.695677
O O7 0.607567 0.981760 0.584615
O O8 0.350854 0.757491 0.696249
O O9 0.970089 0.848636 0.445906
O O10 0.265922 0.076553 0.675618
O O11 0.099551 0.117582 0.230291
O O12 0.391075 0.044037 0.342700
O O13 0.374336 0.440793 0.671915
O O14 0.155399 0.647169 0.955738
#
# Coordination Sequence:
#
# PCOD9140061 Si02
#       7
#     4   4   4   4   4   4   4
#     4  11  23  45  72 108 143 191 244 301 365 440
#     4  12  27  45  75 106 144 188 247 297 373 439
#     4  11  22  49  74  99 150 187 237 305 361 433
#     4  12  25  48  72 110 149 190 243 309 363 440
#     4  11  23  45  71 104 144 190 239 309 356 438
#     4  12  25  48  75 107 145 193 244 302 373 439
#     4  11  25  46  75 106 149 191 246 305 371 435
#
# _framework density 23.610315
#
# number of rings (size 3 to 8) (size 9 to 14) (size 15 to 20)
#    0.000    0.571    8.571    0.000    4.000    2.286 
#    7.714    0.000    0.000    0.000    0.000    0.000 
#    0.000    0.000    0.000    0.000    0.000    0.000 
#
# Total GULP energy -78074.053674 kJ/mol
# GULP energy per Si atom -5576.718120 kJ/mol
# Density = 2.355658 g / cm^3
# Si number density = 23.610315 Si / 1000 Ang^3
#
#
#
# Elastic Constant Matrix: (Units=GPa)
#
#
# Indices 1 2 3 4 5 6 
#
# 1 190.3863 27.3112 40.8214 -0.0009 6.2536 0.0010
# 2 27.3112 78.1291 6.7517 0.0075 -0.5682 -0.0009
# 3 40.8214 6.7517 45.2096 0.0182 -6.1827 0.0171
# 4 -0.0009 0.0075 0.0182 13.5633 -0.0004 1.7701
# 5 6.2536 -0.5682 -6.1827 -0.0004 40.6494 0.0001
# 6 0.0010 -0.0009 0.0171 1.7701 0.0001 25.7617
#
#
#
# Elastic Compliance Matrix: (Units=1/GPa)
#
#
# Indices 1 2 3 4 5 6 
#
# 1 0.006933 -0.001898 -0.006257 0.000009 -0.002045 0.000003
# 2 -0.001898 0.013487 -0.000240 -0.000007 0.000444 0.000001
# 3 -0.006257 -0.000240 0.028529 -0.000036 0.005298 -0.000016
# 4 0.000009 -0.000007 -0.000036 0.074396 -0.000006 -0.005112
# 5 -0.002045 0.000444 0.005298 -0.000006 0.025727 -0.000003
# 6 0.000003 0.000001 -0.000016 -0.005112 -0.000003 0.039169
#
#
# Mechanical properties :
#
#
# Convention : Reuss Voigt Hill
#
# Bulk Modulus (GPa) = 31.09398 51.49928 41.29663
# Shear Modulus (GPa) = 23.17504 31.91757 27.54630
#
# Velocity S-wave (km/s) = 3.13639 3.68074 3.41941
# Velocity P-wave (km/s) = 5.12974 6.31849 5.75489
#
# Compressibility (1/GPa) = 0.03216056
#
# Stress axis : x y z
#
# Youngs Moduli (GPa) = 144.22930 74.14709 35.05211
#
# Poissons Ratio (x) = 0.14072 0.21931
# Poissons Ratio (y) = 0.27373 0.00840
# Poissons Ratio (z) = 0.90239 0.01778
#
# Static dielectric constant tensor:
#      x y z
#    x 2.140890 0.000010 0.055290 
#    y 0.000010 1.935820 0.000000 
#    z 0.055290 0.000000 1.995910 
# 
# From -- ./inp_files/20084.got.cif
#   From: 2010.05.17/outbox.cif.g08.bks.cpg/sg9_11_cif.got.tgz:20084.got - 2010.06.03 20:04:27.
