data_PCOD9140135
_publ_section_title
;
Structure prediction by ZEFSAII (Michael W. Deem and Ramdas Pophale) SiO2 
 PCOD9140135
Probable space group: C C
;
_chemical_formula_sum "Si O2"
_cell_formula_units_Z 24
_cell_length_a 12.777898
_cell_length_b 7.846955
_cell_length_c 9.968032
_cell_angle_alpha 90.000000
_cell_angle_beta 78.087089
_cell_angle_gamma 90.000000
_cell_volume 977.944449
_symmetry_space_group_name_H-M "C C"
_symmetry_group_IT_number 9
_symmetry_cell_setting 'monoclinic'
loop_
_space_group_symop_operation_xyz
x,y,z
x,-y,1/2+z
1/2+x,1/2+y,z
1/2+x,1/2-y,1/2+z
loop_
_atom_site_type_symbol
_atom_site_label
_atom_site_fract_x
_atom_site_fract_y
_atom_site_fract_z
Si Si1 0.899980 0.832402 0.672340
Si Si2 0.208111 0.122871 0.837128
Si Si3 0.265591 0.824014 0.623537
Si Si4 0.017731 0.319873 0.505257
Si Si5 0.083611 0.561293 0.706532
Si Si6 0.483193 0.458399 0.389656
O O1 0.789812 0.761965 0.758813
O O2 0.993162 0.689816 0.666984
O O3 0.033739 0.128310 0.446435
O O4 0.699145 0.848394 0.166003
O O5 0.084454 0.161729 0.846126
O O6 0.237246 0.953009 0.748860
O O7 0.225661 0.106810 0.990831
O O8 0.392444 0.816918 0.574707
O O9 0.079364 0.394541 0.615853
O O10 0.046926 0.440439 0.371034
O O11 0.935008 0.985461 0.761445
O O12 0.899928 0.883784 0.517519
#
# Coordination Sequence:
#
# PCOD9140135 Si02
#       6
#     4   4   4   4   4   4
#     4  11  23  43  72 105 138 190 239 294 355 432
#     4  12  22  44  75 101 140 189 236 296 361 416
#     4  12  22  44  72 102 137 187 238 292 357 423
#     4  11  23  46  69 102 145 185 233 301 348 424
#     4  11  23  43  71 104 140 185 243 287 354 433
#     4  11  23  46  71 102 148 184 239 298 359 422
#
# _framework density 24.541270999999998
#
# number of rings (size 3 to 8) (size 9 to 14) (size 15 to 20)
#    0.000    0.667   10.000    0.000    0.000    1.333 
#    9.000    0.000    0.000    0.000    0.000    0.000 
#    0.000    0.000    0.000    0.000    0.000    0.000 
#
# Total GULP energy -67246.501852 kJ/mol
# GULP energy per Si atom -5603.875154 kJ/mol
# Density = 2.448541 g / cm^3
# Si number density = 24.541271 Si / 1000 Ang^3
#
#
#
# Elastic Constant Matrix: (Units=GPa)
#
#
# Indices 1 2 3 4 5 6 
#
# 1 115.4460 17.8169 36.8238 0.0000 -25.5666 0.0000
# 2 17.8169 43.5183 21.8282 0.0000 10.1180 0.0000
# 3 36.8238 21.8282 107.3162 0.0000 -14.6962 0.0000
# 4 0.0000 0.0000 0.0000 41.2486 0.0000 -0.0366
# 5 -25.5666 10.1180 -14.6962 0.0000 36.2520 0.0000
# 6 0.0000 0.0000 0.0000 -0.0366 0.0000 -7.3333
#
#
#
# Elastic Compliance Matrix: (Units=1/GPa)
#
#
# Indices 1 2 3 4 5 6 
#
# 1 0.012376 -0.006607 -0.001541 0.000000 0.009948 0.000000
# 2 -0.006607 0.032886 -0.006688 0.000000 -0.016550 0.000000
# 3 -0.001541 -0.006688 0.011979 0.000000 0.005637 0.000000
# 4 0.000000 0.000000 0.000000 0.024243 0.000000 -0.000121
# 5 0.009948 -0.016550 0.005637 0.000000 0.041504 0.000000
# 6 0.000000 0.000000 0.000000 -0.000121 0.000000 -0.136364
#
#
# Mechanical properties :
#
#
# Convention : Reuss Voigt Hill
#
# Bulk Modulus (GPa) = 36.27157 46.57979 41.42568
# Shear Modulus (GPa) = 196.17677 26.68757 111.43217
#
# Velocity S-wave (km/s) = 8.95048 3.30124 6.74571
# Velocity P-wave (km/s) = 11.02845 5.79243 8.80849
#
# Compressibility (1/GPa) = 0.02756980
#
# Stress axis : x y z
#
# Youngs Moduli (GPa) = 80.80059 30.40771 83.47837
#
# Poissons Ratio (x) = 0.20091 0.12860
# Poissons Ratio (y) = 0.53386 0.55833
# Poissons Ratio (z) = 0.12447 0.20338
#
# Static dielectric constant tensor:
#      x y z
#    x 1.918820 0.000000 -0.016170 
#    y 0.000000 2.003080 0.000000 
#    z -0.016170 0.000000 1.899800 
# 
# From -- ./inp_files/8826.got.cif
#   From: 2010.05.17/outbox.cif.g08.bks.cpg/sg9_5_cif.got.tgz:8826.got - 2010.06.03 20:04:27.
