data_PCOD9140331
_publ_section_title
;
Structure prediction by ZEFSAII (Michael W. Deem and Ramdas Pophale) SiO2 
 PCOD9140331
Probable space group: C C
;
_chemical_formula_sum "Si O2"
_cell_formula_units_Z 32
_cell_length_a 20.533284
_cell_length_b 6.268944
_cell_length_c 10.270151
_cell_angle_alpha 90.000000
_cell_angle_beta 119.744058
_cell_angle_gamma 90.000000
_cell_volume 1147.822044
_symmetry_space_group_name_H-M "C C"
_symmetry_group_IT_number 9
_symmetry_cell_setting 'monoclinic'
loop_
_space_group_symop_operation_xyz
x,y,z
x,-y,1/2+z
1/2+x,1/2+y,z
1/2+x,1/2-y,1/2+z
loop_
_atom_site_type_symbol
_atom_site_label
_atom_site_fract_x
_atom_site_fract_y
_atom_site_fract_z
Si Si1 0.182800 0.773225 0.347270
Si Si2 0.871309 0.572396 0.363892
Si Si3 0.212807 0.209037 0.339786
Si Si4 0.337155 0.671696 0.621782
Si Si5 0.452608 0.593605 0.099386
Si Si6 0.037629 0.879139 0.955378
Si Si7 0.604033 0.880675 0.012779
Si Si8 0.277015 0.697906 0.191001
O O1 0.263223 0.784225 0.499893
O O2 0.135176 0.622413 0.393772
O O3 0.211659 0.740181 0.228793
O O4 0.156014 0.015468 0.317395
O O5 0.789294 0.633188 0.344148
O O6 0.892655 0.664261 0.242057
O O7 0.933806 0.676576 0.516684
O O8 0.849110 0.335601 0.302468
O O9 0.242344 0.277741 0.511804
O O10 0.165359 0.349961 0.190860
O O11 0.374079 0.519115 0.556349
O O12 0.311670 0.533313 0.718481
O O13 0.493016 0.626071 0.276088
O O14 0.492168 0.425761 0.042706
O O15 0.073224 0.128813 0.983569
O O16 0.068200 0.624293 0.995876
#
# Coordination Sequence:
#
# PCOD9140331 Si02
#       8
#     4   4   4   4   4   4   4   4
#     4  11  25  49  86 135 172 226 286 390 473 546
#     4  11  23  50  81 131 176 219 284 380 479 536
#     4  11  23  51  85 135 179 228 288 388 475 552
#     4  12  23  48  84 129 172 217 281 381 472 537
#     4  12  28  60  88 126 182 239 322 374 453 555
#     4  12  34  65  88 127 175 267 311 376 432 542
#     4  12  31  64  90 125 188 240 322 371 450 550
#     4  11  25  43  80 140 172 218 276 362 504 546
#
# _framework density 27.878886000000001
#
# number of rings (size 3 to 8) (size 9 to 14) (size 15 to 20)
#    0.000    0.500    5.000    1.500    1.750    6.000 
#   15.750    0.000    0.000    0.000    0.000    0.000 
#    0.000    0.000    0.000    0.000    0.000    0.000 
#
# Total GULP energy -89116.464612 kJ/mol
# GULP energy per Si atom -5569.779038 kJ/mol
# Density = 2.781543 g / cm^3
# Si number density = 27.878886 Si / 1000 Ang^3
#
#
#
# Elastic Constant Matrix: (Units=GPa)
#
#
# Indices 1 2 3 4 5 6 
#
# 1 83.7447 60.9646 40.3085 0.0000 -28.6323 0.0000
# 2 60.9646 210.9052 66.2781 0.0000 -1.2934 0.0000
# 3 40.3085 66.2781 195.8229 0.0000 -1.1413 0.0000
# 4 0.0000 0.0000 0.0000 57.9204 0.0000 0.9089
# 5 -28.6323 -1.2934 -1.1413 0.0000 45.6259 0.0000
# 6 0.0000 0.0000 0.0000 0.9089 0.0000 59.1183
#
#
#
# Elastic Compliance Matrix: (Units=1/GPa)
#
#
# Indices 1 2 3 4 5 6 
#
# 1 0.021659 -0.005374 -0.002562 0.000000 0.013376 0.000000
# 2 -0.005374 0.006640 -0.001160 0.000000 -0.003213 0.000000
# 3 -0.002562 -0.001160 0.006018 0.000000 -0.001490 0.000000
# 4 0.000000 0.000000 0.000000 0.017269 0.000000 -0.000265
# 5 0.013376 -0.003213 -0.001490 0.000000 0.030183 0.000000
# 6 0.000000 0.000000 0.000000 -0.000265 0.000000 0.016919
#
#
# Mechanical properties :
#
#
# Convention : Reuss Voigt Hill
#
# Bulk Modulus (GPa) = 62.01094 91.73056 76.87075
# Shear Modulus (GPa) = 40.89846 54.06101 47.47974
#
# Velocity S-wave (km/s) = 3.83431 4.40834 4.13131
# Velocity P-wave (km/s) = 6.47254 7.67372 7.09858
#
# Compressibility (1/GPa) = 0.01612619
#
# Stress axis : x y z
#
# Youngs Moduli (GPa) = 46.16966 150.61126 166.17367
#
# Poissons Ratio (x) = 0.80936 0.42567
# Poissons Ratio (y) = 0.24811 0.19273
# Poissons Ratio (z) = 0.11827 0.17468
#
# Static dielectric constant tensor:
#      x y z
#    x 2.259650 0.000000 0.063930 
#    y 0.000000 2.244530 0.000000 
#    z 0.063930 0.000000 2.181530 
# 
# From -- ./inp_files/12078.got.cif
#   From: 2010.05.17/outbox.cif.g08.bks.cpg/sg9_7_cif.got.tgz:12078.got - 2010.06.03 20:04:27.
