data_PCOD9140080
_publ_section_title
;
Structure prediction by ZEFSAII (Michael W. Deem and Ramdas Pophale) SiO2 
 PCOD9140080
Probable space group: C C
;
_chemical_formula_sum "Si O2"
_cell_formula_units_Z 28
_cell_length_a 16.496214
_cell_length_b 14.674937
_cell_length_c 9.199835
_cell_angle_alpha 90.000000
_cell_angle_beta 146.577062
_cell_angle_gamma 90.000000
_cell_volume 1226.722307
_symmetry_space_group_name_H-M "C C"
_symmetry_group_IT_number 9
_symmetry_cell_setting 'monoclinic'
loop_
_space_group_symop_operation_xyz
x,y,z
x,-y,1/2+z
1/2+x,1/2+y,z
1/2+x,1/2-y,1/2+z
loop_
_atom_site_type_symbol
_atom_site_label
_atom_site_fract_x
_atom_site_fract_y
_atom_site_fract_z
Si Si1 0.878790 0.080357 0.743000
Si Si2 0.038662 0.038376 0.712626
Si Si3 0.561523 0.884256 0.765748
Si Si4 0.288052 0.915547 0.196474
Si Si5 0.516411 0.777493 0.985713
Si Si6 0.350548 0.789377 0.032435
Si Si7 0.093202 0.211819 0.601977
O O1 0.710722 0.066247 0.532452
O O2 0.902701 0.046438 0.616859
O O3 0.927934 0.184699 0.823065
O O4 0.990325 0.028853 0.014309
O O5 0.074114 0.134846 0.695273
O O6 0.172351 0.995867 0.003482
O O7 0.435519 0.942189 0.500338
O O8 0.606339 0.805881 0.712844
O O9 0.498720 0.840276 0.818748
O O10 0.323848 0.877794 0.090702
O O11 0.218812 0.829474 0.183482
O O12 0.443364 0.810388 0.026518
O O13 0.690668 0.754518 0.261469
O O14 0.451717 0.723689 0.284850
#
# Coordination Sequence:
#
# PCOD9140080 Si02
#       7
#     4   4   4   4   4   4   4
#     4  12  25  45  70 106 140 192 232 294 360 434
#     4  12  25  45  72  95 148 191 231 281 375 422
#     4  11  26  43  75 106 138 179 251 293 351 411
#     4  11  24  46  66 107 141 190 232 295 356 432
#     4  12  22  42  75 111 137 183 239 303 340 422
#     4  11  23  40  74 109 140 178 244 292 352 414
#     4  11  23  43  72 102 138 189 233 298 342 431
#
# _framework density 22.825050999999998
#
# number of rings (size 3 to 8) (size 9 to 14) (size 15 to 20)
#    0.000    0.571    7.143    0.857    2.000    0.000 
#    2.571    0.000    6.286    0.000    0.000    0.000 
#    0.000    0.000    0.000    0.000    0.000    0.000 
#
# Total GULP energy -78350.333630 kJ/mol
# GULP energy per Si atom -5596.452402 kJ/mol
# Density = 2.277310 g / cm^3
# Si number density = 22.825051 Si / 1000 Ang^3
#
#
#
# Elastic Constant Matrix: (Units=GPa)
#
#
# Indices 1 2 3 4 5 6 
#
# 1 90.6008 6.6799 0.9273 0.0000 -13.6493 0.0000
# 2 6.6799 28.2301 11.4572 0.0000 -1.8745 0.0000
# 3 0.9273 11.4572 136.2792 0.0000 9.5034 0.0000
# 4 0.0000 0.0000 0.0000 7.0242 0.0000 -1.8693
# 5 -13.6493 -1.8745 9.5034 0.0000 37.6505 0.0000
# 6 0.0000 0.0000 0.0000 -1.8693 0.0000 35.7794
#
#
#
# Elastic Compliance Matrix: (Units=1/GPa)
#
#
# Indices 1 2 3 4 5 6 
#
# 1 0.011856 -0.002457 -0.000168 0.000000 0.004218 0.000000
# 2 -0.002457 0.037445 -0.003257 0.000000 0.001796 0.000000
# 3 -0.000168 -0.003257 0.007765 0.000000 -0.002183 0.000000
# 4 0.000000 0.000000 0.000000 0.144373 0.000000 0.007543
# 5 0.004218 0.001796 -0.002183 0.000000 0.028730 0.000000
# 6 0.000000 0.000000 0.000000 0.007543 0.000000 0.028343
#
#
# Mechanical properties :
#
#
# Convention : Reuss Voigt Hill
#
# Bulk Modulus (GPa) = 22.07379 32.58211 27.32795
# Shear Modulus (GPa) = 17.52071 31.82719 24.67395
#
# Velocity S-wave (km/s) = 2.77358 3.73821 3.29143
# Velocity P-wave (km/s) = 4.46641 5.73917 5.14232
#
# Compressibility (1/GPa) = 0.04530260
#
# Stress axis : x y z
#
# Youngs Moduli (GPa) = 84.34705 26.70553 128.78225
#
# Poissons Ratio (x) = 0.06561 0.02167
# Poissons Ratio (y) = 0.20724 0.41939
# Poissons Ratio (z) = 0.01419 0.08697
#
# Static dielectric constant tensor:
#      x y z
#    x 1.868360 0.000000 0.009800 
#    y 0.000000 1.812120 0.000000 
#    z 0.009800 0.000000 1.823510 
# 
# From -- ./inp_files/9759.got.cif
#   From: 2010.05.17/outbox.cif.g08.bks.cpg/sg9_5_cif.got.tgz:9759.got - 2010.06.03 20:04:27.
