data_PCOD9140766
_publ_section_title
;
Structure prediction by ZEFSAII (Michael W. Deem and Ramdas Pophale) SiO2 
 PCOD9140766
Probable space group: C C
;
_chemical_formula_sum "Si O2"
_cell_formula_units_Z 20
_cell_length_a 15.281419
_cell_length_b 9.474802
_cell_length_c 9.561609
_cell_angle_alpha 90.000000
_cell_angle_beta 35.612270
_cell_angle_gamma 90.000000
_cell_volume 806.138053
_symmetry_space_group_name_H-M "C C"
_symmetry_group_IT_number 9
_symmetry_cell_setting 'monoclinic'
loop_
_space_group_symop_operation_xyz
x,y,z
x,-y,1/2+z
1/2+x,1/2+y,z
1/2+x,1/2-y,1/2+z
loop_
_atom_site_type_symbol
_atom_site_label
_atom_site_fract_x
_atom_site_fract_y
_atom_site_fract_z
Si Si1 0.405570 0.370576 0.995430
Si Si2 0.473215 0.051716 0.594174
Si Si3 0.640164 0.853804 0.153309
Si Si4 0.417595 0.689438 0.965486
Si Si5 0.244057 0.191138 0.444204
O O1 0.567987 0.300540 0.767317
O O2 0.083182 0.409688 0.078685
O O3 0.313496 0.358597 0.970044
O O4 0.311127 0.279897 0.229328
O O5 0.426171 0.190416 0.570613
O O6 0.560076 0.952694 0.372176
O O7 0.911752 0.032229 0.031042
O O8 0.830836 0.541222 0.331445
O O9 0.282452 0.729062 0.038410
O O10 0.565003 0.687481 0.673824
#
# Coordination Sequence:
#
# PCOD9140766 Si02
#       5
#     4   4   4   4   4
#     4  11  28  47  76 111 149 195 252 308 369 448
#     4  11  25  50  75 108 154 194 249 312 369 441
#     4  11  26  49  74 108 155 192 246 315 371 437
#     4  12  27  46  81 108 148 202 248 303 378 440
#     4  11  26  50  72 113 152 195 247 314 365 444
#
# _framework density 24.809646000000001
#
# number of rings (size 3 to 8) (size 9 to 14) (size 15 to 20)
#    0.000    0.800    2.000    3.600    8.400    3.200 
#    0.000    0.000    0.000    0.000    0.000    0.000 
#    0.000    0.000    0.000    0.000    0.000    0.000 
#
# Total GULP energy -56127.313524 kJ/mol
# GULP energy per Si atom -5612.731352 kJ/mol
# Density = 2.475318 g / cm^3
# Si number density = 24.809646 Si / 1000 Ang^3
#
#
#
# Elastic Constant Matrix: (Units=GPa)
#
#
# Indices 1 2 3 4 5 6 
#
# 1 104.6977 29.5447 -20.9405 0.0000 17.2363 0.0000
# 2 29.5447 179.5210 21.9054 0.0000 1.2556 0.0000
# 3 -20.9405 21.9054 44.7754 0.0000 9.4052 0.0000
# 4 0.0000 0.0000 0.0000 22.1040 0.0000 3.8258
# 5 17.2363 1.2556 9.4052 0.0000 36.7333 0.0000
# 6 0.0000 0.0000 0.0000 3.8258 0.0000 38.2185
#
#
#
# Elastic Compliance Matrix: (Units=1/GPa)
#
#
# Indices 1 2 3 4 5 6 
#
# 1 0.014078 -0.003499 0.010207 0.000000 -0.009100 0.000000
# 2 -0.003499 0.006805 -0.005561 0.000000 0.002833 0.000000
# 3 0.010207 -0.005561 0.032544 0.000000 -0.012932 0.000000
# 4 0.000000 0.000000 0.000000 0.046038 0.000000 -0.004609
# 5 -0.009100 0.002833 -0.012932 0.000000 0.034707 0.000000
# 6 0.000000 0.000000 0.000000 -0.004609 0.000000 0.026627
#
#
# Mechanical properties :
#
#
# Convention : Reuss Voigt Hill
#
# Bulk Modulus (GPa) = 17.94581 43.33482 30.64031
# Shear Modulus (GPa) = 28.23607 39.31012 33.77309
#
# Velocity S-wave (km/s) = 3.37725 3.98486 3.69357
# Velocity P-wave (km/s) = 4.73886 6.21908 5.52873
#
# Compressibility (1/GPa) = 0.05572332
#
# Stress axis : x y z
#
# Youngs Moduli (GPa) = 71.03144 146.95335 30.72741
#
# Poissons Ratio (x) = 0.51416 -0.31364
# Poissons Ratio (y) = 0.24852 0.17086
# Poissons Ratio (z) = -0.72504 0.81714
#
# Static dielectric constant tensor:
#      x y z
#    x 1.898420 0.000000 -0.006080 
#    y 0.000000 1.942420 0.000000 
#    z -0.006080 0.000000 1.992880 
# 
# From -- ./inp_files/10275.got.cif
#   From: 2010.05.17/outbox.cif.g08.bks.cpg/sg9_6_cif.got.tgz:10275.got - 2010.06.03 20:04:27.
