data_PCOD9140868
_publ_section_title
;
Structure prediction by ZEFSAII (Michael W. Deem and Ramdas Pophale) SiO2 
 PCOD9140868
Probable space group: C C
;
_chemical_formula_sum "Si O2"
_cell_formula_units_Z 28
_cell_length_a 16.043319
_cell_length_b 11.220714
_cell_length_c 8.251060
_cell_angle_alpha 90.000000
_cell_angle_beta 57.920394
_cell_angle_gamma 90.000000
_cell_volume 1258.540829
_symmetry_space_group_name_H-M "C C"
_symmetry_group_IT_number 9
_symmetry_cell_setting 'monoclinic'
loop_
_space_group_symop_operation_xyz
x,y,z
x,-y,1/2+z
1/2+x,1/2+y,z
1/2+x,1/2-y,1/2+z
loop_
_atom_site_type_symbol
_atom_site_label
_atom_site_fract_x
_atom_site_fract_y
_atom_site_fract_z
Si Si1 0.832090 0.978713 0.539510
Si Si2 0.468358 0.128328 0.983329
Si Si3 0.854693 0.446120 0.292466
Si Si4 0.177243 0.864994 0.991484
Si Si5 0.959747 0.892463 0.130986
Si Si6 0.234820 0.751853 0.266503
Si Si7 0.181391 0.306258 0.172428
O O1 0.934780 0.019163 0.511537
O O2 0.768061 0.096882 0.582768
O O3 0.866503 0.913382 0.342329
O O4 0.772748 0.881978 0.703180
O O5 0.388465 0.112867 0.924324
O O6 0.578348 0.125613 0.801979
O O7 0.458011 0.256351 0.076484
O O8 0.444374 0.024870 0.134393
O O9 0.761421 0.534168 0.406921
O O10 0.825545 0.342822 0.197415
O O11 0.192200 0.782445 0.815438
O O12 0.181920 0.792231 0.155809
O O13 0.067748 0.917074 0.087561
O O14 0.180328 0.757303 0.497154
#
# Coordination Sequence:
#
# PCOD9140868 Si02
#       7
#     4   4   4   4   4   4   4
#     4  12  24  48  73 107 146 193 243 305 359 437
#     4  11  27  46  75 108 146 188 246 305 361 432
#     4  12  24  48  73 107 146 193 243 305 359 437
#     4  11  27  50  74 109 149 190 246 304 361 437
#     4  11  27  46  75 108 146 188 246 305 361 432
#     4  12  26  44  78 104 148 198 240 296 374 424
#     4  11  27  50  74 109 149 190 246 304 361 437
#
# _framework density 22.247989
#
# number of rings (size 3 to 8) (size 9 to 14) (size 15 to 20)
#    0.000    0.571    2.857    4.286    4.000    3.429 
#    0.000    0.000    0.000    0.000    0.000    0.000 
#    0.000    0.000    0.000    0.000    0.000    0.000 
#
# Total GULP energy -78332.378840 kJ/mol
# GULP energy per Si atom -5595.169917 kJ/mol
# Density = 2.219735 g / cm^3
# Si number density = 22.247989 Si / 1000 Ang^3
#
#
#
# Elastic Constant Matrix: (Units=GPa)
#
#
# Indices 1 2 3 4 5 6 
#
# 1 100.1785 19.7070 40.9121 0.0000 -8.2622 0.0000
# 2 19.7070 29.8846 12.2551 0.0000 3.1682 0.0000
# 3 40.9121 12.2551 110.2478 0.0000 7.4768 0.0000
# 4 0.0000 0.0000 0.0000 22.1754 0.0000 12.5938
# 5 -8.2622 3.1682 7.4768 0.0000 36.5827 0.0000
# 6 0.0000 0.0000 0.0000 12.5938 0.0000 27.7090
#
#
#
# Elastic Compliance Matrix: (Units=1/GPa)
#
#
# Indices 1 2 3 4 5 6 
#
# 1 0.013748 -0.007692 -0.004566 0.000000 0.004704 0.000000
# 2 -0.007692 0.039551 -0.001209 0.000000 -0.004916 0.000000
# 3 -0.004566 -0.001209 0.011116 0.000000 -0.003198 0.000000
# 4 0.000000 0.000000 0.000000 0.060785 0.000000 -0.027627
# 5 0.004704 -0.004916 -0.003198 0.000000 0.029477 0.000000
# 6 0.000000 0.000000 0.000000 -0.027627 0.000000 0.048646
#
#
# Mechanical properties :
#
#
# Convention : Reuss Voigt Hill
#
# Bulk Modulus (GPa) = 26.67942 42.89549 34.78745
# Shear Modulus (GPa) = 20.59729 28.45587 24.52658
#
# Velocity S-wave (km/s) = 3.04600 3.58023 3.32387
# Velocity P-wave (km/s) = 4.93849 6.03434 5.51371
#
# Compressibility (1/GPa) = 0.03748208
#
# Stress axis : x y z
#
# Youngs Moduli (GPa) = 72.73784 25.28361 89.96002
#
# Poissons Ratio (x) = 0.19449 0.41073
# Poissons Ratio (y) = 0.55952 0.10873
# Poissons Ratio (z) = 0.33210 0.03056
#
# Static dielectric constant tensor:
#      x y z
#    x 1.829860 0.000000 0.068160 
#    y 0.000000 1.796030 0.000000 
#    z 0.068160 0.000000 1.915160 
# 
# From -- ./inp_files/9209.got.cif
#   From: 2010.05.17/outbox.cif.g08.bks.cpg/sg9_5_cif.got.tgz:9209.got - 2010.06.03 20:04:27.
