data_PCOD9140240
_publ_section_title
;
Structure prediction by ZEFSAII (Michael W. Deem and Ramdas Pophale) SiO2 
 PCOD9140240
Probable space group: C C
;
_chemical_formula_sum "Si O2"
_cell_formula_units_Z 32
_cell_length_a 10.571627
_cell_length_b 14.407801
_cell_length_c 16.793912
_cell_angle_alpha 90.000000
_cell_angle_beta 34.192288
_cell_angle_gamma 90.000000
_cell_volume 1437.494265
_symmetry_space_group_name_H-M "C C"
_symmetry_group_IT_number 9
_symmetry_cell_setting 'monoclinic'
loop_
_space_group_symop_operation_xyz
x,y,z
x,-y,1/2+z
1/2+x,1/2+y,z
1/2+x,1/2-y,1/2+z
loop_
_atom_site_type_symbol
_atom_site_label
_atom_site_fract_x
_atom_site_fract_y
_atom_site_fract_z
Si Si1 0.411100 0.468752 0.035680
Si Si2 0.800582 0.831686 0.583767
Si Si3 0.565014 0.075240 0.578806
Si Si4 0.421927 0.319007 0.802429
Si Si5 0.147931 0.337898 0.289524
Si Si6 0.706139 0.287552 0.277068
Si Si7 0.828115 0.657535 0.260930
Si Si8 0.363977 0.923419 0.573711
O O1 0.427387 0.576886 0.051257
O O2 0.318481 0.406810 0.156683
O O3 0.221502 0.471825 0.063966
O O4 0.629324 0.414516 0.887106
O O5 0.782057 0.743307 0.650721
O O6 0.540973 0.855397 0.705233
O O7 0.944401 0.803025 0.431244
O O8 0.338779 0.119101 0.731064
O O9 0.728506 0.156493 0.465020
O O10 0.478632 0.016629 0.547787
O O11 0.545698 0.228467 0.773828
O O12 0.303398 0.292362 0.782946
O O13 0.594982 0.405400 0.706001
O O14 0.247987 0.263657 0.300328
O O15 0.969341 0.393953 0.435289
O O16 0.909535 0.640412 0.127786
#
# Coordination Sequence:
#
# PCOD9140240 Si02
#       8
#     4   4   4   4   4   4   4   4
#     4  12  25  46  73 105 144 190 238 299 357 440
#     4  12  30  46  71 104 148 192 240 302 360 424
#     4  12  23  44  71 103 139 182 237 293 367 420
#     4  11  23  46  72 100 141 192 240 282 366 435
#     4  11  24  41  75 106 135 191 241 298 346 436
#     4  12  27  49  70 104 143 195 236 297 360 427
#     4  11  24  47  69 103 144 191 234 286 370 425
#     4  11  24  41  73 105 138 181 240 299 350 429
#
# _framework density 22.260959
#
# number of rings (size 3 to 8) (size 9 to 14) (size 15 to 20)
#    0.000    0.500    6.250    3.000    5.250    0.000 
#    0.000    0.000    0.000    0.000    0.000    0.000 
#    0.000    0.000    0.000    0.000    0.000    0.000 
#
# Total GULP energy -89242.233090 kJ/mol
# GULP energy per Si atom -5577.639568 kJ/mol
# Density = 2.221029 g / cm^3
# Si number density = 22.260959 Si / 1000 Ang^3
#
#
#
# Elastic Constant Matrix: (Units=GPa)
#
#
# Indices 1 2 3 4 5 6 
#
# 1 25.3720 2.0398 17.9127 0.0002 -21.3393 -0.0009
# 2 2.0398 75.8985 30.4827 -0.0021 -11.0215 0.0009
# 3 17.9127 30.4827 121.8687 -0.0061 -4.8129 0.0003
# 4 0.0002 -0.0021 -0.0061 25.4105 0.0019 8.9175
# 5 -21.3393 -11.0215 -4.8129 0.0019 31.4525 0.0006
# 6 -0.0009 0.0009 0.0003 8.9175 0.0006 21.3148
#
#
#
# Elastic Compliance Matrix: (Units=1/GPa)
#
#
# Indices 1 2 3 4 5 6 
#
# 1 0.126541 0.017314 -0.019417 -0.000013 0.088949 0.000008
# 2 0.017314 0.017709 -0.006303 -0.000002 0.016988 0.000000
# 3 -0.019417 -0.006303 0.012102 0.000004 -0.013531 -0.000002
# 4 -0.000013 -0.000002 0.000004 0.046126 -0.000011 -0.019298
# 5 0.088949 0.016988 -0.013531 -0.000011 0.096024 0.000005
# 6 0.000008 0.000000 -0.000002 -0.019298 0.000005 0.054989
#
#
# Mechanical properties :
#
#
# Convention : Reuss Voigt Hill
#
# Bulk Modulus (GPa) = 7.16649 36.00107 21.58378
# Shear Modulus (GPa) = 11.99567 27.14918 19.57242
#
# Velocity S-wave (km/s) = 2.32387 3.49605 2.96839
# Velocity P-wave (km/s) = 3.22905 5.70122 4.63307
#
# Compressibility (1/GPa) = 0.13953825
#
# Stress axis : x y z
#
# Youngs Moduli (GPa) = 7.90258 56.46958 82.63180
#
# Poissons Ratio (x) = -0.97773 1.60449
# Poissons Ratio (y) = -0.13683 0.52086
# Poissons Ratio (z) = 0.15345 0.35595
#
# Static dielectric constant tensor:
#      x y z
#    x 1.872030 0.000000 -0.032460 
#    y 0.000000 1.892810 0.000000 
#    z -0.032460 0.000000 1.791620 
# 
# From -- ./inp_files/7391.got.cif
#   From: 2010.05.17/outbox.cif.g08.bks.cpg/sg9_4_cif.got.tgz:7391.got - 2010.06.03 20:04:27.
