data_PCOD9140542
_publ_section_title
;
Structure prediction by ZEFSAII (Michael W. Deem and Ramdas Pophale) SiO2 
 PCOD9140542
Probable space group: C C
;
_chemical_formula_sum "Si O2"
_cell_formula_units_Z 24
_cell_length_a 14.933787
_cell_length_b 8.685324
_cell_length_c 24.529066
_cell_angle_alpha 90.000000
_cell_angle_beta 19.146910
_cell_angle_gamma 90.000000
_cell_volume 1043.516962
_symmetry_space_group_name_H-M "C C"
_symmetry_group_IT_number 9
_symmetry_cell_setting 'monoclinic'
loop_
_space_group_symop_operation_xyz
x,y,z
x,-y,1/2+z
1/2+x,1/2+y,z
1/2+x,1/2-y,1/2+z
loop_
_atom_site_type_symbol
_atom_site_label
_atom_site_fract_x
_atom_site_fract_y
_atom_site_fract_z
Si Si1 0.167360 0.714028 0.702760
Si Si2 0.059879 0.324244 0.062604
Si Si3 0.049578 0.493586 0.458476
Si Si4 0.513101 0.524666 0.570508
Si Si5 0.968169 0.511526 0.223912
Si Si6 0.156037 0.139973 0.597220
O O1 0.250932 0.627975 0.710173
O O2 0.121324 0.592694 0.680719
O O3 0.398838 0.831969 0.552460
O O4 0.887363 0.804297 0.874597
O O5 0.990197 0.408676 0.046807
O O6 0.963434 0.419858 0.170007
O O7 0.954775 0.149376 0.121128
O O8 0.897082 0.579593 0.496801
O O9 0.373022 0.456663 0.269456
O O10 0.671331 0.523609 0.422158
O O11 0.703364 0.606041 0.506077
O O12 0.095300 0.680400 0.142633
#
# Coordination Sequence:
#
# PCOD9140542 Si02
#       6
#     4   4   4   4   4   4
#     4  11  24  47  76 112 149 194 260 308 380 452
#     4  11  26  48  76 112 153 199 258 313 376 457
#     4  12  25  49  77 112 147 205 252 312 386 449
#     4  11  26  47  76 111 151 199 249 315 381 449
#     4  11  26  47  75 112 148 203 252 314 378 455
#     4  12  27  48  78 109 156 198 257 314 381 458
#
# _framework density 22.999148000000002
#
# number of rings (size 3 to 8) (size 9 to 14) (size 15 to 20)
#    0.000    0.667    3.333    3.000    9.333    1.333 
#    3.000    0.000    0.000    0.000    0.000    0.000 
#    0.000    0.000    0.000    0.000    0.000    0.000 
#
# Total GULP energy -67213.157279 kJ/mol
# GULP energy per Si atom -5601.096440 kJ/mol
# Density = 2.294680 g / cm^3
# Si number density = 22.999148 Si / 1000 Ang^3
#
#
#
# Elastic Constant Matrix: (Units=GPa)
#
#
# Indices 1 2 3 4 5 6 
#
# 1 137.2200 31.5311 48.9978 0.1111 9.4196 -0.1074
# 2 31.5311 127.1498 34.0057 0.0618 13.9512 -0.0609
# 3 48.9978 34.0057 93.5872 0.2422 7.7966 -0.3438
# 4 0.1111 0.0618 0.2422 30.1097 -0.1847 1.7446
# 5 9.4196 13.9512 7.7966 -0.1847 36.9946 0.1718
# 6 -0.1074 -0.0609 -0.3438 1.7446 0.1718 36.7383
#
#
#
# Elastic Compliance Matrix: (Units=1/GPa)
#
#
# Indices 1 2 3 4 5 6 
#
# 1 0.009135 -0.000992 -0.004336 -0.000003 -0.001038 -0.000011
# 2 -0.000992 0.009085 -0.002562 -0.000011 -0.002634 0.000001
# 3 -0.004336 -0.002562 0.013960 -0.000104 -0.000873 0.000123
# 4 -0.000003 -0.000011 -0.000104 0.033306 0.000200 -0.001584
# 5 -0.001038 -0.002634 -0.000873 0.000200 0.028474 -0.000158
# 6 -0.000011 0.000001 0.000123 -0.001584 -0.000158 0.027297
#
#
# Mechanical properties :
#
#
# Convention : Reuss Voigt Hill
#
# Bulk Modulus (GPa) = 60.97701 65.22512 63.10107
# Shear Modulus (GPa) = 35.08709 36.99670 36.04189
#
# Velocity S-wave (km/s) = 3.91011 4.01510 3.96295
# Velocity P-wave (km/s) = 6.85241 7.06513 6.95958
#
# Compressibility (1/GPa) = 0.01639962
#
# Stress axis : x y z
#
# Youngs Moduli (GPa) = 109.46991 110.07203 71.63462
#
# Poissons Ratio (x) = 0.10917 0.31059
# Poissons Ratio (y) = 0.10858 0.18356
# Poissons Ratio (z) = 0.47464 0.28205
#
# Static dielectric constant tensor:
#      x y z
#    x 1.843910 0.000000 0.004750 
#    y 0.000000 1.823770 0.000090 
#    z 0.004750 0.000090 1.914210 
# 
# From -- ./inp_files/10412.got.cif
#   From: 2010.05.17/outbox.cif.g08.bks.cpg/sg9_6_cif.got.tgz:10412.got - 2010.06.03 20:04:27.
