data_PCOD9140585
_publ_section_title
;
Structure prediction by ZEFSAII (Michael W. Deem and Ramdas Pophale) SiO2 
 PCOD9140585
Probable space group: C C
;
_chemical_formula_sum "Si O2"
_cell_formula_units_Z 32
_cell_length_a 13.999027
_cell_length_b 8.365911
_cell_length_c 15.753485
_cell_angle_alpha 90.000000
_cell_angle_beta 136.570559
_cell_angle_gamma 90.000000
_cell_volume 1268.339891
_symmetry_space_group_name_H-M "C C"
_symmetry_group_IT_number 9
_symmetry_cell_setting 'monoclinic'
loop_
_space_group_symop_operation_xyz
x,y,z
x,-y,1/2+z
1/2+x,1/2+y,z
1/2+x,1/2-y,1/2+z
loop_
_atom_site_type_symbol
_atom_site_label
_atom_site_fract_x
_atom_site_fract_y
_atom_site_fract_z
Si Si1 0.674470 0.305069 0.534960
Si Si2 0.867464 0.085276 0.559028
Si Si3 0.077980 0.640907 0.640814
Si Si4 0.583192 0.493334 0.336623
Si Si5 0.592167 0.786222 0.606108
Si Si6 0.614355 0.150470 0.919270
Si Si7 0.794266 0.359964 0.880755
Si Si8 0.826132 0.447939 0.240487
O O1 0.799354 0.236996 0.560727
O O2 0.640367 0.185401 0.588415
O O3 0.560292 0.359568 0.392574
O O4 0.719431 0.466324 0.609819
O O5 0.972596 0.155896 0.555028
O O6 0.736646 0.964676 0.465199
O O7 0.961289 0.001662 0.691089
O O8 0.077985 0.449880 0.650321
O O9 0.175602 0.735653 0.770605
O O10 0.917342 0.695929 0.522862
O O11 0.621240 0.664648 0.399665
O O12 0.722796 0.478727 0.371301
O O13 0.593464 0.839876 0.508073
O O14 0.743445 0.707430 0.718575
O O15 0.468869 0.091250 0.787391
O O16 0.859321 0.426309 0.835835
#
# Coordination Sequence:
#
# PCOD9140585 Si02
#       8
#     4   4   4   4   4   4   4   4
#     4  11  26  45  76 107 156 197 263 323 402 479
#     4  12  28  48  77 117 152 205 268 329 407 495
#     4  11  26  48  79 116 156 215 266 339 410 492
#     4  12  28  47  73 109 156 201 265 329 400 490
#     4  12  24  51  77 113 159 204 274 331 415 487
#     4  12  27  48  77 110 159 206 265 333 413 479
#     4  11  25  48  74 108 158 201 268 325 406 485
#     4  11  24  49  73 108 150 207 255 337 403 489
#
# _framework density 25.22983
#
# number of rings (size 3 to 8) (size 9 to 14) (size 15 to 20)
#    0.000    0.500    5.000    1.500    7.000    1.000 
#    2.250    0.000    0.000    0.000    0.000    0.000 
#    0.000    0.000    0.000    0.000    0.000    0.000 
#
# Total GULP energy -89385.432141 kJ/mol
# GULP energy per Si atom -5586.589509 kJ/mol
# Density = 2.517241 g / cm^3
# Si number density = 25.229830 Si / 1000 Ang^3
#
#
#
# Elastic Constant Matrix: (Units=GPa)
#
#
# Indices 1 2 3 4 5 6 
#
# 1 79.2629 50.0487 37.9199 0.0000 17.0808 0.0000
# 2 50.0487 110.2098 48.9621 0.0000 4.2988 0.0000
# 3 37.9199 48.9621 129.1656 0.0000 16.0178 0.0000
# 4 0.0000 0.0000 0.0000 43.9169 0.0000 10.2596
# 5 17.0808 4.2988 16.0178 0.0000 44.7469 0.0000
# 6 0.0000 0.0000 0.0000 10.2596 0.0000 31.5504
#
#
#
# Elastic Compliance Matrix: (Units=1/GPa)
#
#
# Indices 1 2 3 4 5 6 
#
# 1 0.019902 -0.007864 -0.002107 0.000000 -0.006087 0.000000
# 2 -0.007864 0.014028 -0.003363 0.000000 0.002858 0.000000
# 3 -0.002107 -0.003363 0.009937 0.000000 -0.002430 0.000000
# 4 0.000000 0.000000 0.000000 0.024642 0.000000 -0.008013
# 5 -0.006087 0.002858 -0.002430 0.000000 0.025267 0.000000
# 6 0.000000 0.000000 0.000000 -0.008013 0.000000 0.034301
#
#
# Mechanical properties :
#
#
# Convention : Reuss Voigt Hill
#
# Bulk Modulus (GPa) = 58.14751 65.83331 61.99041
# Shear Modulus (GPa) = 31.15721 36.15670 33.65696
#
# Velocity S-wave (km/s) = 3.51798 3.78973 3.65638
# Velocity P-wave (km/s) = 6.29275 6.73049 6.51530
#
# Compressibility (1/GPa) = 0.01719764
#
# Stress axis : x y z
#
# Youngs Moduli (GPa) = 50.24702 71.28809 100.63850
#
# Poissons Ratio (x) = 0.56064 0.21201
# Poissons Ratio (y) = 0.39517 0.33845
# Poissons Ratio (z) = 0.10585 0.23974
#
# Static dielectric constant tensor:
#      x y z
#    x 2.125090 0.000000 -0.015360 
#    y 0.000000 1.980280 0.000000 
#    z -0.015360 0.000000 2.015470 
# 
# From -- ./inp_files/30636.got.cif
#   From: 2010.05.17/outbox.cif.g08.bks.cpg/sg9_16_cif.got.tgz:30636.got - 2010.06.03 20:04:27.
