data_PCOD9140097
_publ_section_title
;
Structure prediction by ZEFSAII (Michael W. Deem and Ramdas Pophale) SiO2 
 PCOD9140097
Probable space group: C C
;
_chemical_formula_sum "Si O2"
_cell_formula_units_Z 32
_cell_length_a 13.600981
_cell_length_b 16.435428
_cell_length_c 8.744350
_cell_angle_alpha 90.000000
_cell_angle_beta 143.654758
_cell_angle_gamma 90.000000
_cell_volume 1158.448185
_symmetry_space_group_name_H-M "C C"
_symmetry_group_IT_number 9
_symmetry_cell_setting 'monoclinic'
loop_
_space_group_symop_operation_xyz
x,y,z
x,-y,1/2+z
1/2+x,1/2+y,z
1/2+x,1/2-y,1/2+z
loop_
_atom_site_type_symbol
_atom_site_label
_atom_site_fract_x
_atom_site_fract_y
_atom_site_fract_z
Si Si1 0.533210 0.566626 0.363590
Si Si2 0.972953 0.408554 0.864820
Si Si3 0.532140 0.270465 0.551174
Si Si4 0.346911 0.651762 0.564531
Si Si5 0.323571 0.517609 0.864998
Si Si6 0.375191 0.190699 0.634068
Si Si7 0.076675 0.218413 0.616557
Si Si8 0.823075 0.526970 0.492060
O O1 0.456048 0.508969 0.398647
O O2 0.613775 0.644494 0.544957
O O3 0.656318 0.531420 0.388268
O O4 0.377836 0.584827 0.059692
O O5 0.148268 0.453939 0.084317
O O6 0.859796 0.445230 0.863151
O O7 0.010271 0.312960 0.926094
O O8 0.886818 0.436335 0.600572
O O9 0.402065 0.331745 0.308504
O O10 0.496775 0.236499 0.673687
O O11 0.710353 0.308884 0.817483
O O12 0.302182 0.563987 0.441549
O O13 0.208267 0.714773 0.333552
O O14 0.519308 0.673500 0.697232
O O15 0.426805 0.096991 0.710672
O O16 0.414069 0.237778 0.838302
#
# Coordination Sequence:
#
# PCOD9140097 Si02
#       8
#     4   4   4   4   4   4   4   4
#     4  11  24  42  66  96 133 177 227 279 335 400
#     4  11  25  43  67  98 134 178 226 277 337 403
#     4  11  25  43  66  99 135 173 220 277 339 398
#     4  11  25  43  66  99 135 173 220 277 339 398
#     4  11  25  43  67  98 134 178 226 277 337 403
#     4  11  23  42  68  97 132 176 225 275 332 401
#     4  11  23  42  68  97 132 176 225 275 332 401
#     4  11  24  42  66  96 133 177 227 279 335 400
#
# _framework density 27.623159999999999
#
# number of rings (size 3 to 8) (size 9 to 14) (size 15 to 20)
#    0.000    1.000    0.000    6.000    0.000   16.000 
#    0.000    0.000    0.000    0.000    0.000    0.000 
#    0.000    0.000    0.000    0.000    0.000    0.000 
#
# Total GULP energy -89359.323316 kJ/mol
# GULP energy per Si atom -5584.957707 kJ/mol
# Density = 2.756029 g / cm^3
# Si number density = 27.623160 Si / 1000 Ang^3
#
#
#
# Elastic Constant Matrix: (Units=GPa)
#
#
# Indices 1 2 3 4 5 6 
#
# 1 115.6160 27.2123 27.0020 0.0000 -4.9396 0.0000
# 2 27.2123 121.5807 54.1079 0.0000 -2.9091 0.0000
# 3 27.0020 54.1079 119.1598 0.0000 -10.5021 0.0000
# 4 0.0000 0.0000 0.0000 36.6201 0.0000 -9.9487
# 5 -4.9396 -2.9091 -10.5021 0.0000 36.2859 0.0000
# 6 0.0000 0.0000 0.0000 -9.9487 0.0000 39.4525
#
#
#
# Elastic Compliance Matrix: (Units=1/GPa)
#
#
# Indices 1 2 3 4 5 6 
#
# 1 0.009349 -0.001455 -0.001391 0.000000 0.000753 0.000000
# 2 -0.001455 0.010545 -0.004517 0.000000 -0.000660 0.000000
# 3 -0.001391 -0.004517 0.010990 0.000000 0.002629 0.000000
# 4 0.000000 0.000000 0.000000 0.029316 0.000000 0.007392
# 5 0.000753 -0.000660 0.002629 0.000000 0.028370 0.000000
# 6 0.000000 0.000000 0.000000 0.007392 0.000000 0.027211
#
#
# Mechanical properties :
#
#
# Convention : Reuss Voigt Hill
#
# Bulk Modulus (GPa) = 61.89072 63.66676 62.77874
# Shear Modulus (GPa) = 36.79376 39.00733 37.90055
#
# Velocity S-wave (km/s) = 3.65360 3.76190 3.70815
# Velocity P-wave (km/s) = 6.34448 6.47824 6.41171
#
# Compressibility (1/GPa) = 0.01615751
#
# Stress axis : x y z
#
# Youngs Moduli (GPa) = 106.96360 94.83167 90.99176
#
# Poissons Ratio (x) = 0.13801 0.12660
# Poissons Ratio (y) = 0.15566 0.41098
# Poissons Ratio (z) = 0.14882 0.42832
#
# Static dielectric constant tensor:
#      x y z
#    x 2.184990 0.000000 -0.002030 
#    y 0.000000 2.175230 0.000000 
#    z -0.002030 0.000000 2.137410 
# 
# From -- ./inp_files/9975.got.cif
#   From: 2010.05.17/outbox.cif.g08.bks.cpg/sg9_5_cif.got.tgz:9975.got - 2010.06.03 20:04:27.
