data_PCOD9140207
_publ_section_title
;
Structure prediction by ZEFSAII (Michael W. Deem and Ramdas Pophale) SiO2 
 PCOD9140207
Probable space group: C C
;
_chemical_formula_sum "Si O2"
_cell_formula_units_Z 20
_cell_length_a 7.438628
_cell_length_b 7.619501
_cell_length_c 14.901665
_cell_angle_alpha 90.000000
_cell_angle_beta 126.356271
_cell_angle_gamma 90.000000
_cell_volume 680.200467
_symmetry_space_group_name_H-M "C C"
_symmetry_group_IT_number 9
_symmetry_cell_setting 'monoclinic'
loop_
_space_group_symop_operation_xyz
x,y,z
x,-y,1/2+z
1/2+x,1/2+y,z
1/2+x,1/2-y,1/2+z
loop_
_atom_site_type_symbol
_atom_site_label
_atom_site_fract_x
_atom_site_fract_y
_atom_site_fract_z
Si Si1 0.409030 0.954581 0.235860
Si Si2 0.231718 0.759008 0.400246
Si Si3 0.661701 0.149963 0.576777
Si Si4 0.676819 0.400040 0.970688
Si Si5 0.545011 0.391348 0.713220
O O1 0.544320 0.771878 0.278803
O O2 0.577729 0.113547 0.305797
O O3 0.294765 0.943459 0.102839
O O4 0.220447 0.949805 0.258217
O O5 0.276273 0.695524 0.517290
O O6 0.483965 0.735284 0.437933
O O7 0.087734 0.931611 0.388643
O O8 0.401213 0.128938 0.479710
O O9 0.800230 0.976935 0.644760
O O10 0.637347 0.293044 0.649281
#
# Coordination Sequence:
#
# PCOD9140207 Si02
#       5
#     4   4   4   4   4
#     4  11  24  45  73 108 140 192 241 294 362 432
#     4  12  23  47  73 102 144 189 245 288 369 425
#     4  11  23  45  72  99 144 193 230 301 359 417
#     4  11  24  45  70 103 149 184 239 304 354 426
#     4  11  24  44  74 100 149 188 235 295 364 414
#
# _framework density 29.403099999999998
#
# number of rings (size 3 to 8) (size 9 to 14) (size 15 to 20)
#    0.000    0.800    4.000    3.600    0.000    0.000 
#   21.600    0.000    0.000    0.000    0.000    0.000 
#    0.000    0.000    0.000    0.000    0.000    0.000 
#
# Total GULP energy -55861.118792 kJ/mol
# GULP energy per Si atom -5586.111879 kJ/mol
# Density = 2.933618 g / cm^3
# Si number density = 29.403100 Si / 1000 Ang^3
#
#
#
# Elastic Constant Matrix: (Units=GPa)
#
#
# Indices 1 2 3 4 5 6 
#
# 1 202.4861 36.7189 51.3036 0.0000 9.8419 0.0000
# 2 36.7189 131.1305 37.1632 0.0000 55.1818 0.0000
# 3 51.3036 37.1632 141.5472 0.0000 29.0549 0.0000
# 4 0.0000 0.0000 0.0000 56.8133 0.0000 24.6074
# 5 9.8419 55.1818 29.0549 0.0000 65.5904 0.0000
# 6 0.0000 0.0000 0.0000 24.6074 0.0000 40.1767
#
#
#
# Elastic Compliance Matrix: (Units=1/GPa)
#
#
# Indices 1 2 3 4 5 6 
#
# 1 0.005647 -0.001610 -0.001901 0.000000 0.001350 0.000000
# 2 -0.001610 0.012443 -0.000642 0.000000 -0.009942 0.000000
# 3 -0.001901 -0.000642 0.008528 0.000000 -0.002952 0.000000
# 4 0.000000 0.000000 0.000000 0.023957 0.000000 -0.014673
# 5 0.001350 -0.009942 -0.002952 0.000000 0.024716 0.000000
# 6 0.000000 0.000000 0.000000 -0.014673 0.000000 0.033877
#
#
# Mechanical properties :
#
#
# Convention : Reuss Voigt Hill
#
# Bulk Modulus (GPa) = 54.61333 80.61500 67.61417
# Shear Modulus (GPa) = 40.46030 55.84796 48.15413
#
# Velocity S-wave (km/s) = 3.71355 4.36293 4.05127
# Velocity P-wave (km/s) = 6.08289 7.27027 6.70293
#
# Compressibility (1/GPa) = 0.01831055
#
# Stress axis : x y z
#
# Youngs Moduli (GPa) = 177.09607 80.36819 117.25548
#
# Poissons Ratio (x) = 0.12942 0.22288
# Poissons Ratio (y) = 0.28519 0.07533
# Poissons Ratio (z) = 0.33663 0.05163
#
# Static dielectric constant tensor:
#      x y z
#    x 2.330120 0.000000 -0.059790 
#    y 0.000000 2.826690 0.000000 
#    z -0.059790 0.000000 2.548880 
# 
# From -- ./inp_files/28888.got.cif
#   From: 2010.05.17/outbox.cif.g08.bks.cpg/sg9_15_cif.got.tgz:28888.got - 2010.06.03 20:04:27.
