data_PCOD9140859
_publ_section_title
;
Structure prediction by ZEFSAII (Michael W. Deem and Ramdas Pophale) SiO2 
 PCOD9140859
Probable space group: C C
;
_chemical_formula_sum "Si O2"
_cell_formula_units_Z 24
_cell_length_a 20.657031
_cell_length_b 9.433862
_cell_length_c 13.097513
_cell_angle_alpha 90.000000
_cell_angle_beta 159.093041
_cell_angle_gamma 90.000000
_cell_volume 910.822478
_symmetry_space_group_name_H-M "C C"
_symmetry_group_IT_number 9
_symmetry_cell_setting 'monoclinic'
loop_
_space_group_symop_operation_xyz
x,y,z
x,-y,1/2+z
1/2+x,1/2+y,z
1/2+x,1/2-y,1/2+z
loop_
_atom_site_type_symbol
_atom_site_label
_atom_site_fract_x
_atom_site_fract_y
_atom_site_fract_z
Si Si1 0.535890 0.041773 0.970050
Si Si2 0.135484 0.980984 0.373011
Si Si3 0.681637 0.949997 0.898453
Si Si4 0.969197 0.169650 0.270920
Si Si5 0.687148 0.766625 0.080556
Si Si6 0.765142 0.502928 0.332779
O O1 0.495810 0.166634 0.831302
O O2 0.337622 0.998627 0.716890
O O3 0.615204 0.902130 0.035956
O O4 0.653099 0.095356 0.238611
O O5 0.066602 0.840617 0.330717
O O6 0.178438 0.982396 0.317395
O O7 0.006350 0.110184 0.212768
O O8 0.789547 0.845964 0.135211
O O9 0.475700 0.959019 0.636063
O O10 0.785051 0.100509 0.043254
O O11 0.132749 0.096418 0.572817
O O12 0.752734 0.660807 0.266633
#
# Coordination Sequence:
#
# PCOD9140859 Si02
#       6
#     4   4   4   4   4   4
#     4  12  27  50  82 118 168 215 280 342 417 490
#     4  11  26  53  78 118 170 211 280 342 412 489
#     4  12  27  51  86 118 171 211 277 344 411 493
#     4  11  29  49  80 120 160 225 273 337 427 488
#     4  11  27  47  86 118 159 224 273 330 420 482
#     4  11  26  54  82 118 170 212 283 343 411 496
#
# _framework density 26.349812
#
# number of rings (size 3 to 8) (size 9 to 14) (size 15 to 20)
#    0.000    0.667    5.000    1.000    9.333    4.000 
#    0.000    0.000    0.000    0.000    0.000    0.000 
#    0.000    0.000    0.000    0.000    0.000    0.000 
#
# Total GULP energy -67059.103674 kJ/mol
# GULP energy per Si atom -5588.258640 kJ/mol
# Density = 2.628984 g / cm^3
# Si number density = 26.349812 Si / 1000 Ang^3
#
#
#
# Elastic Constant Matrix: (Units=GPa)
#
#
# Indices 1 2 3 4 5 6 
#
# 1 156.9722 33.8434 22.2714 0.0000 -9.6516 0.0000
# 2 33.8434 151.0637 3.1165 0.0000 2.9219 0.0000
# 3 22.2714 3.1165 89.8837 0.0000 11.3728 0.0000
# 4 0.0000 0.0000 0.0000 41.5361 0.0000 0.9388
# 5 -9.6516 2.9219 11.3728 0.0000 32.3132 0.0000
# 6 0.0000 0.0000 0.0000 0.9388 0.0000 39.8320
#
#
#
# Elastic Compliance Matrix: (Units=1/GPa)
#
#
# Indices 1 2 3 4 5 6 
#
# 1 0.007209 -0.001630 -0.002115 0.000000 0.003045 0.000000
# 2 -0.001630 0.007002 0.000317 0.000000 -0.001232 0.000000
# 3 -0.002115 0.000317 0.012268 0.000000 -0.004978 0.000000
# 4 0.000000 0.000000 0.000000 0.024088 0.000000 -0.000568
# 5 0.003045 -0.001232 -0.004978 0.000000 0.033720 0.000000
# 6 0.000000 0.000000 0.000000 -0.000568 0.000000 0.025119
#
#
# Mechanical properties :
#
#
# Convention : Reuss Voigt Hill
#
# Bulk Modulus (GPa) = 50.96011 57.37578 54.16795
# Shear Modulus (GPa) = 40.71476 45.31547 43.01511
#
# Velocity S-wave (km/s) = 3.93512 4.15150 4.04476
# Velocity P-wave (km/s) = 6.32683 6.69342 6.51270
#
# Compressibility (1/GPa) = 0.01962319
#
# Stress axis : x y z
#
# Youngs Moduli (GPa) = 138.70761 142.81067 81.50962
#
# Poissons Ratio (x) = 0.23284 0.17240
# Poissons Ratio (y) = 0.22615 -0.02584
# Poissons Ratio (z) = 0.29338 -0.04528
#
# Static dielectric constant tensor:
#      x y z
#    x 2.159730 0.000000 -0.061160 
#    y 0.000000 2.109250 0.000000 
#    z -0.061160 0.000000 2.090030 
# 
# From -- ./inp_files/27727.got.cif
#   From: 2010.05.17/outbox.cif.g08.bks.cpg/sg9_14_cif.got.tgz:27727.got - 2010.06.03 20:04:27.
