data_PCOD9140175
_publ_section_title
;
Structure prediction by ZEFSAII (Michael W. Deem and Ramdas Pophale) SiO2 
 PCOD9140175
Probable space group: C C
;
_chemical_formula_sum "Si O2"
_cell_formula_units_Z 28
_cell_length_a 9.385863
_cell_length_b 9.444954
_cell_length_c 20.725952
_cell_angle_alpha 90.000000
_cell_angle_beta 41.455899
_cell_angle_gamma 90.000000
_cell_volume 1216.396018
_symmetry_space_group_name_H-M "C C"
_symmetry_group_IT_number 9
_symmetry_cell_setting 'monoclinic'
loop_
_space_group_symop_operation_xyz
x,y,z
x,-y,1/2+z
1/2+x,1/2+y,z
1/2+x,1/2-y,1/2+z
loop_
_atom_site_type_symbol
_atom_site_label
_atom_site_fract_x
_atom_site_fract_y
_atom_site_fract_z
Si Si1 0.847550 0.855550 0.983840
Si Si2 0.867427 0.216817 0.287541
Si Si3 0.378388 0.767103 0.134375
Si Si4 0.005844 0.404630 0.341630
Si Si5 0.919830 0.835545 0.484799
Si Si6 0.424660 0.408033 0.283191
Si Si7 0.706069 0.685697 0.456249
O O1 0.912462 0.726311 0.915527
O O2 0.963489 0.821406 0.012525
O O3 0.936879 0.013444 0.944336
O O4 0.591334 0.863497 0.065385
O O5 0.865554 0.208010 0.211092
O O6 0.997144 0.351072 0.271076
O O7 0.626384 0.244981 0.394098
O O8 0.949396 0.072907 0.291980
O O9 0.161796 0.849714 0.190627
O O10 0.408405 0.656279 0.065788
O O11 0.847946 0.540716 0.402894
O O12 0.246496 0.418382 0.286891
O O13 0.722107 0.748688 0.522152
O O14 0.322623 0.300984 0.370109
#
# Coordination Sequence:
#
# PCOD9140175 Si02
#       7
#     4   4   4   4   4   4   4
#     4  11  25  44  74 105 143 189 244 295 372 427
#     4  12  25  48  73 102 148 190 237 304 362 438
#     4  12  28  42  70 112 142 182 250 304 358 434
#     4  11  23  44  76 104 140 194 239 293 368 434
#     4  12  25  48  73 102 148 190 237 304 362 438
#     4  11  25  44  74 105 143 189 244 295 372 427
#     4  11  23  44  76 104 140 194 239 293 368 434
#
# _framework density 23.018819000000001
#
# number of rings (size 3 to 8) (size 9 to 14) (size 15 to 20)
#    0.000    0.571    5.714    0.857    0.000    8.000 
#    0.000    0.000    0.000    1.714    0.000    0.000 
#    0.000    0.000    0.000    0.000    0.000    0.000 
#
# Total GULP energy -78164.478475 kJ/mol
# GULP energy per Si atom -5583.177034 kJ/mol
# Density = 2.296643 g / cm^3
# Si number density = 23.018819 Si / 1000 Ang^3
#
#
#
# Elastic Constant Matrix: (Units=GPa)
#
#
# Indices 1 2 3 4 5 6 
#
# 1 149.9698 8.0233 24.5098 0.0000 13.0603 0.0000
# 2 8.0233 87.3708 -1.6811 0.0000 26.7938 0.0000
# 3 24.5098 -1.6811 46.4594 0.0000 11.4471 0.0000
# 4 0.0000 0.0000 0.0000 11.8433 0.0000 -3.5040
# 5 13.0603 26.7938 11.4471 0.0000 52.9468 0.0000
# 6 0.0000 0.0000 0.0000 -3.5040 0.0000 39.1517
#
#
#
# Elastic Compliance Matrix: (Units=1/GPa)
#
#
# Indices 1 2 3 4 5 6 
#
# 1 0.007369 -0.000518 -0.003721 0.000000 -0.000751 0.000000
# 2 -0.000518 0.013822 0.002604 0.000000 -0.007430 0.000000
# 3 -0.003721 0.002604 0.025013 0.000000 -0.005807 0.000000
# 4 0.000000 0.000000 0.000000 0.086732 0.000000 0.007762
# 5 -0.000751 -0.007430 -0.005807 0.000000 0.024088 0.000000
# 6 0.000000 0.000000 0.000000 0.007762 0.000000 0.026236
#
#
# Mechanical properties :
#
#
# Convention : Reuss Voigt Hill
#
# Bulk Modulus (GPa) = 23.29232 38.38932 30.84082
# Shear Modulus (GPa) = 24.89525 37.65155 31.27340
#
# Velocity S-wave (km/s) = 3.29221 4.04875 3.68992
# Velocity P-wave (km/s) = 4.95906 6.21048 5.61971
#
# Compressibility (1/GPa) = 0.04293260
#
# Stress axis : x y z
#
# Youngs Moduli (GPa) = 135.69765 72.35065 39.97994
#
# Poissons Ratio (x) = 0.03748 0.14878
# Poissons Ratio (y) = 0.07029 -0.10411
# Poissons Ratio (z) = 0.50498 -0.18840
#
# Static dielectric constant tensor:
#      x y z
#    x 1.932950 0.000000 0.018880 
#    y 0.000000 1.872270 0.000000 
#    z 0.018880 0.000000 1.872080 
# 
# From -- ./inp_files/32443.got.cif
#   From: 2010.05.17/outbox.cif.g08.bks.cpg/sg9_17_cif.got.tgz:32443.got - 2010.06.03 20:04:27.
