data_PCOD9140919
_publ_section_title
;
Structure prediction by ZEFSAII (Michael W. Deem and Ramdas Pophale) SiO2 
 PCOD9140919
Probable space group: C C
;
_chemical_formula_sum "Si O2"
_cell_formula_units_Z 24
_cell_length_a 9.889850
_cell_length_b 8.002418
_cell_length_c 18.901636
_cell_angle_alpha 90.000000
_cell_angle_beta 42.206617
_cell_angle_gamma 90.000000
_cell_volume 1004.972785
_symmetry_space_group_name_H-M "C C"
_symmetry_group_IT_number 9
_symmetry_cell_setting 'monoclinic'
loop_
_space_group_symop_operation_xyz
x,y,z
x,-y,1/2+z
1/2+x,1/2+y,z
1/2+x,1/2-y,1/2+z
loop_
_atom_site_type_symbol
_atom_site_label
_atom_site_fract_x
_atom_site_fract_y
_atom_site_fract_z
Si Si1 0.831700 0.778214 0.551700
Si Si2 0.914366 0.621837 0.170718
Si Si3 0.781328 0.066381 0.936691
Si Si4 0.444424 0.905178 0.876191
Si Si5 0.875419 0.243884 0.192170
Si Si6 0.504715 0.252461 0.788973
O O1 0.591005 0.808935 0.653057
O O2 0.887076 0.924144 0.474333
O O3 0.868680 0.616985 0.487109
O O4 0.931936 0.785564 0.588813
O O5 0.822964 0.439817 0.220612
O O6 0.726533 0.740672 0.235613
O O7 0.048232 0.587048 0.048133
O O8 0.841886 0.243385 0.879400
O O9 0.861362 0.903904 0.868274
O O10 0.681385 0.866317 0.784041
O O11 0.408093 0.078749 0.851751
O O12 0.533425 0.276277 0.693634
#
# Coordination Sequence:
#
# PCOD9140919 Si02
#       6
#     4   4   4   4   4   4
#     4   8  22  47  70  96 157 182 234 310 355 424
#     4   9  22  47  70 100 149 190 238 291 367 440
#     4   8  22  49  71 100 153 184 247 290 356 450
#     4   9  23  46  71 104 143 193 238 297 360 435
#     4  12  22  43  75 106 145 178 252 306 354 421
#     4  12  23  46  81 104 137 203 243 292 372 428
#
# _framework density 23.881243000000001
#
# number of rings (size 3 to 8) (size 9 to 14) (size 15 to 20)
#    2.000    0.000    1.667    1.000    2.333    1.333 
#   12.000    6.667    7.333    0.000    0.000    0.000 
#    0.000    0.000    0.000    0.000    0.000    0.000 
#
# Total GULP energy -66839.402037 kJ/mol
# GULP energy per Si atom -5569.950170 kJ/mol
# Density = 2.382689 g / cm^3
# Si number density = 23.881243 Si / 1000 Ang^3
#
#
#
# Elastic Constant Matrix: (Units=GPa)
#
#
# Indices 1 2 3 4 5 6 
#
# 1 93.8071 27.6055 27.3629 0.0000 39.5300 0.0000
# 2 27.6055 140.7605 50.1423 0.0000 11.8430 0.0000
# 3 27.3629 50.1423 84.2265 0.0000 8.5156 0.0000
# 4 0.0000 0.0000 0.0000 22.7503 0.0000 3.3815
# 5 39.5300 11.8430 8.5156 0.0000 36.6021 0.0000
# 6 0.0000 0.0000 0.0000 3.3815 0.0000 6.0088
#
#
#
# Elastic Compliance Matrix: (Units=1/GPa)
#
#
# Indices 1 2 3 4 5 6 
#
# 1 0.021308 -0.000845 -0.004220 0.000000 -0.021758 0.000000
# 2 -0.000845 0.009155 -0.005088 0.000000 -0.000866 0.000000
# 3 -0.004220 -0.005088 0.016022 0.000000 0.002476 0.000000
# 4 0.000000 0.000000 0.000000 0.047968 0.000000 -0.026995
# 5 -0.021758 -0.000866 0.002476 0.000000 0.050523 0.000000
# 6 0.000000 0.000000 0.000000 -0.026995 0.000000 0.181615
#
#
# Mechanical properties :
#
#
# Convention : Reuss Voigt Hill
#
# Bulk Modulus (GPa) = 38.19714 58.77951 48.48833
# Shear Modulus (GPa) = 14.05974 27.31780 20.68877
#
# Velocity S-wave (km/s) = 2.42902 3.38583 2.94652
# Velocity P-wave (km/s) = 4.88837 6.32075 5.65013
#
# Compressibility (1/GPa) = 0.02617997
#
# Stress axis : x y z
#
# Youngs Moduli (GPa) = 46.93015 109.22431 62.41225
#
# Poissons Ratio (x) = 0.09232 0.26335
# Poissons Ratio (y) = 0.03967 0.31758
# Poissons Ratio (z) = 0.19802 0.55577
#
# Static dielectric constant tensor:
#      x y z
#    x 1.973240 0.000000 0.033980 
#    y 0.000000 1.924020 0.000000 
#    z 0.033980 0.000000 1.905700 
# 
# From -- ./inp_files/36492.got.cif
#   From: 2010.05.17/outbox.cif.g08.bks.cpg/sg9_19_cif.got.tgz:36492.got - 2010.06.03 20:04:27.
