data_PCOD9140774
_publ_section_title
;
Structure prediction by ZEFSAII (Michael W. Deem and Ramdas Pophale) SiO2 
 PCOD9140774
Probable space group: C C
;
_chemical_formula_sum "Si O2"
_cell_formula_units_Z 24
_cell_length_a 29.222492
_cell_length_b 5.150518
_cell_length_c 17.953668
_cell_angle_alpha 90.000000
_cell_angle_beta 159.050980
_cell_angle_gamma 90.000000
_cell_volume 966.145434
_symmetry_space_group_name_H-M "C C"
_symmetry_group_IT_number 9
_symmetry_cell_setting 'monoclinic'
loop_
_space_group_symop_operation_xyz
x,y,z
x,-y,1/2+z
1/2+x,1/2+y,z
1/2+x,1/2-y,1/2+z
loop_
_atom_site_type_symbol
_atom_site_label
_atom_site_fract_x
_atom_site_fract_y
_atom_site_fract_z
Si Si1 0.885160 0.344445 0.887750
Si Si2 0.735555 0.845120 0.674619
Si Si3 0.093392 0.950665 0.190259
Si Si4 0.872480 0.754060 0.147048
Si Si5 0.430202 0.793509 0.574835
Si Si6 0.481348 0.762790 0.366815
O O1 0.814076 0.610745 0.755378
O O2 0.784322 0.116178 0.716246
O O3 0.901072 0.416165 0.000813
O O4 0.027383 0.235863 0.086711
O O5 0.590126 0.773763 0.467434
O O6 0.798842 0.853182 0.853582
O O7 0.241388 0.885825 0.424160
O O8 0.031057 0.820246 0.169265
O O9 0.045322 0.826076 0.040406
O O10 0.932159 0.556363 0.296947
O O11 0.958021 0.742978 0.202382
O O12 0.876970 0.046471 0.184095
#
# Coordination Sequence:
#
# PCOD9140774 Si02
#       6
#     4   4   4   4   4   4
#     4   9  20  39  75  96 125 198 223 276 366 399
#     4   9  19  43  69  96 135 186 225 285 352 419
#     4  11  25  51  71 102 155 183 237 307 346 427
#     4  12  29  46  72 111 141 192 242 289 364 427
#     4   9  23  47  75  98 143 193 229 293 366 407
#     4  12  28  46  72 109 143 188 240 296 360 425
#
# _framework density 24.840982
#
# number of rings (size 3 to 8) (size 9 to 14) (size 15 to 20)
#    1.000    0.667    1.667    1.000    9.333    0.000 
#   15.000    0.000    0.000    0.000    0.000    0.000 
#    0.000    0.000    0.000    0.000    0.000    0.000 
#
# Total GULP energy -66878.215501 kJ/mol
# GULP energy per Si atom -5573.184625 kJ/mol
# Density = 2.478444 g / cm^3
# Si number density = 24.840982 Si / 1000 Ang^3
#
#
#
# Elastic Constant Matrix: (Units=GPa)
#
#
# Indices 1 2 3 4 5 6 
#
# 1 78.3015 6.0961 -2.3107 0.0000 -4.7644 0.0000
# 2 6.0961 162.8006 17.6031 0.0006 2.0791 0.0000
# 3 -2.3107 17.6031 63.2678 0.0001 4.0876 0.0000
# 4 0.0000 0.0006 0.0001 23.4455 0.0000 -5.0051
# 5 -4.7644 2.0791 4.0876 0.0000 37.4374 0.0000
# 6 0.0000 0.0000 0.0000 -5.0051 0.0000 30.8262
#
#
#
# Elastic Compliance Matrix: (Units=1/GPa)
#
#
# Indices 1 2 3 4 5 6 
#
# 1 0.012929 -0.000561 0.000524 0.000000 0.001619 0.000000
# 2 -0.000561 0.006358 -0.001775 0.000000 -0.000231 0.000000
# 3 0.000524 -0.001775 0.016424 0.000000 -0.001628 0.000000
# 4 0.000000 0.000000 0.000000 0.044184 0.000000 0.007174
# 5 0.001619 -0.000231 -0.001628 0.000000 0.027108 0.000000
# 6 0.000000 0.000000 0.000000 0.007174 0.000000 0.033605
#
#
# Mechanical properties :
#
#
# Convention : Reuss Voigt Hill
#
# Bulk Modulus (GPa) = 31.16581 38.57185 34.86883
# Shear Modulus (GPa) = 32.27316 37.20724 34.74020
#
# Velocity S-wave (km/s) = 3.60834 3.87436 3.74371
# Velocity P-wave (km/s) = 5.47115 5.96452 5.72315
#
# Compressibility (1/GPa) = 0.03208645
#
# Stress axis : x y z
#
# Youngs Moduli (GPa) = 77.34640 157.27360 60.88680
#
# Poissons Ratio (x) = 0.08830 -0.03189
# Poissons Ratio (y) = 0.04343 0.10805
# Poissons Ratio (z) = -0.04051 0.27911
#
# Static dielectric constant tensor:
#      x y z
#    x 2.014500 0.000000 0.029870 
#    y 0.000000 1.997270 0.000000 
#    z 0.029870 0.000000 2.000220 
# 
# From -- ./inp_files/23935.got.cif
#   From: 2010.05.17/outbox.cif.g08.bks.cpg/sg9_12_cif.got.tgz:23935.got - 2010.06.03 20:04:27.
