data_PCOD9140576
_publ_section_title
;
Structure prediction by ZEFSAII (Michael W. Deem and Ramdas Pophale) SiO2 
 PCOD9140576
Probable space group: C C
;
_chemical_formula_sum "Si O2"
_cell_formula_units_Z 28
_cell_length_a 8.870295
_cell_length_b 13.464248
_cell_length_c 10.468049
_cell_angle_alpha 90.000000
_cell_angle_beta 115.114739
_cell_angle_gamma 90.000000
_cell_volume 1132.022379
_symmetry_space_group_name_H-M "C C"
_symmetry_group_IT_number 9
_symmetry_cell_setting 'monoclinic'
loop_
_space_group_symop_operation_xyz
x,y,z
x,-y,1/2+z
1/2+x,1/2+y,z
1/2+x,1/2-y,1/2+z
loop_
_atom_site_type_symbol
_atom_site_label
_atom_site_fract_x
_atom_site_fract_y
_atom_site_fract_z
Si Si1 0.979770 0.987156 0.635590
Si Si2 0.983403 0.631938 0.109292
Si Si3 0.647656 0.064626 0.591663
Si Si4 0.299625 0.712877 0.140788
Si Si5 0.919233 0.310868 0.845750
Si Si6 0.635965 0.800974 0.305363
Si Si7 0.611660 0.394909 0.415850
O O1 0.816369 0.060061 0.569964
O O2 0.098674 0.037448 0.784047
O O3 0.897379 0.891849 0.677216
O O4 0.056195 0.956495 0.525118
O O5 0.058950 0.540837 0.059203
O O6 0.125785 0.715414 0.152766
O O7 0.968256 0.612451 0.253547
O O8 0.797721 0.648104 0.996305
O O9 0.509783 0.144011 0.500110
O O10 0.683477 0.097715 0.750460
O O11 0.438146 0.789210 0.239264
O O12 0.231816 0.716228 0.971819
O O13 0.995091 0.201132 0.859421
O O14 0.722680 0.290344 0.760371
#
# Coordination Sequence:
#
# PCOD9140576 Si02
#       7
#     4   4   4   4   4   4   4
#     4  11  24  48  76 112 152 205 260 317 401 462
#     4  11  30  45  71 111 152 199 264 321 382 470
#     4  11  25  44  76 109 150 200 253 324 383 478
#     4  11  26  45  76 108 154 195 267 315 389 469
#     4  12  25  48  74 106 155 203 252 316 397 469
#     4  12  23  50  76 110 149 210 249 323 401 462
#     4  12  27  48  79 112 156 212 255 328 393 476
#
# _framework density 24.734493000000001
#
# number of rings (size 3 to 8) (size 9 to 14) (size 15 to 20)
#    0.000    0.571    4.286    1.714   14.000    0.000 
#    2.571    0.000    0.000    0.000    0.000    0.000 
#    0.000    0.000    0.000    0.000    0.000    0.000 
#
# Total GULP energy -78177.676276 kJ/mol
# GULP energy per Si atom -5584.119734 kJ/mol
# Density = 2.467820 g / cm^3
# Si number density = 24.734493 Si / 1000 Ang^3
#
#
#
# Elastic Constant Matrix: (Units=GPa)
#
#
# Indices 1 2 3 4 5 6 
#
# 1 144.8401 22.1082 36.5907 0.0000 36.5936 0.0000
# 2 22.1082 44.7781 14.6092 0.0000 6.5345 0.0000
# 3 36.5907 14.6092 85.9740 0.0000 21.3839 0.0000
# 4 0.0000 0.0000 0.0000 40.4975 0.0000 -0.0282
# 5 36.5936 6.5345 21.3839 0.0000 47.7194 0.0000
# 6 0.0000 0.0000 0.0000 -0.0282 0.0000 33.1325
#
#
#
# Elastic Compliance Matrix: (Units=1/GPa)
#
#
# Indices 1 2 3 4 5 6 
#
# 1 0.009365 -0.003117 -0.001999 0.000000 -0.005859 0.000000
# 2 -0.003117 0.024792 -0.002967 0.000000 0.000325 0.000000
# 3 -0.001999 -0.002967 0.014073 0.000000 -0.004367 0.000000
# 4 0.000000 0.000000 0.000000 0.024693 0.000000 0.000021
# 5 -0.005859 0.000325 -0.004367 0.000000 0.027361 0.000000
# 6 0.000000 0.000000 0.000000 0.000021 0.000000 0.030182
#
#
# Mechanical properties :
#
#
# Convention : Reuss Voigt Hill
#
# Bulk Modulus (GPa) = 31.18746 46.91205 39.04976
# Shear Modulus (GPa) = 31.78257 37.75549 34.76903
#
# Velocity S-wave (km/s) = 3.58851 3.91119 3.75332
# Velocity P-wave (km/s) = 5.45950 6.27726 5.88261
#
# Compressibility (1/GPa) = 0.03206416
#
# Stress axis : x y z
#
# Youngs Moduli (GPa) = 106.77854 40.33599 71.06043
#
# Poissons Ratio (x) = 0.12571 0.14204
# Poissons Ratio (y) = 0.33279 0.21084
# Poissons Ratio (z) = 0.21344 0.11968
#
# Static dielectric constant tensor:
#      x y z
#    x 2.113420 0.000000 -0.062220 
#    y 0.000000 1.952460 0.000000 
#    z -0.062220 0.000000 2.023280 
# 
# From -- ./inp_files/14686.got.cif
#   From: 2010.05.17/outbox.cif.g08.bks.cpg/sg9_8_cif.got.tgz:14686.got - 2010.06.03 20:04:27.
