data_PCOD9140015
_publ_section_title
;
Structure prediction by ZEFSAII (Michael W. Deem and Ramdas Pophale) SiO2 
 PCOD9140015
Probable space group: C C
;
_chemical_formula_sum "Si O2"
_cell_formula_units_Z 32
_cell_length_a 8.615635
_cell_length_b 11.501287
_cell_length_c 13.304725
_cell_angle_alpha 90.000000
_cell_angle_beta 80.316491
_cell_angle_gamma 90.000000
_cell_volume 1299.592715
_symmetry_space_group_name_H-M "C C"
_symmetry_group_IT_number 9
_symmetry_cell_setting 'monoclinic'
loop_
_space_group_symop_operation_xyz
x,y,z
x,-y,1/2+z
1/2+x,1/2+y,z
1/2+x,1/2-y,1/2+z
loop_
_atom_site_type_symbol
_atom_site_label
_atom_site_fract_x
_atom_site_fract_y
_atom_site_fract_z
Si Si1 0.995180 0.196961 0.013660
Si Si2 0.435194 0.028035 0.180450
Si Si3 0.161504 0.201353 0.210671
Si Si4 0.839212 0.440191 0.999884
Si Si5 0.471649 0.546895 0.576852
Si Si6 0.262542 0.124346 0.842335
Si Si7 0.724073 0.942511 0.268145
Si Si8 0.395362 0.378473 0.869451
O O1 0.894483 0.306928 0.989395
O O2 0.106186 0.226800 0.100779
O O3 0.907834 0.084158 0.065437
O O4 0.089174 0.142362 0.908189
O O5 0.332916 0.144340 0.197323
O O6 0.460907 0.001948 0.061163
O O7 0.321466 0.920845 0.228829
O O8 0.596136 0.020143 0.223091
O O9 0.149188 0.315254 0.281925
O O10 0.044679 0.110740 0.278577
O O11 0.660897 0.454332 0.061712
O O12 0.834519 0.518498 0.901059
O O13 0.376094 0.586551 0.683136
O O14 0.436984 0.620107 0.481218
O O15 0.323136 0.254649 0.850019
O O16 0.778806 0.016172 0.356528
#
# Coordination Sequence:
#
# PCOD9140015 Si02
#       8
#     4   4   4   4   4   4   4   4
#     4  11  22  45  74 104 150 188 238 307 358 436
#     4  12  25  46  76 106 144 199 241 299 369 431
#     4  12  23  50  71 106 153 187 240 303 358 437
#     4  11  24  47  75 105 145 195 242 296 379 429
#     4  11  26  45  72 109 144 195 241 305 363 433
#     4  11  25  45  72 105 146 191 240 300 358 436
#     4  12  27  47  74 110 146 192 247 301 366 429
#     4  12  26  49  70 105 152 183 247 303 355 439
#
# _framework density 24.623099
#
# number of rings (size 3 to 8) (size 9 to 14) (size 15 to 20)
#    0.000    0.500    6.250    2.250    1.750    3.000 
#    4.500    0.000    0.000    0.000    0.000    0.000 
#    0.000    0.000    0.000    0.000    0.000    0.000 
#
# Total GULP energy -89417.585512 kJ/mol
# GULP energy per Si atom -5588.599095 kJ/mol
# Density = 2.456706 g / cm^3
# Si number density = 24.623099 Si / 1000 Ang^3
#
#
#
# Elastic Constant Matrix: (Units=GPa)
#
#
# Indices 1 2 3 4 5 6 
#
# 1 68.0933 15.5340 17.7334 0.0000 -1.7498 0.0000
# 2 15.5340 132.2379 0.0664 0.0000 11.0908 0.0000
# 3 17.7334 0.0664 63.1055 0.0000 5.7148 0.0000
# 4 0.0000 0.0000 0.0000 30.9864 0.0000 3.3487
# 5 -1.7498 11.0908 5.7148 0.0000 35.7061 0.0000
# 6 0.0000 0.0000 0.0000 3.3487 0.0000 50.4626
#
#
#
# Elastic Compliance Matrix: (Units=1/GPa)
#
#
# Indices 1 2 3 4 5 6 
#
# 1 0.016486 -0.002122 -0.004834 0.000000 0.002241 0.000000
# 2 -0.002122 0.008040 0.000836 0.000000 -0.002735 0.000000
# 3 -0.004834 0.000836 0.017503 0.000000 -0.003298 0.000000
# 4 0.000000 0.000000 0.000000 0.032505 0.000000 -0.002157
# 5 0.002241 -0.002735 -0.003298 0.000000 0.029494 0.000000
# 6 0.000000 0.000000 0.000000 -0.002157 0.000000 0.019960
#
#
# Mechanical properties :
#
#
# Convention : Reuss Voigt Hill
#
# Bulk Modulus (GPa) = 33.56942 36.67825 35.12384
# Shear Modulus (GPa) = 34.20963 38.77122 36.49043
#
# Velocity S-wave (km/s) = 3.73142 3.97241 3.85380
# Velocity P-wave (km/s) = 5.67693 5.99736 5.83934
#
# Compressibility (1/GPa) = 0.02978902
#
# Stress axis : x y z
#
# Youngs Moduli (GPa) = 60.65673 124.37196 57.13461
#
# Poissons Ratio (x) = 0.26394 0.27616
# Poissons Ratio (y) = 0.12872 -0.04774
# Poissons Ratio (z) = 0.29318 -0.10392
#
# Static dielectric constant tensor:
#      x y z
#    x 2.002080 0.000000 -0.009930 
#    y 0.000000 1.981670 0.000000 
#    z -0.009930 0.000000 1.962080 
# 
# From -- ./inp_files/22735.got.cif
#   From: 2010.05.17/outbox.cif.g08.bks.cpg/sg9_12_cif.got.tgz:22735.got - 2010.06.03 20:04:27.
