data_PCOD9140561
_publ_section_title
;
Structure prediction by ZEFSAII (Michael W. Deem and Ramdas Pophale) SiO2 
 PCOD9140561
Probable space group: C C
;
_chemical_formula_sum "Si O2"
_cell_formula_units_Z 32
_cell_length_a 10.765662
_cell_length_b 16.722262
_cell_length_c 9.173070
_cell_angle_alpha 90.000000
_cell_angle_beta 64.402137
_cell_angle_gamma 90.000000
_cell_volume 1489.306645
_symmetry_space_group_name_H-M "C C"
_symmetry_group_IT_number 9
_symmetry_cell_setting 'monoclinic'
loop_
_space_group_symop_operation_xyz
x,y,z
x,-y,1/2+z
1/2+x,1/2+y,z
1/2+x,1/2-y,1/2+z
loop_
_atom_site_type_symbol
_atom_site_label
_atom_site_fract_x
_atom_site_fract_y
_atom_site_fract_z
Si Si1 0.381090 0.743337 0.145290
Si Si2 0.337366 0.685616 0.479194
Si Si3 0.369420 0.795275 0.723054
Si Si4 0.857074 0.919978 0.493220
Si Si5 0.534561 0.951155 0.716453
Si Si6 0.151962 0.193651 0.593404
Si Si7 0.056561 0.601765 0.531614
Si Si8 0.479596 0.560279 0.614849
O O1 0.405172 0.717507 0.298012
O O2 0.228612 0.779218 0.200522
O O3 0.476049 0.816250 0.055297
O O4 0.391005 0.667968 0.034206
O O5 0.307691 0.759895 0.603258
O O6 0.208456 0.631400 0.496697
O O7 0.432718 0.624678 0.518474
O O8 0.429206 0.885534 0.703643
O O9 0.508741 0.742218 0.669671
O O10 0.253443 0.784325 0.906983
O O11 0.693068 0.933374 0.590145
O O12 0.891929 0.934820 0.307250
O O13 0.947571 0.977717 0.551316
O O14 0.502622 0.040586 0.680411
O O15 0.541859 0.943138 0.886300
O O16 0.124492 0.098461 0.592882
#
# Coordination Sequence:
#
# PCOD9140561 Si02
#       8
#     4   4   4   4   4   4   4   4
#     4  12  25  45  70 104 147 195 250 303 371 448
#     4  11  25  41  71 109 139 190 247 307 361 446
#     4  11  25  45  76 103 150 194 248 309 370 441
#     4  12  23  46  74 102 146 197 247 304 360 456
#     4  12  25  46  73 106 148 194 255 301 370 450
#     4  11  24  48  71 108 144 197 249 306 375 434
#     4  12  27  45  71 110 147 195 249 307 381 440
#     4  11  26  44  72 108 145 194 249 307 372 437
#
# _framework density 21.486509000000002
#
# number of rings (size 3 to 8) (size 9 to 14) (size 15 to 20)
#    0.000    0.500    5.000    3.000    7.000    0.000 
#    2.250    0.000    0.000    0.000    0.000    0.000 
#    0.000    0.000    0.000    0.000    0.000    0.000 
#
# Total GULP energy -89362.096757 kJ/mol
# GULP energy per Si atom -5585.131047 kJ/mol
# Density = 2.143760 g / cm^3
# Si number density = 21.486509 Si / 1000 Ang^3
#
#
#
# Elastic Constant Matrix: (Units=GPa)
#
#
# Indices 1 2 3 4 5 6 
#
# 1 29.0334 43.2650 25.7392 0.0000 12.7739 0.0000
# 2 43.2650 82.8283 1.4287 0.0000 6.3199 0.0000
# 3 25.7392 1.4287 97.7125 0.0000 10.2004 0.0000
# 4 0.0000 0.0000 0.0000 31.5182 0.0000 9.3690
# 5 12.7739 6.3199 10.2004 0.0000 37.6845 0.0000
# 6 0.0000 0.0000 0.0000 9.3690 0.0000 24.2684
#
#
#
# Elastic Compliance Matrix: (Units=1/GPa)
#
#
# Indices 1 2 3 4 5 6 
#
# 1 -0.785326 0.395593 0.185462 0.000000 0.149657 0.000000
# 2 0.395593 -0.187043 -0.093387 0.000000 -0.077448 0.000000
# 3 0.185462 -0.093387 -0.033267 0.000000 -0.038200 0.000000
# 4 0.000000 0.000000 0.000000 0.035841 0.000000 -0.013837
# 5 0.149657 -0.077448 -0.038200 0.000000 -0.000865 0.000000
# 6 0.000000 0.000000 0.000000 -0.013837 0.000000 0.046547
#
#
# Mechanical properties :
#
#
# Convention : Reuss Voigt Hill
#
# Bulk Modulus (GPa) = -33.00473 38.93778 2.96653
# Shear Modulus (GPa) = -2.61842 27.97032 12.67595
#
# Velocity S-wave (km/s) = -1.10512 3.61191 2.43152
# Velocity P-wave (km/s) = 4.12582 5.96287 3.04413
#
# Compressibility (1/GPa) = -0.03029869
#
# Stress axis : x y z
#
# Youngs Moduli (GPa) = -1.27336 -5.34637 -30.06005
#
# Poissons Ratio (x) = 2.11499 5.57500
# Poissons Ratio (y) = 0.50373 -2.80721
# Poissons Ratio (z) = 0.23616 -0.49928
#
# Static dielectric constant tensor:
#      x y z
#    x 1.906050 0.000000 0.007680 
#    y 0.000000 1.814370 0.000000 
#    z 0.007680 0.000000 1.777460 
# 
# From -- ./inp_files/7566.got.cif
#   From: 2010.05.17/outbox.cif.g08.bks.cpg/sg9_4_cif.got.tgz:7566.got - 2010.06.03 20:04:27.
