data_PCOD9140578
_publ_section_title
;
Structure prediction by ZEFSAII (Michael W. Deem and Ramdas Pophale) SiO2 
 PCOD9140578
Probable space group: C C
;
_chemical_formula_sum "Si O2"
_cell_formula_units_Z 24
_cell_length_a 11.859692
_cell_length_b 10.855087
_cell_length_c 9.074889
_cell_angle_alpha 90.000000
_cell_angle_beta 125.297101
_cell_angle_gamma 90.000000
_cell_volume 953.513793
_symmetry_space_group_name_H-M "C C"
_symmetry_group_IT_number 9
_symmetry_cell_setting 'monoclinic'
loop_
_space_group_symop_operation_xyz
x,y,z
x,-y,1/2+z
1/2+x,1/2+y,z
1/2+x,1/2-y,1/2+z
loop_
_atom_site_type_symbol
_atom_site_label
_atom_site_fract_x
_atom_site_fract_y
_atom_site_fract_z
Si Si1 0.251440 0.848099 0.435770
Si Si2 0.361007 0.004144 0.773792
Si Si3 0.132158 0.602981 0.635914
Si Si4 0.313958 0.507436 0.029937
Si Si5 0.482275 0.744777 0.238421
Si Si6 0.513176 0.317870 0.074591
O O1 0.253373 0.957143 0.317343
O O2 0.379652 0.767624 0.483208
O O3 0.110165 0.782889 0.285086
O O4 0.287220 0.903453 0.618219
O O5 0.407723 0.123837 0.714322
O O6 0.498983 0.956836 0.958561
O O7 0.255769 0.586099 0.610649
O O8 0.079036 0.729948 0.669691
O O9 0.192060 0.528951 0.821349
O O10 0.368492 0.637869 0.132417
O O11 0.446192 0.450440 0.048764
O O12 0.567473 0.707020 0.450733
#
# Coordination Sequence:
#
# PCOD9140578 Si02
#       6
#     4   4   4   4   4   4
#     4  11  27  48  78 109 155 210 263 338 409 487
#     4  11  24  48  77 115 153 208 272 332 412 497
#     4  12  25  49  84 118 166 216 277 337 423 493
#     4  12  27  50  79 123 162 220 277 341 416 505
#     4  11  26  47  80 118 159 218 264 347 409 495
#     4  11  29  50  78 113 169 210 273 345 411 489
#
# _framework density 25.170058999999998
#
# number of rings (size 3 to 8) (size 9 to 14) (size 15 to 20)
#    0.000    0.667    5.000    0.000   14.000    1.333 
#    3.000    0.000    0.000    0.000    0.000    0.000 
#    0.000    0.000    0.000    0.000    0.000    0.000 
#
# Total GULP energy -67139.637852 kJ/mol
# GULP energy per Si atom -5594.969821 kJ/mol
# Density = 2.511277 g / cm^3
# Si number density = 25.170059 Si / 1000 Ang^3
#
#
#
# Elastic Constant Matrix: (Units=GPa)
#
#
# Indices 1 2 3 4 5 6 
#
# 1 96.5023 34.6544 32.8748 0.0000 0.0594 0.0000
# 2 34.6544 83.6286 55.0082 0.0000 -1.5947 0.0000
# 3 32.8748 55.0082 168.9087 0.0000 16.3850 0.0000
# 4 0.0000 0.0000 0.0000 22.6739 0.0000 -13.4371
# 5 0.0594 -1.5947 16.3850 0.0000 42.9370 0.0000
# 6 0.0000 0.0000 0.0000 -13.4371 0.0000 47.0967
#
#
#
# Elastic Compliance Matrix: (Units=1/GPa)
#
#
# Indices 1 2 3 4 5 6 
#
# 1 0.012290 -0.004460 -0.000957 0.000000 0.000183 0.000000
# 2 -0.004460 0.017109 -0.004950 0.000000 0.002530 0.000000
# 3 -0.000957 -0.004950 0.008034 0.000000 -0.003248 0.000000
# 4 0.000000 0.000000 0.000000 0.053078 0.000000 0.015144
# 5 0.000183 0.002530 -0.003248 0.000000 0.024623 0.000000
# 6 0.000000 0.000000 0.000000 0.015144 0.000000 0.025554
#
#
# Mechanical properties :
#
#
# Convention : Reuss Voigt Hill
#
# Bulk Modulus (GPa) = 59.87945 66.01271 62.94608
# Shear Modulus (GPa) = 29.94238 37.64168 33.79203
#
# Velocity S-wave (km/s) = 3.45280 3.87136 3.66806
# Velocity P-wave (km/s) = 6.30376 6.80197 6.55760
#
# Compressibility (1/GPa) = 0.01670022
#
# Stress axis : x y z
#
# Youngs Moduli (GPa) = 81.36755 58.44720 124.47587
#
# Poissons Ratio (x) = 0.26065 0.11917
# Poissons Ratio (y) = 0.36286 0.61609
# Poissons Ratio (z) = 0.07790 0.28928
#
# Static dielectric constant tensor:
#      x y z
#    x 2.038660 0.000000 -0.022890 
#    y 0.000000 2.035380 0.000000 
#    z -0.022890 0.000000 1.995270 
# 
# From -- ./inp_files/7041.got.cif
#   From: 2010.05.17/outbox.cif.g08.bks.cpg/sg9_4_cif.got.tgz:7041.got - 2010.06.03 20:04:27.
