data_PCOD9140261
_publ_section_title
;
Structure prediction by ZEFSAII (Michael W. Deem and Ramdas Pophale) SiO2 
 PCOD9140261
Probable space group: C C
;
_chemical_formula_sum "Si O2"
_cell_formula_units_Z 32
_cell_length_a 14.699747
_cell_length_b 11.764595
_cell_length_c 8.251481
_cell_angle_alpha 90.000000
_cell_angle_beta 74.302479
_cell_angle_gamma 90.000000
_cell_volume 1373.761291
_symmetry_space_group_name_H-M "C C"
_symmetry_group_IT_number 9
_symmetry_cell_setting 'monoclinic'
loop_
_space_group_symop_operation_xyz
x,y,z
x,-y,1/2+z
1/2+x,1/2+y,z
1/2+x,1/2-y,1/2+z
loop_
_atom_site_type_symbol
_atom_site_label
_atom_site_fract_x
_atom_site_fract_y
_atom_site_fract_z
Si Si1 0.242240 0.655573 0.507640
Si Si2 0.605446 0.460980 0.940256
Si Si3 0.062495 0.737650 0.130574
Si Si4 0.899224 0.336385 0.502733
Si Si5 0.326656 0.043952 0.363222
Si Si6 0.747546 0.098059 0.126060
Si Si7 0.913800 0.742203 0.495475
Si Si8 0.562900 0.678155 0.136886
O O1 0.335672 0.725401 0.508778
O O2 0.247562 0.626055 0.315936
O O3 0.237599 0.535971 0.602504
O O4 0.152150 0.737319 0.582566
O O5 0.717031 0.482288 0.896070
O O6 0.574095 0.397640 0.791966
O O7 0.583341 0.369422 0.090501
O O8 0.560691 0.582239 0.997158
O O9 0.157631 0.665642 0.099418
O O10 0.005248 0.693437 0.001145
O O11 0.995229 0.726554 0.319851
O O12 0.883893 0.430814 0.374567
O O13 0.857636 0.395702 0.684350
O O14 0.347110 0.132921 0.499066
O O15 0.844047 0.150474 0.006021
O O16 0.967433 0.753856 0.641204
#
# Coordination Sequence:
#
# PCOD9140261 Si02
#       8
#     4   4   4   4   4   4   4   4
#     4  12  29  50  75 114 152 204 249 311 385 457
#     4  12  24  46  77 107 151 198 254 319 371 442
#     4  11  27  49  77 111 151 205 252 312 383 446
#     4  11  27  45  75 112 148 192 256 305 376 450
#     4  11  23  46  76 104 149 194 247 316 365 436
#     4  12  30  49  78 106 161 199 251 315 380 455
#     4  11  27  49  73 111 151 204 255 312 373 454
#     4  12  27  46  77 113 151 196 260 308 381 452
#
# _framework density 23.293711999999999
#
# number of rings (size 3 to 8) (size 9 to 14) (size 15 to 20)
#    0.000    0.500    5.000    0.750   12.250    0.000 
#    0.000    0.000    0.000    0.000    0.000    0.000 
#    0.000    0.000    0.000    0.000    0.000    0.000 
#
# Total GULP energy -89621.785152 kJ/mol
# GULP energy per Si atom -5601.361572 kJ/mol
# Density = 2.324069 g / cm^3
# Si number density = 23.293712 Si / 1000 Ang^3
#
#
#
# Elastic Constant Matrix: (Units=GPa)
#
#
# Indices 1 2 3 4 5 6 
#
# 1 146.3982 52.1403 43.8078 0.0000 21.8621 0.0000
# 2 52.1403 132.1239 32.7454 0.0000 16.4615 0.0000
# 3 43.8078 32.7454 47.2035 0.0000 16.2005 0.0000
# 4 0.0000 0.0000 0.0000 55.0936 0.0000 10.7204
# 5 21.8621 16.4615 16.2005 0.0000 36.0115 0.0000
# 6 0.0000 0.0000 0.0000 10.7204 0.0000 46.5455
#
#
#
# Elastic Compliance Matrix: (Units=1/GPa)
#
#
# Indices 1 2 3 4 5 6 
#
# 1 0.009969 -0.001891 -0.007285 0.000000 -0.001911 0.000000
# 2 -0.001891 0.009574 -0.004469 0.000000 -0.001218 0.000000
# 3 -0.007285 -0.004469 0.034090 0.000000 -0.008871 0.000000
# 4 0.000000 0.000000 0.000000 0.019003 0.000000 -0.004377
# 5 -0.001911 -0.001218 -0.008871 0.000000 0.033477 0.000000
# 6 0.000000 0.000000 0.000000 -0.004377 0.000000 0.022492
#
#
# Mechanical properties :
#
#
# Convention : Reuss Voigt Hill
#
# Bulk Modulus (GPa) = 37.95783 64.79030 51.37406
# Shear Modulus (GPa) = 30.36276 40.66557 35.51417
#
# Velocity S-wave (km/s) = 3.61428 4.18278 3.90888
# Velocity P-wave (km/s) = 5.80931 7.15559 6.51730
#
# Compressibility (1/GPa) = 0.02634503
#
# Stress axis : x y z
#
# Youngs Moduli (GPa) = 100.30818 104.44820 29.33392
#
# Poissons Ratio (x) = 0.19748 0.21369
# Poissons Ratio (y) = 0.18965 0.13109
# Poissons Ratio (z) = 0.73072 0.46676
#
# Static dielectric constant tensor:
#      x y z
#    x 1.845290 0.000000 0.017210 
#    y 0.000000 1.799240 0.000000 
#    z 0.017210 0.000000 1.953810 
# 
# From -- ./inp_files/9264.got.cif
#   From: 2010.05.17/outbox.cif.g08.bks.cpg/sg9_5_cif.got.tgz:9264.got - 2010.06.03 20:04:27.
