data_PCOD9140865
_publ_section_title
;
Structure prediction by ZEFSAII (Michael W. Deem and Ramdas Pophale) SiO2 
 PCOD9140865
Probable space group: C C
;
_chemical_formula_sum "Si O2"
_cell_formula_units_Z 28
_cell_length_a 6.397646
_cell_length_b 21.565133
_cell_length_c 9.682682
_cell_angle_alpha 90.000000
_cell_angle_beta 90.065645
_cell_angle_gamma 90.000000
_cell_volume 1335.880869
_symmetry_space_group_name_H-M "C C"
_symmetry_group_IT_number 9
_symmetry_cell_setting 'monoclinic'
loop_
_space_group_symop_operation_xyz
x,y,z
x,-y,1/2+z
1/2+x,1/2+y,z
1/2+x,1/2-y,1/2+z
loop_
_atom_site_type_symbol
_atom_site_label
_atom_site_fract_x
_atom_site_fract_y
_atom_site_fract_z
Si Si1 0.741040 0.756893 0.066090
Si Si2 0.528492 0.640079 0.482404
Si Si3 0.816119 0.244850 0.895024
Si Si4 0.002672 0.643280 0.945154
Si Si5 0.281329 0.933500 0.211344
Si Si6 0.427396 0.520330 0.319931
Si Si7 0.126011 0.519081 0.066394
O O1 0.808193 0.751423 0.227411
O O2 0.512456 0.750942 0.998221
O O3 0.860143 0.699583 0.995090
O O4 0.815556 0.825543 0.022485
O O5 0.672011 0.697265 0.437753
O O6 0.630479 0.604813 0.610986
O O7 0.496175 0.588619 0.366096
O O8 0.723014 0.176652 0.922585
O O9 0.910178 0.613498 0.806732
O O10 0.025507 0.586815 0.050548
O O11 0.131973 0.976771 0.306686
O O12 0.445489 0.973105 0.120264
O O13 0.243810 0.498706 0.424635
O O14 0.315080 0.520405 0.173637
#
# Coordination Sequence:
#
# PCOD9140865 Si02
#       7
#     4   4   4   4   4   4   4
#     4  11  27  46  74 100 140 192 240 306 358 428
#     4  11  27  44  71 105 141 185 245 296 363 433
#     4  11  27  46  74 100 140 192 240 306 358 428
#     4  11  27  44  71 105 141 185 245 296 363 433
#     4  12  26  48  74 108 150 188 240 306 364 436
#     4  12  28  45  74 109 145 195 241 297 370 436
#     4  12  28  45  74 109 145 195 241 297 370 436
#
# _framework density 20.959952000000001
#
# number of rings (size 3 to 8) (size 9 to 14) (size 15 to 20)
#    0.000    0.571    2.857    2.571   14.000    2.286 
#    0.000    0.000    0.000    0.000    0.000    0.000 
#    0.000    0.000    0.000    0.000    0.000    0.000 
#
# Total GULP energy -78189.353229 kJ/mol
# GULP energy per Si atom -5584.953802 kJ/mol
# Density = 2.091225 g / cm^3
# Si number density = 20.959952 Si / 1000 Ang^3
#
#
#
# Elastic Constant Matrix: (Units=GPa)
#
#
# Indices 1 2 3 4 5 6 
#
# 1 50.1559 16.1299 -18.5464 0.0000 1.5938 0.0000
# 2 16.1299 116.5145 5.2347 0.0000 -5.1784 0.0000
# 3 -18.5464 5.2347 35.6550 0.0000 -1.2590 0.0000
# 4 0.0000 0.0000 0.0000 3.0890 0.0000 -9.1808
# 5 1.5938 -5.1784 -1.2590 0.0000 36.3231 0.0000
# 6 0.0000 0.0000 0.0000 -9.1808 0.0000 41.0363
#
#
#
# Elastic Compliance Matrix: (Units=1/GPa)
#
#
# Indices 1 2 3 4 5 6 
#
# 1 0.026772 -0.004417 0.014528 0.000000 -0.001301 0.000000
# 2 -0.004417 0.009420 -0.003631 0.000000 0.001411 0.000000
# 3 0.014528 -0.003631 0.036140 0.000000 0.000098 0.000000
# 4 0.000000 0.000000 0.000000 0.966174 0.000000 0.216156
# 5 -0.001301 0.001411 0.000098 0.000000 0.027792 0.000000
# 6 0.000000 0.000000 0.000000 0.216156 0.000000 0.072728
#
#
# Mechanical properties :
#
#
# Convention : Reuss Voigt Hill
#
# Bulk Modulus (GPa) = 11.72425 23.10688 17.41556
# Shear Modulus (GPa) = 4.33090 29.39014 16.86052
#
# Velocity S-wave (km/s) = 1.43901 3.74866 2.83930
# Velocity P-wave (km/s) = 2.89254 5.45755 4.36759
#
# Compressibility (1/GPa) = 0.08529330
#
# Stress axis : x y z
#
# Youngs Moduli (GPa) = 37.35290 106.15853 27.67014
#
# Poissons Ratio (x) = 0.46887 -0.40200
# Poissons Ratio (y) = 0.16498 0.10046
# Poissons Ratio (z) = -0.54267 0.38542
#
# Static dielectric constant tensor:
#      x y z
#    x 1.815850 0.000000 -0.020930 
#    y 0.000000 1.704230 0.000000 
#    z -0.020930 0.000000 1.781850 
# 
# From -- ./inp_files/13244.got.cif
#   From: 2010.05.17/outbox.cif.g08.bks.cpg/sg9_7_cif.got.tgz:13244.got - 2010.06.03 20:04:27.
