data_PCOD9140124
_publ_section_title
;
Structure prediction by ZEFSAII (Michael W. Deem and Ramdas Pophale) SiO2 
 PCOD9140124
Probable space group: C C
;
_chemical_formula_sum "Si O2"
_cell_formula_units_Z 32
_cell_length_a 12.969130
_cell_length_b 8.483836
_cell_length_c 16.004066
_cell_angle_alpha 90.000000
_cell_angle_beta 129.118414
_cell_angle_gamma 90.000000
_cell_volume 1366.179194
_symmetry_space_group_name_H-M "C C"
_symmetry_group_IT_number 9
_symmetry_cell_setting 'monoclinic'
loop_
_space_group_symop_operation_xyz
x,y,z
x,-y,1/2+z
1/2+x,1/2+y,z
1/2+x,1/2-y,1/2+z
loop_
_atom_site_type_symbol
_atom_site_label
_atom_site_fract_x
_atom_site_fract_y
_atom_site_fract_z
Si Si1 0.191220 0.528242 0.491620
Si Si2 0.687103 0.560992 0.247701
Si Si3 0.433793 0.899058 0.432270
Si Si4 0.761771 0.102109 0.847053
Si Si5 0.008619 0.075034 0.414351
Si Si6 0.985416 0.523173 0.641528
Si Si7 0.427447 0.364934 0.686227
Si Si8 0.243837 0.873204 0.584847
O O1 0.245343 0.468238 0.430826
O O2 0.280815 0.433168 0.603933
O O3 0.209720 0.710690 0.521975
O O4 0.038533 0.481488 0.424024
O O5 0.787039 0.420680 0.320198
O O6 0.732764 0.711869 0.326418
O O7 0.535207 0.526323 0.193228
O O8 0.701528 0.618352 0.159830
O O9 0.477864 0.718162 0.461032
O O10 0.446942 0.983611 0.527658
O O11 0.643378 0.019699 0.734252
O O12 0.905684 0.063390 0.884129
O O13 0.974008 0.140039 0.305333
O O14 0.157077 0.010217 0.496615
O O15 0.940828 0.696904 0.648267
O O16 0.899764 0.406215 0.655027
#
# Coordination Sequence:
#
# PCOD9140124 Si02
#       8
#     4   4   4   4   4   4   4   4
#     4  12  24  42  67  95 130 174 218 271 328 391
#     4  11  23  43  67  94 128 173 220 270 327 392
#     4  12  24  42  67  95 130 174 218 271 328 391
#     4  11  24  43  65  95 129 169 221 274 327 391
#     4  12  25  42  65  98 134 172 216 271 331 396
#     4  11  24  43  65  95 129 169 221 274 327 391
#     4  11  23  43  67  94 128 173 220 270 327 392
#     4  12  25  42  65  98 134 172 216 271 331 396
#
# _framework density 23.422989999999999
#
# number of rings (size 3 to 8) (size 9 to 14) (size 15 to 20)
#    0.000    0.500    0.000   10.500    0.000    3.000 
#    0.000    0.000    0.000    0.000    0.000    0.000 
#    0.000    0.000    0.000    0.000    0.000    0.000 
#
# Total GULP energy -89654.982521 kJ/mol
# GULP energy per Si atom -5603.436408 kJ/mol
# Density = 2.336968 g / cm^3
# Si number density = 23.422990 Si / 1000 Ang^3
#
#
#
# Elastic Constant Matrix: (Units=GPa)
#
#
# Indices 1 2 3 4 5 6 
#
# 1 69.9921 -19.9990 -2.4085 0.0000 -4.4241 0.0000
# 2 -19.9990 68.8756 11.4370 0.0000 -3.6199 0.0000
# 3 -2.4085 11.4370 92.2345 0.0000 -19.9300 0.0000
# 4 0.0000 0.0000 0.0000 15.2113 0.0000 11.9234
# 5 -4.4241 -3.6199 -19.9300 0.0000 43.0748 0.0000
# 6 0.0000 0.0000 0.0000 11.9234 0.0000 32.2081
#
#
#
# Elastic Compliance Matrix: (Units=1/GPa)
#
#
# Indices 1 2 3 4 5 6 
#
# 1 0.015759 0.004639 0.000300 0.000000 0.002147 0.000000
# 2 0.004639 0.016197 -0.001656 0.000000 0.001072 0.000000
# 3 0.000300 -0.001656 0.012257 0.000000 0.005563 0.000000
# 4 0.000000 0.000000 0.000000 0.092617 0.000000 -0.034287
# 5 0.002147 0.001072 0.005563 0.000000 0.026100 0.000000
# 6 0.000000 0.000000 0.000000 -0.034287 0.000000 0.043741
#
#
# Mechanical properties :
#
#
# Convention : Reuss Voigt Hill
#
# Bulk Modulus (GPa) = 19.69292 23.24014 21.46653
# Shear Modulus (GPa) = 23.03825 34.23702 28.63764
#
# Velocity S-wave (km/s) = 3.13960 3.82735 3.50041
# Velocity P-wave (km/s) = 4.64420 5.42908 5.05190
#
# Compressibility (1/GPa) = 0.05077968
#
# Stress axis : x y z
#
# Youngs Moduli (GPa) = 63.45649 61.73938 81.58529
#
# Poissons Ratio (x) = -0.28640 -0.02450
# Poissons Ratio (y) = -0.29436 0.13509
# Poissons Ratio (z) = -0.01906 0.10223
#
# Static dielectric constant tensor:
#      x y z
#    x 1.869020 0.000000 -0.010200 
#    y 0.000000 1.866130 0.000000 
#    z -0.010200 0.000000 1.885140 
# 
# From -- ./inp_files/24425.got.cif
#   From: 2010.05.17/outbox.cif.g08.bks.cpg/sg9_13_cif.got.tgz:24425.got - 2010.06.03 20:04:27.
