data_PCOD9140379
_publ_section_title
;
Structure prediction by ZEFSAII (Michael W. Deem and Ramdas Pophale) SiO2 
 PCOD9140379
Probable space group: C C
;
_chemical_formula_sum "Si O2"
_cell_formula_units_Z 32
_cell_length_a 19.565279
_cell_length_b 16.395734
_cell_length_c 13.845486
_cell_angle_alpha 90.000000
_cell_angle_beta 18.302712
_cell_angle_gamma 90.000000
_cell_volume 1394.782469
_symmetry_space_group_name_H-M "C C"
_symmetry_group_IT_number 9
_symmetry_cell_setting 'monoclinic'
loop_
_space_group_symop_operation_xyz
x,y,z
x,-y,1/2+z
1/2+x,1/2+y,z
1/2+x,1/2-y,1/2+z
loop_
_atom_site_type_symbol
_atom_site_label
_atom_site_fract_x
_atom_site_fract_y
_atom_site_fract_z
Si Si1 0.008690 0.628441 0.591810
Si Si2 0.869299 0.792275 0.739770
Si Si3 0.158345 0.588076 0.174775
Si Si4 0.385483 0.426212 0.881687
Si Si5 0.167536 0.347731 0.352551
Si Si6 0.256670 0.840768 0.087625
Si Si7 0.890626 0.795529 0.250454
Si Si8 0.783766 0.472773 0.912168
O O1 0.189748 0.673524 0.409678
O O2 0.098296 0.603498 0.366387
O O3 0.827814 0.698403 0.821093
O O4 0.931057 0.547808 0.750012
O O5 0.093600 0.799130 0.379795
O O6 0.883476 0.852946 0.809839
O O7 0.198193 0.492442 0.108343
O O8 0.967125 0.629217 0.366648
O O9 0.383485 0.632306 0.838630
O O10 0.333778 0.387699 0.055427
O O11 0.608328 0.478565 0.583945
O O12 0.269060 0.335641 0.322532
O O13 0.090241 0.254549 0.436086
O O14 0.956729 0.408403 0.635105
O O15 0.293682 0.775929 0.950884
O O16 0.171158 0.922344 0.149410
#
# Coordination Sequence:
#
# PCOD9140379 Si02
#       8
#     4   4   4   4   4   4   4   4
#     4  12  25  45  70 105 150 188 249 304 372 453
#     4  12  27  43  73 109 144 197 246 308 377 442
#     4  12  23  43  76 106 146 191 247 310 367 451
#     4  12  28  47  74 109 154 199 246 313 389 448
#     4  11  27  48  73 113 151 196 256 308 382 451
#     4  11  24  43  74 112 142 191 255 308 373 437
#     4  11  24  44  76 105 148 192 253 312 368 450
#     4  11  24  47  72 105 153 192 244 315 372 450
#
# _framework density 22.942647000000001
#
# number of rings (size 3 to 8) (size 9 to 14) (size 15 to 20)
#    0.000    0.500    5.000    3.750    5.250    2.000 
#    0.000    1.250    0.000    0.000    0.000    0.000 
#    0.000    0.000    0.000    0.000    0.000    0.000 
#
# Total GULP energy -89296.331175 kJ/mol
# GULP energy per Si atom -5581.020698 kJ/mol
# Density = 2.289043 g / cm^3
# Si number density = 22.942647 Si / 1000 Ang^3
#
#
#
# Elastic Constant Matrix: (Units=GPa)
#
#
# Indices 1 2 3 4 5 6 
#
# 1 98.8013 27.8682 16.6447 -0.0475 8.2292 0.0303
# 2 27.8682 123.0779 15.4723 -0.0080 26.0204 0.0072
# 3 16.6447 15.4723 36.1187 -0.1457 3.1764 0.0981
# 4 -0.0475 -0.0080 -0.1457 7.3216 0.0120 21.6348
# 5 8.2292 26.0204 3.1764 0.0120 24.0797 -0.0143
# 6 0.0303 0.0072 0.0981 21.6348 -0.0143 31.9095
#
#
#
# Elastic Compliance Matrix: (Units=1/GPa)
#
#
# Indices 1 2 3 4 5 6 
#
# 1 0.011477 -0.001733 -0.004417 0.000020 -0.001466 -0.000011
# 2 -0.001733 0.011263 -0.003043 0.000051 -0.011177 -0.000031
# 3 -0.004417 -0.003043 0.030958 -0.000846 0.000715 0.000483
# 4 0.000020 0.000051 -0.000846 -0.136087 0.000172 0.092270
# 5 -0.001466 -0.011177 0.000715 0.000172 0.054013 -0.000091
# 6 -0.000011 -0.000031 0.000483 0.092270 -0.000091 -0.031223
#
#
# Mechanical properties :
#
#
# Convention : Reuss Voigt Hill
#
# Bulk Modulus (GPa) = 28.31988 41.99648 35.15818
# Shear Modulus (GPa) = -169.82185 25.86300 -71.97942
#
# Velocity S-wave (km/s) = -8.61283 3.36116 -5.60729
# Velocity P-wave (km/s) = 9.30254 5.77995 5.15409
#
# Compressibility (1/GPa) = 0.03531088
#
# Stress axis : x y z
#
# Youngs Moduli (GPa) = 87.13439 88.78727 32.30188
#
# Poissons Ratio (x) = 0.15389 0.14268
# Poissons Ratio (y) = 0.15103 0.09829
# Poissons Ratio (z) = 0.38489 0.27016
#
# Static dielectric constant tensor:
#      x y z
#    x 1.857530 0.000030 -0.062310 
#    y 0.000030 1.876280 0.000060 
#    z -0.062310 0.000060 1.946430 
# 
# From -- ./inp_files/27471.got.cif
#   From: 2010.05.17/outbox.cif.g08.bks.cpg/sg9_14_cif.got.tgz:27471.got - 2010.06.03 20:04:27.
