data_PCOD9140986
_publ_section_title
;
Structure prediction by ZEFSAII (Michael W. Deem and Ramdas Pophale) SiO2 
 PCOD9140986
Probable space group: C C
;
_chemical_formula_sum "Si O2"
_cell_formula_units_Z 20
_cell_length_a 7.135805
_cell_length_b 17.673195
_cell_length_c 6.562611
_cell_angle_alpha 90.000000
_cell_angle_beta 98.807977
_cell_angle_gamma 90.000000
_cell_volume 817.866958
_symmetry_space_group_name_H-M "C C"
_symmetry_group_IT_number 9
_symmetry_cell_setting 'monoclinic'
loop_
_space_group_symop_operation_xyz
x,y,z
x,-y,1/2+z
1/2+x,1/2+y,z
1/2+x,1/2-y,1/2+z
loop_
_atom_site_type_symbol
_atom_site_label
_atom_site_fract_x
_atom_site_fract_y
_atom_site_fract_z
Si Si1 0.988290 0.473555 0.523760
Si Si2 0.825460 0.071908 0.611824
Si Si3 0.482642 0.833070 0.255864
Si Si4 0.107010 0.833174 0.901732
Si Si5 0.198748 0.982274 0.741795
O O1 0.952649 0.386518 0.448162
O O2 0.950927 0.517124 0.276736
O O3 0.210168 0.494811 0.549846
O O4 0.153880 0.378089 0.174889
O O5 0.920086 0.129603 0.469082
O O6 0.015836 0.037526 0.738813
O O7 0.290770 0.830832 0.085766
O O8 0.554650 0.750181 0.320952
O O9 0.254405 0.994119 0.005099
O O10 0.151213 0.893136 0.731620
#
# Coordination Sequence:
#
# PCOD9140986 Si02
#       5
#     4   4   4   4   4
#     4  12  24  46  74 105 138 183 245 288 343 425
#     4  12  24  46  76  98 140 186 240 284 352 406
#     4  12  29  47  69 108 145 186 233 292 356 418
#     4  12  29  47  69 108 145 186 233 292 356 418
#     4  12  24  46  74 105 138 183 245 288 343 425
#
# _framework density 24.453855999999998
#
# number of rings (size 3 to 8) (size 9 to 14) (size 15 to 20)
#    0.000    0.000    8.000    1.200    5.600    1.600 
#    0.000    0.000    0.000    0.000    0.000    0.000 
#    0.000    0.000    0.000    0.000    0.000    0.000 
#
# Total GULP energy -55707.524297 kJ/mol
# GULP energy per Si atom -5570.752430 kJ/mol
# Density = 2.439820 g / cm^3
# Si number density = 24.453856 Si / 1000 Ang^3
#
#
#
# Elastic Constant Matrix: (Units=GPa)
#
#
# Indices 1 2 3 4 5 6 
#
# 1 208.4474 33.5805 63.6171 0.0000 -13.8550 0.0000
# 2 33.5805 198.5845 25.0489 0.0000 -6.8165 0.0000
# 3 63.6171 25.0489 122.3247 0.0000 -7.9103 0.0000
# 4 0.0000 0.0000 0.0000 45.3500 0.0000 11.3373
# 5 -13.8550 -6.8165 -7.9103 0.0000 35.8800 0.0000
# 6 0.0000 0.0000 0.0000 11.3373 0.0000 43.3546
#
#
#
# Elastic Compliance Matrix: (Units=1/GPa)
#
#
# Indices 1 2 3 4 5 6 
#
# 1 0.005855 -0.000581 -0.002827 0.000000 0.001527 0.000000
# 2 -0.000581 0.005247 -0.000733 0.000000 0.000611 0.000000
# 3 -0.002827 -0.000733 0.009856 0.000000 0.000942 0.000000
# 4 0.000000 0.000000 0.000000 0.023593 0.000000 -0.006170
# 5 0.001527 0.000611 0.000942 0.000000 0.028784 0.000000
# 6 0.000000 0.000000 0.000000 -0.006170 0.000000 0.024679
#
#
# Mechanical properties :
#
#
# Convention : Reuss Voigt Hill
#
# Bulk Modulus (GPa) = 78.88640 85.98328 82.43484
# Shear Modulus (GPa) = 45.23921 52.05759 48.64840
#
# Velocity S-wave (km/s) = 4.30581 4.61891 4.46510
# Velocity P-wave (km/s) = 7.55310 7.98020 7.76958
#
# Compressibility (1/GPa) = 0.01267646
#
# Stress axis : x y z
#
# Youngs Moduli (GPa) = 170.78165 190.57403 101.45677
#
# Poissons Ratio (x) = 0.11074 0.28687
# Poissons Ratio (y) = 0.09924 0.07435
# Poissons Ratio (z) = 0.48288 0.13965
#
# Static dielectric constant tensor:
#      x y z
#    x 1.947630 0.000000 -0.084300 
#    y 0.000000 1.862760 0.000000 
#    z -0.084300 0.000000 2.103460 
# 
# From -- ./inp_files/4829.got.cif
#   From: 2010.05.17/outbox.cif.g08.bks.cpg/sg9_3_cif.got.tgz:4829.got - 2010.06.03 20:04:27.
