data_PCOD9140799
_publ_section_title
;
Structure prediction by ZEFSAII (Michael W. Deem and Ramdas Pophale) SiO2 
 PCOD9140799
Probable space group: C C
;
_chemical_formula_sum "Si O2"
_cell_formula_units_Z 32
_cell_length_a 11.372387
_cell_length_b 14.965994
_cell_length_c 8.086565
_cell_angle_alpha 90.000000
_cell_angle_beta 87.216347
_cell_angle_gamma 90.000000
_cell_volume 1374.701870
_symmetry_space_group_name_H-M "C C"
_symmetry_group_IT_number 9
_symmetry_cell_setting 'monoclinic'
loop_
_space_group_symop_operation_xyz
x,y,z
x,-y,1/2+z
1/2+x,1/2+y,z
1/2+x,1/2-y,1/2+z
loop_
_atom_site_type_symbol
_atom_site_label
_atom_site_fract_x
_atom_site_fract_y
_atom_site_fract_z
Si Si1 0.396650 0.784751 0.154570
Si Si2 0.341277 0.400173 0.528255
Si Si3 0.382968 0.290363 0.012083
Si Si4 0.118952 0.361508 0.009255
Si Si5 0.746712 0.555206 0.797249
Si Si6 0.353043 0.106171 0.131060
Si Si7 0.597757 0.968244 0.670321
Si Si8 0.478981 0.449078 0.195816
O O1 0.327347 0.701927 0.081731
O O2 0.426166 0.755347 0.340257
O O3 0.513752 0.792358 0.036949
O O4 0.320670 0.875484 0.177259
O O5 0.215858 0.444389 0.565731
O O6 0.389444 0.415979 0.342812
O O7 0.434139 0.454657 0.636856
O O8 0.249293 0.323180 0.994252
O O9 0.374176 0.211488 0.148859
O O10 0.461502 0.375008 0.054510
O O11 0.099837 0.425021 0.169693
O O12 0.099601 0.419873 0.846235
O O13 0.800423 0.455769 0.778090
O O14 0.611205 0.551964 0.753771
O O15 0.767165 0.590642 0.980935
O O16 0.480671 0.064355 0.087026
#
# Coordination Sequence:
#
# PCOD9140799 Si02
#       8
#     4   4   4   4   4   4   4   4
#     4  11  27  46  71 105 151 190 243 305 371 432
#     4  12  26  45  74 106 144 199 240 305 375 438
#     4  11  27  47  69 114 144 191 246 304 368 449
#     4  12  26  48  76 108 151 191 251 313 366 440
#     4  11  26  48  67 106 145 191 240 300 362 451
#     4  11  26  45  73 100 145 192 240 302 367 433
#     4  12  25  48  77 106 147 192 252 313 365 439
#     4  12  27  47  73 105 151 196 240 302 374 444
#
# _framework density 23.277773
#
# number of rings (size 3 to 8) (size 9 to 14) (size 15 to 20)
#    0.000    0.500    3.750    3.000   10.500    0.000 
#    0.000    0.000    0.000    0.000    0.000    0.000 
#    0.000    0.000    0.000    0.000    0.000    0.000 
#
# Total GULP energy -89585.062413 kJ/mol
# GULP energy per Si atom -5599.066401 kJ/mol
# Density = 2.322479 g / cm^3
# Si number density = 23.277773 Si / 1000 Ang^3
#
#
#
# Elastic Constant Matrix: (Units=GPa)
#
#
# Indices 1 2 3 4 5 6 
#
# 1 131.4066 -5.5153 8.1321 0.0000 9.2197 0.0000
# 2 -5.5153 71.8751 3.8426 0.0000 0.6345 0.0000
# 3 8.1321 3.8426 67.5211 0.0000 -5.3871 0.0000
# 4 0.0000 0.0000 0.0000 33.9855 0.0000 -4.6911
# 5 9.2197 0.6345 -5.3871 0.0000 21.0249 0.0000
# 6 0.0000 0.0000 0.0000 -4.6911 0.0000 21.9339
#
#
#
# Elastic Compliance Matrix: (Units=1/GPa)
#
#
# Indices 1 2 3 4 5 6 
#
# 1 0.007992 0.000717 -0.001312 0.000000 -0.003862 0.000000
# 2 0.000717 0.014028 -0.000963 0.000000 -0.000985 0.000000
# 3 -0.001312 -0.000963 0.015386 0.000000 0.004546 0.000000
# 4 0.000000 0.000000 0.000000 0.030319 0.000000 0.006485
# 5 -0.003862 -0.000985 0.004546 0.000000 0.050451 0.000000
# 6 0.000000 0.000000 0.000000 0.006485 0.000000 0.046978
#
#
# Mechanical properties :
#
#
# Convention : Reuss Voigt Hill
#
# Bulk Modulus (GPa) = 29.16180 31.52462 30.34321
# Shear Modulus (GPa) = 27.82410 33.01174 30.41792
#
# Velocity S-wave (km/s) = 3.46107 3.76994 3.61880
# Velocity P-wave (km/s) = 5.34106 5.70282 5.52490
#
# Compressibility (1/GPa) = 0.03429144
#
# Stress axis : x y z
#
# Youngs Moduli (GPa) = 125.12140 71.28461 64.99536
#
# Poissons Ratio (x) = -0.05115 0.08525
# Poissons Ratio (y) = -0.08977 0.06261
# Poissons Ratio (z) = 0.16410 0.06867
#
# Static dielectric constant tensor:
#      x y z
#    x 1.808870 0.000000 0.010520 
#    y 0.000000 1.872090 0.000000 
#    z 0.010520 0.000000 1.916760 
# 
# From -- ./inp_files/7460.got.cif
#   From: 2010.05.17/outbox.cif.g08.bks.cpg/sg9_4_cif.got.tgz:7460.got - 2010.06.03 20:04:27.
