data_PCOD9140702
_publ_section_title
;
Structure prediction by ZEFSAII (Michael W. Deem and Ramdas Pophale) SiO2 
 PCOD9140702
Probable space group: C C
;
_chemical_formula_sum "Si O2"
_cell_formula_units_Z 28
_cell_length_a 25.909852
_cell_length_b 8.514136
_cell_length_c 12.179196
_cell_angle_alpha 90.000000
_cell_angle_beta 26.480745
_cell_angle_gamma 90.000000
_cell_volume 1198.005241
_symmetry_space_group_name_H-M "C C"
_symmetry_group_IT_number 9
_symmetry_cell_setting 'monoclinic'
loop_
_space_group_symop_operation_xyz
x,y,z
x,-y,1/2+z
1/2+x,1/2+y,z
1/2+x,1/2-y,1/2+z
loop_
_atom_site_type_symbol
_atom_site_label
_atom_site_fract_x
_atom_site_fract_y
_atom_site_fract_z
Si Si1 0.635350 0.000593 0.613630
Si Si2 0.935225 0.671608 0.881765
Si Si3 0.513235 0.547709 0.392436
Si Si4 0.335854 0.721685 0.179195
Si Si5 0.956732 0.231061 0.723654
Si Si6 0.949134 0.561928 0.630029
Si Si7 0.181441 0.832084 0.948899
O O1 0.526261 0.035359 0.741613
O O2 0.713924 0.152344 0.448753
O O3 0.701123 0.839326 0.465145
O O4 0.577283 0.973400 0.841328
O O5 0.946624 0.690405 0.730243
O O6 0.975226 0.822106 0.875082
O O7 0.802106 0.629945 0.160612
O O8 0.428196 0.401878 0.547904
O O9 0.488662 0.623129 0.557859
O O10 0.633603 0.465789 0.123171
O O11 0.371108 0.877168 0.178677
O O12 0.357388 0.710568 0.006899
O O13 0.918159 0.395555 0.742050
O O14 0.075327 0.207565 0.568161
#
# Coordination Sequence:
#
# PCOD9140702 Si02
#       7
#     4   4   4   4   4   4   4
#     4  12  25  50  75 107 153 198 250 313 380 452
#     4  12  27  45  74 112 150 196 257 308 378 451
#     4  11  25  47  75 110 154 195 254 319 378 449
#     4  11  27  47  80 111 153 200 253 318 383 449
#     4  11  25  51  75 111 155 199 260 309 384 455
#     4  12  25  46  79 110 150 205 253 311 383 453
#     4  11  26  50  72 111 155 197 251 312 378 455
#
# _framework density 23.372184000000001
#
# number of rings (size 3 to 8) (size 9 to 14) (size 15 to 20)
#    0.000    0.571    7.143    0.000    6.000    4.571 
#    0.000    0.000    0.000    0.000    0.000    0.000 
#    0.000    0.000    0.000    0.000    0.000    0.000 
#
# Total GULP energy -78136.084492 kJ/mol
# GULP energy per Si atom -5581.148892 kJ/mol
# Density = 2.331899 g / cm^3
# Si number density = 23.372184 Si / 1000 Ang^3
#
#
#
# Elastic Constant Matrix: (Units=GPa)
#
#
# Indices 1 2 3 4 5 6 
#
# 1 61.9786 57.3659 62.4275 0.0000 24.5349 0.0000
# 2 57.3659 105.0345 49.0959 0.0000 19.3782 0.0000
# 3 62.4275 49.0959 177.7058 0.0000 7.9954 0.0000
# 4 0.0000 0.0000 0.0000 47.6547 0.0000 0.7872
# 5 24.5349 19.3782 7.9954 0.0000 41.6389 0.0000
# 6 0.0000 0.0000 0.0000 0.7872 0.0000 12.2370
#
#
#
# Elastic Compliance Matrix: (Units=1/GPa)
#
#
# Indices 1 2 3 4 5 6 
#
# 1 0.058286 -0.021483 -0.013562 0.000000 -0.021742 0.000000
# 2 -0.021483 0.019777 0.001945 0.000000 0.003081 0.000000
# 3 -0.013562 0.001945 0.009619 0.000000 0.005239 0.000000
# 4 0.000000 0.000000 0.000000 0.021007 0.000000 -0.001351
# 5 -0.021742 0.003081 0.005239 0.000000 0.034387 0.000000
# 6 0.000000 0.000000 0.000000 -0.001351 0.000000 0.081806
#
#
# Mechanical properties :
#
#
# Convention : Reuss Voigt Hill
#
# Bulk Modulus (GPa) = 46.55569 75.83307 61.19438
# Shear Modulus (GPa) = 16.76490 32.02810 24.39650
#
# Velocity S-wave (km/s) = 2.68115 3.70584 3.23434
# Velocity P-wave (km/s) = 5.43574 7.12933 6.33935
#
# Compressibility (1/GPa) = 0.02147965
#
# Stress axis : x y z
#
# Youngs Moduli (GPa) = 17.15679 50.56496 103.96435
#
# Poissons Ratio (x) = 1.08629 1.40999
# Poissons Ratio (y) = 0.36858 -0.20216
# Poissons Ratio (z) = 0.23268 -0.09832
#
# Static dielectric constant tensor:
#      x y z
#    x 1.898050 0.000000 0.015750 
#    y 0.000000 1.989010 0.000000 
#    z 0.015750 0.000000 1.957030 
# 
# From -- ./inp_files/21147.got.cif
#   From: 2010.05.17/outbox.cif.g08.bks.cpg/sg9_11_cif.got.tgz:21147.got - 2010.06.03 20:04:27.
