data_PCOD9140996
_publ_section_title
;
Structure prediction by ZEFSAII (Michael W. Deem and Ramdas Pophale) SiO2 
 PCOD9140996
Probable space group: C C
;
_chemical_formula_sum "Si O2"
_cell_formula_units_Z 24
_cell_length_a 4.669393
_cell_length_b 23.282306
_cell_length_c 8.963873
_cell_angle_alpha 90.000000
_cell_angle_beta 104.331626
_cell_angle_gamma 90.000000
_cell_volume 944.173417
_symmetry_space_group_name_H-M "C C"
_symmetry_group_IT_number 9
_symmetry_cell_setting 'monoclinic'
loop_
_space_group_symop_operation_xyz
x,y,z
x,-y,1/2+z
1/2+x,1/2+y,z
1/2+x,1/2-y,1/2+z
loop_
_atom_site_type_symbol
_atom_site_label
_atom_site_fract_x
_atom_site_fract_y
_atom_site_fract_z
Si Si1 0.498360 0.716009 0.561660
Si Si2 0.541703 0.280936 0.706865
Si Si3 0.232384 0.604992 0.682920
Si Si4 0.842373 0.564893 0.368356
Si Si5 0.218298 0.394571 0.687983
Si Si6 0.860905 0.564326 0.866682
O O1 0.556599 0.713760 0.390138
O O2 0.299699 0.765031 0.621428
O O3 0.362521 0.657159 0.605353
O O4 0.821522 0.727801 0.663092
O O5 0.367986 0.338669 0.636680
O O6 0.514269 0.572954 0.792500
O O7 0.001388 0.571338 0.547022
O O8 0.026381 0.614099 0.798034
O O9 0.491952 0.572230 0.302386
O O10 0.922814 0.501025 0.324886
O O11 0.987849 0.616250 0.291315
O O12 0.010201 0.428893 0.547251
#
# Coordination Sequence:
#
# PCOD9140996 Si02
#       6
#     4   4   4   4   4   4
#     4  12  28  49  77 109 149 198 251 312 378 446
#     4  12  28  49  78 109 149 198 251 313 377 446
#     4  12  27  47  73 107 151 190 248 309 372 442
#     4  12  24  48  74 105 147 197 245 304 374 442
#     4  12  27  47  73 107 151 189 249 309 371 442
#     4  12  26  44  75 111 145 194 246 305 368 454
#
# _framework density 25.419056999999999
#
# number of rings (size 3 to 8) (size 9 to 14) (size 15 to 20)
#    0.000    0.000    1.667    8.000    9.333    0.000 
#    0.000    0.000    0.000    0.000    0.000    0.000 
#    0.000    0.000    0.000    0.000    0.000    0.000 
#
# Total GULP energy -66977.647831 kJ/mol
# GULP energy per Si atom -5581.470653 kJ/mol
# Density = 2.536120 g / cm^3
# Si number density = 25.419057 Si / 1000 Ang^3
#
#
#
# Elastic Constant Matrix: (Units=GPa)
#
#
# Indices 1 2 3 4 5 6 
#
# 1 137.3842 3.1279 46.1816 0.0000 22.7771 0.0000
# 2 3.1279 77.5724 36.5787 0.0000 20.1205 0.0000
# 3 46.1816 36.5787 144.1549 0.0000 28.2858 0.0000
# 4 0.0000 0.0000 0.0000 24.9596 0.0000 -14.3236
# 5 22.7771 20.1205 28.2858 0.0000 53.0671 0.0000
# 6 0.0000 0.0000 0.0000 -14.3236 0.0000 24.9875
#
#
#
# Elastic Compliance Matrix: (Units=1/GPa)
#
#
# Indices 1 2 3 4 5 6 
#
# 1 0.008600 0.001637 -0.002596 0.000000 -0.002928 0.000000
# 2 0.001637 0.015752 -0.003587 0.000000 -0.004763 0.000000
# 3 -0.002596 -0.003587 0.009150 0.000000 -0.002403 0.000000
# 4 0.000000 0.000000 0.000000 0.059706 0.000000 0.034225
# 5 -0.002928 -0.004763 -0.002403 0.000000 0.023188 0.000000
# 6 0.000000 0.000000 0.000000 0.034225 0.000000 0.059639
#
#
# Mechanical properties :
#
#
# Convention : Reuss Voigt Hill
#
# Bulk Modulus (GPa) = 40.96638 58.98753 49.97695
# Shear Modulus (GPa) = 25.87159 38.81773 32.34466
#
# Velocity S-wave (km/s) = 3.19376 3.91207 3.57102
# Velocity P-wave (km/s) = 5.45450 6.60773 6.05862
#
# Compressibility (1/GPa) = 0.02441026
#
# Stress axis : x y z
#
# Youngs Moduli (GPa) = 116.28446 63.48427 109.28691
#
# Poissons Ratio (x) = -0.10391 0.28368
# Poissons Ratio (y) = -0.19033 0.39198
# Poissons Ratio (z) = 0.30185 0.22770
#
# Static dielectric constant tensor:
#      x y z
#    x 2.015140 0.000000 0.035480 
#    y 0.000000 2.005010 0.000000 
#    z 0.035480 0.000000 2.141080 
# 
# From -- ./inp_files/4030.got.cif
#   From: 2010.05.17/outbox.cif.g08.bks.cpg/sg9_3_cif.got.tgz:4030.got - 2010.06.03 20:04:27.
