data_PCOD9140234
_publ_section_title
;
Structure prediction by ZEFSAII (Michael W. Deem and Ramdas Pophale) SiO2 
 PCOD9140234
Probable space group: C C
;
_chemical_formula_sum "Si O2"
_cell_formula_units_Z 32
_cell_length_a 7.963909
_cell_length_b 13.199645
_cell_length_c 13.840279
_cell_angle_alpha 90.000000
_cell_angle_beta 66.594031
_cell_angle_gamma 90.000000
_cell_volume 1335.181743
_symmetry_space_group_name_H-M "C C"
_symmetry_group_IT_number 9
_symmetry_cell_setting 'monoclinic'
loop_
_space_group_symop_operation_xyz
x,y,z
x,-y,1/2+z
1/2+x,1/2+y,z
1/2+x,1/2-y,1/2+z
loop_
_atom_site_type_symbol
_atom_site_label
_atom_site_fract_x
_atom_site_fract_y
_atom_site_fract_z
Si Si1 0.143040 0.939788 0.221790
Si Si2 0.988535 0.842960 0.082530
Si Si3 0.830178 0.941013 0.577643
Si Si4 0.221937 0.453840 0.386589
Si Si5 0.028901 0.753363 0.880460
Si Si6 0.063947 0.368030 0.799753
Si Si7 0.155369 0.825058 0.400901
Si Si8 0.779342 0.353451 0.696167
O O1 0.234875 0.897156 0.297881
O O2 0.125165 0.859195 0.140146
O O3 0.935184 0.964182 0.306074
O O4 0.242960 0.038505 0.157759
O O5 0.885397 0.737131 0.121413
O O6 0.869376 0.945473 0.106598
O O7 0.069158 0.829740 0.958354
O O8 0.714883 0.951686 0.504654
O O9 0.728857 0.878856 0.684052
O O10 0.014505 0.885341 0.500180
O O11 0.150865 0.346127 0.365125
O O12 0.100959 0.541488 0.366582
O O13 0.083303 0.808157 0.769702
O O14 0.818440 0.722950 0.923945
O O15 0.059527 0.264360 0.861396
O O16 0.889594 0.374495 0.770045
#
# Coordination Sequence:
#
# PCOD9140234 Si02
#       8
#     4   4   4   4   4   4   4   4
#     4  11  23  47  70 103 149 191 244 314 372 452
#     4  12  25  46  73 105 148 199 251 314 382 458
#     4  11  25  47  73 107 149 199 252 318 386 464
#     4  11  23  46  70 104 151 190 248 311 367 464
#     4  12  25  44  72 108 148 197 247 312 381 455
#     4  12  23  47  74 107 152 200 248 320 384 460
#     4  11  25  45  74 111 150 197 255 311 392 462
#     4  12  25  46  74 105 149 195 249 310 386 447
#
# _framework density 23.966774000000001
#
# number of rings (size 3 to 8) (size 9 to 14) (size 15 to 20)
#    0.000    0.500    3.750    5.250    1.750    0.000 
#    2.250    0.000    0.000    0.000    0.000    0.000 
#    0.000    0.000    0.000    0.000    0.000    0.000 
#
# Total GULP energy -89587.270676 kJ/mol
# GULP energy per Si atom -5599.204417 kJ/mol
# Density = 2.391222 g / cm^3
# Si number density = 23.966774 Si / 1000 Ang^3
#
#
#
# Elastic Constant Matrix: (Units=GPa)
#
#
# Indices 1 2 3 4 5 6 
#
# 1 73.0266 12.1369 18.0966 0.0000 9.3362 0.0000
# 2 12.1369 96.3609 3.5624 0.0000 0.4799 0.0000
# 3 18.0966 3.5624 71.3402 0.0000 13.0120 0.0000
# 4 0.0000 0.0000 0.0000 40.3189 0.0000 4.2359
# 5 9.3362 0.4799 13.0120 0.0000 30.8482 0.0000
# 6 0.0000 0.0000 0.0000 4.2359 0.0000 50.6305
#
#
#
# Elastic Compliance Matrix: (Units=1/GPa)
#
#
# Indices 1 2 3 4 5 6 
#
# 1 0.015189 -0.001780 -0.003175 0.000000 -0.003230 0.000000
# 2 -0.001780 0.010605 -0.000158 0.000000 0.000440 0.000000
# 3 -0.003175 -0.000158 0.015876 0.000000 -0.005733 0.000000
# 4 0.000000 0.000000 0.000000 0.025022 0.000000 -0.002093
# 5 -0.003230 0.000440 -0.005733 0.000000 0.035806 0.000000
# 6 0.000000 0.000000 0.000000 -0.002093 0.000000 0.019926
#
#
# Mechanical properties :
#
#
# Convention : Reuss Voigt Hill
#
# Bulk Modulus (GPa) = 31.80177 34.25772 33.02974
# Shear Modulus (GPa) = 34.93255 38.15497 36.54376
#
# Velocity S-wave (km/s) = 3.82192 3.99431 3.90906
# Velocity P-wave (km/s) = 5.72486 5.96637 5.84686
#
# Compressibility (1/GPa) = 0.03144479
#
# Stress axis : x y z
#
# Youngs Moduli (GPa) = 65.83649 94.29092 62.98670
#
# Poissons Ratio (x) = 0.16781 0.19998
# Poissons Ratio (y) = 0.11717 0.00998
# Poissons Ratio (z) = 0.20903 0.01494
#
# Static dielectric constant tensor:
#      x y z
#    x 1.907000 0.000000 -0.005470 
#    y 0.000000 1.910680 0.000000 
#    z -0.005470 0.000000 1.912850 
# 
# From -- ./inp_files/22848.got.cif
#   From: 2010.05.17/outbox.cif.g08.bks.cpg/sg9_12_cif.got.tgz:22848.got - 2010.06.03 20:04:27.
