data_PCOD9140672
_publ_section_title
;
Structure prediction by ZEFSAII (Michael W. Deem and Ramdas Pophale) SiO2 
 PCOD9140672
Probable space group: C C
;
_chemical_formula_sum "Si O2"
_cell_formula_units_Z 28
_cell_length_a 14.201062
_cell_length_b 14.658271
_cell_length_c 7.755224
_cell_angle_alpha 90.000000
_cell_angle_beta 45.010301
_cell_angle_gamma 90.000000
_cell_volume 1141.723617
_symmetry_space_group_name_H-M "C C"
_symmetry_group_IT_number 9
_symmetry_cell_setting 'monoclinic'
loop_
_space_group_symop_operation_xyz
x,y,z
x,-y,1/2+z
1/2+x,1/2+y,z
1/2+x,1/2-y,1/2+z
loop_
_atom_site_type_symbol
_atom_site_label
_atom_site_fract_x
_atom_site_fract_y
_atom_site_fract_z
Si Si1 0.285640 0.116356 0.134080
Si Si2 0.288870 0.793346 0.280271
Si Si3 0.539392 0.873208 0.808633
Si Si4 0.531008 0.509495 0.367167
Si Si5 0.635811 0.681697 0.639166
Si Si6 0.365807 0.606580 0.323253
Si Si7 0.081824 0.565189 0.631894
O O1 0.258971 0.162865 0.351705
O O2 0.177306 0.034503 0.252599
O O3 0.245279 0.181071 0.027517
O O4 0.440337 0.095485 0.896236
O O5 0.175702 0.797178 0.284671
O O6 0.367974 0.699034 0.208487
O O7 0.389194 0.868098 0.072922
O O8 0.568290 0.777324 0.679394
O O9 0.569652 0.956500 0.645606
O O10 0.608434 0.895627 0.904979
O O11 0.555448 0.413037 0.236859
O O12 0.469951 0.595305 0.343713
O O13 0.415150 0.478962 0.646538
O O14 0.211895 0.593607 0.570358
#
# Coordination Sequence:
#
# PCOD9140672 Si02
#       7
#     4   4   4   4   4   4   4
#     4  11  28  48  80 113 150 211 270 317 392 487
#     4  11  26  49  75 113 158 198 264 333 388 468
#     4  11  25  46  73 106 156 200 259 325 401 471
#     4  12  25  48  79 114 157 211 265 327 397 482
#     4  12  25  50  79 112 152 212 266 320 395 489
#     4  12  25  48  76 113 164 201 256 337 405 457
#     4  11  26  47  72 115 153 207 254 335 400 466
#
# _framework density 24.524324
#
# number of rings (size 3 to 8) (size 9 to 14) (size 15 to 20)
#    0.000    0.571    4.286    2.571    6.000    2.286 
#    2.571    0.000    0.000    0.000    0.000    0.000 
#    0.000    0.000    0.000    0.000    0.000    0.000 
#
# Total GULP energy -78146.289354 kJ/mol
# GULP energy per Si atom -5581.877811 kJ/mol
# Density = 2.446851 g / cm^3
# Si number density = 24.524324 Si / 1000 Ang^3
#
#
#
# Elastic Constant Matrix: (Units=GPa)
#
#
# Indices 1 2 3 4 5 6 
#
# 1 87.4683 34.2887 46.7461 0.0000 -16.1353 0.0000
# 2 34.2887 117.6894 40.6820 0.0000 -1.6636 0.0000
# 3 46.7461 40.6820 115.6966 0.0000 -11.1193 0.0000
# 4 0.0000 0.0000 0.0000 34.7280 0.0000 1.4837
# 5 -16.1353 -1.6636 -11.1193 0.0000 37.9673 0.0000
# 6 0.0000 0.0000 0.0000 1.4837 0.0000 34.6029
#
#
#
# Elastic Compliance Matrix: (Units=1/GPa)
#
#
# Indices 1 2 3 4 5 6 
#
# 1 0.016241 -0.002920 -0.005026 0.000000 0.005302 0.000000
# 2 -0.002920 0.010210 -0.002559 0.000000 -0.001543 0.000000
# 3 -0.005026 -0.002559 0.011687 0.000000 0.001175 0.000000
# 4 0.000000 0.000000 0.000000 0.028848 0.000000 -0.001237
# 5 0.005302 -0.001543 0.001175 0.000000 0.028868 0.000000
# 6 0.000000 0.000000 0.000000 -0.001237 0.000000 0.028952
#
#
# Mechanical properties :
#
#
# Convention : Reuss Voigt Hill
#
# Bulk Modulus (GPa) = 58.37890 62.69864 60.53877
# Shear Modulus (GPa) = 32.99771 34.73548 33.86660
#
# Velocity S-wave (km/s) = 3.67210 3.76755 3.72013
# Velocity P-wave (km/s) = 6.46802 6.67438 6.57201
#
# Compressibility (1/GPa) = 0.01712948
#
# Stress axis : x y z
#
# Youngs Moduli (GPa) = 61.57093 97.94052 85.56787
#
# Poissons Ratio (x) = 0.28595 0.43006
# Poissons Ratio (y) = 0.17976 0.21895
# Poissons Ratio (z) = 0.30945 0.25061
#
# Static dielectric constant tensor:
#      x y z
#    x 2.065550 0.000000 0.008980 
#    y 0.000000 1.964780 0.000000 
#    z 0.008980 0.000000 1.989310 
# 
# From -- ./inp_files/9637.got.cif
#   From: 2010.05.17/outbox.cif.g08.bks.cpg/sg9_5_cif.got.tgz:9637.got - 2010.06.03 20:04:27.
