data_PCOD9140194
_publ_section_title
;
Structure prediction by ZEFSAII (Michael W. Deem and Ramdas Pophale) SiO2 
 PCOD9140194
Probable space group: C C
;
_chemical_formula_sum "Si O2"
_cell_formula_units_Z 32
_cell_length_a 9.568719
_cell_length_b 9.924547
_cell_length_c 24.422111
_cell_angle_alpha 90.000000
_cell_angle_beta 141.862338
_cell_angle_gamma 90.000000
_cell_volume 1432.260256
_symmetry_space_group_name_H-M "C C"
_symmetry_group_IT_number 9
_symmetry_cell_setting 'monoclinic'
loop_
_space_group_symop_operation_xyz
x,y,z
x,-y,1/2+z
1/2+x,1/2+y,z
1/2+x,1/2-y,1/2+z
loop_
_atom_site_type_symbol
_atom_site_label
_atom_site_fract_x
_atom_site_fract_y
_atom_site_fract_z
Si Si1 0.532710 0.666096 0.910070
Si Si2 0.526239 0.092619 0.329628
Si Si3 0.861298 0.938310 0.773638
Si Si4 0.332396 0.031871 0.087808
Si Si5 0.695141 0.201110 0.901684
Si Si6 0.871891 0.759115 0.578725
Si Si7 0.840344 0.732695 0.174206
Si Si8 0.511845 0.492109 0.697470
O O1 0.601290 0.790247 0.893347
O O2 0.409188 0.554831 0.833474
O O3 0.378449 0.732059 0.910595
O O4 0.738713 0.588137 0.002144
O O5 0.524770 0.160873 0.269360
O O6 0.267697 0.044988 0.260910
O O7 0.660939 0.956604 0.379169
O O8 0.595884 0.934902 0.678106
O O9 0.976322 0.796515 0.825762
O O10 0.221757 0.117993 0.101768
O O11 0.274591 0.875675 0.075674
O O12 0.480760 0.473250 0.752740
O O13 0.765051 0.221240 0.986183
O O14 0.136203 0.718630 0.650026
O O15 0.864934 0.888201 0.615864
O O16 0.935454 0.853311 0.166809
#
# Coordination Sequence:
#
# PCOD9140194 Si02
#       8
#     4   4   4   4   4   4   4   4
#     4  12  25  48  71 100 144 183 229 297 348 404
#     4  11  25  43  70 102 135 184 233 279 349 415
#     4  12  24  47  73 101 139 187 231 288 355 410
#     4  12  25  45  72 102 140 186 232 288 350 416
#     4  12  26  46  70 101 142 181 233 295 345 417
#     4  11  25  45  67 101 139 182 229 284 348 411
#     4  11  23  45  69  99 139 180 229 287 341 412
#     4  11  23  45  72  98 140 183 228 284 346 415
#
# _framework density 22.342309
#
# number of rings (size 3 to 8) (size 9 to 14) (size 15 to 20)
#    0.000    0.500    6.250    2.250    3.500    0.000 
#    4.500    0.000    0.000    0.000    0.000    0.000 
#    0.000    0.000    0.000    0.000    0.000    0.000 
#
# Total GULP energy -89423.494488 kJ/mol
# GULP energy per Si atom -5588.968405 kJ/mol
# Density = 2.229146 g / cm^3
# Si number density = 22.342309 Si / 1000 Ang^3
#
#
#
# Elastic Constant Matrix: (Units=GPa)
#
#
# Indices 1 2 3 4 5 6 
#
# 1 42.0546 9.7770 13.8890 0.0000 -14.1818 0.0000
# 2 9.7770 143.8956 45.0176 0.0000 -23.9755 0.0000
# 3 13.8890 45.0176 130.0125 0.0000 -17.0927 0.0000
# 4 0.0000 0.0000 0.0000 35.0699 0.0000 -10.1000
# 5 -14.1818 -23.9755 -17.0927 0.0000 31.4139 0.0000
# 6 0.0000 0.0000 0.0000 -10.1000 0.0000 32.5079
#
#
#
# Elastic Compliance Matrix: (Units=1/GPa)
#
#
# Indices 1 2 3 4 5 6 
#
# 1 0.028349 0.000649 -0.001621 0.000000 0.012411 0.000000
# 2 0.000649 0.008552 -0.002298 0.000000 0.005570 0.000000
# 3 -0.001621 -0.002298 0.008976 0.000000 0.002398 0.000000
# 4 0.000000 0.000000 0.000000 0.031317 0.000000 0.009730
# 5 0.012411 0.005570 0.002398 0.000000 0.042992 0.000000
# 6 0.000000 0.000000 0.000000 0.009730 0.000000 0.033785
#
#
# Mechanical properties :
#
#
# Convention : Reuss Voigt Hill
#
# Bulk Modulus (GPa) = 25.42260 50.37001 37.89630
# Shear Modulus (GPa) = 28.79799 36.28361 32.54080
#
# Velocity S-wave (km/s) = 3.59408 4.03424 3.82051
# Velocity P-wave (km/s) = 5.35038 6.65536 6.03823
#
# Compressibility (1/GPa) = 0.03933508
#
# Stress axis : x y z
#
# Youngs Moduli (GPa) = 35.27521 116.92548 111.41005
#
# Poissons Ratio (x) = -0.07589 0.18065
# Poissons Ratio (y) = -0.02289 0.25607
# Poissons Ratio (z) = 0.05720 0.26874
#
# Static dielectric constant tensor:
#      x y z
#    x 1.884620 0.000000 0.009930 
#    y 0.000000 1.853860 0.000000 
#    z 0.009930 0.000000 1.837360 
# 
# From -- ./inp_files/35333.got.cif
#   From: 2010.05.17/outbox.cif.g08.bks.cpg/sg9_18_cif.got.tgz:35333.got - 2010.06.03 20:04:27.
