data_PCOD9140102
_publ_section_title
;
Structure prediction by ZEFSAII (Michael W. Deem and Ramdas Pophale) SiO2 
 PCOD9140102
Probable space group: C C
;
_chemical_formula_sum "Si O2"
_cell_formula_units_Z 32
_cell_length_a 9.637586
_cell_length_b 14.973973
_cell_length_c 12.621746
_cell_angle_alpha 90.000000
_cell_angle_beta 129.366902
_cell_angle_gamma 90.000000
_cell_volume 1408.187493
_symmetry_space_group_name_H-M "C C"
_symmetry_group_IT_number 9
_symmetry_cell_setting 'monoclinic'
loop_
_space_group_symop_operation_xyz
x,y,z
x,-y,1/2+z
1/2+x,1/2+y,z
1/2+x,1/2-y,1/2+z
loop_
_atom_site_type_symbol
_atom_site_label
_atom_site_fract_x
_atom_site_fract_y
_atom_site_fract_z
Si Si1 0.556470 0.587775 0.678990
Si Si2 0.265893 0.467788 0.913147
Si Si3 0.280476 0.282179 0.027134
Si Si4 0.593026 0.424217 0.960669
Si Si5 0.484050 0.980449 0.122028
Si Si6 0.150958 0.741069 0.890314
Si Si7 0.546792 0.780658 0.106134
Si Si8 0.423131 0.872026 0.444282
O O1 0.406737 0.511571 0.578520
O O2 0.443099 0.669572 0.671499
O O3 0.605503 0.620599 0.583645
O O4 0.745889 0.572438 0.822850
O O5 0.215071 0.365865 0.922163
O O6 0.403856 0.473568 0.880254
O O7 0.090191 0.515024 0.784854
O O8 0.353268 0.205896 0.987164
O O9 0.141684 0.247820 0.046204
O O10 0.588961 0.343099 0.878547
O O11 0.770097 0.483333 0.038305
O O12 0.517421 0.887070 0.080070
O O13 0.538458 0.060993 0.071591
O O14 0.153986 0.727029 0.766691
O O15 0.024639 0.675043 0.896194
O O16 0.353955 0.736110 0.029842
#
# Coordination Sequence:
#
# PCOD9140102 Si02
#       8
#     4   4   4   4   4   4   4   4
#     4   8  20  40  67  93 129 165 235 269 320 403
#     4   8  20  40  69  89 136 169 226 268 333 401
#     4   9  23  40  69  98 126 175 225 274 321 406
#     4   8  19  43  63  96 130 170 223 278 320 401
#     4  11  24  39  67 101 135 169 220 286 344 385
#     4  11  23  42  70  91 134 182 221 269 329 412
#     4  11  27  44  63 100 142 166 224 280 342 390
#     4  12  22  38  76  96 126 178 234 268 333 402
#
# _framework density 22.724246000000001
#
# number of rings (size 3 to 8) (size 9 to 14) (size 15 to 20)
#    1.500    0.500    2.500    1.500    5.250    3.000 
#    0.000    5.000    0.000    0.000    0.000    0.000 
#    0.000    0.000    0.000    0.000    0.000    0.000 
#
# Total GULP energy -89069.362191 kJ/mol
# GULP energy per Si atom -5566.835137 kJ/mol
# Density = 2.267252 g / cm^3
# Si number density = 22.724246 Si / 1000 Ang^3
#
#
#
# Elastic Constant Matrix: (Units=GPa)
#
#
# Indices 1 2 3 4 5 6 
#
# 1 84.5884 33.5521 23.7039 0.0000 -7.7449 0.0000
# 2 33.5521 34.0385 32.6059 0.0000 5.2769 0.0000
# 3 23.7039 32.6059 79.1702 0.0000 9.3453 0.0000
# 4 0.0000 0.0000 0.0000 30.6365 0.0000 -2.1219
# 5 -7.7449 5.2769 9.3453 0.0000 26.1656 0.0000
# 6 0.0000 0.0000 0.0000 -2.1219 0.0000 17.9220
#
#
#
# Elastic Compliance Matrix: (Units=1/GPa)
#
#
# Indices 1 2 3 4 5 6 
#
# 1 0.022687 -0.026955 0.003001 0.000000 0.011080 0.000000
# 2 -0.026955 0.080739 -0.023300 0.000000 -0.015940 0.000000
# 3 0.003001 -0.023300 0.021579 0.000000 -0.002120 0.000000
# 4 0.000000 0.000000 0.000000 0.032911 0.000000 0.003897
# 5 0.011080 -0.015940 -0.002120 0.000000 0.045469 0.000000
# 6 0.000000 0.000000 0.000000 0.003897 0.000000 0.056259
#
#
# Mechanical properties :
#
#
# Convention : Reuss Voigt Hill
#
# Bulk Modulus (GPa) = 32.79088 41.94680 37.36884
# Shear Modulus (GPa) = 13.72426 22.14048 17.93237
#
# Velocity S-wave (km/s) = 2.46020 3.12478 2.81219
# Velocity P-wave (km/s) = 4.74672 5.61410 5.19853
#
# Compressibility (1/GPa) = 0.03049628
#
# Stress axis : x y z
#
# Youngs Moduli (GPa) = 44.07738 12.38559 46.34196
#
# Poissons Ratio (x) = 0.33386 -0.13907
# Poissons Ratio (y) = 1.18812 1.07976
# Poissons Ratio (z) = -0.13227 0.28858
#
# Static dielectric constant tensor:
#      x y z
#    x 1.889030 0.000000 0.042470 
#    y 0.000000 1.846140 0.000000 
#    z 0.042470 0.000000 1.830130 
# 
# From -- ./inp_files/15207.got.cif
#   From: 2010.05.17/outbox.cif.g08.bks.cpg/sg9_8_cif.got.tgz:15207.got - 2010.06.03 20:04:27.
