data_PCOD9140150
_publ_section_title
;
Structure prediction by ZEFSAII (Michael W. Deem and Ramdas Pophale) SiO2 
 PCOD9140150
Probable space group: C C
;
_chemical_formula_sum "Si O2"
_cell_formula_units_Z 28
_cell_length_a 8.769359
_cell_length_b 30.465299
_cell_length_c 8.564711
_cell_angle_alpha 90.000000
_cell_angle_beta 31.942221
_cell_angle_gamma 90.000000
_cell_volume 1210.581548
_symmetry_space_group_name_H-M "C C"
_symmetry_group_IT_number 9
_symmetry_cell_setting 'monoclinic'
loop_
_space_group_symop_operation_xyz
x,y,z
x,-y,1/2+z
1/2+x,1/2+y,z
1/2+x,1/2-y,1/2+z
loop_
_atom_site_type_symbol
_atom_site_label
_atom_site_fract_x
_atom_site_fract_y
_atom_site_fract_z
Si Si1 0.485440 0.401491 0.425730
Si Si2 0.692335 0.034636 0.708237
Si Si3 0.113528 0.719791 0.404193
Si Si4 0.091338 0.009225 0.660145
Si Si5 0.029633 0.150086 0.201313
Si Si6 0.943372 0.645501 0.325603
Si Si7 0.091756 0.633325 0.840298
O O1 0.554538 0.450638 0.314726
O O2 0.558371 0.385486 0.536268
O O3 0.145748 0.393610 0.712651
O O4 0.637502 0.368937 0.165697
O O5 0.913120 0.023965 0.660467
O O6 0.546059 0.080931 0.871822
O O7 0.429018 0.003100 0.879798
O O8 0.911391 0.032815 0.374019
O O9 0.314427 0.687375 0.328646
O O10 0.800269 0.736075 0.727235
O O11 0.048551 0.691212 0.306809
O O12 0.895504 0.137409 0.486712
O O13 0.359862 0.161099 0.944505
O O14 0.019009 0.646623 0.078816
#
# Coordination Sequence:
#
# PCOD9140150 Si02
#       7
#     4   4   4   4   4   4   4
#     4  11  23  44  68  93 136 186 242 277 342 423
#     4  12  28  44  67 100 144 191 240 311 355 409
#     4  11  23  46  72 103 137 172 225 283 350 435
#     4  12  27  45  67 100 140 192 244 307 361 404
#     4  11  25  42  72 103 133 186 223 282 351 433
#     4  11  23  44  73  98 130 185 229 282 345 418
#     4  12  25  45  67 101 144 180 237 288 348 416
#
# _framework density 23.129380999999999
#
# number of rings (size 3 to 8) (size 9 to 14) (size 15 to 20)
#    0.000    0.571    1.429    7.714    8.000    0.000 
#    0.000    4.286    0.000    0.000    0.000    0.000 
#    0.000    0.000    0.000    0.000    0.000    0.000 
#
# Total GULP energy -78066.649677 kJ/mol
# GULP energy per Si atom -5576.189263 kJ/mol
# Density = 2.307674 g / cm^3
# Si number density = 23.129381 Si / 1000 Ang^3
#
#
#
# Elastic Constant Matrix: (Units=GPa)
#
#
# Indices 1 2 3 4 5 6 
#
# 1 46.3844 19.2201 27.8372 0.0000 3.4060 0.0000
# 2 19.2201 47.2239 2.9072 0.0000 6.0036 0.0000
# 3 27.8372 2.9072 118.8201 0.0000 -8.7583 0.0000
# 4 0.0000 0.0000 0.0000 42.1567 0.0000 -3.5039
# 5 3.4060 6.0036 -8.7583 0.0000 44.9779 0.0000
# 6 0.0000 0.0000 0.0000 -3.5039 0.0000 -3.2919
#
#
#
# Elastic Compliance Matrix: (Units=1/GPa)
#
#
# Indices 1 2 3 4 5 6 
#
# 1 0.030898 -0.011866 -0.007106 0.000000 -0.002140 0.000000
# 2 -0.011866 0.026164 0.001977 0.000000 -0.002209 0.000000
# 3 -0.007106 0.001977 0.010199 0.000000 0.002260 0.000000
# 4 0.000000 0.000000 0.000000 0.021793 0.000000 -0.023197
# 5 -0.002140 -0.002209 0.002260 0.000000 0.023130 0.000000
# 6 0.000000 0.000000 0.000000 -0.023197 0.000000 -0.279086
#
#
# Mechanical properties :
#
#
# Convention : Reuss Voigt Hill
#
# Bulk Modulus (GPa) = 30.05622 34.70640 32.38131
# Shear Modulus (GPa) = -41.04349 27.59946 -6.72202
#
# Velocity S-wave (km/s) = -4.21707 3.45811 -1.70663
# Velocity P-wave (km/s) = 3.26934 5.56620 3.18544
#
# Compressibility (1/GPa) = 0.03327099
#
# Stress axis : x y z
#
# Youngs Moduli (GPa) = 32.36505 38.22010 98.04758
#
# Poissons Ratio (x) = 0.45351 0.69673
# Poissons Ratio (y) = 0.38404 -0.19383
# Poissons Ratio (z) = 0.22999 -0.07556
#
# Static dielectric constant tensor:
#      x y z
#    x 1.920410 0.000000 0.037630 
#    y 0.000000 1.856830 0.000000 
#    z 0.037630 0.000000 1.853790 
# 
# From -- ./inp_files/6546.got.cif
#   From: 2010.05.17/outbox.cif.g08.bks.cpg/sg9_4_cif.got.tgz:6546.got - 2010.06.03 20:04:27.
