data_PCOD9140695
_publ_section_title
;
Structure prediction by ZEFSAII (Michael W. Deem and Ramdas Pophale) SiO2 
 PCOD9140695
Probable space group: C C
;
_chemical_formula_sum "Si O2"
_cell_formula_units_Z 28
_cell_length_a 19.851434
_cell_length_b 7.930614
_cell_length_c 13.629818
_cell_angle_alpha 90.000000
_cell_angle_beta 35.739233
_cell_angle_gamma 90.000000
_cell_volume 1253.354245
_symmetry_space_group_name_H-M "C C"
_symmetry_group_IT_number 9
_symmetry_cell_setting 'monoclinic'
loop_
_space_group_symop_operation_xyz
x,y,z
x,-y,1/2+z
1/2+x,1/2+y,z
1/2+x,1/2-y,1/2+z
loop_
_atom_site_type_symbol
_atom_site_label
_atom_site_fract_x
_atom_site_fract_y
_atom_site_fract_z
Si Si1 0.522650 0.061521 0.189760
Si Si2 0.305520 0.140706 0.898231
Si Si3 0.632707 0.844883 0.752096
Si Si4 0.584412 0.531834 0.277819
Si Si5 0.526118 0.613372 0.561500
Si Si6 0.641410 0.755711 0.955026
Si Si7 0.866728 0.003504 0.397822
O O1 0.533939 0.101881 0.292021
O O2 0.568414 0.224121 0.073963
O O3 0.394065 0.012620 0.305253
O O4 0.596697 0.892361 0.086015
O O5 0.182467 0.114529 0.095558
O O6 0.272384 0.203693 0.827917
O O7 0.360851 0.298656 0.886492
O O8 0.643999 0.643829 0.734667
O O9 0.615900 0.863852 0.887363
O O10 0.749167 0.932945 0.579558
O O11 0.546941 0.630999 0.420685
O O12 0.471497 0.482978 0.349722
O O13 0.580883 0.428304 0.520575
O O14 0.398345 0.586978 0.757486
#
# Coordination Sequence:
#
# PCOD9140695 Si02
#       7
#     4   4   4   4   4   4   4
#     4  12  24  46  78 103 147 196 244 294 378 438
#     4  12  24  46  73 106 149 186 242 308 360 435
#     4  11  26  45  75 102 146 191 246 295 377 428
#     4  11  26  48  70 106 144 186 248 303 362 443
#     4  11  25  48  71 106 144 186 244 300 362 440
#     4  11  25  47  71 110 148 190 242 308 362 438
#     4  12  24  44  72  99 144 187 236 304 361 432
#
# _framework density 22.340052
#
# number of rings (size 3 to 8) (size 9 to 14) (size 15 to 20)
#    0.000    0.571    5.714    0.857    4.000    0.000 
#    7.714    0.000    0.000    0.000    0.000    0.000 
#    0.000    0.000    0.000    0.000    0.000    0.000 
#
# Total GULP energy -78080.869887 kJ/mol
# GULP energy per Si atom -5577.204992 kJ/mol
# Density = 2.228921 g / cm^3
# Si number density = 22.340052 Si / 1000 Ang^3
#
#
#
# Elastic Constant Matrix: (Units=GPa)
#
#
# Indices 1 2 3 4 5 6 
#
# 1 117.5797 23.1302 35.2224 0.0000 12.4995 0.0000
# 2 23.1302 101.2453 28.1549 0.0001 1.9715 -0.0001
# 3 35.2224 28.1549 36.7551 0.0001 -1.5794 -0.0001
# 4 0.0000 0.0001 0.0001 22.5014 0.0000 1.1018
# 5 12.4995 1.9715 -1.5794 0.0000 30.3016 0.0000
# 6 0.0000 -0.0001 -0.0001 1.1018 0.0000 35.0448
#
#
#
# Elastic Compliance Matrix: (Units=1/GPa)
#
#
# Indices 1 2 3 4 5 6 
#
# 1 0.012991 0.000872 -0.013380 0.000000 -0.006113 0.000000
# 2 0.000872 0.012662 -0.010609 0.000000 -0.001736 0.000000
# 3 -0.013380 -0.010609 0.048532 0.000000 0.008739 0.000000
# 4 0.000000 0.000000 0.000000 0.044510 0.000000 -0.001399
# 5 -0.006113 -0.001736 0.008739 0.000000 0.036092 0.000000
# 6 0.000000 0.000000 0.000000 -0.001399 0.000000 0.028579
#
#
# Mechanical properties :
#
#
# Convention : Reuss Voigt Hill
#
# Bulk Modulus (GPa) = 35.77844 47.62168 41.70006
# Shear Modulus (GPa) = 20.92768 28.84108 24.88438
#
# Velocity S-wave (km/s) = 3.06400 3.59695 3.34112
# Velocity P-wave (km/s) = 5.34487 6.21400 5.79575
#
# Compressibility (1/GPa) = 0.02794979
#
# Stress axis : x y z
#
# Youngs Moduli (GPa) = 76.97393 78.97685 20.60502
#
# Poissons Ratio (x) = -0.06886 0.27570
# Poissons Ratio (y) = -0.06711 0.21861
# Poissons Ratio (z) = 1.02993 0.83790
#
# Static dielectric constant tensor:
#      x y z
#    x 1.930310 0.000000 0.052970 
#    y 0.000000 1.821630 0.000000 
#    z 0.052970 0.000000 1.891010 
# 
# From -- ./inp_files/19101.got.cif
#   From: 2010.05.17/outbox.cif.g08.bks.cpg/sg9_10_cif.got.tgz:19101.got - 2010.06.03 20:04:27.
