data_PCOD9140237
_publ_section_title
;
Structure prediction by ZEFSAII (Michael W. Deem and Ramdas Pophale) SiO2 
 PCOD9140237
Probable space group: C C
;
_chemical_formula_sum "Si O2"
_cell_formula_units_Z 32
_cell_length_a 8.740225
_cell_length_b 17.880798
_cell_length_c 14.057828
_cell_angle_alpha 90.000000
_cell_angle_beta 36.802300
_cell_angle_gamma 90.000000
_cell_volume 1316.118428
_symmetry_space_group_name_H-M "C C"
_symmetry_group_IT_number 9
_symmetry_cell_setting 'monoclinic'
loop_
_space_group_symop_operation_xyz
x,y,z
x,-y,1/2+z
1/2+x,1/2+y,z
1/2+x,1/2-y,1/2+z
loop_
_atom_site_type_symbol
_atom_site_label
_atom_site_fract_x
_atom_site_fract_y
_atom_site_fract_z
Si Si1 0.130240 0.911858 0.323110
Si Si2 0.444980 0.529602 0.220538
Si Si3 0.958347 0.708814 0.656052
Si Si4 0.661206 0.910970 0.418469
Si Si5 0.277869 0.354079 0.659878
Si Si6 0.506122 0.782155 0.348785
Si Si7 0.672819 0.621367 0.275529
Si Si8 0.258157 0.048608 0.403793
O O1 0.370158 0.869494 0.157080
O O2 0.935816 0.924401 0.332019
O O3 0.946033 0.859161 0.480429
O O4 0.231618 0.978009 0.342143
O O5 0.172206 0.487176 0.352955
O O6 0.442653 0.602528 0.155274
O O7 0.499468 0.571622 0.292860
O O8 0.636161 0.476713 0.063406
O O9 0.761930 0.770545 0.710596
O O10 0.961712 0.687772 0.765581
O O11 0.233642 0.743714 0.504569
O O12 0.606057 0.842286 0.375058
O O13 0.450877 0.907963 0.604561
O O14 0.021138 0.403787 0.778113
O O15 0.685536 0.709633 0.252983
O O16 0.590104 0.607384 0.425166
#
# Coordination Sequence:
#
# PCOD9140237 Si02
#       8
#     4   4   4   4   4   4   4   4
#     4  11  26  45  71 106 144 191 241 302 375 439
#     4  11  25  45  71 107 141 191 247 305 370 438
#     4  12  26  47  72 103 145 192 246 301 372 440
#     4  12  26  46  73 106 150 188 246 315 367 443
#     4  11  23  46  71 100 145 190 237 301 365 443
#     4  12  27  47  73 104 145 196 246 304 372 436
#     4  12  25  49  73 106 148 195 249 308 375 448
#     4  11  26  45  74 106 146 195 246 304 376 447
#
# _framework density 24.313922000000002
#
# number of rings (size 3 to 8) (size 9 to 14) (size 15 to 20)
#    0.000    0.500    6.250    0.750    7.000    3.000 
#    0.000    0.000    0.000    0.000    0.000    0.000 
#    0.000    0.000    0.000    0.000    0.000    0.000 
#
# Total GULP energy -89126.334761 kJ/mol
# GULP energy per Si atom -5570.395923 kJ/mol
# Density = 2.425858 g / cm^3
# Si number density = 24.313922 Si / 1000 Ang^3
#
#
#
# Elastic Constant Matrix: (Units=GPa)
#
#
# Indices 1 2 3 4 5 6 
#
# 1 54.5186 11.0667 25.0343 -0.0077 3.9008 0.0033
# 2 11.0667 77.0629 11.1748 -0.0067 -5.6698 0.0024
# 3 25.0343 11.1748 58.8244 -0.0099 0.9409 0.0036
# 4 -0.0077 -0.0067 -0.0099 37.2504 0.0035 -0.9137
# 5 3.9008 -5.6698 0.9409 0.0035 24.3198 -0.0011
# 6 0.0033 0.0024 0.0036 -0.9137 -0.0011 44.6150
#
#
#
# Elastic Compliance Matrix: (Units=1/GPa)
#
#
# Indices 1 2 3 4 5 6 
#
# 1 0.023439 -0.002280 -0.009479 0.000002 -0.003924 -0.000001
# 2 -0.002280 0.013821 -0.001714 0.000001 0.003654 0.000000
# 3 -0.009479 -0.001714 0.021355 0.000003 0.000295 -0.000001
# 4 0.000002 0.000001 0.000003 0.026859 -0.000004 0.000550
# 5 -0.003924 0.003654 0.000295 -0.000004 0.042589 0.000001
# 6 -0.000001 0.000000 -0.000001 0.000550 0.000001 0.022425
#
#
# Mechanical properties :
#
#
# Convention : Reuss Voigt Hill
#
# Bulk Modulus (GPa) = 31.57680 31.66196 31.61938
# Shear Modulus (GPa) = 26.59728 30.77903 28.68816
#
# Velocity S-wave (km/s) = 3.31102 3.56181 3.43870
# Velocity P-wave (km/s) = 5.25666 5.47410 5.36648
#
# Compressibility (1/GPa) = 0.03166882
#
# Stress axis : x y z
#
# Youngs Moduli (GPa) = 42.66465 72.35250 46.82829
#
# Poissons Ratio (x) = 0.16497 0.44388
# Poissons Ratio (y) = 0.09728 0.08025
# Poissons Ratio (z) = 0.40442 0.12399
#
# Static dielectric constant tensor:
#      x y z
#    x 2.140550 0.000000 0.002910 
#    y 0.000000 2.055770 0.000000 
#    z 0.002910 0.000000 1.957290 
# 
# From -- ./inp_files/23651.got.cif
#   From: 2010.05.17/outbox.cif.g08.bks.cpg/sg9_12_cif.got.tgz:23651.got - 2010.06.03 20:04:27.
