data_PCOD9140946
_publ_section_title
;
Structure prediction by ZEFSAII (Michael W. Deem and Ramdas Pophale) SiO2 
 PCOD9140946
Probable space group: C C
;
_chemical_formula_sum "Si O2"
_cell_formula_units_Z 32
_cell_length_a 11.355219
_cell_length_b 14.122042
_cell_length_c 16.983101
_cell_angle_alpha 90.000000
_cell_angle_beta 147.836240
_cell_angle_gamma 90.000000
_cell_volume 1449.772568
_symmetry_space_group_name_H-M "C C"
_symmetry_group_IT_number 9
_symmetry_cell_setting 'monoclinic'
loop_
_space_group_symop_operation_xyz
x,y,z
x,-y,1/2+z
1/2+x,1/2+y,z
1/2+x,1/2-y,1/2+z
loop_
_atom_site_type_symbol
_atom_site_label
_atom_site_fract_x
_atom_site_fract_y
_atom_site_fract_z
Si Si1 0.835970 0.853460 0.348590
Si Si2 0.966022 0.934173 0.578082
Si Si3 0.917969 0.645277 0.350610
Si Si4 0.213318 0.617263 0.379168
Si Si5 0.039842 0.480222 0.068223
Si Si6 0.087008 0.830066 0.974586
Si Si7 0.350438 0.352429 0.680672
Si Si8 0.772270 0.466514 0.551234
O O1 0.834196 0.869328 0.441107
O O2 0.811122 0.743892 0.315749
O O3 0.660269 0.916764 0.202715
O O4 0.072801 0.894004 0.453285
O O5 0.939190 0.903013 0.652555
O O6 0.224832 0.920568 0.705838
O O7 0.868235 0.036851 0.505379
O O8 0.010969 0.586947 0.476714
O O9 0.102531 0.669494 0.390260
O O10 0.365392 0.670817 0.402649
O O11 0.004073 0.572435 0.215266
O O12 0.814914 0.515211 0.982347
O O13 0.183888 0.571346 0.125992
O O14 0.022698 0.825695 0.846350
O O15 0.233795 0.743232 0.085694
O O16 0.202702 0.932581 0.048936
#
# Coordination Sequence:
#
# PCOD9140946 Si02
#       8
#     4   4   4   4   4   4   4   4
#     4  12  26  48  73 107 143 194 244 301 366 435
#     4  12  25  48  71 104 146 189 248 291 367 430
#     4  12  28  43  75 112 141 195 242 306 359 439
#     4  12  24  48  74 105 149 189 243 303 366 433
#     4  12  26  48  71 108 149 187 244 303 367 430
#     4  12  28  48  73 107 144 195 244 299 367 430
#     4  12  28  47  70 109 145 191 243 300 360 432
#     4  12  23  48  75  98 149 192 236 303 366 423
#
# _framework density 22.072427999999999
#
# number of rings (size 3 to 8) (size 9 to 14) (size 15 to 20)
#    0.000    0.000    7.500    1.500    8.750    1.000 
#    0.000    0.000    0.000    0.000    0.000    0.000 
#    0.000    0.000    0.000    0.000    0.000    0.000 
#
# Total GULP energy -89547.362141 kJ/mol
# GULP energy per Si atom -5596.710134 kJ/mol
# Density = 2.202219 g / cm^3
# Si number density = 22.072428 Si / 1000 Ang^3
#
#
#
# Elastic Constant Matrix: (Units=GPa)
#
#
# Indices 1 2 3 4 5 6 
#
# 1 90.9886 -16.8219 -2.8200 0.0025 -20.6116 0.0003
# 2 -16.8219 70.6774 12.6756 0.0044 -11.0392 0.0005
# 3 -2.8200 12.6756 87.8583 0.0064 -22.5394 0.0011
# 4 0.0025 0.0044 0.0064 29.5113 0.0012 3.1278
# 5 -20.6116 -11.0392 -22.5394 0.0012 39.0381 0.0000
# 6 0.0003 0.0005 0.0011 3.1278 0.0000 23.7678
#
#
#
# Elastic Compliance Matrix: (Units=1/GPa)
#
#
# Indices 1 2 3 4 5 6 
#
# 1 0.014210 0.004539 0.002413 -0.000003 0.010180 0.000000
# 2 0.004539 0.016370 -0.000486 -0.000003 0.006746 0.000000
# 3 0.002413 -0.000486 0.013876 -0.000004 0.009148 0.000000
# 4 -0.000003 -0.000003 -0.000004 0.034365 -0.000005 -0.004522
# 5 0.010180 0.006746 0.009148 -0.000005 0.038180 0.000000
# 6 0.000000 0.000000 0.000000 -0.004522 0.000000 0.042669
#
#
# Mechanical properties :
#
#
# Convention : Reuss Voigt Hill
#
# Bulk Modulus (GPa) = 17.42465 26.17686 21.80076
# Shear Modulus (GPa) = 30.14465 35.56283 32.85374
#
# Velocity S-wave (km/s) = 3.69957 4.01832 3.86223
# Velocity P-wave (km/s) = 5.11473 5.78052 5.45779
#
# Compressibility (1/GPa) = 0.05738996
#
# Stress axis : x y z
#
# Youngs Moduli (GPa) = 70.37103 61.08769 72.06490
#
# Poissons Ratio (x) = -0.27731 -0.17387
# Poissons Ratio (y) = -0.31945 0.03499
# Poissons Ratio (z) = -0.16978 0.02966
#
# Static dielectric constant tensor:
#      x y z
#    x 1.867250 0.000000 0.002700 
#    y 0.000000 1.760450 0.000000 
#    z 0.002700 0.000000 1.801560 
# 
# From -- ./inp_files/7481.got.cif
#   From: 2010.05.17/outbox.cif.g08.bks.cpg/sg9_4_cif.got.tgz:7481.got - 2010.06.03 20:04:27.
