data_PCOD9140791
_publ_section_title
;
Structure prediction by ZEFSAII (Michael W. Deem and Ramdas Pophale) SiO2 
 PCOD9140791
Probable space group: C C
;
_chemical_formula_sum "Si O2"
_cell_formula_units_Z 24
_cell_length_a 9.358060
_cell_length_b 26.052926
_cell_length_c 5.112158
_cell_angle_alpha 90.000000
_cell_angle_beta 48.719273
_cell_angle_gamma 90.000000
_cell_volume 936.628895
_symmetry_space_group_name_H-M "C C"
_symmetry_group_IT_number 9
_symmetry_cell_setting 'monoclinic'
loop_
_space_group_symop_operation_xyz
x,y,z
x,-y,1/2+z
1/2+x,1/2+y,z
1/2+x,1/2-y,1/2+z
loop_
_atom_site_type_symbol
_atom_site_label
_atom_site_fract_x
_atom_site_fract_y
_atom_site_fract_z
Si Si1 0.632660 0.143113 0.299160
Si Si2 0.050825 0.143113 0.538658
Si Si3 0.574194 0.529508 0.622690
Si Si4 0.841743 0.278165 0.918909
Si Si5 0.109290 0.529508 0.215128
Si Si6 0.341743 0.296572 0.918909
O O1 0.513084 0.184028 0.281346
O O2 0.550910 0.086109 0.378366
O O3 0.669361 0.164896 0.547330
O O4 0.841743 0.140241 0.918909
O O5 0.132576 0.086109 0.459451
O O6 0.170402 0.184028 0.556472
O O7 0.014124 0.164896 0.290488
O O8 0.634673 0.487368 0.337296
O O9 0.341742 0.529284 0.918909
O O10 0.851126 0.241792 0.653945
O O11 0.832359 0.241792 0.183874
O O12 0.048812 0.487368 0.500523
#
# Coordination Sequence:
#
# PCOD9140791 Si02
#       6
#     4   4   4   4   4   4
#     4  11  26  43  70  95 131 173 215 263 327 380
#     4  11  26  43  70  95 131 173 215 263 327 380
#     4   9  20  36  62  93 123 161 210 261 315 379
#     4  12  28  44  64  98 134 168 220 268 312 384
#     4   9  20  36  62  93 123 161 210 261 315 379
#     4  12  26  44  66  98 130 174 218 264 318 384
#
# _framework density 25.623805999999998
#
# number of rings (size 3 to 8) (size 9 to 14) (size 15 to 20)
#    0.000    1.333    1.667    2.000   16.333    0.000 
#    0.000    1.667    0.000    0.000    0.000    0.000 
#    0.000    0.000    0.000    0.000    0.000    0.000 
#
# Total GULP energy -67167.202528 kJ/mol
# GULP energy per Si atom -5597.266877 kJ/mol
# Density = 2.556549 g / cm^3
# Si number density = 25.623806 Si / 1000 Ang^3
#
#
#
# Elastic Constant Matrix: (Units=GPa)
#
#
# Indices 1 2 3 4 5 6 
#
# 1 159.0807 66.0044 54.7473 0.0000 28.8198 0.0000
# 2 66.0044 217.1999 48.0317 0.0000 27.9065 0.0000
# 3 54.7473 48.0317 59.2192 0.0000 43.0351 0.0000
# 4 0.0000 0.0000 0.0000 1.0878 0.0000 47.4286
# 5 28.8198 27.9065 43.0351 0.0000 51.5692 0.0000
# 6 0.0000 0.0000 0.0000 47.4286 0.0000 -44.6294
#
#
#
# Elastic Compliance Matrix: (Units=1/GPa)
#
#
# Indices 1 2 3 4 5 6 
#
# 1 0.009927 -0.001006 -0.012007 0.000000 0.005017 0.000000
# 2 -0.001006 0.005789 -0.004821 0.000000 0.001453 0.000000
# 3 -0.012007 -0.004821 0.063841 0.000000 -0.043957 0.000000
# 4 0.000000 0.000000 0.000000 0.019421 0.000000 0.020639
# 5 0.005017 0.001453 -0.043957 0.000000 0.052484 0.000000
# 6 0.000000 0.000000 0.000000 0.020639 0.000000 -0.000473
#
#
# Mechanical properties :
#
#
# Convention : Reuss Voigt Hill
#
# Bulk Modulus (GPa) = 22.78499 85.89630 54.34064
# Shear Modulus (GPa) = 24.84022 19.38661 22.11342
#
# Velocity S-wave (km/s) = 3.11693 2.75359 2.94088
# Velocity P-wave (km/s) = 4.67601 6.61094 5.72580
#
# Compressibility (1/GPa) = 0.04388855
#
# Stress axis : x y z
#
# Youngs Moduli (GPa) = 100.73716 172.73266 15.66396
#
# Poissons Ratio (x) = 0.17377 0.18807
# Poissons Ratio (y) = 0.10134 0.07552
# Poissons Ratio (z) = 1.20954 0.83281
#
# Static dielectric constant tensor:
#      x y z
#    x 2.018360 0.000000 -0.104240 
#    y 0.000000 1.977960 0.000000 
#    z -0.104240 0.000000 2.195000 
# 
# From -- ./inp_files/1692.got.cif
#   From: 2010.05.17/outbox.cif.g08.bks.cpg/sg9_1_cif.got.tgz:1692.got - 2010.06.03 20:04:27.
