data_PCOD9140848
_publ_section_title
;
Structure prediction by ZEFSAII (Michael W. Deem and Ramdas Pophale) SiO2 
 PCOD9140848
Probable space group: C C
;
_chemical_formula_sum "Si O2"
_cell_formula_units_Z 20
_cell_length_a 5.194603
_cell_length_b 16.364675
_cell_length_c 12.879605
_cell_angle_alpha 90.000000
_cell_angle_beta 131.350731
_cell_angle_gamma 90.000000
_cell_volume 821.895917
_symmetry_space_group_name_H-M "C C"
_symmetry_group_IT_number 9
_symmetry_cell_setting 'monoclinic'
loop_
_space_group_symop_operation_xyz
x,y,z
x,-y,1/2+z
1/2+x,1/2+y,z
1/2+x,1/2-y,1/2+z
loop_
_atom_site_type_symbol
_atom_site_label
_atom_site_fract_x
_atom_site_fract_y
_atom_site_fract_z
Si Si1 0.152670 0.813765 0.409870
Si Si2 0.225917 0.696369 0.612349
Si Si3 0.826254 0.951674 0.433228
Si Si4 0.916212 0.851697 0.641256
Si Si5 0.299861 0.940767 0.915882
O O1 0.208032 0.732156 0.491258
O O2 0.506757 0.859187 0.529494
O O3 0.084225 0.802882 0.269785
O O4 0.832890 0.867403 0.367888
O O5 0.012687 0.762642 0.623220
O O6 0.074553 0.606398 0.560502
O O7 0.493178 0.997951 0.388217
O O8 0.036156 0.013380 0.418908
O O9 0.032770 0.919991 0.589425
O O10 0.087549 0.873576 0.794527
#
# Coordination Sequence:
#
# PCOD9140848 Si02
#       5
#     4   4   4   4   4
#     4  11  26  50  75 111 154 196 256 307 376 447
#     4  11  27  47  76 110 149 205 245 315 371 450
#     4  11  28  48  75 112 150 194 248 314 371 446
#     4  11  27  50  74 115 149 202 254 312 364 463
#     4  12  28  49  80 108 152 199 253 308 384 436
#
# _framework density 24.333983
#
# number of rings (size 3 to 8) (size 9 to 14) (size 15 to 20)
#    0.000    0.800    4.000    0.000   16.800    0.000 
#    0.000    0.000    0.000    0.000    0.000    0.000 
#    0.000    0.000    0.000    0.000    0.000    0.000 
#
# Total GULP energy -55874.568656 kJ/mol
# GULP energy per Si atom -5587.456866 kJ/mol
# Density = 2.427860 g / cm^3
# Si number density = 24.333983 Si / 1000 Ang^3
#
#
#
# Elastic Constant Matrix: (Units=GPa)
#
#
# Indices 1 2 3 4 5 6 
#
# 1 116.3537 26.0945 14.8500 -0.0001 5.4059 0.0000
# 2 26.0945 49.7568 9.6337 0.0001 2.9194 0.0000
# 3 14.8500 9.6337 131.3000 -0.0004 8.4236 0.0000
# 4 -0.0001 0.0001 -0.0004 -17.5556 -0.0003 15.0381
# 5 5.4059 2.9194 8.4236 -0.0003 20.3488 0.0000
# 6 0.0000 0.0000 0.0000 15.0381 0.0000 34.9210
#
#
#
# Elastic Compliance Matrix: (Units=1/GPa)
#
#
# Indices 1 2 3 4 5 6 
#
# 1 0.009864 -0.004951 -0.000647 0.000000 -0.001642 0.000000
# 2 -0.004951 0.022985 -0.001027 0.000000 -0.001557 0.000000
# 3 -0.000647 -0.001027 0.007955 0.000000 -0.002974 0.000000
# 4 0.000000 0.000000 0.000000 -0.041612 -0.000001 0.017919
# 5 -0.001642 -0.001557 -0.002974 -0.000001 0.051034 0.000000
# 6 0.000000 0.000000 0.000000 0.017919 0.000000 0.020919
#
#
# Mechanical properties :
#
#
# Convention : Reuss Voigt Hill
#
# Bulk Modulus (GPa) = 36.29218 44.28523 40.28870
# Shear Modulus (GPa) = 53.43076 23.99834 38.71455
#
# Velocity S-wave (km/s) = 4.69094 3.14380 3.99302
# Velocity P-wave (km/s) = 6.65481 5.60503 6.15235
#
# Compressibility (1/GPa) = 0.02755415
#
# Stress axis : x y z
#
# Youngs Moduli (GPa) = 101.38098 43.50750 125.70014
#
# Poissons Ratio (x) = 0.21542 0.08132
# Poissons Ratio (y) = 0.50197 0.12903
# Poissons Ratio (z) = 0.06559 0.04466
#
# Static dielectric constant tensor:
#      x y z
#    x 1.967470 0.000000 -0.040310 
#    y 0.000000 2.028000 0.000000 
#    z -0.040310 0.000000 1.949500 
# 
# From -- ./inp_files/13037.got.cif
#   From: 2010.05.17/outbox.cif.g08.bks.cpg/sg9_7_cif.got.tgz:13037.got - 2010.06.03 20:04:27.
