data_PCOD9140000
_publ_section_title
;
Structure prediction by ZEFSAII (Michael W. Deem and Ramdas Pophale) SiO2 
 PCOD9140000
Probable space group: C C
;
_chemical_formula_sum "Si O2"
_cell_formula_units_Z 32
_cell_length_a 9.530050
_cell_length_b 19.000992
_cell_length_c 7.468862
_cell_angle_alpha 90.000000
_cell_angle_beta 115.686911
_cell_angle_gamma 90.000000
_cell_volume 1218.808679
_symmetry_space_group_name_H-M "C C"
_symmetry_group_IT_number 9
_symmetry_cell_setting 'monoclinic'
loop_
_space_group_symop_operation_xyz
x,y,z
x,-y,1/2+z
1/2+x,1/2+y,z
1/2+x,1/2-y,1/2+z
loop_
_atom_site_type_symbol
_atom_site_label
_atom_site_fract_x
_atom_site_fract_y
_atom_site_fract_z
Si Si1 0.847370 0.447380 0.143930
Si Si2 0.210719 0.930547 0.687437
Si Si3 0.563144 0.217872 0.096910
Si Si4 0.017377 0.685909 0.666270
Si Si5 0.890379 0.056539 0.868528
Si Si6 0.808835 0.904146 0.713060
Si Si7 0.070940 0.126225 0.643033
Si Si8 0.286994 0.777906 0.722585
O O1 0.860366 0.530169 0.184608
O O2 0.992036 0.397208 0.186230
O O3 0.734474 0.416362 0.235494
O O4 0.877741 0.286783 0.962091
O O5 0.055583 0.969835 0.541904
O O6 0.187580 0.848735 0.639475
O O7 0.963287 0.879837 0.905417
O O8 0.673164 0.150441 0.188742
O O9 0.519853 0.218900 0.863828
O O10 0.413868 0.217270 0.140004
O O11 0.675671 0.210937 0.660077
O O12 0.451880 0.601689 0.733757
O O13 0.744078 0.437989 0.912124
O O14 0.793876 0.987381 0.756291
O O15 0.824610 0.096985 0.005506
O O16 0.131490 0.206187 0.684056
#
# Coordination Sequence:
#
# PCOD9140000 Si02
#       8
#     4   4   4   4   4   4   4   4
#     4  11  23  45  75 118 158 215 273 337 406 502
#     4  11  22  44  78 113 161 213 273 331 415 504
#     4  12  32  49  82 117 169 220 277 360 429 500
#     4  11  29  54  80 118 163 217 278 352 418 514
#     4  12  24  48  85 120 169 227 286 346 417 519
#     4  12  27  52  78 129 165 222 291 354 420 514
#     4  12  27  45  80 118 167 220 282 340 427 505
#     4  11  30  53  80 119 162 216 280 344 428 502
#
# _framework density 26.255148999999999
#
# number of rings (size 3 to 8) (size 9 to 14) (size 15 to 20)
#    0.000    0.500    3.750    2.250   12.250    0.000 
#    2.250    0.000    0.000    0.000    0.000    0.000 
#    0.000    0.000    0.000    0.000    0.000    0.000 
#
# Total GULP energy -89583.649312 kJ/mol
# GULP energy per Si atom -5598.978082 kJ/mol
# Density = 2.619539 g / cm^3
# Si number density = 26.255149 Si / 1000 Ang^3
#
#
#
# Elastic Constant Matrix: (Units=GPa)
#
#
# Indices 1 2 3 4 5 6 
#
# 1 148.2713 81.7458 49.3721 0.0000 -3.0760 0.0000
# 2 81.7458 135.3424 41.6090 0.0000 3.6680 0.0000
# 3 49.3721 41.6090 107.5167 0.0000 -4.0145 0.0000
# 4 0.0000 0.0000 0.0000 31.2395 0.0000 13.6593
# 5 -3.0760 3.6680 -4.0145 0.0000 38.5641 0.0000
# 6 0.0000 0.0000 0.0000 13.6593 0.0000 59.8475
#
#
#
# Elastic Compliance Matrix: (Units=1/GPa)
#
#
# Indices 1 2 3 4 5 6 
#
# 1 0.010837 -0.005742 -0.002712 0.000000 0.001128 0.000000
# 2 -0.005742 0.011479 -0.001871 0.000000 -0.001745 0.000000
# 3 -0.002712 -0.001871 0.011313 0.000000 0.001139 0.000000
# 4 0.000000 0.000000 0.000000 0.035559 0.000000 -0.008116
# 5 0.001128 -0.001745 0.001139 0.000000 0.026305 0.000000
# 6 0.000000 0.000000 0.000000 -0.008116 0.000000 0.018561
#
#
# Mechanical properties :
#
#
# Convention : Reuss Voigt Hill
#
# Bulk Modulus (GPa) = 77.04753 81.84268 79.44510
# Shear Modulus (GPa) = 35.96329 40.49047 38.22688
#
# Velocity S-wave (km/s) = 3.70504 3.93134 3.81987
# Velocity P-wave (km/s) = 6.90743 7.20048 7.05547
#
# Compressibility (1/GPa) = 0.01297900
#
# Stress axis : x y z
#
# Youngs Moduli (GPa) = 92.28034 87.11363 88.39587
#
# Poissons Ratio (x) = 0.50021 0.23972
# Poissons Ratio (y) = 0.52988 0.16538
# Poissons Ratio (z) = 0.25025 0.16298
#
# Static dielectric constant tensor:
#      x y z
#    x 2.140380 0.000000 -0.002510 
#    y 0.000000 2.161820 0.000000 
#    z -0.002510 0.000000 2.028560 
# 
# From -- ./inp_files/17105.got.cif
#   From: 2010.05.17/outbox.cif.g08.bks.cpg/sg9_9_cif.got.tgz:17105.got - 2010.06.03 20:04:27.
