data_PCOD9140682
_publ_section_title
;
Structure prediction by ZEFSAII (Michael W. Deem and Ramdas Pophale) SiO2 
 PCOD9140682
Probable space group: C C
;
_chemical_formula_sum "Si O2"
_cell_formula_units_Z 32
_cell_length_a 14.282571
_cell_length_b 13.343685
_cell_length_c 8.116315
_cell_angle_alpha 90.000000
_cell_angle_beta 61.029292
_cell_angle_gamma 90.000000
_cell_volume 1353.266479
_symmetry_space_group_name_H-M "C C"
_symmetry_group_IT_number 9
_symmetry_cell_setting 'monoclinic'
loop_
_space_group_symop_operation_xyz
x,y,z
x,-y,1/2+z
1/2+x,1/2+y,z
1/2+x,1/2-y,1/2+z
loop_
_atom_site_type_symbol
_atom_site_label
_atom_site_fract_x
_atom_site_fract_y
_atom_site_fract_z
Si Si1 0.133150 0.922860 0.337840
Si Si2 0.892403 0.670134 0.635441
Si Si3 0.825876 0.124642 0.339148
Si Si4 0.433850 0.545186 0.569791
Si Si5 0.582089 0.927271 0.099099
Si Si6 0.463549 0.708099 0.790929
Si Si7 0.983071 0.378895 0.530289
Si Si8 0.274730 0.933579 0.506167
O O1 0.173176 0.889783 0.487053
O O2 0.062346 0.837514 0.311654
O O3 0.223439 0.965651 0.131929
O O4 0.057965 0.018820 0.437815
O O5 0.844568 0.759629 0.784772
O O6 0.884329 0.717857 0.460118
O O7 0.017766 0.646832 0.533876
O O8 0.851039 0.574068 0.777778
O O9 0.888531 0.099933 0.451381
O O10 0.705976 0.087227 0.460950
O O11 0.878649 0.061412 0.147643
O O12 0.411987 0.610670 0.750164
O O13 0.552058 0.892308 0.306910
O O14 0.535717 0.037894 0.105533
O O15 0.499618 0.774025 0.605000
O O16 0.858060 0.390921 0.573512
#
# Coordination Sequence:
#
# PCOD9140682 Si02
#       8
#     4   4   4   4   4   4   4   4
#     4  12  24  47  80 113 153 203 267 327 395 466
#     4  11  26  46  72 109 155 195 264 325 378 477
#     4  12  24  44  73 106 147 203 249 314 401 462
#     4  12  23  46  73 109 154 191 262 324 383 470
#     4  11  25  48  76 105 154 208 251 322 400 474
#     4  12  26  49  73 108 158 202 255 338 389 457
#     4  11  25  50  77 111 159 200 265 324 392 477
#     4  11  25  46  76 115 150 208 255 330 400 463
#
# _framework density 23.646487
#
# number of rings (size 3 to 8) (size 9 to 14) (size 15 to 20)
#    0.000    0.500    3.750    4.500    1.750    3.000 
#    4.500    0.000    0.000    0.000    0.000    0.000 
#    0.000    0.000    0.000    0.000    0.000    0.000 
#
# Total GULP energy -89100.083484 kJ/mol
# GULP energy per Si atom -5568.755218 kJ/mol
# Density = 2.359267 g / cm^3
# Si number density = 23.646487 Si / 1000 Ang^3
#
#
#
# Elastic Constant Matrix: (Units=GPa)
#
#
# Indices 1 2 3 4 5 6 
#
# 1 98.7069 15.0109 17.3007 0.0000 6.0712 0.0000
# 2 15.0109 75.8480 28.0263 0.0000 1.8670 0.0000
# 3 17.3007 28.0263 96.5128 0.0000 7.3453 0.0000
# 4 0.0000 0.0000 0.0000 46.5263 0.0000 7.0724
# 5 6.0712 1.8670 7.3453 0.0000 39.1820 0.0000
# 6 0.0000 0.0000 0.0000 7.0724 0.0000 40.3809
#
#
#
# Elastic Compliance Matrix: (Units=1/GPa)
#
#
# Indices 1 2 3 4 5 6 
#
# 1 0.010691 -0.001582 -0.001356 0.000000 -0.001327 0.000000
# 2 -0.001582 0.015004 -0.004096 0.000000 0.000298 0.000000
# 3 -0.001356 -0.004096 0.011933 0.000000 -0.001832 0.000000
# 4 0.000000 0.000000 0.000000 0.022081 0.000000 -0.003867
# 5 -0.001327 0.000298 -0.001832 0.000000 0.026057 0.000000
# 6 0.000000 0.000000 0.000000 -0.003867 0.000000 0.025442
#
#
# Mechanical properties :
#
#
# Convention : Reuss Voigt Hill
#
# Bulk Modulus (GPa) = 42.44567 43.52705 42.98636
# Shear Modulus (GPa) = 37.55777 39.26649 38.41213
#
# Velocity S-wave (km/s) = 3.98967 4.07942 4.03480
# Velocity P-wave (km/s) = 6.26198 6.37466 6.31857
#
# Compressibility (1/GPa) = 0.02355953
#
# Stress axis : x y z
#
# Youngs Moduli (GPa) = 93.53756 66.65105 83.79957
#
# Poissons Ratio (x) = 0.10545 0.11363
# Poissons Ratio (y) = 0.14798 0.34324
# Poissons Ratio (z) = 0.12684 0.27300
#
# Static dielectric constant tensor:
#      x y z
#    x 2.030980 0.000000 -0.014610 
#    y 0.000000 1.911210 0.000000 
#    z -0.014610 0.000000 1.907240 
# 
# From -- ./inp_files/9236.got.cif
#   From: 2010.05.17/outbox.cif.g08.bks.cpg/sg9_5_cif.got.tgz:9236.got - 2010.06.03 20:04:27.
