data_PCOD9140291
_publ_section_title
;
Structure prediction by ZEFSAII (Michael W. Deem and Ramdas Pophale) SiO2 
 PCOD9140291
Probable space group: C C
;
_chemical_formula_sum "Si O2"
_cell_formula_units_Z 32
_cell_length_a 14.062808
_cell_length_b 11.626055
_cell_length_c 25.628511
_cell_angle_alpha 90.000000
_cell_angle_beta 20.208890
_cell_angle_gamma 90.000000
_cell_volume 1447.455470
_symmetry_space_group_name_H-M "C C"
_symmetry_group_IT_number 9
_symmetry_cell_setting 'monoclinic'
loop_
_space_group_symop_operation_xyz
x,y,z
x,-y,1/2+z
1/2+x,1/2+y,z
1/2+x,1/2-y,1/2+z
loop_
_atom_site_type_symbol
_atom_site_label
_atom_site_fract_x
_atom_site_fract_y
_atom_site_fract_z
Si Si1 0.641790 0.891515 0.574380
Si Si2 0.017672 0.255639 0.272686
Si Si3 0.113671 0.225859 0.777390
Si Si4 0.431809 0.983633 0.283839
Si Si5 0.134511 0.309882 0.439450
Si Si6 0.395175 0.472234 0.627536
Si Si7 0.115308 0.557448 0.496577
Si Si8 0.728319 0.805967 0.268750
O O1 0.430770 0.802653 0.656336
O O2 0.931268 0.821527 0.420430
O O3 0.489350 0.936613 0.704784
O O4 0.687998 0.004654 0.515719
O O5 0.985904 0.292797 0.350492
O O6 0.907874 0.346602 0.286897
O O7 0.857201 0.137558 0.350861
O O8 0.343882 0.250594 0.098676
O O9 0.285975 0.343759 0.698153
O O10 0.337020 0.130615 0.645368
O O11 0.889513 0.233960 0.844685
O O12 0.188970 0.998332 0.450462
O O13 0.702327 0.998346 0.178304
O O14 0.091701 0.444270 0.474006
O O15 0.175089 0.298495 0.357112
O O16 0.352694 0.568065 0.693498
#
# Coordination Sequence:
#
# PCOD9140291 Si02
#       8
#     4   4   4   4   4   4   4   4
#     4  11  25  42  77 105 139 194 240 291 364 436
#     4  11  24  48  67 106 145 181 240 300 355 431
#     4  11  23  48  71 103 146 182 246 295 355 436
#     4  11  26  43  74 104 146 181 242 295 367 421
#     4  11  24  45  72  98 144 192 234 289 366 429
#     4  11  25  49  69 106 144 189 229 309 354 440
#     4  11  24  46  70 105 142 187 239 307 350 434
#     4  11  25  45  74  99 138 188 238 284 367 433
#
# _framework density 22.107762000000001
#
# number of rings (size 3 to 8) (size 9 to 14) (size 15 to 20)
#    0.000    1.000    3.750    3.000    8.750    0.000 
#   18.000    0.000    0.000    0.000    0.000    0.000 
#    0.000    0.000    0.000    0.000    0.000    0.000 
#
# Total GULP energy -89175.443908 kJ/mol
# GULP energy per Si atom -5573.465244 kJ/mol
# Density = 2.205744 g / cm^3
# Si number density = 22.107762 Si / 1000 Ang^3
#
#
#
# Elastic Constant Matrix: (Units=GPa)
#
#
# Indices 1 2 3 4 5 6 
#
# 1 41.9047 14.1847 -30.9936 -0.1565 28.2619 0.1526
# 2 14.1847 137.2902 -4.9347 -0.1726 20.4464 0.1617
# 3 -30.9936 -4.9347 -185.0283 -0.4165 57.3815 0.7255
# 4 -0.1565 -0.1726 -0.4165 18.7584 0.1072 -6.8527
# 5 28.2619 20.4464 57.3815 0.1072 22.8600 -0.1682
# 6 0.1526 0.1617 0.7255 -6.8527 -0.1682 27.5798
#
#
#
# Elastic Compliance Matrix: (Units=1/GPa)
#
#
# Indices 1 2 3 4 5 6 
#
# 1 0.026158 -0.001288 -0.007883 0.000106 -0.011401 0.000027
# 2 -0.001288 0.007838 -0.000941 0.000051 -0.003056 -0.000020
# 3 -0.007883 -0.000941 -0.000435 -0.000113 0.011682 0.000104
# 4 0.000106 0.000051 -0.000113 0.058631 -0.000061 0.014570
# 5 -0.011401 -0.003056 0.011682 -0.000061 0.031249 -0.000051
# 6 0.000027 -0.000020 0.000104 0.014570 -0.000051 0.039875
#
#
# Mechanical properties :
#
#
# Convention : Reuss Voigt Hill
#
# Bulk Modulus (GPa) = 74.98189 -5.48007 34.75091
# Shear Modulus (GPa) = 26.59759 14.90032 20.74896
#
# Velocity S-wave (km/s) = 3.47232 2.59894 3.06688
# Velocity P-wave (km/s) = 7.07575 2.55378 5.31921
#
# Compressibility (1/GPa) = 0.01333655
#
# Stress axis : x y z
#
# Youngs Moduli (GPa) = 38.22865 127.57852 -2296.43640
#
# Poissons Ratio (x) = 0.16433 -18.10296
# Poissons Ratio (y) = 0.04924 -2.16151
# Poissons Ratio (z) = 0.30136 0.12008
#
# Static dielectric constant tensor:
#      x y z
#    x 1.865590 0.000390 0.053010 
#    y 0.000390 1.893610 0.000030 
#    z 0.053010 0.000030 1.858600 
# 
# From -- ./inp_files/9242.got.cif
#   From: 2010.05.17/outbox.cif.g08.bks.cpg/sg9_5_cif.got.tgz:9242.got - 2010.06.03 20:04:27.
