data_PCOD9140265
_publ_section_title
;
Structure prediction by ZEFSAII (Michael W. Deem and Ramdas Pophale) SiO2 
 PCOD9140265
Probable space group: C C
;
_chemical_formula_sum "Si O2"
_cell_formula_units_Z 28
_cell_length_a 11.894648
_cell_length_b 13.593333
_cell_length_c 9.048358
_cell_angle_alpha 90.000000
_cell_angle_beta 55.025777
_cell_angle_gamma 90.000000
_cell_volume 1198.805124
_symmetry_space_group_name_H-M "C C"
_symmetry_group_IT_number 9
_symmetry_cell_setting 'monoclinic'
loop_
_space_group_symop_operation_xyz
x,y,z
x,-y,1/2+z
1/2+x,1/2+y,z
1/2+x,1/2-y,1/2+z
loop_
_atom_site_type_symbol
_atom_site_label
_atom_site_fract_x
_atom_site_fract_y
_atom_site_fract_z
Si Si1 0.358160 0.053017 0.358970
Si Si2 0.321616 0.165636 0.883897
Si Si3 0.363563 0.537330 0.018766
Si Si4 0.625877 0.819243 0.588346
Si Si5 0.912604 0.125576 0.298308
Si Si6 0.681017 0.321876 0.781428
Si Si7 0.151004 0.120700 0.750585
O O1 0.487085 0.120148 0.220549
O O2 0.286314 0.074870 0.571091
O O3 0.398778 0.938576 0.321845
O O4 0.646481 0.229347 0.911279
O O5 0.296225 0.196002 0.071539
O O6 0.377136 0.264452 0.768888
O O7 0.184512 0.138386 0.896510
O O8 0.253131 0.613097 0.038471
O O9 0.388109 0.556446 0.173711
O O10 0.322808 0.428921 0.993528
O O11 0.512623 0.559896 0.835161
O O12 0.736542 0.589393 0.341668
O O13 0.624766 0.725417 0.696147
O O14 0.052320 0.144429 0.282694
#
# Coordination Sequence:
#
# PCOD9140265 Si02
#       7
#     4   4   4   4   4   4   4
#     4  11  25  47  76 111 152 201 251 320 379 449
#     4  12  24  45  71 113 147 197 258 313 376 457
#     4  12  27  50  73 109 149 203 247 316 387 456
#     4  11  26  49  75 110 156 197 244 317 392 446
#     4  12  28  45  75 109 149 200 254 315 374 467
#     4  11  25  46  77 111 149 205 256 303 377 468
#     4  11  23  46  79 103 146 199 258 298 377 459
#
# _framework density 23.356591000000002
#
# number of rings (size 3 to 8) (size 9 to 14) (size 15 to 20)
#    0.000    0.571    2.857    5.143    6.000    1.143 
#    5.143    0.000    0.000    0.000    0.000    0.000 
#    0.000    0.000    0.000    0.000    0.000    0.000 
#
# Total GULP energy -78224.466040 kJ/mol
# GULP energy per Si atom -5587.461860 kJ/mol
# Density = 2.330343 g / cm^3
# Si number density = 23.356591 Si / 1000 Ang^3
#
#
#
# Elastic Constant Matrix: (Units=GPa)
#
#
# Indices 1 2 3 4 5 6 
#
# 1 113.8385 39.5197 39.5648 0.0000 10.1608 0.0000
# 2 39.5197 146.1615 29.2773 0.0000 4.4448 0.0000
# 3 39.5648 29.2773 101.2614 0.0000 25.1615 0.0000
# 4 0.0000 0.0000 0.0000 38.1857 0.0000 3.5904
# 5 10.1608 4.4448 25.1615 0.0000 35.5316 0.0000
# 6 0.0000 0.0000 0.0000 3.5904 0.0000 26.3581
#
#
#
# Elastic Compliance Matrix: (Units=1/GPa)
#
#
# Indices 1 2 3 4 5 6 
#
# 1 0.010796 -0.002209 -0.003496 0.000000 -0.000335 0.000000
# 2 -0.002209 0.007729 -0.001563 0.000000 0.000772 0.000000
# 3 -0.003496 -0.001563 0.013830 0.000000 -0.008598 0.000000
# 4 0.000000 0.000000 0.000000 0.026528 0.000000 -0.003613
# 5 -0.000335 0.000772 -0.008598 0.000000 0.034232 0.000000
# 6 0.000000 0.000000 0.000000 -0.003613 0.000000 0.038431
#
#
# Mechanical properties :
#
#
# Convention : Reuss Voigt Hill
#
# Bulk Modulus (GPa) = 56.12306 64.22055 60.17180
# Shear Modulus (GPa) = 32.88999 36.87506 34.88253
#
# Velocity S-wave (km/s) = 3.75663 3.97770 3.86875
# Velocity P-wave (km/s) = 6.54960 6.97507 6.76568
#
# Compressibility (1/GPa) = 0.01781799
#
# Stress axis : x y z
#
# Youngs Moduli (GPa) = 92.62520 129.38966 72.30609
#
# Poissons Ratio (x) = 0.28576 0.25282
# Poissons Ratio (y) = 0.20457 0.11304
# Poissons Ratio (z) = 0.32386 0.20229
#
# Static dielectric constant tensor:
#      x y z
#    x 1.860000 0.000000 -0.005650 
#    y 0.000000 1.923740 0.000000 
#    z -0.005650 0.000000 1.921620 
# 
# From -- ./inp_files/9652.got.cif
#   From: 2010.05.17/outbox.cif.g08.bks.cpg/sg9_5_cif.got.tgz:9652.got - 2010.06.03 20:04:27.
