data_PCOD9140257
_publ_section_title
;
Structure prediction by ZEFSAII (Michael W. Deem and Ramdas Pophale) SiO2 
 PCOD9140257
Probable space group: C C
;
_chemical_formula_sum "Si O2"
_cell_formula_units_Z 32
_cell_length_a 29.338844
_cell_length_b 9.499447
_cell_length_c 8.936396
_cell_angle_alpha 90.000000
_cell_angle_beta 149.481150
_cell_angle_gamma 90.000000
_cell_volume 1264.780246
_symmetry_space_group_name_H-M "C C"
_symmetry_group_IT_number 9
_symmetry_cell_setting 'monoclinic'
loop_
_space_group_symop_operation_xyz
x,y,z
x,-y,1/2+z
1/2+x,1/2+y,z
1/2+x,1/2-y,1/2+z
loop_
_atom_site_type_symbol
_atom_site_label
_atom_site_fract_x
_atom_site_fract_y
_atom_site_fract_z
Si Si1 0.031900 0.392922 0.756640
Si Si2 0.832586 0.737093 0.257020
Si Si3 0.907952 0.509214 0.148417
Si Si4 0.335676 0.357800 0.598648
Si Si5 0.191669 0.393194 0.687325
Si Si6 0.256411 0.816563 0.137828
Si Si7 0.482201 0.580993 0.014760
Si Si8 0.085122 0.906429 0.502003
O O1 0.960049 0.416860 0.419281
O O2 0.983542 0.400756 0.779784
O O3 0.096971 0.530051 0.936104
O O4 0.082094 0.241416 0.899476
O O5 0.864369 0.582538 0.391412
O O6 0.833892 0.806134 0.425418
O O7 0.913253 0.805805 0.386220
O O8 0.733542 0.778539 0.918946
O O9 0.822552 0.608052 0.943736
O O10 0.261580 0.479348 0.400201
O O11 0.314935 0.245716 0.667777
O O12 0.429763 0.434079 0.887232
O O13 0.204892 0.315087 0.567095
O O14 0.180791 0.913650 0.853557
O O15 0.568527 0.547737 0.359694
O O16 0.511917 0.598957 0.928896
#
# Coordination Sequence:
#
# PCOD9140257 Si02
#       8
#     4   4   4   4   4   4   4   4
#     4  12  28  48  78 115 155 201 264 324 382 470
#     4  11  25  45  75 108 153 205 259 312 394 471
#     4  12  28  48  74 113 158 204 254 327 398 451
#     4  11  23  46  75 108 148 195 261 310 389 456
#     4  11  25  45  76 110 145 207 258 315 382 470
#     4  12  27  49  78 112 161 203 250 332 392 466
#     4  11  25  46  78 111 146 206 259 324 381 472
#     4  12  27  49  78 113 158 197 265 326 392 462
#
# _framework density 25.300840000000001
#
# number of rings (size 3 to 8) (size 9 to 14) (size 15 to 20)
#    0.000    0.500    2.500    5.250   10.500    3.000 
#    0.000    0.000    0.000    0.000    0.000    0.000 
#    0.000    0.000    0.000    0.000    0.000    0.000 
#
# Total GULP energy -89541.386546 kJ/mol
# GULP energy per Si atom -5596.336659 kJ/mol
# Density = 2.524325 g / cm^3
# Si number density = 25.300840 Si / 1000 Ang^3
#
#
#
# Elastic Constant Matrix: (Units=GPa)
#
#
# Indices 1 2 3 4 5 6 
#
# 1 69.9409 14.7106 17.0805 0.0000 -10.0352 0.0000
# 2 14.7106 70.2443 38.8689 0.0000 1.2550 0.0000
# 3 17.0805 38.8689 145.1233 0.0000 -4.7360 0.0000
# 4 0.0000 0.0000 0.0000 48.4217 0.0000 12.8744
# 5 -10.0352 1.2550 -4.7360 0.0000 35.7091 0.0000
# 6 0.0000 0.0000 0.0000 12.8744 0.0000 27.3936
#
#
#
# Elastic Compliance Matrix: (Units=1/GPa)
#
#
# Indices 1 2 3 4 5 6 
#
# 1 0.015761 -0.002856 -0.000946 0.000000 0.004404 0.000000
# 2 -0.002856 0.017281 -0.004357 0.000000 -0.001988 0.000000
# 3 -0.000946 -0.004357 0.008201 0.000000 0.000975 0.000000
# 4 0.000000 0.000000 0.000000 0.023601 0.000000 -0.011092
# 5 0.004404 -0.001988 0.000975 0.000000 0.029441 0.000000
# 6 0.000000 0.000000 0.000000 -0.011092 0.000000 0.041718
#
#
# Mechanical properties :
#
#
# Convention : Reuss Voigt Hill
#
# Bulk Modulus (GPa) = 40.12147 47.40316 43.76231
# Shear Modulus (GPa) = 31.12752 36.61476 33.87114
#
# Velocity S-wave (km/s) = 3.51136 3.80830 3.66284
# Velocity P-wave (km/s) = 5.68610 6.17366 5.93489
#
# Compressibility (1/GPa) = 0.02492431
#
# Stress axis : x y z
#
# Youngs Moduli (GPa) = 63.44574 57.86861 121.93828
#
# Poissons Ratio (x) = 0.16526 0.11541
# Poissons Ratio (y) = 0.18119 0.53129
# Poissons Ratio (z) = 0.06005 0.25214
#
# Static dielectric constant tensor:
#      x y z
#    x 1.987680 0.000000 -0.000940 
#    y 0.000000 2.030470 0.000000 
#    z -0.000940 0.000000 2.045330 
# 
# From -- ./inp_files/12741.got.cif
#   From: 2010.05.17/outbox.cif.g08.bks.cpg/sg9_7_cif.got.tgz:12741.got - 2010.06.03 20:04:27.
