data_PCOD9140975
_publ_section_title
;
Structure prediction by ZEFSAII (Michael W. Deem and Ramdas Pophale) SiO2 
 PCOD9140975
Probable space group: C C
;
_chemical_formula_sum "Si O2"
_cell_formula_units_Z 24
_cell_length_a 9.328790
_cell_length_b 23.903204
_cell_length_c 8.437005
_cell_angle_alpha 90.000000
_cell_angle_beta 30.034874
_cell_angle_gamma 90.000000
_cell_volume 941.666835
_symmetry_space_group_name_H-M "C C"
_symmetry_group_IT_number 9
_symmetry_cell_setting 'monoclinic'
loop_
_space_group_symop_operation_xyz
x,y,z
x,-y,1/2+z
1/2+x,1/2+y,z
1/2+x,1/2-y,1/2+z
loop_
_atom_site_type_symbol
_atom_site_label
_atom_site_fract_x
_atom_site_fract_y
_atom_site_fract_z
Si Si1 0.919930 0.071739 0.088970
Si Si2 0.928014 0.712887 0.271529
Si Si3 0.207700 0.882140 0.760489
Si Si4 0.465092 0.849204 0.033400
Si Si5 0.753384 0.952426 0.117643
Si Si6 0.765082 0.790923 0.046987
O O1 0.723919 0.119656 0.200446
O O2 0.839719 0.059409 0.351132
O O3 0.812331 0.017545 0.095014
O O4 0.233159 0.101748 0.790677
O O5 0.746457 0.769334 0.419490
O O6 0.851162 0.657037 0.251122
O O7 0.852353 0.697951 0.524929
O O8 0.453857 0.919350 0.436865
O O9 0.982622 0.840499 0.887186
O O10 0.977852 0.927690 0.032023
O O11 0.631251 0.817322 0.014345
O O12 0.964351 0.736697 0.885627
#
# Coordination Sequence:
#
# PCOD9140975 Si02
#       6
#     4   4   4   4   4   4
#     4  12  28  49  79 110 151 201 260 320 392 456
#     4  12  26  48  76 112 154 202 254 310 380 464
#     4  12  26  47  77 111 153 195 258 315 386 459
#     4  12  26  47  77 111 153 195 258 315 386 459
#     4  12  28  49  79 110 151 201 260 320 392 456
#     4  12  24  44  74 108 150 196 246 314 380 454
#
# _framework density 25.486722
#
# number of rings (size 3 to 8) (size 9 to 14) (size 15 to 20)
#    0.000    0.000    1.667    8.000    4.667    0.000 
#    0.000    0.000    0.000    0.000    0.000    0.000 
#    0.000    0.000    0.000    0.000    0.000    0.000 
#
# Total GULP energy -66812.484918 kJ/mol
# GULP energy per Si atom -5567.707077 kJ/mol
# Density = 2.542871 g / cm^3
# Si number density = 25.486722 Si / 1000 Ang^3
#
#
#
# Elastic Constant Matrix: (Units=GPa)
#
#
# Indices 1 2 3 4 5 6 
#
# 1 103.2923 27.9985 30.6566 0.0000 -13.4550 0.0000
# 2 27.9985 64.7327 18.7745 0.0000 6.4839 0.0000
# 3 30.6566 18.7745 125.2584 0.0000 -29.6757 0.0000
# 4 0.0000 0.0000 0.0000 43.5363 0.0000 0.9822
# 5 -13.4550 6.4839 -29.6757 0.0000 28.9686 0.0000
# 6 0.0000 0.0000 0.0000 0.9822 0.0000 40.2056
#
#
#
# Elastic Compliance Matrix: (Units=1/GPa)
#
#
# Indices 1 2 3 4 5 6 
#
# 1 0.012252 -0.005747 -0.000640 0.000000 0.006322 0.000000
# 2 -0.005747 0.020404 -0.004445 0.000000 -0.011790 0.000000
# 3 -0.000640 -0.004445 0.011847 0.000000 0.012834 0.000000
# 4 0.000000 0.000000 0.000000 0.022982 0.000000 -0.000561
# 5 0.006322 -0.011790 0.012834 0.000000 0.053242 0.000000
# 6 0.000000 0.000000 0.000000 -0.000561 0.000000 0.024886
#
#
# Mechanical properties :
#
#
# Convention : Reuss Voigt Hill
#
# Bulk Modulus (GPa) = 43.78270 49.79360 46.78815
# Shear Modulus (GPa) = 28.58943 36.93235 32.76089
#
# Velocity S-wave (km/s) = 3.35287 3.81081 3.58915
# Velocity P-wave (km/s) = 5.67494 6.24039 5.96437
#
# Compressibility (1/GPa) = 0.02284007
#
# Stress axis : x y z
#
# Youngs Moduli (GPa) = 81.61633 49.01006 84.41147
#
# Poissons Ratio (x) = 0.28167 0.05398
# Poissons Ratio (y) = 0.46907 0.37519
# Poissons Ratio (z) = 0.05219 0.21784
#
# Static dielectric constant tensor:
#      x y z
#    x 2.183130 0.000000 0.049020 
#    y 0.000000 2.204340 0.000000 
#    z 0.049020 0.000000 2.047630 
# 
# From -- ./inp_files/6338.got.cif
#   From: 2010.05.17/outbox.cif.g08.bks.cpg/sg9_4_cif.got.tgz:6338.got - 2010.06.03 20:04:27.
