data_PCOD9140505
_publ_section_title
;
Structure prediction by ZEFSAII (Michael W. Deem and Ramdas Pophale) SiO2 
 PCOD9140505
Probable space group: C C
;
_chemical_formula_sum "Si O2"
_cell_formula_units_Z 32
_cell_length_a 6.248705
_cell_length_b 16.548585
_cell_length_c 14.673439
_cell_angle_alpha 90.000000
_cell_angle_beta 60.098019
_cell_angle_gamma 90.000000
_cell_volume 1315.350632
_symmetry_space_group_name_H-M "C C"
_symmetry_group_IT_number 9
_symmetry_cell_setting 'monoclinic'
loop_
_space_group_symop_operation_xyz
x,y,z
x,-y,1/2+z
1/2+x,1/2+y,z
1/2+x,1/2-y,1/2+z
loop_
_atom_site_type_symbol
_atom_site_label
_atom_site_fract_x
_atom_site_fract_y
_atom_site_fract_z
Si Si1 0.045840 0.731537 0.102130
Si Si2 0.432115 0.529951 0.861958
Si Si3 0.169178 0.804932 0.268304
Si Si4 0.194754 0.358615 0.100393
Si Si5 0.941603 0.424912 0.501645
Si Si6 0.427967 0.026236 0.338174
Si Si7 0.549859 0.819545 0.933761
Si Si8 0.901167 0.989729 0.655582
O O1 0.075615 0.749115 0.204152
O O2 0.805616 0.780971 0.125299
O O3 0.998834 0.649813 0.055217
O O4 0.299972 0.771267 0.011346
O O5 0.481136 0.626392 0.843538
O O6 0.655427 0.482749 0.859214
O O7 0.426929 0.501877 0.758612
O O8 0.180579 0.519106 0.972902
O O9 0.404845 0.858572 0.187926
O O10 0.213540 0.740596 0.338365
O O11 0.361302 0.429164 0.107136
O O12 0.197581 0.343160 0.992521
O O13 0.967142 0.439988 0.385226
O O14 0.653935 0.447029 0.574362
O O15 0.463614 0.100305 0.399357
O O16 0.622188 0.044945 0.215851
#
# Coordination Sequence:
#
# PCOD9140505 Si02
#       8
#     4   4   4   4   4   4   4   4
#     4  11  25  45  75 110 150 201 251 322 391 463
#     4  11  24  49  75 105 155 206 250 324 390 459
#     4  11  24  46  77 108 152 201 260 311 390 471
#     4  11  25  46  77 103 154 208 248 323 393 458
#     4  11  27  45  73 113 151 201 259 319 387 470
#     4  11  27  45  74 111 156 207 255 325 387 462
#     4  11  27  48  73 115 149 200 264 319 384 476
#     4  11  25  46  74 109 155 204 259 317 392 457
#
# _framework density 24.328113999999999
#
# number of rings (size 3 to 8) (size 9 to 14) (size 15 to 20)
#    0.000    1.000    3.750    0.750    7.000    6.000 
#    0.000    0.000    0.000    0.000    0.000    0.000 
#    0.000    0.000    0.000    0.000    0.000    0.000 
#
# Total GULP energy -89257.022843 kJ/mol
# GULP energy per Si atom -5578.563928 kJ/mol
# Density = 2.427274 g / cm^3
# Si number density = 24.328114 Si / 1000 Ang^3
#
#
#
# Elastic Constant Matrix: (Units=GPa)
#
#
# Indices 1 2 3 4 5 6 
#
# 1 82.9606 10.3742 21.4327 0.0000 -22.2300 0.0000
# 2 10.3742 69.5880 15.0533 0.0000 0.7518 0.0000
# 3 21.4327 15.0533 94.1852 0.0000 -7.9110 0.0000
# 4 0.0000 0.0000 0.0000 27.1629 0.0000 0.4297
# 5 -22.2300 0.7518 -7.9110 0.0000 44.3427 0.0000
# 6 0.0000 0.0000 0.0000 0.4297 0.0000 49.1425
#
#
#
# Elastic Compliance Matrix: (Units=1/GPa)
#
#
# Indices 1 2 3 4 5 6 
#
# 1 0.014793 -0.001740 -0.002500 0.000000 0.007000 0.000000
# 2 -0.001740 0.015110 -0.002146 0.000000 -0.001511 0.000000
# 3 -0.002500 -0.002146 0.011601 0.000000 0.000853 0.000000
# 4 0.000000 0.000000 0.000000 0.036820 0.000000 -0.000322
# 5 0.007000 -0.001511 0.000853 0.000000 0.026238 0.000000
# 6 0.000000 0.000000 0.000000 -0.000322 0.000000 0.020352
#
#
# Mechanical properties :
#
#
# Convention : Reuss Voigt Hill
#
# Bulk Modulus (GPa) = 34.80498 37.82823 36.31661
# Shear Modulus (GPa) = 33.95258 37.45453 35.70355
#
# Velocity S-wave (km/s) = 3.73984 3.92798 3.83506
# Velocity P-wave (km/s) = 5.74335 6.01290 5.87967
#
# Compressibility (1/GPa) = 0.02873152
#
# Stress axis : x y z
#
# Youngs Moduli (GPa) = 67.59943 66.18025 86.19997
#
# Poissons Ratio (x) = 0.11516 0.21552
# Poissons Ratio (y) = 0.11763 0.18498
# Poissons Ratio (z) = 0.16902 0.14202
#
# Static dielectric constant tensor:
#      x y z
#    x 2.015660 0.000000 -0.033780 
#    y 0.000000 1.980830 0.000000 
#    z -0.033780 0.000000 1.994900 
# 
# From -- ./inp_files/22048.got.cif
#   From: 2010.05.17/outbox.cif.g08.bks.cpg/sg9_12_cif.got.tgz:22048.got - 2010.06.03 20:04:27.
