data_PCOD9140963
_publ_section_title
;
Structure prediction by ZEFSAII (Michael W. Deem and Ramdas Pophale) SiO2 
 PCOD9140963
Probable space group: C C
;
_chemical_formula_sum "Si O2"
_cell_formula_units_Z 20
_cell_length_a 4.849671
_cell_length_b 28.845117
_cell_length_c 4.968129
_cell_angle_alpha 90.000000
_cell_angle_beta 58.819570
_cell_angle_gamma 90.000000
_cell_volume 594.591023
_symmetry_space_group_name_H-M "C C"
_symmetry_group_IT_number 9
_symmetry_cell_setting 'monoclinic'
loop_
_space_group_symop_operation_xyz
x,y,z
x,-y,1/2+z
1/2+x,1/2+y,z
1/2+x,1/2-y,1/2+z
loop_
_atom_site_type_symbol
_atom_site_label
_atom_site_fract_x
_atom_site_fract_y
_atom_site_fract_z
Si Si1 0.178770 0.596374 0.830380
Si Si2 0.271639 0.771124 0.661843
Si Si3 0.265129 0.966124 0.872861
Si Si4 0.280705 0.687452 0.153144
Si Si5 0.792807 0.648904 0.667199
O O1 0.192834 0.649135 0.430709
O O2 0.846877 0.603743 0.835912
O O3 0.376965 0.642549 0.848661
O O4 0.044808 0.570642 0.165820
O O5 0.697454 0.770887 0.452348
O O6 0.353066 0.729920 0.371140
O O7 0.198651 0.811061 0.443670
O O8 0.284738 0.003078 0.626175
O O9 0.941422 0.064004 0.561888
O O10 0.845607 0.684430 0.359143
#
# Coordination Sequence:
#
# PCOD9140963 Si02
#       5
#     4   4   4   4   4
#     4  12  26  47  73 106 144 189 243 302 365 439
#     4  12  24  42  66  98 135 180 231 290 353 424
#     4  12  27  49  76 110 149 195 246 308 374 445
#     4  12  24  43  67  98 137 182 233 292 355 426
#     4  12  25  45  70 102 139 186 237 296 359 430
#
# _framework density 33.636572000000001
#
# number of rings (size 3 to 8) (size 9 to 14) (size 15 to 20)
#    0.000    0.000    0.000   10.800    0.000    3.200 
#    0.000    0.000    0.000    0.000    0.000    0.000 
#    0.000    0.000    0.000    0.000    0.000    0.000 
#
# Total GULP energy -56059.682507 kJ/mol
# GULP energy per Si atom -5605.968251 kJ/mol
# Density = 3.356001 g / cm^3
# Si number density = 33.636572 Si / 1000 Ang^3
#
#
#
# Elastic Constant Matrix: (Units=GPa)
#
#
# Indices 1 2 3 4 5 6 
#
# 1 297.2831 129.9592 139.4928 0.0000 6.8393 0.0000
# 2 129.9592 232.7443 64.6221 0.0000 -7.9165 0.0000
# 3 139.4928 64.6221 340.3849 0.0000 -21.3057 0.0000
# 4 0.0000 0.0000 0.0000 68.9925 0.0000 -40.7010
# 5 6.8393 -7.9165 -21.3057 0.0000 112.9104 0.0000
# 6 0.0000 0.0000 0.0000 -40.7010 0.0000 82.5809
#
#
#
# Elastic Compliance Matrix: (Units=1/GPa)
#
#
# Indices 1 2 3 4 5 6 
#
# 1 0.005295 -0.002500 -0.001747 0.000000 -0.000826 0.000000
# 2 -0.002500 0.005719 -0.000027 0.000000 0.000547 0.000000
# 3 -0.001747 -0.000027 0.003709 0.000000 0.000804 0.000000
# 4 0.000000 0.000000 0.000000 0.020436 0.000000 0.010072
# 5 -0.000826 0.000547 0.000804 0.000000 0.009097 0.000000
# 6 0.000000 0.000000 0.000000 0.010072 0.000000 0.017074
#
#
# Mechanical properties :
#
#
# Convention : Reuss Voigt Hill
#
# Bulk Modulus (GPa) = 161.93606 170.95117 166.44361
# Shear Modulus (GPa) = 69.50600 88.65262 79.07931
#
# Velocity S-wave (km/s) = 4.55068 5.13938 4.85396
# Velocity P-wave (km/s) = 8.70970 9.28176 9.00028
#
# Compressibility (1/GPa) = 0.00617528
#
# Stress axis : x y z
#
# Youngs Moduli (GPa) = 188.84151 174.87086 269.59208
#
# Poissons Ratio (x) = 0.43715 0.47103
# Poissons Ratio (y) = 0.47207 0.00727
# Poissons Ratio (z) = 0.32995 0.00471
#
# Static dielectric constant tensor:
#      x y z
#    x 2.756120 0.000000 0.267050 
#    y 0.000000 2.671960 0.000000 
#    z 0.267050 0.000000 2.771380 
# 
# From -- ./inp_files/1009.got.cif
#   From: 2010.05.17/outbox.cif.g08.bks.cpg/sg9_1_cif.got.tgz:1009.got - 2010.06.03 20:04:27.
