data_PCOD9140786
_publ_section_title
;
Structure prediction by ZEFSAII (Michael W. Deem and Ramdas Pophale) SiO2 
 PCOD9140786
Probable space group: C C
;
_chemical_formula_sum "Si O2"
_cell_formula_units_Z 16
_cell_length_a 6.200006
_cell_length_b 11.854247
_cell_length_c 8.727186
_cell_angle_alpha 90.000000
_cell_angle_beta 109.924060
_cell_angle_gamma 90.000000
_cell_volume 603.024845
_symmetry_space_group_name_H-M "C C"
_symmetry_group_IT_number 9
_symmetry_cell_setting 'monoclinic'
loop_
_space_group_symop_operation_xyz
x,y,z
x,-y,1/2+z
1/2+x,1/2+y,z
1/2+x,1/2-y,1/2+z
loop_
_atom_site_type_symbol
_atom_site_label
_atom_site_fract_x
_atom_site_fract_y
_atom_site_fract_z
Si Si1 0.536830 0.354295 0.325020
Si Si2 0.785024 0.525607 0.600524
Si Si3 0.657442 0.728187 0.380794
Si Si4 0.177935 0.356595 0.695084
O O1 0.632761 0.427167 0.487366
O O2 0.633175 0.421232 0.200545
O O3 0.276260 0.315690 0.294332
O O4 0.634026 0.229767 0.321857
O O5 0.815112 0.629898 0.491115
O O6 0.029682 0.467193 0.692679
O O7 0.452355 0.654961 0.257949
O O8 0.592751 0.805514 0.512463
#
# Coordination Sequence:
#
# PCOD9140786 Si02
#       4
#     4   4   4   4
#     4  11  26  51  81 122 164 220 280 344 417 502
#     4  11  26  52  83 119 171 225 267 348 432 494
#     4  11  27  48  81 124 167 218 277 349 413 504
#     4  11  25  53  79 123 170 215 280 347 416 504
#
# _framework density 26.532903999999998
#
# number of rings (size 3 to 8) (size 9 to 14) (size 15 to 20)
#    0.000    1.000    2.500    1.500    7.000    4.000 
#    4.500    0.000    0.000    0.000    0.000    0.000 
#    0.000    0.000    0.000    0.000    0.000    0.000 
#
# Total GULP energy -44695.780922 kJ/mol
# GULP energy per Si atom -5586.972615 kJ/mol
# Density = 2.647251 g / cm^3
# Si number density = 26.532904 Si / 1000 Ang^3
#
#
#
# Elastic Constant Matrix: (Units=GPa)
#
#
# Indices 1 2 3 4 5 6 
#
# 1 177.7451 118.3593 100.4013 0.0000 0.2903 0.0000
# 2 118.3593 208.3331 60.7654 0.0000 -2.5553 0.0000
# 3 100.4013 60.7654 102.5606 0.0000 -9.2168 0.0000
# 4 0.0000 0.0000 0.0000 34.6764 0.0000 -18.2085
# 5 0.2903 -2.5553 -9.2168 0.0000 45.3308 0.0000
# 6 0.0000 0.0000 0.0000 -18.2085 0.0000 72.4989
#
#
#
# Elastic Compliance Matrix: (Units=1/GPa)
#
#
# Indices 1 2 3 4 5 6 
#
# 1 0.017305 -0.005857 -0.013761 0.000000 -0.003239 0.000000
# 2 -0.005857 0.007792 0.001182 0.000000 0.000717 0.000000
# 3 -0.013761 0.001182 0.022955 0.000000 0.004822 0.000000
# 4 0.000000 0.000000 0.000000 0.033219 0.000000 0.008343
# 5 -0.003239 0.000717 0.004822 0.000000 0.023102 0.000000
# 6 0.000000 0.000000 0.000000 0.008343 0.000000 0.015889
#
#
# Mechanical properties :
#
#
# Convention : Reuss Voigt Hill
#
# Bulk Modulus (GPa) = 89.45905 116.41007 102.93456
# Shear Modulus (GPa) = 31.08294 44.44209 37.76251
#
# Velocity S-wave (km/s) = 3.42641 4.09709 3.77667
# Velocity P-wave (km/s) = 7.03159 8.14559 7.60900
#
# Compressibility (1/GPa) = 0.01117830
#
# Stress axis : x y z
#
# Youngs Moduli (GPa) = 57.78747 128.34157 43.56363
#
# Poissons Ratio (x) = 0.75172 0.59949
# Poissons Ratio (y) = 0.33847 -0.05149
# Poissons Ratio (z) = 0.79523 -0.15168
#
# Static dielectric constant tensor:
#      x y z
#    x 2.306980 0.000000 0.035280 
#    y 0.000000 2.025620 0.000000 
#    z 0.035280 0.000000 2.112380 
# 
# From -- ./inp_files/3516.got.cif
#   From: 2010.05.17/outbox.cif.g08.bks.cpg/sg9_2_cif.got.tgz:3516.got - 2010.06.03 20:04:27.
