data_PCOD9140694
_publ_section_title
;
Structure prediction by ZEFSAII (Michael W. Deem and Ramdas Pophale) SiO2 
 PCOD9140694
Probable space group: C C
;
_chemical_formula_sum "Si O2"
_cell_formula_units_Z 32
_cell_length_a 14.481718
_cell_length_b 17.526472
_cell_length_c 8.793227
_cell_angle_alpha 90.000000
_cell_angle_beta 34.953195
_cell_angle_gamma 90.000000
_cell_volume 1278.636397
_symmetry_space_group_name_H-M "C C"
_symmetry_group_IT_number 9
_symmetry_cell_setting 'monoclinic'
loop_
_space_group_symop_operation_xyz
x,y,z
x,-y,1/2+z
1/2+x,1/2+y,z
1/2+x,1/2-y,1/2+z
loop_
_atom_site_type_symbol
_atom_site_label
_atom_site_fract_x
_atom_site_fract_y
_atom_site_fract_z
Si Si1 0.585960 0.534468 0.581750
Si Si2 0.550429 0.188810 0.518663
Si Si3 0.060304 0.574342 0.077714
Si Si4 0.418312 0.031122 0.557442
Si Si5 0.958035 0.735449 0.137804
Si Si6 0.616667 0.309375 0.161683
Si Si7 0.903624 0.075854 0.533615
Si Si8 0.757101 0.213419 0.526700
O O1 0.735088 0.477497 0.353820
O O2 0.632414 0.599887 0.642201
O O3 0.543108 0.571342 0.474192
O O4 0.446116 0.485623 0.848559
O O5 0.506210 0.107636 0.501089
O O6 0.600183 0.257305 0.333167
O O7 0.690715 0.180087 0.455678
O O8 0.385090 0.220599 0.816872
O O9 0.020689 0.662101 0.145904
O O10 0.942785 0.530679 0.346080
O O11 0.011138 0.545496 0.979918
O O12 0.245683 0.557105 0.845849
O O13 0.962749 0.799136 0.260522
O O14 0.773120 0.718579 0.354310
O O15 0.091023 0.743004 0.828544
O O16 0.846172 0.151815 0.517619
#
# Coordination Sequence:
#
# PCOD9140694 Si02
#       8
#     4   4   4   4   4   4   4   4
#     4  12  29  49  81 113 164 205 271 331 406 480
#     4  12  29  49  81 113 164 205 271 331 406 480
#     4  11  25  47  71 107 152 196 258 313 400 465
#     4  12  27  49  76 114 150 212 256 334 399 479
#     4  11  25  47  71 107 152 196 258 313 400 465
#     4  12  27  49  76 114 150 212 256 334 399 479
#     4  11  29  49  75 114 154 210 263 331 396 478
#     4  11  29  49  75 114 154 210 263 331 396 478
#
# _framework density 25.026661000000001
#
# number of rings (size 3 to 8) (size 9 to 14) (size 15 to 20)
#    0.000    0.500    2.500    3.000   14.000    4.000 
#    0.000    0.000    0.000    0.000    0.000    0.000 
#    0.000    0.000    0.000    0.000    0.000    0.000 
#
# Total GULP energy -89406.422769 kJ/mol
# GULP energy per Si atom -5587.901423 kJ/mol
# Density = 2.496970 g / cm^3
# Si number density = 25.026661 Si / 1000 Ang^3
#
#
#
# Elastic Constant Matrix: (Units=GPa)
#
#
# Indices 1 2 3 4 5 6 
#
# 1 108.9923 25.4360 0.8681 -0.0018 -7.6334 0.0010
# 2 25.4360 73.3734 26.1984 -0.0004 4.0331 0.0002
# 3 0.8681 26.1984 82.7533 -0.0023 -3.5535 0.0009
# 4 -0.0018 -0.0004 -0.0023 35.8326 0.0005 0.4766
# 5 -7.6334 4.0331 -3.5535 0.0005 33.9792 -0.0008
# 6 0.0010 0.0002 0.0009 0.4766 -0.0008 36.3676
#
#
#
# Elastic Compliance Matrix: (Units=1/GPa)
#
#
# Indices 1 2 3 4 5 6 
#
# 1 0.010362 -0.004242 0.001362 0.000001 0.002974 0.000000
# 2 -0.004242 0.017290 -0.005583 0.000000 -0.003589 0.000000
# 3 0.001362 -0.005583 0.013942 0.000001 0.002427 0.000000
# 4 0.000001 0.000000 0.000001 0.027912 0.000000 -0.000366
# 5 0.002974 -0.003589 0.002427 0.000000 0.030778 0.000001
# 6 0.000000 0.000000 0.000000 -0.000366 0.000001 0.027502
#
#
# Mechanical properties :
#
#
# Convention : Reuss Voigt Hill
#
# Bulk Modulus (GPa) = 40.53949 41.12488 40.83219
# Shear Modulus (GPa) = 32.69347 35.41033 34.05190
#
# Velocity S-wave (km/s) = 3.61826 3.76560 3.69267
# Velocity P-wave (km/s) = 5.80426 5.94764 5.87639
#
# Compressibility (1/GPa) = 0.02466731
#
# Stress axis : x y z
#
# Youngs Moduli (GPa) = 96.50304 57.83566 71.72741
#
# Poissons Ratio (x) = 0.24534 -0.09769
# Poissons Ratio (y) = 0.40937 0.40049
# Poissons Ratio (z) = -0.13143 0.32292
#
# Static dielectric constant tensor:
#      x y z
#    x 2.000920 0.000000 0.016680 
#    y 0.000000 1.984280 0.000000 
#    z 0.016680 0.000000 1.934930 
# 
# From -- ./inp_files/10088.got.cif
#   From: 2010.05.17/outbox.cif.g08.bks.cpg/sg9_6_cif.got.tgz:10088.got - 2010.06.03 20:04:27.
