data_PCOD9140916
_publ_section_title
;
Structure prediction by ZEFSAII (Michael W. Deem and Ramdas Pophale) SiO2 
 PCOD9140916
Probable space group: C C
;
_chemical_formula_sum "Si O2"
_cell_formula_units_Z 32
_cell_length_a 7.743769
_cell_length_b 22.910506
_cell_length_c 10.692395
_cell_angle_alpha 90.000000
_cell_angle_beta 126.678373
_cell_angle_gamma 90.000000
_cell_volume 1521.377767
_symmetry_space_group_name_H-M "C C"
_symmetry_group_IT_number 9
_symmetry_cell_setting 'monoclinic'
loop_
_space_group_symop_operation_xyz
x,y,z
x,-y,1/2+z
1/2+x,1/2+y,z
1/2+x,1/2-y,1/2+z
loop_
_atom_site_type_symbol
_atom_site_label
_atom_site_fract_x
_atom_site_fract_y
_atom_site_fract_z
Si Si1 0.104570 0.776115 0.869490
Si Si2 0.535332 0.995365 0.206920
Si Si3 0.921018 0.622454 0.544215
Si Si4 0.809875 0.206596 0.727478
Si Si5 0.235411 0.813819 0.530599
Si Si6 0.225089 0.082963 0.201934
Si Si7 0.263890 0.457533 0.556151
Si Si8 0.656164 0.172250 0.074732
O O1 0.243324 0.746888 0.817625
O O2 0.884065 0.804766 0.725952
O O3 0.248400 0.826459 0.995609
O O4 0.066990 0.722534 0.945797
O O5 0.416687 0.934216 0.128275
O O6 0.681625 0.987598 0.393674
O O7 0.359245 0.043791 0.164413
O O8 0.669458 0.012591 0.140591
O O9 0.870387 0.602371 0.381266
O O10 0.154165 0.651501 0.657094
O O11 0.761701 0.248227 0.590794
O O12 0.056585 0.187755 0.845926
O O13 0.149280 0.858228 0.598820
O O14 0.472899 0.834894 0.599160
O O15 0.021848 0.047188 0.165846
O O16 0.186137 0.390143 0.523517
#
# Coordination Sequence:
#
# PCOD9140916 Si02
#       8
#     4   4   4   4   4   4   4   4
#     4  12  22  41  70 102 140 187 238 299 366 444
#     4  12  28  50  73 109 146 198 256 303 369 444
#     4  12  24  45  75 104 142 193 248 303 370 444
#     4  12  22  43  71 101 141 193 239 296 377 439
#     4  12  23  43  69 105 151 187 242 303 373 444
#     4  12  25  48  73 104 149 195 250 309 367 438
#     4  12  27  48  78 105 151 197 248 309 369 439
#     4  12  25  42  67 108 148 184 243 302 371 442
#
# _framework density 21.033566
#
# number of rings (size 3 to 8) (size 9 to 14) (size 15 to 20)
#    0.000    0.000    7.500    3.000    1.750    0.000 
#    2.250    0.000    0.000    0.000    0.000    0.000 
#    0.000    0.000    0.000    0.000    0.000    0.000 
#
# Total GULP energy -89507.758051 kJ/mol
# GULP energy per Si atom -5594.234878 kJ/mol
# Density = 2.098569 g / cm^3
# Si number density = 21.033566 Si / 1000 Ang^3
#
#
#
# Elastic Constant Matrix: (Units=GPa)
#
#
# Indices 1 2 3 4 5 6 
#
# 1 86.5807 15.2872 12.8715 0.0000 1.6141 0.0000
# 2 15.2872 100.4935 24.9310 0.0000 -4.8292 0.0000
# 3 12.8715 24.9310 81.4618 0.0000 2.5037 0.0000
# 4 0.0000 0.0000 0.0000 36.2696 0.0000 -3.9887
# 5 1.6141 -4.8292 2.5037 0.0000 30.5038 0.0000
# 6 0.0000 0.0000 0.0000 -3.9887 0.0000 30.1530
#
#
#
# Elastic Compliance Matrix: (Units=1/GPa)
#
#
# Indices 1 2 3 4 5 6 
#
# 1 0.012042 -0.001517 -0.001415 0.000000 -0.000761 0.000000
# 2 -0.001517 0.011080 -0.003216 0.000000 0.002098 0.000000
# 3 -0.001415 -0.003216 0.013531 0.000000 -0.001545 0.000000
# 4 0.000000 0.000000 0.000000 0.027978 0.000000 0.003701
# 5 -0.000761 0.002098 -0.001545 0.000000 0.033282 0.000000
# 6 0.000000 0.000000 0.000000 0.003701 0.000000 0.033654
#
#
# Mechanical properties :
#
#
# Convention : Reuss Voigt Hill
#
# Bulk Modulus (GPa) = 41.05559 41.63503 41.34531
# Shear Modulus (GPa) = 32.89832 33.74837 33.32334
#
# Velocity S-wave (km/s) = 3.95914 4.00997 3.98464
# Velocity P-wave (km/s) = 6.36091 6.42474 6.39291
#
# Compressibility (1/GPa) = 0.02435722
#
# Stress axis : x y z
#
# Youngs Moduli (GPa) = 83.03993 90.24973 73.90476
#
# Poissons Ratio (x) = 0.13695 0.10457
# Poissons Ratio (y) = 0.12601 0.23766
# Poissons Ratio (z) = 0.11750 0.29023
#
# Static dielectric constant tensor:
#      x y z
#    x 1.769800 0.000000 -0.011000 
#    y 0.000000 1.751230 0.000000 
#    z -0.011000 0.000000 1.740560 
# 
# From -- ./inp_files/5781.got.cif
#   From: 2010.05.17/outbox.cif.g08.bks.cpg/sg9_3_cif.got.tgz:5781.got - 2010.06.03 20:04:27.
