data_PCOD9140716
_publ_section_title
;
Structure prediction by ZEFSAII (Michael W. Deem and Ramdas Pophale) SiO2 
 PCOD9140716
Probable space group: C C
;
_chemical_formula_sum "Si O2"
_cell_formula_units_Z 24
_cell_length_a 19.872458
_cell_length_b 6.720830
_cell_length_c 13.309911
_cell_angle_alpha 90.000000
_cell_angle_beta 149.888691
_cell_angle_gamma 90.000000
_cell_volume 891.821067
_symmetry_space_group_name_H-M "C C"
_symmetry_group_IT_number 9
_symmetry_cell_setting 'monoclinic'
loop_
_space_group_symop_operation_xyz
x,y,z
x,-y,1/2+z
1/2+x,1/2+y,z
1/2+x,1/2-y,1/2+z
loop_
_atom_site_type_symbol
_atom_site_label
_atom_site_fract_x
_atom_site_fract_y
_atom_site_fract_z
Si Si1 0.343150 0.276481 0.769410
Si Si2 0.549949 0.012136 0.559717
Si Si3 0.901619 0.331198 0.049820
Si Si4 0.127894 0.406444 0.945360
Si Si5 0.742287 0.445178 0.489509
Si Si6 0.832206 0.895042 0.985301
O O1 0.271330 0.474146 0.635268
O O2 0.334318 0.292576 0.878411
O O3 0.273675 0.094732 0.620171
O O4 0.497082 0.205909 0.955146
O O5 0.436133 0.119350 0.479071
O O6 0.596506 0.129595 0.522195
O O7 0.678773 0.972738 0.793737
O O8 0.019681 0.438160 0.263858
O O9 0.761033 0.415304 0.914679
O O10 0.913275 0.097986 0.085386
O O11 0.127278 0.200940 0.882163
O O12 0.846344 0.270353 0.588754
#
# Coordination Sequence:
#
# PCOD9140716 Si02
#       6
#     4   4   4   4   4   4
#     4  11  26  48  72 112 155 197 261 317 387 459
#     4  11  25  48  70 115 151 192 264 315 388 454
#     4  12  26  50  76 110 157 202 265 316 385 471
#     4  11  27  48  76 111 155 203 261 315 397 452
#     4  12  25  49  74 113 152 201 257 321 381 471
#     4  11  27  49  76 111 154 203 262 316 388 463
#
# _framework density 26.911227
#
# number of rings (size 3 to 8) (size 9 to 14) (size 15 to 20)
#    0.000    0.667    5.000    1.000    4.667    2.667 
#    9.000    0.000    0.000    0.000    0.000    0.000 
#    0.000    0.000    0.000    0.000    0.000    0.000 
#
# Total GULP energy -67003.449745 kJ/mol
# GULP energy per Si atom -5583.620812 kJ/mol
# Density = 2.684998 g / cm^3
# Si number density = 26.911227 Si / 1000 Ang^3
#
#
#
# Elastic Constant Matrix: (Units=GPa)
#
#
# Indices 1 2 3 4 5 6 
#
# 1 161.3781 88.7272 -5.4332 0.0000 -18.0143 0.0000
# 2 88.7272 202.8353 39.9555 0.0000 -8.4488 0.0000
# 3 -5.4332 39.9555 57.6791 0.0000 1.4043 0.0000
# 4 0.0000 0.0000 0.0000 43.7437 0.0000 -3.9883
# 5 -18.0143 -8.4488 1.4043 0.0000 31.1056 0.0000
# 6 0.0000 0.0000 0.0000 -3.9883 0.0000 49.6100
#
#
#
# Elastic Compliance Matrix: (Units=1/GPa)
#
#
# Indices 1 2 3 4 5 6 
#
# 1 0.009383 -0.004741 0.004072 0.000000 0.003962 0.000000
# 2 -0.004741 0.008200 -0.006121 0.000000 -0.000242 0.000000
# 3 0.004072 -0.006121 0.021968 0.000000 -0.000296 0.000000
# 4 0.000000 0.000000 0.000000 0.023029 0.000000 0.001851
# 5 0.003962 -0.000242 -0.000296 0.000000 0.034391 0.000000
# 6 0.000000 0.000000 0.000000 0.001851 0.000000 0.020306
#
#
# Mechanical properties :
#
#
# Convention : Reuss Voigt Hill
#
# Bulk Modulus (GPa) = 38.50610 74.26572 56.38591
# Shear Modulus (GPa) = 35.83852 44.80139 40.31996
#
# Velocity S-wave (km/s) = 3.65325 4.08460 3.87493
# Velocity P-wave (km/s) = 5.66874 7.06412 6.40454
#
# Compressibility (1/GPa) = 0.02596991
#
# Stress axis : x y z
#
# Youngs Moduli (GPa) = 106.57649 121.95371 45.52041
#
# Poissons Ratio (x) = 0.57824 -0.18535
# Poissons Ratio (y) = 0.50533 0.27863
# Poissons Ratio (z) = -0.43397 0.74647
#
# Static dielectric constant tensor:
#      x y z
#    x 2.231700 0.000000 0.101330 
#    y 0.000000 2.071600 0.000000 
#    z 0.101330 0.000000 2.219520 
# 
# From -- ./inp_files/27181.got.cif
#   From: 2010.05.17/outbox.cif.g08.bks.cpg/sg9_14_cif.got.tgz:27181.got - 2010.06.03 20:04:27.
