data_PCOD9140818
_publ_section_title
;
Structure prediction by ZEFSAII (Michael W. Deem and Ramdas Pophale) SiO2 
 PCOD9140818
Probable space group: C C
;
_chemical_formula_sum "Si O2"
_cell_formula_units_Z 32
_cell_length_a 5.893181
_cell_length_b 15.029166
_cell_length_c 15.475337
_cell_angle_alpha 90.000000
_cell_angle_beta 117.566509
_cell_angle_gamma 90.000000
_cell_volume 1215.040895
_symmetry_space_group_name_H-M "C C"
_symmetry_group_IT_number 9
_symmetry_cell_setting 'monoclinic'
loop_
_space_group_symop_operation_xyz
x,y,z
x,-y,1/2+z
1/2+x,1/2+y,z
1/2+x,1/2-y,1/2+z
loop_
_atom_site_type_symbol
_atom_site_label
_atom_site_fract_x
_atom_site_fract_y
_atom_site_fract_z
Si Si1 0.008080 0.861378 0.635350
Si Si2 0.828535 0.482094 0.150898
Si Si3 0.093810 0.591699 0.922300
Si Si4 0.289850 0.936468 0.956193
Si Si5 0.291709 0.388471 0.766710
Si Si6 0.694772 0.747159 0.890415
Si Si7 0.726427 0.865600 0.265264
Si Si8 0.219176 0.696119 0.582859
O O1 0.143222 0.956737 0.674322
O O2 0.196941 0.788764 0.629614
O O3 0.801471 0.873899 0.525310
O O4 0.876498 0.830269 0.699588
O O5 0.094068 0.538508 0.196083
O O6 0.921326 0.383348 0.192947
O O7 0.715438 0.478494 0.035165
O O8 0.219238 0.573831 0.851372
O O9 0.982099 0.501858 0.941570
O O10 0.870459 0.666935 0.884053
O O11 0.053115 0.924346 0.852718
O O12 0.446796 0.847915 0.008271
O O13 0.183926 0.329527 0.824346
O O14 0.403085 0.710879 0.839147
O O15 0.815096 0.779067 0.003534
O O16 0.823272 0.866344 0.180706
#
# Coordination Sequence:
#
# PCOD9140818 Si02
#       8
#     4   4   4   4   4   4   4   4
#     4  12  25  46  78 107 152 198 257 314 380 456
#     4  11  26  48  75 114 150 205 255 317 384 463
#     4  12  25  47  76 108 150 204 254 314 385 452
#     4  11  26  49  74 113 158 200 260 315 387 458
#     4  12  27  45  79 110 155 205 256 317 389 455
#     4  12  27  46  78 112 151 202 257 318 384 462
#     4  11  26  48  75 108 156 199 252 320 386 457
#     4  11  26  47  73 112 152 193 257 317 383 457
#
# _framework density 26.336563000000002
#
# number of rings (size 3 to 8) (size 9 to 14) (size 15 to 20)
#    0.000    0.500    2.500    4.500    8.750    0.000 
#    4.500    0.000    0.000    0.000    0.000    0.000 
#    0.000    0.000    0.000    0.000    0.000    0.000 
#
# Total GULP energy -89341.603105 kJ/mol
# GULP energy per Si atom -5583.850194 kJ/mol
# Density = 2.627662 g / cm^3
# Si number density = 26.336563 Si / 1000 Ang^3
#
#
#
# Elastic Constant Matrix: (Units=GPa)
#
#
# Indices 1 2 3 4 5 6 
#
# 1 29.8864 27.3362 18.0587 0.0000 -14.3427 0.0000
# 2 27.3362 88.0655 22.1260 0.0000 -11.1610 0.0000
# 3 18.0587 22.1260 171.9287 0.0000 -16.4593 0.0000
# 4 0.0000 0.0000 0.0000 36.4132 0.0000 9.9279
# 5 -14.3427 -11.1610 -16.4593 0.0000 47.5837 0.0000
# 6 0.0000 0.0000 0.0000 9.9279 0.0000 42.7632
#
#
#
# Elastic Compliance Matrix: (Units=1/GPa)
#
#
# Indices 1 2 3 4 5 6 
#
# 1 0.054211 -0.014640 -0.002663 0.000000 0.011986 0.000000
# 2 -0.014640 0.015938 -0.000598 0.000000 -0.000881 0.000000
# 3 -0.002663 -0.000598 0.006291 0.000000 0.001233 0.000000
# 4 0.000000 0.000000 0.000000 0.029318 0.000000 -0.006807
# 5 0.011986 -0.000881 0.001233 0.000000 0.024848 0.000000
# 6 0.000000 0.000000 0.000000 -0.006807 0.000000 0.024965
#
#
# Mechanical properties :
#
#
# Convention : Reuss Voigt Hill
#
# Bulk Modulus (GPa) = 24.60618 47.21359 35.90989
# Shear Modulus (GPa) = 24.39989 40.17599 32.28794
#
# Velocity S-wave (km/s) = 3.04709 3.90998 3.50519
# Velocity P-wave (km/s) = 4.66293 6.19273 5.48146
#
# Compressibility (1/GPa) = 0.04064019
#
# Stress axis : x y z
#
# Youngs Moduli (GPa) = 18.44628 62.74329 158.95627
#
# Poissons Ratio (x) = 0.91854 0.42326
# Poissons Ratio (y) = 0.27005 0.09502
# Poissons Ratio (z) = 0.04912 0.03751
#
# Static dielectric constant tensor:
#      x y z
#    x 2.097470 0.000000 -0.001860 
#    y 0.000000 2.189690 0.000000 
#    z -0.001860 0.000000 1.992120 
# 
# From -- ./inp_files/22108.got.cif
#   From: 2010.05.17/outbox.cif.g08.bks.cpg/sg9_12_cif.got.tgz:22108.got - 2010.06.03 20:04:27.
