data_PCOD9140885
_publ_section_title
;
Structure prediction by ZEFSAII (Michael W. Deem and Ramdas Pophale) SiO2 
 PCOD9140885
Probable space group: C C
;
_chemical_formula_sum "Si O2"
_cell_formula_units_Z 32
_cell_length_a 7.345801
_cell_length_b 7.321342
_cell_length_c 23.604777
_cell_angle_alpha 90.000000
_cell_angle_beta 69.766567
_cell_angle_gamma 90.000000
_cell_volume 1191.152811
_symmetry_space_group_name_H-M "C C"
_symmetry_group_IT_number 9
_symmetry_cell_setting 'monoclinic'
loop_
_space_group_symop_operation_xyz
x,y,z
x,-y,1/2+z
1/2+x,1/2+y,z
1/2+x,1/2-y,1/2+z
loop_
_atom_site_type_symbol
_atom_site_label
_atom_site_fract_x
_atom_site_fract_y
_atom_site_fract_z
Si Si1 0.686730 0.651166 0.765990
Si Si2 0.040193 0.763253 0.668177
Si Si3 0.577384 0.959967 0.572078
Si Si4 0.174133 0.255171 0.970292
Si Si5 0.905307 0.749562 0.396146
Si Si6 0.813601 0.251816 0.740978
Si Si7 0.663794 0.467069 0.064500
Si Si8 0.032263 0.350261 0.371699
O O1 0.521240 0.667824 0.735088
O O2 0.568805 0.669003 0.836590
O O3 0.855073 0.789212 0.729279
O O4 0.806161 0.465347 0.756635
O O5 0.048459 0.573124 0.632818
O O6 0.230465 0.753102 0.686756
O O7 0.025924 0.921008 0.622269
O O8 0.641555 0.750488 0.570500
O O9 0.370555 0.967402 0.564528
O O10 0.695850 0.093417 0.517138
O O11 0.197603 0.665317 0.902798
O O12 0.985076 0.256803 0.951053
O O13 0.153912 0.060364 0.004273
O O14 0.860429 0.217935 0.409724
O O15 0.915898 0.537531 0.378604
O O16 0.650534 0.174897 0.801469
#
# Coordination Sequence:
#
# PCOD9140885 Si02
#       8
#     4   4   4   4   4   4   4   4
#     4  11  28  49  76 119 162 205 265 331 408 499
#     4  11  27  50  86 110 161 217 266 334 420 485
#     4  11  28  53  75 118 155 207 278 341 403 484
#     4  11  27  50  86 110 161 217 266 334 420 485
#     4  11  28  49  76 119 162 205 265 331 408 499
#     4  11  28  49  76 119 162 205 265 331 408 499
#     4  11  28  53  75 118 155 207 278 341 403 484
#     4  11  28  49  76 119 162 205 265 331 408 499
#
# _framework density 26.864732
#
# number of rings (size 3 to 8) (size 9 to 14) (size 15 to 20)
#    0.000    1.000    0.000    2.250   14.000   16.000 
#    0.000    3.750    0.000    0.000    0.000    0.000 
#    0.000    0.000    0.000    0.000    0.000    0.000 
#
# Total GULP energy -89695.105873 kJ/mol
# GULP energy per Si atom -5605.944117 kJ/mol
# Density = 2.680359 g / cm^3
# Si number density = 26.864732 Si / 1000 Ang^3
#
#
#
# Elastic Constant Matrix: (Units=GPa)
#
#
# Indices 1 2 3 4 5 6 
#
# 1 114.5490 19.5760 33.0764 0.0000 10.1654 0.0000
# 2 19.5760 110.0313 38.8111 0.0000 -0.0355 0.0000
# 3 33.0764 38.8111 83.9696 0.0000 19.0349 0.0000
# 4 0.0000 0.0000 0.0000 25.8628 0.0000 14.5899
# 5 10.1654 -0.0355 19.0349 0.0000 47.4118 0.0000
# 6 0.0000 0.0000 0.0000 14.5899 0.0000 25.7609
#
#
#
# Elastic Compliance Matrix: (Units=1/GPa)
#
#
# Indices 1 2 3 4 5 6 
#
# 1 0.009892 -0.000530 -0.003488 0.000000 -0.000721 0.000000
# 2 -0.000530 0.011105 -0.005447 0.000000 0.002309 0.000000
# 3 -0.003488 -0.005447 0.017197 0.000000 -0.006161 0.000000
# 4 0.000000 0.000000 0.000000 0.056819 0.000000 -0.032180
# 5 -0.000721 0.002309 -0.006161 0.000000 0.023721 0.000000
# 6 0.000000 0.000000 0.000000 -0.032180 0.000000 0.057044
#
#
# Mechanical properties :
#
#
# Convention : Reuss Voigt Hill
#
# Bulk Modulus (GPa) = 51.91233 54.60853 53.26043
# Shear Modulus (GPa) = 24.85956 34.27952 29.56954
#
# Velocity S-wave (km/s) = 3.04527 3.57600 3.32125
# Velocity P-wave (km/s) = 5.63298 6.11733 5.88014
#
# Compressibility (1/GPa) = 0.01926325
#
# Stress axis : x y z
#
# Youngs Moduli (GPa) = 101.09592 90.05137 58.14813
#
# Poissons Ratio (x) = 0.04770 0.20283
# Poissons Ratio (y) = 0.05355 0.31676
# Poissons Ratio (z) = 0.35264 0.49055
#
# Static dielectric constant tensor:
#      x y z
#    x 2.173210 0.000000 -0.060810 
#    y 0.000000 2.157180 0.000000 
#    z -0.060810 0.000000 2.190620 
# 
# From -- ./inp_files/35124.got.cif
#   From: 2010.05.17/outbox.cif.g08.bks.cpg/sg9_18_cif.got.tgz:35124.got - 2010.06.03 20:04:27.
