data_PCOD9140381
_publ_section_title
;
Structure prediction by ZEFSAII (Michael W. Deem and Ramdas Pophale) SiO2 
 PCOD9140381
Probable space group: C C
;
_chemical_formula_sum "Si O2"
_cell_formula_units_Z 24
_cell_length_a 13.232545
_cell_length_b 4.978434
_cell_length_c 13.387990
_cell_angle_alpha 90.000000
_cell_angle_beta 92.081751
_cell_angle_gamma 90.000000
_cell_volume 881.383244
_symmetry_space_group_name_H-M "C C"
_symmetry_group_IT_number 9
_symmetry_cell_setting 'monoclinic'
loop_
_space_group_symop_operation_xyz
x,y,z
x,-y,1/2+z
1/2+x,1/2+y,z
1/2+x,1/2-y,1/2+z
loop_
_atom_site_type_symbol
_atom_site_label
_atom_site_fract_x
_atom_site_fract_y
_atom_site_fract_z
Si Si1 0.793460 0.314216 0.306890
Si Si2 0.852673 0.064040 0.990870
Si Si3 0.967346 0.363308 0.827769
Si Si4 0.094498 0.118238 0.359071
Si Si5 0.679415 0.010601 0.638614
Si Si6 0.554765 0.528886 0.590171
O O1 0.704976 0.521275 0.332955
O O2 0.746577 0.088289 0.233431
O O3 0.883252 0.485860 0.259575
O O4 0.837333 0.162797 0.405554
O O5 0.902954 0.304169 0.927826
O O6 0.745896 0.065651 0.043584
O O7 0.935365 0.014106 0.079912
O O8 0.058424 0.575340 0.847362
O O9 0.013784 0.076683 0.800652
O O10 0.081665 0.033933 0.473201
O O11 0.582512 0.819838 0.630870
O O12 0.631649 0.306739 0.637137
#
# Coordination Sequence:
#
# PCOD9140381 Si02
#       6
#     4   4   4   4   4   4
#     4  12  27  45  77 108 148 195 249 306 369 433
#     4  11  26  48  77 104 149 197 249 297 372 444
#     4  11  24  44  73 106 134 195 240 301 364 436
#     4  11  24  43  76 100 143 188 246 295 369 433
#     4  12  29  44  71 110 148 189 247 307 363 436
#     4  11  24  48  68 104 146 190 239 304 371 430
#
# _framework density 27.229925999999999
#
# number of rings (size 3 to 8) (size 9 to 14) (size 15 to 20)
#    0.000    0.667    5.000    3.000    4.667    2.667 
#    0.000    0.000    0.000    0.000    0.000    0.000 
#    0.000    0.000    0.000    0.000    0.000    0.000 
#
# Total GULP energy -67260.228364 kJ/mol
# GULP energy per Si atom -5605.019030 kJ/mol
# Density = 2.716795 g / cm^3
# Si number density = 27.229926 Si / 1000 Ang^3
#
#
#
# Elastic Constant Matrix: (Units=GPa)
#
#
# Indices 1 2 3 4 5 6 
#
# 1 153.2858 47.1590 20.5579 0.0000 2.6836 0.0000
# 2 47.1590 159.1274 24.2464 0.0000 1.8283 0.0000
# 3 20.5579 24.2464 59.4918 0.0000 1.9925 0.0000
# 4 0.0000 0.0000 0.0000 42.1072 0.0000 0.4315
# 5 2.6836 1.8283 1.9925 0.0000 52.6524 0.0000
# 6 0.0000 0.0000 0.0000 0.4315 0.0000 54.1378
#
#
#
# Elastic Compliance Matrix: (Units=1/GPa)
#
#
# Indices 1 2 3 4 5 6 
#
# 1 0.007350 -0.001908 -0.001754 0.000000 -0.000242 0.000000
# 2 -0.001908 0.007197 -0.002271 0.000000 -0.000067 0.000000
# 3 -0.001754 -0.002271 0.018359 0.000000 -0.000526 0.000000
# 4 0.000000 0.000000 0.000000 0.023751 0.000000 -0.000189
# 5 -0.000242 -0.000067 -0.000526 0.000000 0.019027 0.000000
# 6 0.000000 0.000000 0.000000 -0.000189 0.000000 0.018473
#
#
# Mechanical properties :
#
#
# Convention : Reuss Voigt Hill
#
# Bulk Modulus (GPa) = 47.53320 61.75906 54.64613
# Shear Modulus (GPa) = 44.23346 48.44228 46.33787
#
# Velocity S-wave (km/s) = 4.03481 4.22241 4.12967
# Velocity P-wave (km/s) = 6.26102 6.81920 6.54606
#
# Compressibility (1/GPa) = 0.02103793
#
# Stress axis : x y z
#
# Youngs Moduli (GPa) = 136.04797 138.95308 54.47054
#
# Poissons Ratio (x) = 0.26516 0.09555
# Poissons Ratio (y) = 0.25962 0.12372
# Poissons Ratio (z) = 0.23865 0.31562
#
# Static dielectric constant tensor:
#      x y z
#    x 2.143500 0.000000 -0.018550 
#    y 0.000000 2.083310 0.000000 
#    z -0.018550 0.000000 2.267370 
# 
# From -- ./inp_files/25191.got.cif
#   From: 2010.05.17/outbox.cif.g08.bks.cpg/sg9_13_cif.got.tgz:25191.got - 2010.06.03 20:04:27.
