data_PCOD9140424
_publ_section_title
;
Structure prediction by ZEFSAII (Michael W. Deem and Ramdas Pophale) SiO2 
 PCOD9140424
Probable space group: C C
;
_chemical_formula_sum "Si O2"
_cell_formula_units_Z 32
_cell_length_a 12.412977
_cell_length_b 12.198399
_cell_length_c 9.422283
_cell_angle_alpha 90.000000
_cell_angle_beta 74.098120
_cell_angle_gamma 90.000000
_cell_volume 1372.110667
_symmetry_space_group_name_H-M "C C"
_symmetry_group_IT_number 9
_symmetry_cell_setting 'monoclinic'
loop_
_space_group_symop_operation_xyz
x,y,z
x,-y,1/2+z
1/2+x,1/2+y,z
1/2+x,1/2-y,1/2+z
loop_
_atom_site_type_symbol
_atom_site_label
_atom_site_fract_x
_atom_site_fract_y
_atom_site_fract_z
Si Si1 0.598410 0.086251 0.521520
Si Si2 0.048800 0.630459 0.868176
Si Si3 0.850985 0.012581 0.461756
Si Si4 0.781497 0.230214 0.897368
Si Si5 0.137657 0.812228 0.455555
Si Si6 0.230507 0.089057 0.645942
Si Si7 0.826964 0.343745 0.597427
Si Si8 0.995272 0.989438 0.655063
O O1 0.555193 0.104398 0.697880
O O2 0.731284 0.064788 0.479100
O O3 0.583293 0.196996 0.437430
O O4 0.550394 0.982946 0.456449
O O5 0.156259 0.698770 0.885367
O O6 0.931296 0.681397 0.958418
O O7 0.946021 0.053643 0.319754
O O8 0.834080 0.882974 0.435190
O O9 0.891382 0.037668 0.605692
O O10 0.843102 0.288228 0.743670
O O11 0.776748 0.319540 0.023989
O O12 0.216671 0.863254 0.307908
O O13 0.214895 0.796930 0.565553
O O14 0.042655 0.896147 0.535413
O O15 0.297671 0.974226 0.620925
O O16 0.102158 0.064473 0.645076
#
# Coordination Sequence:
#
# PCOD9140424 Si02
#       8
#     4   4   4   4   4   4   4   4
#     4  11  26  47  69 102 143 177 239 280 355 425
#     4  11  27  46  71 100 140 188 224 295 348 424
#     4  11  25  45  73 103 140 184 233 297 351 421
#     4  11  26  47  71 106 138 185 241 286 357 421
#     4  11  25  45  69 106 137 181 231 289 349 425
#     4  11  26  45  71 105 139 181 237 296 346 429
#     4  11  25  48  70  99 147 181 234 286 356 418
#     4  11  24  45  70 105 136 179 233 291 354 413
#
# _framework density 23.321733999999999
#
# number of rings (size 3 to 8) (size 9 to 14) (size 15 to 20)
#    0.000    1.000    2.500    3.000   12.250    2.000 
#    0.000    0.000    0.000    0.000    0.000    0.000 
#    0.000    0.000    0.000    0.000    0.000    0.000 
#
# Total GULP energy -89572.816242 kJ/mol
# GULP energy per Si atom -5598.301015 kJ/mol
# Density = 2.326865 g / cm^3
# Si number density = 23.321734 Si / 1000 Ang^3
#
#
#
# Elastic Constant Matrix: (Units=GPa)
#
#
# Indices 1 2 3 4 5 6 
#
# 1 37.6352 -38.2466 31.7854 0.0000 -6.9070 0.0000
# 2 -38.2466 61.6112 91.5186 0.0000 -2.6612 0.0000
# 3 31.7854 91.5186 76.5191 0.0000 -23.0152 0.0000
# 4 0.0000 0.0000 0.0000 35.1690 0.0000 2.5500
# 5 -6.9070 -2.6612 -23.0152 0.0000 35.7551 0.0000
# 6 0.0000 0.0000 0.0000 2.5500 0.0000 -13.2971
#
#
#
# Elastic Compliance Matrix: (Units=1/GPa)
#
#
# Indices 1 2 3 4 5 6 
#
# 1 0.008831 -0.010011 0.010658 0.000000 0.007821 0.000000
# 2 -0.010011 -0.003083 0.008922 0.000000 0.003580 0.000000
# 3 0.010658 0.008922 -0.001502 0.000000 0.001756 0.000000
# 4 0.000000 0.000000 0.000000 0.028044 0.000000 0.005378
# 5 0.007821 0.003580 0.001756 0.000000 0.030876 0.000000
# 6 0.000000 0.000000 0.000000 0.005378 0.000000 -0.074173
#
#
# Mechanical properties :
#
#
# Convention : Reuss Voigt Hill
#
# Bulk Modulus (GPa) = 42.76335 38.43114 40.59724
# Shear Modulus (GPa) = -223.72336 17.57261 -103.07537
#
# Velocity S-wave (km/s) = -9.80497 2.74795 -6.65530
# Velocity P-wave (km/s) = 10.47889 5.15585 6.45075
#
# Compressibility (1/GPa) = 0.02338451
#
# Stress axis : x y z
#
# Youngs Moduli (GPa) = 113.23533 -324.39217 -665.98996
#
# Poissons Ratio (x) = -3.24758 7.09795
# Poissons Ratio (y) = 1.13363 5.94217
# Poissons Ratio (z) = -1.20683 2.89433
#
# Static dielectric constant tensor:
#      x y z
#    x 1.853790 0.000000 0.018260 
#    y 0.000000 1.907180 0.000000 
#    z 0.018260 0.000000 1.827060 
# 
# From -- ./inp_files/9186.got.cif
#   From: 2010.05.17/outbox.cif.g08.bks.cpg/sg9_5_cif.got.tgz:9186.got - 2010.06.03 20:04:27.
