data_PCOD9140400
_publ_section_title
;
Structure prediction by ZEFSAII (Michael W. Deem and Ramdas Pophale) SiO2 
 PCOD9140400
Probable space group: C C
;
_chemical_formula_sum "Si O2"
_cell_formula_units_Z 24
_cell_length_a 20.724638
_cell_length_b 5.166026
_cell_length_c 22.314952
_cell_angle_alpha 90.000000
_cell_angle_beta 155.345075
_cell_angle_gamma 90.000000
_cell_volume 996.630220
_symmetry_space_group_name_H-M "C C"
_symmetry_group_IT_number 9
_symmetry_cell_setting 'monoclinic'
loop_
_space_group_symop_operation_xyz
x,y,z
x,-y,1/2+z
1/2+x,1/2+y,z
1/2+x,1/2-y,1/2+z
loop_
_atom_site_type_symbol
_atom_site_label
_atom_site_fract_x
_atom_site_fract_y
_atom_site_fract_z
Si Si1 0.481140 0.889530 0.377790
Si Si2 0.579565 0.459614 0.666615
Si Si3 0.449559 0.033066 0.990547
Si Si4 0.766044 0.434867 0.101250
Si Si5 0.543998 0.682632 0.270349
Si Si6 0.667042 0.178252 0.436914
O O1 0.491483 0.924328 0.456452
O O2 0.587751 0.648630 0.448370
O O3 0.551964 0.107181 0.394304
O O4 0.308184 0.898854 0.206614
O O5 0.503455 0.724001 0.576979
O O6 0.516310 0.361191 0.677130
O O7 0.535959 0.225869 0.585299
O O8 0.763348 0.498359 0.832569
O O9 0.799623 0.694416 0.091611
O O10 0.880363 0.233716 0.164904
O O11 0.627370 0.425639 0.363466
O O12 0.649403 0.931295 0.378009
#
# Coordination Sequence:
#
# PCOD9140400 Si02
#       6
#     4   4   4   4   4   4
#     4  11  27  43  78 109 154 192 251 305 379 457
#     4  12  29  54  77 113 152 216 254 325 366 472
#     4  12  29  51  80 110 159 206 265 307 388 446
#     4  11  24  46  74 113 145 194 238 321 379 446
#     4  11  27  46  75 106 153 194 254 303 388 447
#     4  11  24  44  72 111 143 192 236 319 372 446
#
# _framework density 24.081150999999998
#
# number of rings (size 3 to 8) (size 9 to 14) (size 15 to 20)
#    0.000    0.667    3.333    3.000   11.667    1.333 
#    0.000    0.000    0.000    0.000    0.000    0.000 
#    0.000    0.000    0.000    0.000    0.000    0.000 
#
# Total GULP energy -66974.339268 kJ/mol
# GULP energy per Si atom -5581.194939 kJ/mol
# Density = 2.402634 g / cm^3
# Si number density = 24.081151 Si / 1000 Ang^3
#
#
#
# Elastic Constant Matrix: (Units=GPa)
#
#
# Indices 1 2 3 4 5 6 
#
# 1 104.8957 27.9024 28.3045 0.0004 -32.2157 0.0003
# 2 27.9024 213.6055 74.2701 0.0011 -15.5908 0.0035
# 3 28.3045 74.2701 138.7972 -0.0003 -19.3092 0.0002
# 4 0.0004 0.0011 -0.0003 47.8075 -0.0002 -11.2750
# 5 -32.2157 -15.5908 -19.3092 -0.0002 41.0575 -0.0002
# 6 0.0003 0.0035 0.0002 -11.2750 -0.0002 19.5903
#
#
#
# Elastic Compliance Matrix: (Units=1/GPa)
#
#
# Indices 1 2 3 4 5 6 
#
# 1 0.012849 -0.000659 -0.000963 0.000000 0.009379 0.000000
# 2 -0.000659 0.005809 -0.002931 0.000000 0.000310 -0.000001
# 3 -0.000963 -0.002931 0.009319 0.000000 0.002514 0.000001
# 4 0.000000 0.000000 0.000000 0.024202 0.000000 0.013929
# 5 0.009379 0.000310 0.002514 0.000000 0.033015 0.000000
# 6 0.000000 -0.000001 0.000001 0.013929 0.000000 0.059063
#
#
# Mechanical properties :
#
#
# Convention : Reuss Voigt Hill
#
# Bulk Modulus (GPa) = 52.98943 79.80581 66.39762
# Shear Modulus (GPa) = 31.31772 43.47916 37.39844
#
# Velocity S-wave (km/s) = 3.61017 4.25376 3.94511
# Velocity P-wave (km/s) = 6.27933 7.57220 6.95587
#
# Compressibility (1/GPa) = 0.01887169
#
# Stress axis : x y z
#
# Youngs Moduli (GPa) = 77.82832 172.13547 107.30460
#
# Poissons Ratio (x) = 0.11345 0.10331
# Poissons Ratio (y) = 0.05130 0.31451
# Poissons Ratio (z) = 0.07493 0.50453
#
# Static dielectric constant tensor:
#      x y z
#    x 1.904290 0.000000 0.012560 
#    y 0.000000 2.036630 0.000000 
#    z 0.012560 0.000000 2.323740 
# 
# From -- ./inp_files/36056.got.cif
#   From: 2010.05.17/outbox.cif.g08.bks.cpg/sg9_19_cif.got.tgz:36056.got - 2010.06.03 20:04:27.
