data_PCOD9140402
_publ_section_title
;
Structure prediction by ZEFSAII (Michael W. Deem and Ramdas Pophale) SiO2 
 PCOD9140402
Probable space group: C C
;
_chemical_formula_sum "Si O2"
_cell_formula_units_Z 32
_cell_length_a 17.625027
_cell_length_b 15.457789
_cell_length_c 13.222902
_cell_angle_alpha 90.000000
_cell_angle_beta 22.177046
_cell_angle_gamma 90.000000
_cell_volume 1359.834929
_symmetry_space_group_name_H-M "C C"
_symmetry_group_IT_number 9
_symmetry_cell_setting 'monoclinic'
loop_
_space_group_symop_operation_xyz
x,y,z
x,-y,1/2+z
1/2+x,1/2+y,z
1/2+x,1/2-y,1/2+z
loop_
_atom_site_type_symbol
_atom_site_label
_atom_site_fract_x
_atom_site_fract_y
_atom_site_fract_z
Si Si1 0.976070 0.653313 0.831980
Si Si2 0.782706 0.790076 0.126598
Si Si3 0.645467 0.637260 0.092657
Si Si4 0.544388 0.960901 0.794144
Si Si5 0.648854 0.632708 0.527762
Si Si6 0.614170 0.464432 0.432905
Si Si7 0.086166 0.670313 0.061778
Si Si8 0.927897 0.972004 0.460199
O O1 0.141249 0.665513 0.721373
O O2 0.028275 0.550728 0.754771
O O3 0.769438 0.685736 0.149091
O O4 0.869075 0.659970 0.849615
O O5 0.763361 0.832108 0.259175
O O6 0.000462 0.781915 0.799825
O O7 0.543294 0.560185 0.283984
O O8 0.610386 0.610107 0.021780
O O9 0.602820 0.885200 0.642872
O O10 0.711014 0.967987 0.676222
O O11 0.324718 0.952340 0.114853
O O12 0.603041 0.554165 0.508390
O O13 0.564334 0.727386 0.608519
O O14 0.556329 0.603308 0.748861
O O15 0.887844 0.639560 0.247713
O O16 0.439721 0.461844 0.565246
#
# Coordination Sequence:
#
# PCOD9140402 Si02
#       8
#     4   4   4   4   4   4   4   4
#     4  12  24  45  71 106 147 183 243 300 363 434
#     4  12  25  43  72 109 143 189 243 301 365 428
#     4  11  25  43  69 101 141 187 238 298 355 435
#     4  12  24  46  73 109 143 195 239 295 379 442
#     4  11  25  46  72 115 148 191 245 315 364 437
#     4  11  24  49  71 100 151 189 243 296 364 443
#     4  12  25  44  75 111 149 186 247 311 371 426
#     4  11  24  44  73 105 146 192 242 296 367 445
#
# _framework density 23.532267999999998
#
# number of rings (size 3 to 8) (size 9 to 14) (size 15 to 20)
#    0.000    0.500    5.000    3.750    0.000    3.000 
#    0.000    1.250    0.000    0.000    0.000    0.000 
#    0.000    0.000    0.000    0.000    0.000    0.000 
#
# Total GULP energy -89212.360066 kJ/mol
# GULP energy per Si atom -5575.772504 kJ/mol
# Density = 2.347871 g / cm^3
# Si number density = 23.532268 Si / 1000 Ang^3
#
#
#
# Elastic Constant Matrix: (Units=GPa)
#
#
# Indices 1 2 3 4 5 6 
#
# 1 191.4596 64.5960 43.7919 -0.0041 -1.7914 0.0048
# 2 64.5960 96.9657 20.0617 -0.0034 10.7992 0.0078
# 3 43.7919 20.0617 45.5750 -0.0021 -9.6056 0.0119
# 4 -0.0041 -0.0034 -0.0021 41.6923 0.0017 5.4113
# 5 -1.7914 10.7992 -9.6056 0.0017 32.7725 -0.0042
# 6 0.0048 0.0078 0.0119 5.4113 -0.0042 42.5795
#
#
#
# Elastic Compliance Matrix: (Units=1/GPa)
#
#
# Indices 1 2 3 4 5 6 
#
# 1 0.007932 -0.004092 -0.005803 0.000000 0.000081 0.000001
# 2 -0.004092 0.014489 -0.003730 0.000001 -0.006091 -0.000002
# 3 -0.005803 -0.003730 0.031284 0.000001 0.010081 -0.000007
# 4 0.000000 0.000001 0.000001 0.024387 -0.000002 -0.003099
# 5 0.000081 -0.006091 0.010081 -0.000002 0.035480 0.000002
# 6 0.000001 -0.000002 -0.000007 -0.003099 0.000002 0.023879
#
#
# Mechanical properties :
#
#
# Convention : Reuss Voigt Hill
#
# Bulk Modulus (GPa) = 37.79935 65.65550 51.72742
# Shear Modulus (GPa) = 28.81511 37.11226 32.96368
#
# Velocity S-wave (km/s) = 3.50307 3.97555 3.74677
# Velocity P-wave (km/s) = 5.69734 7.00244 6.38333
#
# Compressibility (1/GPa) = 0.02645548
#
# Stress axis : x y z
#
# Youngs Moduli (GPa) = 126.07463 69.01685 31.96501
#
# Poissons Ratio (x) = 0.28245 0.18549
# Poissons Ratio (y) = 0.51595 0.11921
# Poissons Ratio (z) = 0.73160 0.25740
#
# Static dielectric constant tensor:
#      x y z
#    x 1.926580 0.000000 -0.032870 
#    y 0.000000 1.753700 -0.000020 
#    z -0.032870 -0.000020 2.006520 
# 
# From -- ./inp_files/18569.got.cif
#   From: 2010.05.17/outbox.cif.g08.bks.cpg/sg9_10_cif.got.tgz:18569.got - 2010.06.03 20:04:27.
