data_PCOD9140531
_publ_section_title
;
Structure prediction by ZEFSAII (Michael W. Deem and Ramdas Pophale) SiO2 
 PCOD9140531
Probable space group: C C
;
_chemical_formula_sum "Si O2"
_cell_formula_units_Z 28
_cell_length_a 6.556599
_cell_length_b 22.979502
_cell_length_c 7.850416
_cell_angle_alpha 90.000000
_cell_angle_beta 91.113376
_cell_angle_gamma 90.000000
_cell_volume 1182.578300
_symmetry_space_group_name_H-M "C C"
_symmetry_group_IT_number 9
_symmetry_cell_setting 'monoclinic'
loop_
_space_group_symop_operation_xyz
x,y,z
x,-y,1/2+z
1/2+x,1/2+y,z
1/2+x,1/2-y,1/2+z
loop_
_atom_site_type_symbol
_atom_site_label
_atom_site_fract_x
_atom_site_fract_y
_atom_site_fract_z
Si Si1 0.177830 0.369364 0.522210
Si Si2 0.911344 0.266975 0.357408
Si Si3 0.632130 0.825270 0.886026
Si Si4 0.667679 0.937414 0.073988
Si Si5 0.526720 0.418146 0.276408
Si Si6 0.932018 0.532906 0.900880
Si Si7 0.226008 0.821281 0.029508
O O1 0.227298 0.343322 0.706698
O O2 0.372553 0.385585 0.406851
O O3 0.022504 0.323636 0.432722
O O4 0.041928 0.427293 0.543354
O O5 0.694645 0.241497 0.419874
O O6 0.859109 0.281808 0.161997
O O7 0.057156 0.215555 0.427552
O O8 0.710688 0.871248 0.024286
O O9 0.391092 0.837331 0.888610
O O10 0.513508 0.940609 0.227121
O O11 0.883180 0.958461 0.153627
O O12 0.544894 0.971764 0.928280
O O13 0.691600 0.456733 0.382247
O O14 0.637053 0.371645 0.151715
#
# Coordination Sequence:
#
# PCOD9140531 Si02
#       7
#     4   4   4   4   4   4   4
#     4  11  26  44  70 109 147 190 260 302 384 450
#     4  12  26  42  72 107 149 202 246 311 366 454
#     4  12  26  46  73 109 151 199 247 314 370 460
#     4  11  24  47  74 108 148 191 261 308 385 451
#     4  11  24  49  72 107 149 198 242 324 378 450
#     4  11  24  47  76 104 150 198 247 325 369 459
#     4  12  26  45  73 104 154 198 255 300 386 442
#
# _framework density 23.67708
#
# number of rings (size 3 to 8) (size 9 to 14) (size 15 to 20)
#    0.000    0.571    5.714    1.714    4.000    3.429 
#    0.000    0.000    0.000    0.000    0.000    0.000 
#    0.000    0.000    0.000    0.000    0.000    0.000 
#
# Total GULP energy -78065.247321 kJ/mol
# GULP energy per Si atom -5576.089094 kJ/mol
# Density = 2.362319 g / cm^3
# Si number density = 23.677080 Si / 1000 Ang^3
#
#
#
# Elastic Constant Matrix: (Units=GPa)
#
#
# Indices 1 2 3 4 5 6 
#
# 1 121.5303 31.2942 48.1084 0.0000 -5.1935 0.0000
# 2 31.2942 70.6784 25.5908 0.0000 -3.3651 0.0000
# 3 48.1084 25.5908 104.9622 0.0000 0.6058 0.0000
# 4 0.0000 0.0000 0.0000 31.5374 0.0000 16.7364
# 5 -5.1935 -3.3651 0.6058 0.0000 34.6469 0.0000
# 6 0.0000 0.0000 0.0000 16.7364 0.0000 44.6719
#
#
#
# Elastic Compliance Matrix: (Units=1/GPa)
#
#
# Indices 1 2 3 4 5 6 
#
# 1 0.010755 -0.003191 -0.004160 0.000000 0.001375 0.000000
# 2 -0.003191 0.016551 -0.002580 0.000000 0.001174 0.000000
# 3 -0.004160 -0.002580 0.012069 0.000000 -0.001085 0.000000
# 4 0.000000 0.000000 0.000000 0.039577 0.000000 -0.014828
# 5 0.001375 0.001174 -0.001085 0.000000 0.029202 0.000000
# 6 0.000000 0.000000 0.000000 -0.014828 0.000000 0.027941
#
#
# Mechanical properties :
#
#
# Convention : Reuss Voigt Hill
#
# Bulk Modulus (GPa) = 51.24096 56.35085 53.79590
# Shear Modulus (GPa) = 30.77675 34.98308 32.87992
#
# Velocity S-wave (km/s) = 3.60926 3.84801 3.73054
# Velocity P-wave (km/s) = 6.24961 6.60260 6.42853
#
# Compressibility (1/GPa) = 0.01951564
#
# Stress axis : x y z
#
# Youngs Moduli (GPa) = 92.97690 60.41840 82.85682
#
# Poissons Ratio (x) = 0.19277 0.34466
# Poissons Ratio (y) = 0.29665 0.21375
# Poissons Ratio (z) = 0.38675 0.15587
#
# Static dielectric constant tensor:
#      x y z
#    x 1.990350 0.000000 0.034780 
#    y 0.000000 2.019570 0.000000 
#    z 0.034780 0.000000 1.974430 
# 
# From -- ./inp_files/4143.got.cif
#   From: 2010.05.17/outbox.cif.g08.bks.cpg/sg9_3_cif.got.tgz:4143.got - 2010.06.03 20:04:27.
