data_PCOD9140756
_publ_section_title
;
Structure prediction by ZEFSAII (Michael W. Deem and Ramdas Pophale) SiO2 
 PCOD9140756
Probable space group: C C
;
_chemical_formula_sum "Si O2"
_cell_formula_units_Z 20
_cell_length_a 8.713837
_cell_length_b 11.080722
_cell_length_c 14.813012
_cell_angle_alpha 90.000000
_cell_angle_beta 150.504615
_cell_angle_gamma 90.000000
_cell_volume 704.202974
_symmetry_space_group_name_H-M "C C"
_symmetry_group_IT_number 9
_symmetry_cell_setting 'monoclinic'
loop_
_space_group_symop_operation_xyz
x,y,z
x,-y,1/2+z
1/2+x,1/2+y,z
1/2+x,1/2-y,1/2+z
loop_
_atom_site_type_symbol
_atom_site_label
_atom_site_fract_x
_atom_site_fract_y
_atom_site_fract_z
Si Si1 0.909730 0.887346 0.566300
Si Si2 0.894515 0.882882 0.755906
Si Si3 0.812141 0.439847 0.551519
Si Si4 0.177288 0.124936 0.692068
Si Si5 0.874463 0.232018 0.710200
O O1 0.049943 0.892992 0.738117
O O2 0.543805 0.897812 0.395519
O O3 0.041972 0.770758 0.582273
O O4 0.031458 0.004676 0.576878
O O5 0.593311 0.962479 0.625343
O O6 0.724906 0.752520 0.667929
O O7 0.135870 0.931471 0.954462
O O8 0.967415 0.364883 0.714882
O O9 0.572822 0.337381 0.388933
O O10 0.958803 0.150112 0.667087
#
# Coordination Sequence:
#
# PCOD9140756 Si02
#       5
#     4   4   4   4   4
#     4  12  26  46  81 109 158 209 263 325 401 469
#     4  11  25  49  78 115 163 207 266 330 402 472
#     4  11  26  50  80 114 166 206 269 330 398 477
#     4  11  28  47  75 117 157 207 261 328 398 477
#     4  11  27  48  80 117 160 207 271 325 399 477
#
# _framework density 28.400901999999999
#
# number of rings (size 3 to 8) (size 9 to 14) (size 15 to 20)
#    0.000    0.800    4.000    0.000   11.200    4.800 
#    0.000    0.000    0.000    0.000    0.000    0.000 
#    0.000    0.000    0.000    0.000    0.000    0.000 
#
# Total GULP energy -55753.422936 kJ/mol
# GULP energy per Si atom -5575.342294 kJ/mol
# Density = 2.833626 g / cm^3
# Si number density = 28.400902 Si / 1000 Ang^3
#
#
#
# Elastic Constant Matrix: (Units=GPa)
#
#
# Indices 1 2 3 4 5 6 
#
# 1 103.8480 38.3912 -3.3097 0.0026 17.8261 0.0006
# 2 38.3912 167.9244 60.6882 0.0016 15.8216 0.0000
# 3 -3.3097 60.6882 68.0551 0.0204 24.1268 0.0049
# 4 0.0026 0.0016 0.0204 65.5380 0.0057 15.6459
# 5 17.8261 15.8216 24.1268 0.0057 33.0871 0.0010
# 6 0.0006 0.0000 0.0049 15.6459 0.0010 47.4865
#
#
#
# Elastic Compliance Matrix: (Units=1/GPa)
#
#
# Indices 1 2 3 4 5 6 
#
# 1 0.014212 -0.005780 0.010223 -0.000002 -0.012347 0.000000
# 2 -0.005780 0.011241 -0.012817 0.000003 0.007085 0.000000
# 3 0.010223 -0.012817 0.035605 -0.000009 -0.025342 0.000000
# 4 -0.000002 0.000003 -0.000009 0.016561 0.000004 -0.005457
# 5 -0.012347 0.007085 -0.025342 0.000004 0.051967 0.000000
# 6 0.000000 0.000000 0.000000 -0.005457 0.000000 0.022856
#
#
# Mechanical properties :
#
#
# Convention : Reuss Voigt Hill
#
# Bulk Modulus (GPa) = 22.56869 59.04076 40.80473
# Shear Modulus (GPa) = 27.17961 45.49283 36.33622
#
# Velocity S-wave (km/s) = 3.09689 4.00660 3.58076
# Velocity P-wave (km/s) = 4.55537 6.49902 5.61198
#
# Compressibility (1/GPa) = 0.04430917
#
# Stress axis : x y z
#
# Youngs Moduli (GPa) = 70.36428 88.95785 28.08568
#
# Poissons Ratio (x) = 0.51422 -0.28713
# Poissons Ratio (y) = 0.40674 0.35999
# Poissons Ratio (z) = -0.71936 1.14021
#
# Static dielectric constant tensor:
#      x y z
#    x 2.289880 0.000000 -0.059480 
#    y 0.000000 2.255410 0.000000 
#    z -0.059480 0.000000 2.198420 
# 
# From -- ./inp_files/4674.got.cif
#   From: 2010.05.17/outbox.cif.g08.bks.cpg/sg9_3_cif.got.tgz:4674.got - 2010.06.03 20:04:27.
