data_PCOD9140415
_publ_section_title
;
Structure prediction by ZEFSAII (Michael W. Deem and Ramdas Pophale) SiO2 
 PCOD9140415
Probable space group: C C
;
_chemical_formula_sum "Si O2"
_cell_formula_units_Z 24
_cell_length_a 18.924158
_cell_length_b 5.051120
_cell_length_c 13.636187
_cell_angle_alpha 90.000000
_cell_angle_beta 134.387426
_cell_angle_gamma 90.000000
_cell_volume 931.485588
_symmetry_space_group_name_H-M "C C"
_symmetry_group_IT_number 9
_symmetry_cell_setting 'monoclinic'
loop_
_space_group_symop_operation_xyz
x,y,z
x,-y,1/2+z
1/2+x,1/2+y,z
1/2+x,1/2-y,1/2+z
loop_
_atom_site_type_symbol
_atom_site_label
_atom_site_fract_x
_atom_site_fract_y
_atom_site_fract_z
Si Si1 0.970030 0.237766 0.479650
Si Si2 0.300144 0.583388 0.843460
Si Si3 0.675328 0.440082 0.237800
Si Si4 0.708442 0.470882 0.495765
Si Si5 0.408624 0.916073 0.105603
Si Si6 0.585405 0.948925 0.422632
O O1 0.929669 0.383582 0.536663
O O2 0.063089 0.056706 0.596565
O O3 0.014090 0.449358 0.447222
O O4 0.882155 0.053558 0.354906
O O5 0.218178 0.357864 0.780122
O O6 0.247285 0.849344 0.754794
O O7 0.358775 0.666655 0.000523
O O8 0.679754 0.529492 0.354729
O O9 0.826826 0.467989 0.601358
O O10 0.664676 0.714551 0.513830
O O11 0.648275 0.209401 0.464500
O O12 0.510678 0.878846 0.261585
#
# Coordination Sequence:
#
# PCOD9140415 Si02
#       6
#     4   4   4   4   4   4
#     4  12  27  48  79 111 149 198 250 306 377 442
#     4  11  24  45  75 110 136 200 245 300 368 440
#     4  11  24  44  79 104 146 195 248 297 371 441
#     4  11  24  48  71 105 149 188 247 303 374 431
#     4  11  26  49  78 100 152 198 248 303 375 444
#     4  12  29  46  72 114 144 193 248 311 365 444
#
# _framework density 25.765294000000001
#
# number of rings (size 3 to 8) (size 9 to 14) (size 15 to 20)
#    0.000    0.667    5.000    3.000    4.667    1.333 
#    3.000    1.667    0.000    0.000    0.000    0.000 
#    0.000    0.000    0.000    0.000    0.000    0.000 
#
# Total GULP energy -67250.316577 kJ/mol
# GULP energy per Si atom -5604.193048 kJ/mol
# Density = 2.570665 g / cm^3
# Si number density = 25.765294 Si / 1000 Ang^3
#
#
#
# Elastic Constant Matrix: (Units=GPa)
#
#
# Indices 1 2 3 4 5 6 
#
# 1 145.7667 93.7080 27.7047 -0.0002 30.7226 -0.0001
# 2 93.7080 132.3691 32.3345 0.0002 33.5326 0.0003
# 3 27.7047 32.3345 101.7962 0.0000 27.1015 0.0001
# 4 -0.0002 0.0002 0.0000 39.9112 0.0000 12.7800
# 5 30.7226 33.5326 27.1015 0.0000 39.9379 0.0000
# 6 -0.0001 0.0003 0.0001 12.7800 0.0000 50.6349
#
#
#
# Elastic Compliance Matrix: (Units=1/GPa)
#
#
# Indices 1 2 3 4 5 6 
#
# 1 0.012842 -0.008360 -0.000096 0.000000 -0.002795 0.000000
# 2 -0.008360 0.015140 -0.001052 0.000000 -0.005567 0.000000
# 3 -0.000096 -0.001052 0.012118 0.000000 -0.007267 0.000000
# 4 0.000000 0.000000 0.000000 0.027259 0.000000 -0.006880
# 5 -0.002795 -0.005567 -0.007267 0.000000 0.036795 0.000000
# 6 0.000000 0.000000 0.000000 -0.006880 0.000000 0.021486
#
#
# Mechanical properties :
#
#
# Convention : Reuss Voigt Hill
#
# Bulk Modulus (GPa) = 47.42454 76.38073 61.90264
# Shear Modulus (GPa) = 32.96394 41.17578 37.06986
#
# Velocity S-wave (km/s) = 3.58074 4.00197 3.79720
# Velocity P-wave (km/s) = 5.96171 7.14588 6.58048
#
# Compressibility (1/GPa) = 0.02108613
#
# Stress axis : x y z
#
# Youngs Moduli (GPa) = 77.87216 66.05063 82.51993
#
# Poissons Ratio (x) = 0.55216 0.00788
# Poissons Ratio (y) = 0.65098 0.08678
# Poissons Ratio (z) = 0.00744 0.06946
#
# Static dielectric constant tensor:
#      x y z
#    x 2.108030 0.000000 -0.066990 
#    y 0.000000 1.998430 0.000000 
#    z -0.066990 0.000000 2.034110 
# 
# From -- ./inp_files/27184.got.cif
#   From: 2010.05.17/outbox.cif.g08.bks.cpg/sg9_14_cif.got.tgz:27184.got - 2010.06.03 20:04:27.
