data_PCOD9140410
_publ_section_title
;
Structure prediction by ZEFSAII (Michael W. Deem and Ramdas Pophale) SiO2 
 PCOD9140410
Probable space group: C C
;
_chemical_formula_sum "Si O2"
_cell_formula_units_Z 28
_cell_length_a 16.754055
_cell_length_b 8.666675
_cell_length_c 14.820230
_cell_angle_alpha 90.000000
_cell_angle_beta 36.605899
_cell_angle_gamma 90.000000
_cell_volume 1283.209845
_symmetry_space_group_name_H-M "C C"
_symmetry_group_IT_number 9
_symmetry_cell_setting 'monoclinic'
loop_
_space_group_symop_operation_xyz
x,y,z
x,-y,1/2+z
1/2+x,1/2+y,z
1/2+x,1/2-y,1/2+z
loop_
_atom_site_type_symbol
_atom_site_label
_atom_site_fract_x
_atom_site_fract_y
_atom_site_fract_z
Si Si1 0.622970 0.424688 0.715390
Si Si2 0.056484 0.530856 0.453189
Si Si3 0.532181 0.589391 0.621146
Si Si4 0.397882 0.209556 0.004020
Si Si5 0.236777 0.632188 0.932844
Si Si6 0.746644 0.025709 0.126127
Si Si7 0.003035 0.129637 0.976944
O O1 0.563173 0.472698 0.674213
O O2 0.530800 0.280679 0.834977
O O3 0.780843 0.390073 0.562447
O O4 0.597086 0.563996 0.810615
O O5 0.172645 0.473356 0.413395
O O6 0.109520 0.546759 0.302549
O O7 0.023064 0.705892 0.506064
O O8 0.946232 0.395942 0.543729
O O9 0.390209 0.666138 0.772203
O O10 0.648881 0.714447 0.514611
O O11 0.517862 0.498816 0.540749
O O12 0.312642 0.364603 0.097562
O O13 0.231391 0.544818 0.033714
O O14 0.857274 0.143104 0.063264
#
# Coordination Sequence:
#
# PCOD9140410 Si02
#       7
#     4   4   4   4   4   4   4
#     4  11  25  47  73 103 146 182 242 290 357 421
#     4  12  27  44  76 104 143 185 244 288 359 420
#     4  12  27  46  74 104 150 185 239 293 356 425
#     4  11  24  44  75 100 138 193 229 289 361 411
#     4  12  27  47  72 106 143 190 235 297 353 425
#     4  11  24  47  69 100 145 181 243 290 348 422
#     4  11  26  45  71 105 141 188 234 297 346 422
#
# _framework density 21.82028
#
# number of rings (size 3 to 8) (size 9 to 14) (size 15 to 20)
#    0.000    0.571    5.714    2.571    6.000    0.000 
#    0.000    0.000    0.000    0.000    0.000    0.000 
#    0.000    0.000    0.000    0.000    0.000    0.000 
#
# Total GULP energy -78169.621192 kJ/mol
# GULP energy per Si atom -5583.544371 kJ/mol
# Density = 2.177062 g / cm^3
# Si number density = 21.820280 Si / 1000 Ang^3
#
#
#
# Elastic Constant Matrix: (Units=GPa)
#
#
# Indices 1 2 3 4 5 6 
#
# 1 127.0721 28.5652 32.7564 0.0000 -1.0095 0.0000
# 2 28.5652 89.7235 12.7981 0.0000 -6.3608 0.0000
# 3 32.7564 12.7981 45.8176 0.0000 -7.0705 0.0000
# 4 0.0000 0.0000 0.0000 9.2666 0.0000 -7.3992
# 5 -1.0095 -6.3608 -7.0705 0.0000 44.0189 0.0000
# 6 0.0000 0.0000 0.0000 -7.3992 0.0000 30.8925
#
#
#
# Elastic Compliance Matrix: (Units=1/GPa)
#
#
# Indices 1 2 3 4 5 6 
#
# 1 0.010133 -0.002345 -0.006774 0.000000 -0.001194 0.000000
# 2 -0.002345 0.012211 -0.001508 0.000000 0.001468 0.000000
# 3 -0.006774 -0.001508 0.027719 0.000000 0.004079 0.000000
# 4 0.000000 0.000000 0.000000 0.133433 0.000000 0.031959
# 5 -0.001194 0.001468 0.004079 0.000000 0.023558 0.000000
# 6 0.000000 0.000000 0.000000 0.031959 0.000000 0.040025
#
#
# Mechanical properties :
#
#
# Convention : Reuss Voigt Hill
#
# Bulk Modulus (GPa) = 34.70973 45.65028 40.18000
# Shear Modulus (GPa) = 17.98976 29.40186 23.69581
#
# Velocity S-wave (km/s) = 2.87444 3.67475 3.29896
# Velocity P-wave (km/s) = 5.19213 6.24272 5.74150
#
# Compressibility (1/GPa) = 0.02881037
#
# Stress axis : x y z
#
# Youngs Moduli (GPa) = 98.68450 81.89339 36.07584
#
# Poissons Ratio (x) = 0.19200 0.24438
# Poissons Ratio (y) = 0.23137 0.05440
# Poissons Ratio (z) = 0.66849 0.12350
#
# Static dielectric constant tensor:
#      x y z
#    x 1.762510 0.000000 -0.023220 
#    y 0.000000 1.874410 0.000000 
#    z -0.023220 0.000000 1.833010 
# 
# From -- ./inp_files/20092.got.cif
#   From: 2010.05.17/outbox.cif.g08.bks.cpg/sg9_11_cif.got.tgz:20092.got - 2010.06.03 20:04:27.
