data_PCOD9140552
_publ_section_title
;
Structure prediction by ZEFSAII (Michael W. Deem and Ramdas Pophale) SiO2 
 PCOD9140552
Probable space group: C C
;
_chemical_formula_sum "Si O2"
_cell_formula_units_Z 28
_cell_length_a 9.689201
_cell_length_b 10.614439
_cell_length_c 14.291331
_cell_angle_alpha 90.000000
_cell_angle_beta 116.561155
_cell_angle_gamma 90.000000
_cell_volume 1314.672103
_symmetry_space_group_name_H-M "C C"
_symmetry_group_IT_number 9
_symmetry_cell_setting 'monoclinic'
loop_
_space_group_symop_operation_xyz
x,y,z
x,-y,1/2+z
1/2+x,1/2+y,z
1/2+x,1/2-y,1/2+z
loop_
_atom_site_type_symbol
_atom_site_label
_atom_site_fract_x
_atom_site_fract_y
_atom_site_fract_z
Si Si1 0.714300 0.548046 0.443550
Si Si2 0.449001 0.548047 0.730749
Si Si3 0.752797 0.844370 0.427255
Si Si4 0.529304 0.030472 0.471773
Si Si5 0.081651 0.940075 0.587150
Si Si6 0.133997 0.530472 0.702526
Si Si7 0.910504 0.655630 0.247044
O O1 0.581651 0.500000 0.337149
O O2 0.733100 0.697138 0.438492
O O3 0.666913 0.520137 0.534273
O O4 0.866349 0.473583 0.455505
O O5 0.496388 0.520137 0.640026
O O6 0.296953 0.473583 0.718794
O O7 0.430201 0.697138 0.735807
O O8 0.681614 0.881049 0.304132
O O9 0.935912 0.871568 0.493221
O O10 0.653490 0.930970 0.469628
O O11 0.581651 0.090846 0.587150
O O12 0.481687 0.118951 0.370167
O O13 0.227390 0.871568 0.681079
O O14 0.009812 0.430970 0.704672
#
# Coordination Sequence:
#
# PCOD9140552 Si02
#       7
#     4   4   4   4   4   4   4
#     4  12  27  46  71 107 141 187 238 287 351 423
#     4  12  27  46  71 107 141 187 238 287 351 423
#     4  11  27  46  72 106 143 185 236 293 349 422
#     4  11  24  48  70 102 143 188 230 292 354 405
#     4  12  26  44  72 108 138 192 234 278 368 414
#     4  11  24  48  70 102 143 188 230 292 354 405
#     4  11  27  46  72 106 143 185 236 293 349 422
#
# _framework density 21.298086000000001
#
# number of rings (size 3 to 8) (size 9 to 14) (size 15 to 20)
#    0.000    0.571    5.714    0.857    4.000    1.143 
#    0.000    0.000    0.000    0.000    0.000    0.000 
#    0.000    0.000    0.000    0.000    0.000    0.000 
#
# Total GULP energy -78139.512038 kJ/mol
# GULP energy per Si atom -5581.393717 kJ/mol
# Density = 2.124961 g / cm^3
# Si number density = 21.298086 Si / 1000 Ang^3
#
#
#
# Elastic Constant Matrix: (Units=GPa)
#
#
# Indices 1 2 3 4 5 6 
#
# 1 169.7171 55.8070 53.0355 0.0000 0.0658 0.0000
# 2 55.8070 113.9541 52.3970 0.0000 -1.7090 0.0000
# 3 53.0355 52.3970 165.9681 0.0000 -3.9511 0.0000
# 4 0.0000 0.0000 0.0000 14.0856 0.0000 2.1251
# 5 0.0658 -1.7090 -3.9511 0.0000 61.1635 0.0000
# 6 0.0000 0.0000 0.0000 2.1251 0.0000 29.7087
#
#
#
# Elastic Compliance Matrix: (Units=1/GPa)
#
#
# Indices 1 2 3 4 5 6 
#
# 1 0.007296 -0.002927 -0.001412 0.000000 -0.000181 0.000000
# 2 -0.002927 0.011440 -0.002673 0.000000 0.000150 0.000000
# 3 -0.001412 -0.002673 0.007330 0.000000 0.000400 0.000000
# 4 0.000000 0.000000 0.000000 0.071769 0.000000 -0.005134
# 5 -0.000181 0.000150 0.000400 0.000000 0.016380 0.000000
# 6 0.000000 0.000000 0.000000 -0.005134 0.000000 0.034027
#
#
# Mechanical properties :
#
#
# Convention : Reuss Voigt Hill
#
# Bulk Modulus (GPa) = 83.03527 85.79093 84.41310
# Shear Modulus (GPa) = 30.07004 40.21821 35.14412
#
# Velocity S-wave (km/s) = 3.76156 4.35023 4.06656
# Velocity P-wave (km/s) = 7.61167 8.09945 7.85935
#
# Compressibility (1/GPa) = 0.01204307
#
# Stress axis : x y z
#
# Youngs Moduli (GPa) = 137.06704 87.41296 136.43009
#
# Poissons Ratio (x) = 0.25582 0.19260
# Poissons Ratio (y) = 0.40113 0.36466
# Poissons Ratio (z) = 0.19350 0.23365
#
# Static dielectric constant tensor:
#      x y z
#    x 1.827220 0.000000 0.019980 
#    y 0.000000 1.721650 0.000000 
#    z 0.019980 0.000000 1.850820 
# 
# From -- ./inp_files/22832.got.cif
#   From: 2010.05.17/outbox.cif.g08.bks.cpg/sg9_12_cif.got.tgz:22832.got - 2010.06.03 20:04:27.
