data_PCOD9140192
_publ_section_title
;
Structure prediction by ZEFSAII (Michael W. Deem and Ramdas Pophale) SiO2 
 PCOD9140192
Probable space group: C C
;
_chemical_formula_sum "Si O2"
_cell_formula_units_Z 28
_cell_length_a 19.186024
_cell_length_b 9.242714
_cell_length_c 9.093449
_cell_angle_alpha 90.000000
_cell_angle_beta 137.679943
_cell_angle_gamma 90.000000
_cell_volume 1085.683637
_symmetry_space_group_name_H-M "C C"
_symmetry_group_IT_number 9
_symmetry_cell_setting 'monoclinic'
loop_
_space_group_symop_operation_xyz
x,y,z
x,-y,1/2+z
1/2+x,1/2+y,z
1/2+x,1/2-y,1/2+z
loop_
_atom_site_type_symbol
_atom_site_label
_atom_site_fract_x
_atom_site_fract_y
_atom_site_fract_z
Si Si1 0.243140 0.891529 0.798140
Si Si2 0.230725 0.423746 0.753087
Si Si3 0.939881 0.708297 0.760783
Si Si4 0.538317 0.103866 0.457010
Si Si5 0.183720 0.844735 0.371803
Si Si6 0.953506 0.166340 0.592145
Si Si7 0.105315 0.254181 0.323022
O O1 0.231425 0.871343 0.606832
O O2 0.150768 0.840194 0.762605
O O3 0.245245 0.060722 0.847209
O O4 0.339673 0.801997 0.006359
O O5 0.162140 0.569130 0.634711
O O6 0.189985 0.320705 0.823467
O O7 0.195128 0.338192 0.550078
O O8 0.354112 0.434541 0.968822
O O9 0.029924 0.808882 0.830542
O O10 0.916085 0.747910 0.890054
O O11 0.986994 0.547902 0.842616
O O12 0.486869 0.227227 0.277011
O O13 0.529379 0.139882 0.614179
O O14 0.064478 0.890629 0.210379
#
# Coordination Sequence:
#
# PCOD9140192 Si02
#       7
#     4   4   4   4   4   4   4
#     4  12  27  45  72 101 146 193 241 306 380 444
#     4  11  25  46  73 107 151 185 254 310 364 452
#     4  11  24  41  76 101 138 188 245 299 374 447
#     4  11  24  44  75 109 142 194 246 309 366 451
#     4  12  27  47  69 106 148 190 245 312 369 455
#     4  12  24  48  72 108 146 195 241 304 385 439
#     4  11  23  45  69 108 143 185 246 304 368 450
#
# _framework density 25.790199999999999
#
# number of rings (size 3 to 8) (size 9 to 14) (size 15 to 20)
#    0.000    0.571    5.714    3.429    6.000    0.000 
#    5.143    0.000    0.000    0.000    0.000    0.000 
#    0.000    0.000    0.000    0.000    0.000    0.000 
#
# Total GULP energy -78308.369538 kJ/mol
# GULP energy per Si atom -5593.454967 kJ/mol
# Density = 2.573150 g / cm^3
# Si number density = 25.790200 Si / 1000 Ang^3
#
#
#
# Elastic Constant Matrix: (Units=GPa)
#
#
# Indices 1 2 3 4 5 6 
#
# 1 82.7048 14.7588 48.2677 0.0000 -3.7347 0.0000
# 2 14.7588 49.6581 25.3150 0.0000 -7.5070 0.0000
# 3 48.2677 25.3150 199.3013 0.0000 -10.5973 0.0000
# 4 0.0000 0.0000 0.0000 32.7026 0.0000 2.7286
# 5 -3.7347 -7.5070 -10.5973 0.0000 62.9735 0.0000
# 6 0.0000 0.0000 0.0000 2.7286 0.0000 33.1966
#
#
#
# Elastic Compliance Matrix: (Units=1/GPa)
#
#
# Indices 1 2 3 4 5 6 
#
# 1 0.014407 -0.002676 -0.003149 0.000000 0.000006 0.000000
# 2 -0.002676 0.022315 -0.002072 0.000000 0.002153 0.000000
# 3 -0.003149 -0.002072 0.006075 0.000000 0.000589 0.000000
# 4 0.000000 0.000000 0.000000 0.030790 0.000000 -0.002531
# 5 0.000006 0.002153 0.000589 0.000000 0.016236 0.000000
# 6 0.000000 0.000000 0.000000 -0.002531 0.000000 0.030332
#
#
# Mechanical properties :
#
#
# Convention : Reuss Voigt Hill
#
# Bulk Modulus (GPa) = 37.03306 56.48304 46.75805
# Shear Modulus (GPa) = 34.49540 41.99605 38.24572
#
# Velocity S-wave (km/s) = 3.66121 4.03969 3.85509
# Velocity P-wave (km/s) = 5.68006 6.61115 6.16321
#
# Compressibility (1/GPa) = 0.02700290
#
# Stress axis : x y z
#
# Youngs Moduli (GPa) = 69.41218 44.81370 164.61953
#
# Poissons Ratio (x) = 0.11991 0.51837
# Poissons Ratio (y) = 0.18572 0.34108
# Poissons Ratio (z) = 0.21857 0.09285
#
# Static dielectric constant tensor:
#      x y z
#    x 2.070650 0.000000 0.059410 
#    y 0.000000 2.141120 0.000000 
#    z 0.059410 0.000000 1.987360 
# 
# From -- ./inp_files/11610.got.cif
#   From: 2010.05.17/outbox.cif.g08.bks.cpg/sg9_6_cif.got.tgz:11610.got - 2010.06.03 20:04:27.
