data_PCOD9140945
_publ_section_title
;
Structure prediction by ZEFSAII (Michael W. Deem and Ramdas Pophale) SiO2 
 PCOD9140945
Probable space group: C C
;
_chemical_formula_sum "Si O2"
_cell_formula_units_Z 32
_cell_length_a 25.914104
_cell_length_b 9.782254
_cell_length_c 9.275958
_cell_angle_alpha 90.000000
_cell_angle_beta 141.618394
_cell_angle_gamma 90.000000
_cell_volume 1460.000069
_symmetry_space_group_name_H-M "C C"
_symmetry_group_IT_number 9
_symmetry_cell_setting 'monoclinic'
loop_
_space_group_symop_operation_xyz
x,y,z
x,-y,1/2+z
1/2+x,1/2+y,z
1/2+x,1/2-y,1/2+z
loop_
_atom_site_type_symbol
_atom_site_label
_atom_site_fract_x
_atom_site_fract_y
_atom_site_fract_z
Si Si1 0.152300 0.274543 0.169970
Si Si2 0.046869 0.521926 0.888457
Si Si3 0.673509 0.513075 0.024636
Si Si4 0.542310 0.292919 0.696108
Si Si5 0.830901 0.151214 0.099904
Si Si6 0.849183 0.860207 0.292281
Si Si7 0.936968 0.406878 0.411930
Si Si8 0.778135 0.405405 0.496214
O O1 0.160978 0.161472 0.066378
O O2 0.079813 0.233875 0.120969
O O3 0.241336 0.284962 0.441333
O O4 0.126493 0.424653 0.060073
O O5 0.061563 0.661271 0.835028
O O6 0.972359 0.439040 0.646682
O O7 0.013363 0.559919 0.972512
O O8 0.748004 0.432523 0.268630
O O9 0.702686 0.533912 0.925684
O O10 0.590793 0.425057 0.858894
O O11 0.444583 0.315102 0.482190
O O12 0.902561 0.255626 0.307044
O O13 0.838621 0.007089 0.195934
O O14 0.832323 0.139379 0.927839
O O15 0.794526 0.747339 0.088259
O O16 0.861184 0.508652 0.209998
#
# Coordination Sequence:
#
# PCOD9140945 Si02
#       8
#     4   4   4   4   4   4   4   4
#     4  12  27  47  70 110 140 185 238 292 354 421
#     4  12  26  44  77 101 146 184 237 292 356 419
#     4  12  26  44  77 101 146 184 237 292 356 419
#     4  12  27  47  70 110 140 185 238 292 354 421
#     4  12  28  47  71 105 145 183 238 290 350 415
#     4  12  28  47  71 105 145 183 238 290 350 415
#     4  12  23  48  73 103 137 189 236 287 348 427
#     4  12  23  48  73 103 137 189 236 287 348 427
#
# _framework density 21.917807
#
# number of rings (size 3 to 8) (size 9 to 14) (size 15 to 20)
#    0.000    0.000    7.500    0.750    7.000    3.000 
#    0.000    0.000    0.000    0.000    0.000    0.000 
#    0.000    0.000    0.000    0.000    0.000    0.000 
#
# Total GULP energy -89601.074106 kJ/mol
# GULP energy per Si atom -5600.067132 kJ/mol
# Density = 2.186792 g / cm^3
# Si number density = 21.917807 Si / 1000 Ang^3
#
#
#
# Elastic Constant Matrix: (Units=GPa)
#
#
# Indices 1 2 3 4 5 6 
#
# 1 50.6090 13.3635 4.9783 0.0000 4.0877 0.0000
# 2 13.3635 150.1972 11.1694 0.0000 3.8688 0.0000
# 3 4.9783 11.1694 38.2548 0.0000 11.3862 0.0000
# 4 0.0000 0.0000 0.0000 52.3447 0.0000 3.2273
# 5 4.0877 3.8688 11.3862 0.0000 27.7864 0.0000
# 6 0.0000 0.0000 0.0000 3.2273 0.0000 38.5547
#
#
#
# Elastic Compliance Matrix: (Units=1/GPa)
#
#
# Indices 1 2 3 4 5 6 
#
# 1 0.020523 -0.001655 -0.001546 0.000000 -0.002155 0.000000
# 2 -0.001655 0.006940 -0.001817 0.000000 0.000022 0.000000
# 3 -0.001546 -0.001817 0.030442 0.000000 -0.011994 0.000000
# 4 0.000000 0.000000 0.000000 0.019203 0.000000 -0.001607
# 5 -0.002155 0.000022 -0.011994 0.000000 0.041218 0.000000
# 6 0.000000 0.000000 0.000000 -0.001607 0.000000 0.026072
#
#
# Mechanical properties :
#
#
# Convention : Reuss Voigt Hill
#
# Bulk Modulus (GPa) = 20.89113 33.12037 27.00575
# Shear Modulus (GPa) = 29.34438 37.70716 33.52577
#
# Velocity S-wave (km/s) = 3.66298 4.15226 3.91527
# Velocity P-wave (km/s) = 5.23853 6.17513 5.72601
#
# Compressibility (1/GPa) = 0.04786720
#
# Stress axis : x y z
#
# Youngs Moduli (GPa) = 48.72672 144.09666 32.84910
#
# Poissons Ratio (x) = 0.23855 0.05078
# Poissons Ratio (y) = 0.08067 0.05970
# Poissons Ratio (z) = 0.07533 0.26187
#
# Static dielectric constant tensor:
#      x y z
#    x 1.780790 0.000000 -0.011420 
#    y 0.000000 1.808340 0.000000 
#    z -0.011420 0.000000 1.785500 
# 
# From -- ./inp_files/12407.got.cif
#   From: 2010.05.17/outbox.cif.g08.bks.cpg/sg9_7_cif.got.tgz:12407.got - 2010.06.03 20:04:27.
