data_PCOD9140971
_publ_section_title
;
Structure prediction by ZEFSAII (Michael W. Deem and Ramdas Pophale) SiO2 
 PCOD9140971
Probable space group: C C
;
_chemical_formula_sum "Si O2"
_cell_formula_units_Z 28
_cell_length_a 15.103406
_cell_length_b 10.218176
_cell_length_c 15.697468
_cell_angle_alpha 90.000000
_cell_angle_beta 150.155898
_cell_angle_gamma 90.000000
_cell_volume 1205.576281
_symmetry_space_group_name_H-M "C C"
_symmetry_group_IT_number 9
_symmetry_cell_setting 'monoclinic'
loop_
_space_group_symop_operation_xyz
x,y,z
x,-y,1/2+z
1/2+x,1/2+y,z
1/2+x,1/2-y,1/2+z
loop_
_atom_site_type_symbol
_atom_site_label
_atom_site_fract_x
_atom_site_fract_y
_atom_site_fract_z
Si Si1 0.415440 0.040116 0.318390
Si Si2 0.490483 0.571654 0.139658
Si Si3 0.875784 0.195425 0.488215
Si Si4 0.378356 0.172746 0.464771
Si Si5 0.775268 0.110751 0.124348
Si Si6 0.590271 0.365411 0.011112
Si Si7 0.493162 0.061464 0.179955
O O1 0.405713 0.144357 0.387088
O O2 0.447720 0.061260 0.243250
O O3 0.592164 0.960530 0.491988
O O4 0.222398 0.971158 0.161338
O O5 0.503768 0.418400 0.131703
O O6 0.421502 0.674999 0.012686
O O7 0.677125 0.634161 0.321597
O O8 0.341012 0.576185 0.086528
O O9 0.686624 0.124921 0.325547
O O10 0.967249 0.215947 0.473711
O O11 0.866272 0.329182 0.531452
O O12 0.482187 0.074690 0.617498
O O13 0.728284 0.263846 0.085436
O O14 0.942533 0.078925 0.324083
#
# Coordination Sequence:
#
# PCOD9140971 Si02
#       7
#     4   4   4   4   4   4   4
#     4  12  26  48  72 110 150 196 250 308 378 440
#     4  12  25  48  72 106 147 192 242 305 374 438
#     4  12  25  48  72 106 147 192 242 305 374 438
#     4  12  27  48  76 109 152 193 250 311 373 450
#     4  12  24  43  75 109 145 193 254 306 364 449
#     4  12  24  43  75 109 145 193 254 306 364 449
#     4  12  27  48  76 109 152 193 250 311 373 450
#
# _framework density 23.225407000000001
#
# number of rings (size 3 to 8) (size 9 to 14) (size 15 to 20)
#    0.000    0.000    4.286    6.857    0.000    1.143 
#    2.571    0.000    0.000    0.000    0.000    0.000 
#    0.000    0.000    0.000    0.000    0.000    0.000 
#
# Total GULP energy -78195.654136 kJ/mol
# GULP energy per Si atom -5585.403867 kJ/mol
# Density = 2.317255 g / cm^3
# Si number density = 23.225407 Si / 1000 Ang^3
#
#
#
# Elastic Constant Matrix: (Units=GPa)
#
#
# Indices 1 2 3 4 5 6 
#
# 1 114.9806 2.2272 2.8936 0.0000 -3.1371 0.0000
# 2 2.2272 54.5578 7.3798 0.0000 -10.6912 0.0000
# 3 2.8936 7.3798 116.1770 0.0000 19.6593 0.0000
# 4 0.0000 0.0000 0.0000 40.0411 0.0000 -3.8405
# 5 -3.1371 -10.6912 19.6593 0.0000 34.8599 0.0000
# 6 0.0000 0.0000 0.0000 -3.8405 0.0000 28.9013
#
#
#
# Elastic Compliance Matrix: (Units=1/GPa)
#
#
# Indices 1 2 3 4 5 6 
#
# 1 0.008735 -0.000118 -0.000372 0.000000 0.000960 0.000000
# 2 -0.000118 0.020176 -0.002569 0.000000 0.007626 0.000000
# 3 -0.000372 -0.002569 0.009860 0.000000 -0.006382 0.000000
# 4 0.000000 0.000000 0.000000 0.025297 0.000000 0.003362
# 5 0.000960 0.007626 -0.006382 0.000000 0.034711 0.000000
# 6 0.000000 0.000000 0.000000 0.003362 0.000000 0.035047
#
#
# Mechanical properties :
#
#
# Convention : Reuss Voigt Hill
#
# Bulk Modulus (GPa) = 30.62654 34.52407 32.57531
# Shear Modulus (GPa) = 33.15023 38.97480 36.06251
#
# Velocity S-wave (km/s) = 3.78210 4.10092 3.94473
# Velocity P-wave (km/s) = 5.68222 6.10905 5.89949
#
# Compressibility (1/GPa) = 0.03265142
#
# Stress axis : x y z
#
# Youngs Moduli (GPa) = 114.48234 49.56408 101.42011
#
# Poissons Ratio (x) = 0.00585 0.03778
# Poissons Ratio (y) = 0.01352 0.26056
# Poissons Ratio (z) = 0.04264 0.12734
#
# Static dielectric constant tensor:
#      x y z
#    x 1.846000 0.000000 -0.062280 
#    y 0.000000 1.867380 0.000000 
#    z -0.062280 0.000000 1.970060 
# 
# From -- ./inp_files/25942.got.cif
#   From: 2010.05.17/outbox.cif.g08.bks.cpg/sg9_13_cif.got.tgz:25942.got - 2010.06.03 20:04:27.
