data_PCOD9140419
_publ_section_title
;
Structure prediction by ZEFSAII (Michael W. Deem and Ramdas Pophale) SiO2 
 PCOD9140419
Probable space group: C C
;
_chemical_formula_sum "Si O2"
_cell_formula_units_Z 16
_cell_length_a 6.553801
_cell_length_b 14.824278
_cell_length_c 9.884782
_cell_angle_alpha 90.000000
_cell_angle_beta 42.167539
_cell_angle_gamma 90.000000
_cell_volume 644.690168
_symmetry_space_group_name_H-M "C C"
_symmetry_group_IT_number 9
_symmetry_cell_setting 'monoclinic'
loop_
_space_group_symop_operation_xyz
x,y,z
x,-y,1/2+z
1/2+x,1/2+y,z
1/2+x,1/2-y,1/2+z
loop_
_atom_site_type_symbol
_atom_site_label
_atom_site_fract_x
_atom_site_fract_y
_atom_site_fract_z
Si Si1 0.407980 0.632132 0.899620
Si Si2 0.337115 0.339805 0.139816
Si Si3 0.190014 0.167267 0.028731
Si Si4 0.727285 0.552092 0.249977
O O1 0.422676 0.686373 0.751587
O O2 0.653206 0.551980 0.769192
O O3 0.486371 0.684463 0.998508
O O4 0.076724 0.584569 0.075121
O O5 0.289459 0.256548 0.061295
O O6 0.000068 0.379135 0.323886
O O7 0.570240 0.409603 0.961923
O O8 0.058448 0.101742 0.206885
#
# Coordination Sequence:
#
# PCOD9140419 Si02
#       4
#     4   4   4   4
#     4  11  26  44  75 104 143 190 231 297 353 418
#     4  11  24  46  68 106 145 182 238 286 354 427
#     4  11  24  45  69 105 144 186 232 292 351 423
#     4  11  24  47  70 107 142 184 241 287 358 424
#
# _framework density 24.818124000000001
#
# number of rings (size 3 to 8) (size 9 to 14) (size 15 to 20)
#    0.000    1.000    2.500    3.000    0.000   12.000 
#    0.000    0.000    0.000    0.000    0.000    0.000 
#    0.000    0.000    0.000    0.000    0.000    0.000 
#
# Total GULP energy -44755.775512 kJ/mol
# GULP energy per Si atom -5594.471939 kJ/mol
# Density = 2.476164 g / cm^3
# Si number density = 24.818124 Si / 1000 Ang^3
#
#
#
# Elastic Constant Matrix: (Units=GPa)
#
#
# Indices 1 2 3 4 5 6 
#
# 1 197.4362 42.8917 61.7773 -0.0003 50.0153 0.0002
# 2 42.8917 62.7778 2.1424 0.0000 19.5314 0.0000
# 3 61.7773 2.1424 115.1068 -0.0002 14.5768 0.0002
# 4 -0.0003 0.0000 -0.0002 35.7620 0.0002 4.4880
# 5 50.0153 19.5314 14.5768 0.0002 50.4377 -0.0001
# 6 0.0002 0.0000 0.0002 4.4880 -0.0001 37.3207
#
#
#
# Elastic Compliance Matrix: (Units=1/GPa)
#
#
# Indices 1 2 3 4 5 6 
#
# 1 0.008599 -0.003904 -0.003793 0.000000 -0.005919 0.000000
# 2 -0.003904 0.019920 0.002295 0.000000 -0.004506 0.000000
# 3 -0.003793 0.002295 0.010709 0.000000 -0.000222 0.000000
# 4 0.000000 0.000000 0.000000 0.028391 0.000000 -0.003414
# 5 -0.005919 -0.004506 -0.000222 0.000000 0.027505 0.000000
# 6 0.000000 0.000000 0.000000 -0.003414 0.000000 0.027205
#
#
# Mechanical properties :
#
#
# Convention : Reuss Voigt Hill
#
# Bulk Modulus (GPa) = 35.18131 65.43816 50.30973
# Shear Modulus (GPa) = 35.06092 42.60471 38.83281
#
# Velocity S-wave (km/s) = 3.76269 4.14778 3.95991
# Velocity P-wave (km/s) = 5.75183 7.02588 6.42054
#
# Compressibility (1/GPa) = 0.02842419
#
# Stress axis : x y z
#
# Youngs Moduli (GPa) = 116.28660 50.20028 93.38175
#
# Poissons Ratio (x) = 0.19600 0.35420
# Poissons Ratio (y) = 0.45402 -0.21434
# Poissons Ratio (z) = 0.44108 -0.11522
#
# Static dielectric constant tensor:
#      x y z
#    x 2.012720 0.000000 0.011560 
#    y 0.000000 1.973210 0.000000 
#    z 0.011560 0.000000 1.954860 
# 
# From -- ./inp_files/109.got.cif
#   From: 2010.05.17/outbox.cif.g08.bks.cpg/sg9_1_cif.got.tgz:109.got - 2010.06.03 20:04:27.
