data_PCOD9140073
_publ_section_title
;
Structure prediction by ZEFSAII (Michael W. Deem and Ramdas Pophale) SiO2 
 PCOD9140073
Probable space group: C C
;
_chemical_formula_sum "Si O2"
_cell_formula_units_Z 28
_cell_length_a 22.658436
_cell_length_b 8.994107
_cell_length_c 8.692600
_cell_angle_alpha 90.000000
_cell_angle_beta 44.012225
_cell_angle_gamma 90.000000
_cell_volume 1230.849302
_symmetry_space_group_name_H-M "C C"
_symmetry_group_IT_number 9
_symmetry_cell_setting 'monoclinic'
loop_
_space_group_symop_operation_xyz
x,y,z
x,-y,1/2+z
1/2+x,1/2+y,z
1/2+x,1/2-y,1/2+z
loop_
_atom_site_type_symbol
_atom_site_label
_atom_site_fract_x
_atom_site_fract_y
_atom_site_fract_z
Si Si1 0.233740 0.647309 0.691200
Si Si2 0.778773 0.472117 0.612737
Si Si3 0.413502 0.434105 0.825750
Si Si4 0.694894 0.656920 0.535792
Si Si5 0.003243 0.172191 0.855189
Si Si6 0.453689 0.138721 0.906215
Si Si7 0.043817 0.566813 0.050008
O O1 0.259815 0.809340 0.570774
O O2 0.312245 0.538411 0.517849
O O3 0.220630 0.694150 0.895889
O O4 0.140815 0.593592 0.818657
O O5 0.759801 0.612905 0.545796
O O6 0.711070 0.469267 0.876337
O O7 0.871590 0.457237 0.510357
O O8 0.472648 0.568026 0.770845
O O9 0.438760 0.361688 0.614751
O O10 0.427714 0.307781 0.928905
O O11 0.596128 0.644517 0.754714
O O12 0.017569 0.330025 0.744540
O O13 0.526584 0.096896 0.646765
O O14 0.484460 0.104637 0.018258
#
# Coordination Sequence:
#
# PCOD9140073 Si02
#       7
#     4   4   4   4   4   4   4
#     4   8  22  39  62  87 132 163 209 261 325 385
#     4   9  18  36  59  91 119 165 208 262 302 377
#     4  11  23  42  63  97 126 171 213 265 318 384
#     4   9  18  36  60  89 122 164 208 264 301 379
#     4  11  23  39  69  94 128 168 219 261 321 382
#     4  11  23  38  69  91 129 167 215 265 320 380
#     4  11  23  44  64  95 128 172 212 266 321 387
#
# _framework density 22.748518000000001
#
# number of rings (size 3 to 8) (size 9 to 14) (size 15 to 20)
#    0.857    1.143    0.000    3.429    2.000    2.286 
#    0.000    0.000    3.143    0.000    0.000    0.000 
#    0.000    0.000    0.000    0.000    0.000    0.000 
#
# Total GULP energy -78059.975720 kJ/mol
# GULP energy per Si atom -5575.712551 kJ/mol
# Density = 2.269674 g / cm^3
# Si number density = 22.748518 Si / 1000 Ang^3
#
#
#
# Elastic Constant Matrix: (Units=GPa)
#
#
# Indices 1 2 3 4 5 6 
#
# 1 83.3845 17.6094 18.2530 0.0000 -19.5830 0.0000
# 2 17.6094 30.5539 1.1022 0.0000 -15.1177 0.0000
# 3 18.2530 1.1022 85.9617 0.0000 -23.4136 0.0000
# 4 0.0000 0.0000 0.0000 22.2284 0.0000 5.3748
# 5 -19.5830 -15.1177 -23.4136 0.0000 44.7329 0.0000
# 6 0.0000 0.0000 0.0000 5.3748 0.0000 20.0752
#
#
#
# Elastic Compliance Matrix: (Units=1/GPa)
#
#
# Indices 1 2 3 4 5 6 
#
# 1 0.014620 -0.006911 -0.002226 0.000000 0.002900 0.000000
# 2 -0.006911 0.043564 0.004776 0.000000 0.014197 0.000000
# 3 -0.002226 0.004776 0.014250 0.000000 0.008098 0.000000
# 4 0.000000 0.000000 0.000000 0.048101 0.000000 -0.012878
# 5 0.002900 0.014197 0.008098 0.000000 0.032661 0.000000
# 6 0.000000 0.000000 0.000000 -0.012878 0.000000 0.053261
#
#
# Mechanical properties :
#
#
# Convention : Reuss Voigt Hill
#
# Bulk Modulus (GPa) = 15.69566 30.42548 23.06057
# Shear Modulus (GPa) = 21.14892 28.26967 24.70930
#
# Velocity S-wave (km/s) = 3.05238 3.52902 3.29932
# Velocity P-wave (km/s) = 4.39742 5.47806 4.96721
#
# Compressibility (1/GPa) = 0.06371190
#
# Stress axis : x y z
#
# Youngs Moduli (GPa) = 68.39726 22.95450 70.17415
#
# Poissons Ratio (x) = 0.15865 0.15621
# Poissons Ratio (y) = 0.47271 -0.33514
# Poissons Ratio (z) = 0.15226 -0.10963
#
# Static dielectric constant tensor:
#      x y z
#    x 1.843770 0.000000 0.010460 
#    y 0.000000 1.874630 0.000000 
#    z 0.010460 0.000000 1.887130 
# 
# From -- ./inp_files/11405.got.cif
#   From: 2010.05.17/outbox.cif.g08.bks.cpg/sg9_6_cif.got.tgz:11405.got - 2010.06.03 20:04:27.
