data_PCOD9140054
_publ_section_title
;
Structure prediction by ZEFSAII (Michael W. Deem and Ramdas Pophale) SiO2 
 PCOD9140054
Probable space group: C C
;
_chemical_formula_sum "Si O2"
_cell_formula_units_Z 28
_cell_length_a 5.521301
_cell_length_b 13.645241
_cell_length_c 14.736031
_cell_angle_alpha 90.000000
_cell_angle_beta 90.990315
_cell_angle_gamma 90.000000
_cell_volume 1110.039123
_symmetry_space_group_name_H-M "C C"
_symmetry_group_IT_number 9
_symmetry_cell_setting 'monoclinic'
loop_
_space_group_symop_operation_xyz
x,y,z
x,-y,1/2+z
1/2+x,1/2+y,z
1/2+x,1/2-y,1/2+z
loop_
_atom_site_type_symbol
_atom_site_label
_atom_site_fract_x
_atom_site_fract_y
_atom_site_fract_z
Si Si1 0.660330 0.196766 0.473990
Si Si2 0.575312 0.163193 0.985012
Si Si3 0.916017 0.203261 0.817936
Si Si4 0.707702 0.532788 0.737641
Si Si5 0.606616 0.824222 0.156967
Si Si6 0.302157 0.024517 0.426251
Si Si7 0.411239 0.497459 0.570515
O O1 0.628124 0.238082 0.370512
O O2 0.515615 0.230923 0.565768
O O3 0.520759 0.093213 0.460119
O O4 0.922553 0.239931 0.506699
O O5 0.733791 0.093497 0.051951
O O6 0.737505 0.191877 0.900873
O O7 0.375352 0.086348 0.948004
O O8 0.767784 0.237578 0.728433
O O9 0.001927 0.096026 0.787316
O O10 0.791293 0.462134 0.818319
O O11 0.615958 0.478001 0.647717
O O12 0.898348 0.616206 0.707965
O O13 0.769234 0.911193 0.113802
O O14 0.051537 0.033703 0.480413
#
# Coordination Sequence:
#
# PCOD9140054 Si02
#       7
#     4   4   4   4   4   4   4
#     4  12  26  44  72 110 157 200 268 331 403 488
#     4  12  23  47  72 106 151 201 264 332 401 481
#     4  11  24  44  73 103 147 205 257 334 400 471
#     4  11  22  47  76 107 151 203 273 335 405 494
#     4  11  24  45  75 106 156 204 264 332 409 483
#     4  12  24  47  77 108 153 209 269 326 416 488
#     4  11  23  44  77 110 147 208 267 328 414 487
#
# _framework density 25.224336999999998
#
# number of rings (size 3 to 8) (size 9 to 14) (size 15 to 20)
#    0.000    0.571    7.143    0.000    2.000    0.000 
#    7.714    0.000    0.000    0.000    0.000    0.000 
#    0.000    0.000    0.000    0.000    0.000    0.000 
#
# Total GULP energy -78051.752791 kJ/mol
# GULP energy per Si atom -5575.125199 kJ/mol
# Density = 2.516693 g / cm^3
# Si number density = 25.224337 Si / 1000 Ang^3
#
#
#
# Elastic Constant Matrix: (Units=GPa)
#
#
# Indices 1 2 3 4 5 6 
#
# 1 88.3956 35.7102 30.7794 0.0000 -5.0519 0.0000
# 2 35.7102 79.9608 18.6107 0.0000 4.7720 0.0000
# 3 30.7794 18.6107 189.2023 0.0000 32.9137 0.0000
# 4 0.0000 0.0000 0.0000 36.5033 0.0000 8.8531
# 5 -5.0519 4.7720 32.9137 0.0000 53.1267 0.0000
# 6 0.0000 0.0000 0.0000 8.8531 0.0000 35.4996
#
#
#
# Elastic Compliance Matrix: (Units=1/GPa)
#
#
# Indices 1 2 3 4 5 6 
#
# 1 0.014894 -0.006299 -0.002408 0.000000 0.003474 0.000000
# 2 -0.006299 0.015471 -0.000169 0.000000 -0.001884 0.000000
# 3 -0.002408 -0.000169 0.006423 0.000000 -0.004193 0.000000
# 4 0.000000 0.000000 0.000000 0.029158 0.000000 -0.007272
# 5 0.003474 -0.001884 -0.004193 0.000000 0.021920 0.000000
# 6 0.000000 0.000000 0.000000 -0.007272 0.000000 0.029983
#
#
# Mechanical properties :
#
#
# Convention : Reuss Voigt Hill
#
# Bulk Modulus (GPa) = 52.53017 58.63993 55.58505
# Shear Modulus (GPa) = 35.22447 43.18981 39.20714
#
# Velocity S-wave (km/s) = 3.74096 4.14240 3.94679
# Velocity P-wave (km/s) = 6.28730 6.79537 6.54627
#
# Compressibility (1/GPa) = 0.01903668
#
# Stress axis : x y z
#
# Youngs Moduli (GPa) = 67.14017 64.63738 155.68724
#
# Poissons Ratio (x) = 0.40713 0.37485
# Poissons Ratio (y) = 0.42289 0.02638
# Poissons Ratio (z) = 0.16166 0.01095
#
# Static dielectric constant tensor:
#      x y z
#    x 2.237100 0.000000 0.197360 
#    y 0.000000 2.192830 0.000000 
#    z 0.197360 0.000000 2.136190 
# 
# From -- ./inp_files/21762.got.cif
#   From: 2010.05.17/outbox.cif.g08.bks.cpg/sg9_11_cif.got.tgz:21762.got - 2010.06.03 20:04:27.
