data_PCOD9140304
_publ_section_title
;
Structure prediction by ZEFSAII (Michael W. Deem and Ramdas Pophale) SiO2 
 PCOD9140304
Probable space group: C C
;
_chemical_formula_sum "Si O2"
_cell_formula_units_Z 32
_cell_length_a 11.830570
_cell_length_b 14.217678
_cell_length_c 7.957229
_cell_angle_alpha 90.000000
_cell_angle_beta 65.589923
_cell_angle_gamma 90.000000
_cell_volume 1218.790579
_symmetry_space_group_name_H-M "C C"
_symmetry_group_IT_number 9
_symmetry_cell_setting 'monoclinic'
loop_
_space_group_symop_operation_xyz
x,y,z
x,-y,1/2+z
1/2+x,1/2+y,z
1/2+x,1/2-y,1/2+z
loop_
_atom_site_type_symbol
_atom_site_label
_atom_site_fract_x
_atom_site_fract_y
_atom_site_fract_z
Si Si1 0.897680 0.978459 0.653350
Si Si2 0.249442 0.118012 0.770514
Si Si3 0.499364 0.818480 0.648589
Si Si4 0.374760 0.041226 0.018739
Si Si5 0.476042 0.310358 0.850945
Si Si6 0.188504 0.711730 0.489794
Si Si7 0.626415 0.958603 0.806301
Si Si8 0.986143 0.126758 0.795502
O O1 0.755862 0.010005 0.746253
O O2 0.951482 0.911010 0.768293
O O3 0.895892 0.917850 0.486345
O O4 0.972534 0.075559 0.623370
O O5 0.235317 0.229029 0.796002
O O6 0.116018 0.090197 0.786993
O O7 0.343466 0.064072 0.593847
O O8 0.283752 0.079727 0.933775
O O9 0.384400 0.885517 0.665866
O O10 0.535061 0.751302 0.470125
O O11 0.599076 0.889994 0.665502
O O12 0.469682 0.737735 0.801594
O O13 0.515546 0.032992 0.871253
O O14 0.326769 0.292123 0.986269
O O15 0.574021 0.265645 0.649639
O O16 0.135493 0.612736 0.459417
#
# Coordination Sequence:
#
# PCOD9140304 Si02
#       8
#     4   4   4   4   4   4   4   4
#     4  11  26  48  78 108 156 202 246 321 386 462
#     4  12  24  47  76 105 151 195 251 316 382 447
#     4  12  26  49  74 116 146 204 253 318 381 466
#     4  12  27  48  76 112 148 199 259 317 385 457
#     4  11  24  45  76 111 153 198 261 308 391 455
#     4  11  23  48  75 107 154 204 248 321 378 459
#     4  11  26  49  72 108 150 200 250 312 384 459
#     4  12  26  50  73 113 150 200 258 309 389 459
#
# _framework density 26.255537
#
# number of rings (size 3 to 8) (size 9 to 14) (size 15 to 20)
#    0.000    0.500    5.000    2.250    1.750    2.000 
#    4.500    0.000    0.000    0.000    0.000    0.000 
#    0.000    0.000    0.000    0.000    0.000    0.000 
#
# Total GULP energy -89176.201811 kJ/mol
# GULP energy per Si atom -5573.512613 kJ/mol
# Density = 2.619578 g / cm^3
# Si number density = 26.255537 Si / 1000 Ang^3
#
#
#
# Elastic Constant Matrix: (Units=GPa)
#
#
# Indices 1 2 3 4 5 6 
#
# 1 145.2104 24.9554 19.0854 0.0000 -1.3082 0.0000
# 2 24.9554 104.0089 13.7427 0.0000 -3.9762 0.0000
# 3 19.0854 13.7427 44.5601 0.0000 3.4780 0.0000
# 4 0.0000 0.0000 0.0000 17.0677 0.0000 9.9294
# 5 -1.3082 -3.9762 3.4780 0.0000 36.6566 0.0000
# 6 0.0000 0.0000 0.0000 9.9294 0.0000 47.6180
#
#
#
# Elastic Compliance Matrix: (Units=1/GPa)
#
#
# Indices 1 2 3 4 5 6 
#
# 1 0.007502 -0.001415 -0.002807 0.000000 0.000381 0.000000
# 2 -0.001415 0.010361 -0.002693 0.000000 0.001329 0.000000
# 3 -0.002807 -0.002693 0.024688 0.000000 -0.002735 0.000000
# 4 0.000000 0.000000 0.000000 0.066679 0.000000 -0.013904
# 5 0.000381 0.001329 -0.002735 0.000000 0.027697 0.000000
# 6 0.000000 0.000000 0.000000 -0.013904 0.000000 0.023900
#
#
# Mechanical properties :
#
#
# Convention : Reuss Voigt Hill
#
# Bulk Modulus (GPa) = 34.81693 45.48292 40.14993
# Shear Modulus (GPa) = 27.14011 36.00152 31.57082
#
# Velocity S-wave (km/s) = 3.21859 3.70699 3.47139
# Velocity P-wave (km/s) = 5.20596 5.97353 5.60291
#
# Compressibility (1/GPa) = 0.02872166
#
# Stress axis : x y z
#
# Youngs Moduli (GPa) = 133.29829 96.51930 40.50603
#
# Poissons Ratio (x) = 0.13654 0.11368
# Poissons Ratio (y) = 0.18856 0.10909
# Poissons Ratio (z) = 0.37411 0.25994
#
# Static dielectric constant tensor:
#      x y z
#    x 2.098490 0.000000 0.040480 
#    y 0.000000 2.064950 0.000000 
#    z 0.040480 0.000000 2.320890 
# 
# From -- ./inp_files/7560.got.cif
#   From: 2010.05.17/outbox.cif.g08.bks.cpg/sg9_4_cif.got.tgz:7560.got - 2010.06.03 20:04:27.
