data_PCOD9140214
_publ_section_title
;
Structure prediction by ZEFSAII (Michael W. Deem and Ramdas Pophale) SiO2 
 PCOD9140214
Probable space group: C C
;
_chemical_formula_sum "Si O2"
_cell_formula_units_Z 32
_cell_length_a 8.780625
_cell_length_b 13.181344
_cell_length_c 15.940840
_cell_angle_alpha 90.000000
_cell_angle_beta 52.918764
_cell_angle_gamma 90.000000
_cell_volume 1471.906595
_symmetry_space_group_name_H-M "C C"
_symmetry_group_IT_number 9
_symmetry_cell_setting 'monoclinic'
loop_
_space_group_symop_operation_xyz
x,y,z
x,-y,1/2+z
1/2+x,1/2+y,z
1/2+x,1/2-y,1/2+z
loop_
_atom_site_type_symbol
_atom_site_label
_atom_site_fract_x
_atom_site_fract_y
_atom_site_fract_z
Si Si1 0.700240 0.541570 0.552740
Si Si2 0.483667 0.634825 0.935927
Si Si3 0.635086 0.718173 0.301063
Si Si4 0.609638 0.051817 0.150732
Si Si5 0.184994 0.007445 0.240745
Si Si6 0.912046 0.671667 0.355356
Si Si7 0.822326 0.146226 0.612481
Si Si8 0.265513 0.810133 0.484220
O O1 0.665027 0.558035 0.663194
O O2 0.868562 0.601534 0.450148
O O3 0.514011 0.581083 0.564457
O O4 0.744648 0.421845 0.530660
O O5 0.614881 0.549469 0.847985
O O6 0.453709 0.717708 0.874833
O O7 0.591010 0.689662 0.977112
O O8 0.281519 0.591510 0.035457
O O9 0.573275 0.614904 0.274637
O O10 0.724427 0.682530 0.359174
O O11 0.799584 0.776334 0.196579
O O12 0.461447 0.794972 0.368681
O O13 0.573372 0.124174 0.242383
O O14 0.405992 0.040596 0.173318
O O15 0.662998 0.940050 0.163500
O O16 0.784316 0.218300 0.544573
#
# Coordination Sequence:
#
# PCOD9140214 Si02
#       8
#     4   4   4   4   4   4   4   4
#     4  12  25  48  72 112 150 197 256 317 390 469
#     4  12  27  47  75 111 154 201 257 323 392 467
#     4  11  23  45  75 105 144 200 249 308 394 450
#     4  11  27  48  73 108 153 198 255 325 382 465
#     4  11  26  48  74 112 156 197 256 322 390 467
#     4  11  27  45  73 107 153 195 255 320 387 464
#     4  12  24  45  74 108 148 195 253 316 382 467
#     4  12  25  46  74 107 148 197 253 315 385 465
#
# _framework density 21.740511000000001
#
# number of rings (size 3 to 8) (size 9 to 14) (size 15 to 20)
#    0.000    0.500    3.750    4.500    8.750    2.000 
#    2.250    0.000    0.000    0.000    0.000    0.000 
#    0.000    0.000    0.000    0.000    0.000    0.000 
#
# Total GULP energy -89367.261892 kJ/mol
# GULP energy per Si atom -5585.453868 kJ/mol
# Density = 2.169103 g / cm^3
# Si number density = 21.740511 Si / 1000 Ang^3
#
#
#
# Elastic Constant Matrix: (Units=GPa)
#
#
# Indices 1 2 3 4 5 6 
#
# 1 70.4443 39.0378 50.4593 0.0000 -2.8593 0.0000
# 2 39.0378 123.6457 59.8247 0.0000 1.6417 0.0000
# 3 50.4593 59.8247 121.2083 0.0000 -0.9853 0.0000
# 4 0.0000 0.0000 0.0000 50.1006 0.0000 11.3968
# 5 -2.8593 1.6417 -0.9853 0.0000 27.5064 0.0000
# 6 0.0000 0.0000 0.0000 11.3968 0.0000 34.8632
#
#
#
# Elastic Compliance Matrix: (Units=1/GPa)
#
#
# Indices 1 2 3 4 5 6 
#
# 1 0.021260 -0.003241 -0.007234 0.000000 0.002144 0.000000
# 2 -0.003241 0.011138 -0.004157 0.000000 -0.001151 0.000000
# 3 -0.007234 -0.004157 0.013313 0.000000 -0.000027 0.000000
# 4 0.000000 0.000000 0.000000 0.021563 0.000000 -0.007049
# 5 0.002144 -0.001151 -0.000027 0.000000 0.036646 0.000000
# 6 0.000000 0.000000 0.000000 -0.007049 0.000000 0.030988
#
#
# Mechanical properties :
#
#
# Convention : Reuss Voigt Hill
#
# Bulk Modulus (GPa) = 60.79992 68.21576 64.50784
# Shear Modulus (GPa) = 29.47172 33.55913 31.51543
#
# Velocity S-wave (km/s) = 3.68586 3.93316 3.81151
# Velocity P-wave (km/s) = 6.79271 7.21607 7.00759
#
# Compressibility (1/GPa) = 0.01644739
#
# Stress axis : x y z
#
# Youngs Moduli (GPa) = 47.03654 89.78587 75.11262
#
# Poissons Ratio (x) = 0.29098 0.54333
# Poissons Ratio (y) = 0.15244 0.31227
# Poissons Ratio (z) = 0.34024 0.37327
#
# Static dielectric constant tensor:
#      x y z
#    x 1.788220 0.000000 0.012040 
#    y 0.000000 1.804200 0.000000 
#    z 0.012040 0.000000 1.840870 
# 
# From -- ./inp_files/23358.got.cif
#   From: 2010.05.17/outbox.cif.g08.bks.cpg/sg9_12_cif.got.tgz:23358.got - 2010.06.03 20:04:27.
