data_PCOD9140732
_publ_section_title
;
Structure prediction by ZEFSAII (Michael W. Deem and Ramdas Pophale) SiO2 
 PCOD9140732
Probable space group: C C
;
_chemical_formula_sum "Si O2"
_cell_formula_units_Z 24
_cell_length_a 11.593506
_cell_length_b 9.036379
_cell_length_c 9.322805
_cell_angle_alpha 90.000000
_cell_angle_beta 82.180514
_cell_angle_gamma 90.000000
_cell_volume 967.606340
_symmetry_space_group_name_H-M "C C"
_symmetry_group_IT_number 9
_symmetry_cell_setting 'monoclinic'
loop_
_space_group_symop_operation_xyz
x,y,z
x,-y,1/2+z
1/2+x,1/2+y,z
1/2+x,1/2-y,1/2+z
loop_
_atom_site_type_symbol
_atom_site_label
_atom_site_fract_x
_atom_site_fract_y
_atom_site_fract_z
Si Si1 0.960370 0.815719 0.338970
Si Si2 0.185862 0.609789 0.336875
Si Si3 0.892143 0.301679 0.283458
Si Si4 0.143968 0.326160 0.161823
Si Si5 0.750415 0.395304 0.849814
Si Si6 0.000396 0.892241 0.009876
O O1 0.848836 0.716140 0.384931
O O2 0.956676 0.875520 0.177233
O O3 0.075520 0.714242 0.324702
O O4 0.965868 0.954907 0.441437
O O5 0.301117 0.678750 0.249594
O O6 0.163843 0.447808 0.281134
O O7 0.200455 0.619080 0.505728
O O8 0.815565 0.449071 0.317031
O O9 0.950511 0.242427 0.421720
O O10 0.004515 0.319300 0.164108
O O11 0.196022 0.172121 0.211118
O O12 0.640898 0.395194 0.974626
#
# Coordination Sequence:
#
# PCOD9140732 Si02
#       6
#     4   4   4   4   4   4
#     4  12  27  49  77 109 149 195 248 304 374 437
#     4  12  27  49  77 109 149 195 248 304 374 437
#     4  11  25  48  76 107 149 194 244 299 366 439
#     4  11  28  49  74 111 149 193 248 305 368 441
#     4  11  25  48  76 107 149 194 244 299 366 439
#     4  11  28  49  74 111 149 193 248 305 368 441
#
# _framework density 24.803476
#
# number of rings (size 3 to 8) (size 9 to 14) (size 15 to 20)
#    0.000    0.667    3.333    2.000    9.333    4.000 
#    0.000    0.000    0.000    0.000    0.000    0.000 
#    0.000    0.000    0.000    0.000    0.000    0.000 
#
# Total GULP energy -67368.764501 kJ/mol
# GULP energy per Si atom -5614.063708 kJ/mol
# Density = 2.474702 g / cm^3
# Si number density = 24.803476 Si / 1000 Ang^3
#
#
#
# Elastic Constant Matrix: (Units=GPa)
#
#
# Indices 1 2 3 4 5 6 
#
# 1 171.7192 73.4527 9.3727 0.0000 -22.4844 0.0000
# 2 73.4527 154.2748 34.9221 0.0000 -1.2666 0.0000
# 3 9.3727 34.9221 72.1421 0.0000 1.7110 0.0000
# 4 0.0000 0.0000 0.0000 31.8638 0.0000 10.4900
# 5 -22.4844 -1.2666 1.7110 0.0000 31.4930 0.0000
# 6 0.0000 0.0000 0.0000 10.4900 0.0000 73.6178
#
#
#
# Elastic Compliance Matrix: (Units=1/GPa)
#
#
# Indices 1 2 3 4 5 6 
#
# 1 0.008264 -0.004059 0.000756 0.000000 0.005696 0.000000
# 2 -0.004059 0.009281 -0.003910 0.000000 -0.002312 0.000000
# 3 0.000756 -0.003910 0.015667 0.000000 -0.000469 0.000000
# 4 0.000000 0.000000 0.000000 0.032928 0.000000 -0.004692
# 5 0.005696 -0.002312 -0.000469 0.000000 0.035752 0.000000
# 6 0.000000 0.000000 0.000000 -0.004692 0.000000 0.014252
#
#
# Mechanical properties :
#
#
# Convention : Reuss Voigt Hill
#
# Bulk Modulus (GPa) = 53.23227 70.40345 61.81786
# Shear Modulus (GPa) = 36.54074 46.08751 41.31412
#
# Velocity S-wave (km/s) = 3.84241 4.31525 4.08568
# Velocity P-wave (km/s) = 6.41823 7.29895 6.87271
#
# Compressibility (1/GPa) = 0.01878560
#
# Stress axis : x y z
#
# Youngs Moduli (GPa) = 121.00243 107.74997 63.82720
#
# Poissons Ratio (x) = 0.43737 -0.04826
# Poissons Ratio (y) = 0.49117 0.24959
# Poissons Ratio (z) = -0.09149 0.42134
#
# Static dielectric constant tensor:
#      x y z
#    x 1.969210 0.000000 0.033440 
#    y 0.000000 1.913120 0.000000 
#    z 0.033440 0.000000 1.938660 
# 
# From -- ./inp_files/6729.got.cif
#   From: 2010.05.17/outbox.cif.g08.bks.cpg/sg9_4_cif.got.tgz:6729.got - 2010.06.03 20:04:27.
