data_PCOD9140223
_publ_section_title
;
Structure prediction by ZEFSAII (Michael W. Deem and Ramdas Pophale) SiO2 
 PCOD9140223
Probable space group: C C
;
_chemical_formula_sum "Si O2"
_cell_formula_units_Z 28
_cell_length_a 15.676349
_cell_length_b 13.626523
_cell_length_c 8.863550
_cell_angle_alpha 90.000000
_cell_angle_beta 144.078683
_cell_angle_gamma 90.000000
_cell_volume 1110.795959
_symmetry_space_group_name_H-M "C C"
_symmetry_group_IT_number 9
_symmetry_cell_setting 'monoclinic'
loop_
_space_group_symop_operation_xyz
x,y,z
x,-y,1/2+z
1/2+x,1/2+y,z
1/2+x,1/2-y,1/2+z
loop_
_atom_site_type_symbol
_atom_site_label
_atom_site_fract_x
_atom_site_fract_y
_atom_site_fract_z
Si Si1 0.968440 0.335301 0.889040
Si Si2 0.267759 0.620812 0.897637
Si Si3 0.225313 0.047535 0.855896
Si Si4 0.828272 0.337812 0.005134
Si Si5 0.482650 0.679423 0.665552
Si Si6 0.455112 0.881812 0.475487
Si Si7 0.266284 0.433905 0.056204
O O1 0.853938 0.398678 0.632649
O O2 0.886998 0.311017 0.925068
O O3 0.034815 0.244467 0.887580
O O4 0.099154 0.402433 0.127860
O O5 0.272760 0.730406 0.971197
O O6 0.320497 0.543258 0.095937
O O7 0.318665 0.599472 0.797607
O O8 0.087222 0.102872 0.730456
O O9 0.297990 0.071046 0.795710
O O10 0.217334 0.929589 0.845238
O O11 0.956889 0.380185 0.296634
O O12 0.447108 0.766843 0.502553
O O13 0.342028 0.630243 0.535066
O O14 0.594501 0.918759 0.771421
#
# Coordination Sequence:
#
# PCOD9140223 Si02
#       7
#     4   4   4   4   4   4   4
#     4  11  23  45  78 106 148 201 252 302 373 459
#     4  12  27  45  75 106 147 197 253 311 374 458
#     4  11  23  47  74 110 150 199 246 317 374 448
#     4  12  26  45  72 117 146 196 258 310 375 457
#     4  11  24  47  75 104 154 196 246 311 390 434
#     4  11  25  45  77 106 146 200 252 302 369 461
#     4  12  26  50  71 107 147 201 245 315 379 453
#
# _framework density 25.207149000000001
#
# number of rings (size 3 to 8) (size 9 to 14) (size 15 to 20)
#    0.000    0.571    4.286    5.143    4.000    2.286 
#    5.143    0.000    0.000    0.000    0.000    0.000 
#    0.000    0.000    0.000    0.000    0.000    0.000 
#
# Total GULP energy -78069.882176 kJ/mol
# GULP energy per Si atom -5576.420155 kJ/mol
# Density = 2.514978 g / cm^3
# Si number density = 25.207149 Si / 1000 Ang^3
#
#
#
# Elastic Constant Matrix: (Units=GPa)
#
#
# Indices 1 2 3 4 5 6 
#
# 1 124.7907 59.1103 31.8635 0.0000 2.5043 0.0000
# 2 59.1103 180.5256 22.7053 0.0000 -18.4540 0.0000
# 3 31.8635 22.7053 53.4707 0.0000 -16.8419 0.0000
# 4 0.0000 0.0000 0.0000 22.9004 0.0000 -7.8026
# 5 2.5043 -18.4540 -16.8419 0.0000 26.1733 0.0000
# 6 0.0000 0.0000 0.0000 -7.8026 0.0000 28.4890
#
#
#
# Elastic Compliance Matrix: (Units=1/GPa)
#
#
# Indices 1 2 3 4 5 6 
#
# 1 0.012252 -0.003894 -0.008631 0.000000 -0.009472 0.000000
# 2 -0.003894 0.007307 0.001202 0.000000 0.006298 0.000000
# 3 -0.008631 0.001202 0.029927 0.000000 0.020930 0.000000
# 4 0.000000 0.000000 0.000000 0.048162 0.000000 0.013191
# 5 -0.009472 0.006298 0.020930 0.000000 0.057022 0.000000
# 6 0.000000 0.000000 0.000000 0.013191 0.000000 0.038714
#
#
# Mechanical properties :
#
#
# Convention : Reuss Voigt Hill
#
# Bulk Modulus (GPa) = 37.25890 65.12726 51.19308
# Shear Modulus (GPa) = 22.22448 31.85307 27.03877
#
# Velocity S-wave (km/s) = 2.97252 3.55865 3.27871
# Velocity P-wave (km/s) = 5.15697 6.54050 5.88950
#
# Compressibility (1/GPa) = 0.02683923
#
# Stress axis : x y z
#
# Youngs Moduli (GPa) = 81.61994 136.85086 33.41437
#
# Poissons Ratio (x) = 0.53296 0.28839
# Poissons Ratio (y) = 0.31786 -0.04015
# Poissons Ratio (z) = 0.70443 -0.16443
#
# Static dielectric constant tensor:
#      x y z
#    x 2.125890 0.000000 -0.049950 
#    y 0.000000 2.047590 0.000000 
#    z -0.049950 0.000000 2.033100 
# 
# From -- ./inp_files/9761.got.cif
#   From: 2010.05.17/outbox.cif.g08.bks.cpg/sg9_5_cif.got.tgz:9761.got - 2010.06.03 20:04:27.
