data_PCOD9140409
_publ_section_title
;
Structure prediction by ZEFSAII (Michael W. Deem and Ramdas Pophale) SiO2 
 PCOD9140409
Probable space group: C C
;
_chemical_formula_sum "Si O2"
_cell_formula_units_Z 28
_cell_length_a 4.870127
_cell_length_b 17.967054
_cell_length_c 13.835228
_cell_angle_alpha 90.000000
_cell_angle_beta 101.532848
_cell_angle_gamma 90.000000
_cell_volume 1186.165959
_symmetry_space_group_name_H-M "C C"
_symmetry_group_IT_number 9
_symmetry_cell_setting 'monoclinic'
loop_
_space_group_symop_operation_xyz
x,y,z
x,-y,1/2+z
1/2+x,1/2+y,z
1/2+x,1/2-y,1/2+z
loop_
_atom_site_type_symbol
_atom_site_label
_atom_site_fract_x
_atom_site_fract_y
_atom_site_fract_z
Si Si1 0.444340 0.458023 0.715490
Si Si2 0.374896 0.252864 0.413819
Si Si3 0.894854 0.516389 0.073929
Si Si4 0.022057 0.352549 0.086612
Si Si5 0.105907 0.824787 0.198815
Si Si6 0.070209 0.087100 0.870719
Si Si7 0.320949 0.306930 0.804228
O O1 0.687826 0.477907 0.654348
O O2 0.416901 0.524320 0.793769
O O3 0.453096 0.384240 0.781665
O O4 0.169457 0.442511 0.632239
O O5 0.522800 0.216282 0.515458
O O6 0.413421 0.341087 0.404964
O O7 0.526906 0.205723 0.338683
O O8 0.051419 0.231857 0.387764
O O9 0.038913 0.437254 0.052285
O O10 0.741545 0.549363 0.969296
O O11 0.710765 0.359082 0.107915
O O12 0.273120 0.334605 0.178662
O O13 0.238698 0.870220 0.297029
O O14 0.247615 0.744299 0.207359
#
# Coordination Sequence:
#
# PCOD9140409 Si02
#       7
#     4   4   4   4   4   4   4
#     4  12  27  47  74 110 152 195 249 317 377 440
#     4  11  26  44  76 108 142 200 245 308 375 454
#     4  12  27  44  76 112 144 201 252 306 377 453
#     4  12  23  46  70 110 143 198 246 308 371 444
#     4  11  24  44  74  98 153 195 241 308 371 437
#     4  11  26  49  74 110 151 194 254 308 382 440
#     4  11  25  46  70 106 147 195 239 303 375 446
#
# _framework density 23.605464000000001
#
# number of rings (size 3 to 8) (size 9 to 14) (size 15 to 20)
#    0.000    0.571    2.857    4.286    4.000    5.714 
#    0.000    0.000    0.000    0.000    0.000    0.000 
#    0.000    0.000    0.000    0.000    0.000    0.000 
#
# Total GULP energy -77966.335981 kJ/mol
# GULP energy per Si atom -5569.023999 kJ/mol
# Density = 2.355174 g / cm^3
# Si number density = 23.605464 Si / 1000 Ang^3
#
#
#
# Elastic Constant Matrix: (Units=GPa)
#
#
# Indices 1 2 3 4 5 6 
#
# 1 77.3986 12.2781 6.5650 0.0000 6.0851 0.0000
# 2 12.2781 154.1089 44.8320 0.0000 10.8984 0.0000
# 3 6.5650 44.8320 95.6257 0.0000 18.8158 0.0000
# 4 0.0000 0.0000 0.0000 40.2207 0.0000 5.7275
# 5 6.0851 10.8984 18.8158 0.0000 27.0389 0.0000
# 6 0.0000 0.0000 0.0000 5.7275 0.0000 29.6930
#
#
#
# Elastic Compliance Matrix: (Units=1/GPa)
#
#
# Indices 1 2 3 4 5 6 
#
# 1 0.013265 -0.000876 0.000021 0.000000 -0.002647 0.000000
# 2 -0.000876 0.007582 -0.003397 0.000000 -0.000495 0.000000
# 3 0.000021 -0.003397 0.013649 0.000000 -0.008134 0.000000
# 4 0.000000 0.000000 0.000000 0.025565 0.000000 -0.004931
# 5 -0.002647 -0.000495 -0.008134 0.000000 0.043439 0.000000
# 6 0.000000 0.000000 0.000000 -0.004931 0.000000 0.034629
#
#
# Mechanical properties :
#
#
# Convention : Reuss Voigt Hill
#
# Bulk Modulus (GPa) = 38.47329 50.49815 44.48572
# Shear Modulus (GPa) = 32.19620 36.95440 34.57530
#
# Velocity S-wave (km/s) = 3.69715 3.96094 3.83131
# Velocity P-wave (km/s) = 5.87870 6.50828 6.20148
#
# Compressibility (1/GPa) = 0.02599206
#
# Stress axis : x y z
#
# Youngs Moduli (GPa) = 75.38410 131.89228 73.26502
#
# Poissons Ratio (x) = 0.11550 -0.00151
# Poissons Ratio (y) = 0.06601 0.24889
# Poissons Ratio (z) = -0.00156 0.44805
#
# Static dielectric constant tensor:
#      x y z
#    x 1.893080 0.000000 -0.072740 
#    y 0.000000 2.050180 0.000000 
#    z -0.072740 0.000000 1.933260 
# 
# From -- ./inp_files/21875.got.cif
#   From: 2010.05.17/outbox.cif.g08.bks.cpg/sg9_11_cif.got.tgz:21875.got - 2010.06.03 20:04:27.
