data_PCOD9140987
_publ_section_title
;
Structure prediction by ZEFSAII (Michael W. Deem and Ramdas Pophale) SiO2 
 PCOD9140987
Probable space group: C C
;
_chemical_formula_sum "Si O2"
_cell_formula_units_Z 24
_cell_length_a 14.174238
_cell_length_b 9.691953
_cell_length_c 8.027902
_cell_angle_alpha 90.000000
_cell_angle_beta 112.686515
_cell_angle_gamma 90.000000
_cell_volume 1017.513387
_symmetry_space_group_name_H-M "C C"
_symmetry_group_IT_number 9
_symmetry_cell_setting 'monoclinic'
loop_
_space_group_symop_operation_xyz
x,y,z
x,-y,1/2+z
1/2+x,1/2+y,z
1/2+x,1/2-y,1/2+z
loop_
_atom_site_type_symbol
_atom_site_label
_atom_site_fract_x
_atom_site_fract_y
_atom_site_fract_z
Si Si1 0.173630 0.089885 0.052550
Si Si2 0.373100 0.421673 0.863375
Si Si3 0.865775 0.781603 0.226817
Si Si4 0.586799 0.655581 0.333256
Si Si5 0.080342 0.326590 0.824059
Si Si6 0.659724 0.087915 0.043117
O O1 0.275079 0.170562 0.173928
O O2 0.094270 0.107953 0.149026
O O3 0.130697 0.176421 0.867162
O O4 0.171270 0.933213 0.993172
O O5 0.363364 0.589146 0.852185
O O6 0.477007 0.376609 0.840138
O O7 0.271213 0.378883 0.692094
O O8 0.371626 0.353944 0.046270
O O9 0.968310 0.693305 0.318281
O O10 0.622057 0.812900 0.371149
O O11 0.081378 0.382057 0.638996
O O12 0.148724 0.431530 0.977044
#
# Coordination Sequence:
#
# PCOD9140987 Si02
#       6
#     4   4   4   4   4   4
#     4  12  26  45  72 107 142 188 246 301 356 436
#     4  12  24  46  75 103 140 199 235 294 367 440
#     4  12  27  45  76 106 148 189 250 297 369 438
#     4  12  27  45  75 105 146 189 241 306 363 434
#     4  12  25  46  71 108 144 187 245 303 357 435
#     4  12  25  45  75 107 146 190 243 303 366 431
#
# _framework density 23.586912999999999
#
# number of rings (size 3 to 8) (size 9 to 14) (size 15 to 20)
#    0.000    0.000    6.667    3.000    2.333    2.667 
#    0.000    0.000    0.000    0.000    0.000    0.000 
#    0.000    0.000    0.000    0.000    0.000    0.000 
#
# Total GULP energy -67179.976938 kJ/mol
# GULP energy per Si atom -5598.331411 kJ/mol
# Density = 2.353323 g / cm^3
# Si number density = 23.586913 Si / 1000 Ang^3
#
#
#
# Elastic Constant Matrix: (Units=GPa)
#
#
# Indices 1 2 3 4 5 6 
#
# 1 99.8072 37.0433 -1.7927 0.0000 15.6651 0.0000
# 2 37.0433 80.1444 16.0556 0.0000 6.1598 0.0000
# 3 -1.7927 16.0556 75.2410 0.0000 -8.6231 0.0000
# 4 0.0000 0.0000 0.0000 34.8615 0.0000 2.0408
# 5 15.6651 6.1598 -8.6231 0.0000 41.6097 0.0000
# 6 0.0000 0.0000 0.0000 2.0408 0.0000 35.2305
#
#
#
# Elastic Compliance Matrix: (Units=1/GPa)
#
#
# Indices 1 2 3 4 5 6 
#
# 1 0.012796 -0.005855 0.001128 0.000000 -0.003717 0.000000
# 2 -0.005855 0.015987 -0.003656 0.000000 -0.000920 0.000000
# 3 0.001128 -0.003656 0.014454 0.000000 0.003112 0.000000
# 4 0.000000 0.000000 0.000000 0.028783 0.000000 -0.001667
# 5 -0.003717 -0.000920 0.003112 0.000000 0.026213 0.000000
# 6 0.000000 0.000000 0.000000 -0.001667 0.000000 0.028481
#
#
# Mechanical properties :
#
#
# Convention : Reuss Voigt Hill
#
# Bulk Modulus (GPa) = 37.77659 39.75611 38.76635
# Shear Modulus (GPa) = 32.82920 35.93279 34.38099
#
# Velocity S-wave (km/s) = 3.73478 3.90734 3.82203
# Velocity P-wave (km/s) = 5.88633 6.10312 5.99570
#
# Compressibility (1/GPa) = 0.02647142
#
# Stress axis : x y z
#
# Youngs Moduli (GPa) = 78.14995 62.55172 69.18309
#
# Poissons Ratio (x) = 0.36622 -0.07805
# Poissons Ratio (y) = 0.45754 0.25296
# Poissons Ratio (z) = -0.08817 0.22871
#
# Static dielectric constant tensor:
#      x y z
#    x 1.881960 0.000000 0.001970 
#    y 0.000000 1.838600 0.000000 
#    z 0.001970 0.000000 1.888020 
# 
# From -- ./inp_files/8764.got.cif
#   From: 2010.05.17/outbox.cif.g08.bks.cpg/sg9_5_cif.got.tgz:8764.got - 2010.06.03 20:04:27.
