data_PCOD9140254
_publ_section_title
;
Structure prediction by ZEFSAII (Michael W. Deem and Ramdas Pophale) SiO2 
 PCOD9140254
Probable space group: C C
;
_chemical_formula_sum "Si O2"
_cell_formula_units_Z 28
_cell_length_a 19.175949
_cell_length_b 11.126053
_cell_length_c 11.048098
_cell_angle_alpha 90.000000
_cell_angle_beta 148.105056
_cell_angle_gamma 90.000000
_cell_volume 1245.426917
_symmetry_space_group_name_H-M "C C"
_symmetry_group_IT_number 9
_symmetry_cell_setting 'monoclinic'
loop_
_space_group_symop_operation_xyz
x,y,z
x,-y,1/2+z
1/2+x,1/2+y,z
1/2+x,1/2-y,1/2+z
loop_
_atom_site_type_symbol
_atom_site_label
_atom_site_fract_x
_atom_site_fract_y
_atom_site_fract_z
Si Si1 0.178550 0.943231 0.200060
Si Si2 0.919072 0.176795 0.235543
Si Si3 0.794080 0.728428 0.059353
Si Si4 0.928944 0.585734 0.901664
Si Si5 0.038555 0.392203 0.922517
Si Si6 0.689228 0.988442 0.928640
Si Si7 0.753958 0.713957 0.291931
O O1 0.194007 0.858589 0.340643
O O2 0.300439 0.911044 0.292748
O O3 0.200759 0.084633 0.256135
O O4 0.043883 0.911104 0.931524
O O5 0.947451 0.284775 0.370736
O O6 0.882854 0.241419 0.054866
O O7 0.788321 0.099201 0.071921
O O8 0.783486 0.711473 0.190590
O O9 0.940847 0.706645 0.221898
O O10 0.762676 0.867945 0.994125
O O11 0.924550 0.486473 0.790483
O O12 0.052502 0.523813 0.153012
O O13 0.138849 0.467792 0.990116
O O14 0.137302 0.309964 0.145108
#
# Coordination Sequence:
#
# PCOD9140254 Si02
#       7
#     4   4   4   4   4   4   4
#     4  12  26  47  76 114 153 198 260 318 379 459
#     4  12  28  48  76 115 148 199 259 309 385 463
#     4  11  23  47  72 108 153 197 251 315 382 442
#     4  12  25  45  75 106 149 196 248 314 376 448
#     4  11  23  46  75 102 151 195 249 309 378 452
#     4  11  25  47  73 107 150 199 246 315 378 453
#     4  11  26  46  73 110 150 204 247 316 380 457
#
# _framework density 22.482251000000002
#
# number of rings (size 3 to 8) (size 9 to 14) (size 15 to 20)
#    0.000    0.571    5.714    1.714    2.000    1.143 
#    5.143    0.000    0.000    0.000    0.000    0.000 
#    0.000    0.000    0.000    0.000    0.000    0.000 
#
# Total GULP energy -78070.258495 kJ/mol
# GULP energy per Si atom -5576.447035 kJ/mol
# Density = 2.243108 g / cm^3
# Si number density = 22.482251 Si / 1000 Ang^3
#
#
#
# Elastic Constant Matrix: (Units=GPa)
#
#
# Indices 1 2 3 4 5 6 
#
# 1 62.3961 30.9128 24.7239 0.0000 9.0869 0.0000
# 2 30.9128 89.8555 35.2642 0.0000 -4.4113 0.0000
# 3 24.7239 35.2642 144.7806 0.0000 8.1048 0.0000
# 4 0.0000 0.0000 0.0000 19.0336 0.0000 4.7749
# 5 9.0869 -4.4113 8.1048 0.0000 26.7068 0.0000
# 6 0.0000 0.0000 0.0000 4.7749 0.0000 22.5507
#
#
#
# Elastic Compliance Matrix: (Units=1/GPa)
#
#
# Indices 1 2 3 4 5 6 
#
# 1 0.021309 -0.007155 -0.001449 0.000000 -0.007993 0.000000
# 2 -0.007155 0.014947 -0.002740 0.000000 0.005735 0.000000
# 3 -0.001449 -0.002740 0.007955 0.000000 -0.002374 0.000000
# 4 0.000000 0.000000 0.000000 0.055486 0.000000 -0.011749
# 5 -0.007993 0.005735 -0.002374 0.000000 0.041831 0.000000
# 6 0.000000 0.000000 0.000000 -0.011749 0.000000 0.046832
#
#
# Mechanical properties :
#
#
# Convention : Reuss Voigt Hill
#
# Bulk Modulus (GPa) = 46.45939 53.20376 49.83158
# Shear Modulus (GPa) = 22.91242 27.40030 25.15636
#
# Velocity S-wave (km/s) = 3.19585 3.49485 3.34869
# Velocity P-wave (km/s) = 5.85899 6.32467 6.09628
#
# Compressibility (1/GPa) = 0.02152417
#
# Stress axis : x y z
#
# Youngs Moduli (GPa) = 46.92764 66.90176 125.71243
#
# Poissons Ratio (x) = 0.47867 0.18214
# Poissons Ratio (y) = 0.33576 0.34444
# Poissons Ratio (z) = 0.06799 0.18331
#
# Static dielectric constant tensor:
#      x y z
#    x 2.025010 0.000000 -0.170380 
#    y 0.000000 2.211530 0.000000 
#    z -0.170380 0.000000 1.976570 
# 
# From -- ./inp_files/16309.got.cif
#   From: 2010.05.17/outbox.cif.g08.bks.cpg/sg9_9_cif.got.tgz:16309.got - 2010.06.03 20:04:27.
