data_PCOD9140474
_publ_section_title
;
Structure prediction by ZEFSAII (Michael W. Deem and Ramdas Pophale) SiO2 
 PCOD9140474
Probable space group: C C
;
_chemical_formula_sum "Si O2"
_cell_formula_units_Z 28
_cell_length_a 5.014231
_cell_length_b 30.688653
_cell_length_c 8.162816
_cell_angle_alpha 90.000000
_cell_angle_beta 63.950772
_cell_angle_gamma 90.000000
_cell_volume 1128.496370
_symmetry_space_group_name_H-M "C C"
_symmetry_group_IT_number 9
_symmetry_cell_setting 'monoclinic'
loop_
_space_group_symop_operation_xyz
x,y,z
x,-y,1/2+z
1/2+x,1/2+y,z
1/2+x,1/2-y,1/2+z
loop_
_atom_site_type_symbol
_atom_site_label
_atom_site_fract_x
_atom_site_fract_y
_atom_site_fract_z
Si Si1 0.600830 0.138784 0.890690
Si Si2 0.299901 0.822796 0.783220
Si Si3 0.988399 0.544509 0.627172
Si Si4 0.463191 0.048628 0.013393
Si Si5 0.192411 0.725500 0.401694
Si Si6 0.123535 0.082091 0.424223
Si Si7 0.211190 0.817223 0.267127
O O1 0.674041 0.090814 0.937195
O O2 0.389509 0.141862 0.790849
O O3 0.893241 0.167394 0.791118
O O4 0.386088 0.159495 0.083635
O O5 0.588057 0.796006 0.760372
O O6 0.225181 0.867408 0.900503
O O7 0.015238 0.791577 0.862879
O O8 0.870620 0.542066 0.846888
O O9 0.096523 0.495908 0.546218
O O10 0.273291 0.575695 0.534725
O O11 0.763952 0.558079 0.543548
O O12 0.228245 0.062632 0.218925
O O13 0.173057 0.777194 0.403419
O O14 0.935481 0.705262 0.581950
#
# Coordination Sequence:
#
# PCOD9140474 Si02
#       7
#     4   4   4   4   4   4   4
#     4  11  26  46  71 103 143 186 239 303 361 433
#     4  11  24  46  71 102 144 183 238 295 367 426
#     4  12  27  46  77 105 150 193 251 304 379 446
#     4  11  28  49  76 109 151 196 251 309 378 445
#     4  12  25  44  73 103 143 189 237 293 356 436
#     4  11  28  48  72 111 149 195 243 314 370 447
#     4  12  26  45  70 105 142 188 239 292 361 433
#
# _framework density 24.811779000000001
#
# number of rings (size 3 to 8) (size 9 to 14) (size 15 to 20)
#    0.000    0.571    1.429    5.143    8.000    5.714 
#    0.000    0.000    0.000    0.000    0.000    0.000 
#    0.000    0.000    0.000    0.000    0.000    0.000 
#
# Total GULP energy -78337.915091 kJ/mol
# GULP energy per Si atom -5595.565364 kJ/mol
# Density = 2.475531 g / cm^3
# Si number density = 24.811779 Si / 1000 Ang^3
#
#
#
# Elastic Constant Matrix: (Units=GPa)
#
#
# Indices 1 2 3 4 5 6 
#
# 1 28.5926 4.3197 16.9962 0.0000 15.6967 0.0000
# 2 4.3197 103.9842 30.7538 0.0000 13.4943 0.0000
# 3 16.9962 30.7538 152.7092 0.0000 2.4776 0.0000
# 4 0.0000 0.0000 0.0000 53.8523 0.0000 -11.4904
# 5 15.6967 13.4943 2.4776 0.0000 28.5982 0.0000
# 6 0.0000 0.0000 0.0000 -11.4904 0.0000 38.0528
#
#
#
# Elastic Compliance Matrix: (Units=1/GPa)
#
#
# Indices 1 2 3 4 5 6 
#
# 1 0.055660 0.003708 -0.006427 0.000000 -0.031743 0.000000
# 2 0.003708 0.011131 -0.002540 0.000000 -0.007067 0.000000
# 3 -0.006427 -0.002540 0.007709 0.000000 0.004058 0.000000
# 4 0.000000 0.000000 0.000000 0.019848 0.000000 0.005993
# 5 -0.031743 -0.007067 0.004058 0.000000 0.055373 0.000000
# 6 0.000000 0.000000 0.000000 0.005993 0.000000 0.028089
#
#
# Mechanical properties :
#
#
# Convention : Reuss Voigt Hill
#
# Bulk Modulus (GPa) = 15.62900 43.26951 29.44926
# Shear Modulus (GPa) = 23.84864 39.64841 31.74853
#
# Velocity S-wave (km/s) = 3.10366 4.00179 3.58100
# Velocity P-wave (km/s) = 4.37679 6.23133 5.38450
#
# Compressibility (1/GPa) = 0.06398361
#
# Stress axis : x y z
#
# Youngs Moduli (GPa) = 17.96619 89.83850 129.71374
#
# Poissons Ratio (x) = -0.33310 0.83361
# Poissons Ratio (y) = -0.06662 0.32943
# Poissons Ratio (z) = 0.11546 0.22816
#
# Static dielectric constant tensor:
#      x y z
#    x 1.885500 0.000000 0.123970 
#    y 0.000000 1.955860 0.000000 
#    z 0.123970 0.000000 2.099180 
# 
# From -- ./inp_files/4272.got.cif
#   From: 2010.05.17/outbox.cif.g08.bks.cpg/sg9_3_cif.got.tgz:4272.got - 2010.06.03 20:04:27.
