data_PCOD9140145
_publ_section_title
;
Structure prediction by ZEFSAII (Michael W. Deem and Ramdas Pophale) SiO2 
 PCOD9140145
Probable space group: C C
;
_chemical_formula_sum "Si O2"
_cell_formula_units_Z 32
_cell_length_a 14.657169
_cell_length_b 15.317114
_cell_length_c 9.058971
_cell_angle_alpha 90.000000
_cell_angle_beta 140.909670
_cell_angle_gamma 90.000000
_cell_volume 1282.395169
_symmetry_space_group_name_H-M "C C"
_symmetry_group_IT_number 9
_symmetry_cell_setting 'monoclinic'
loop_
_space_group_symop_operation_xyz
x,y,z
x,-y,1/2+z
1/2+x,1/2+y,z
1/2+x,1/2-y,1/2+z
loop_
_atom_site_type_symbol
_atom_site_label
_atom_site_fract_x
_atom_site_fract_y
_atom_site_fract_z
Si Si1 0.359500 0.313260 0.608520
Si Si2 0.463537 0.510858 0.101772
Si Si3 0.386806 0.623600 0.739861
Si Si4 0.614803 0.203250 0.043242
Si Si5 0.932450 0.416389 0.498750
Si Si6 0.192131 0.802503 0.699243
Si Si7 0.787613 0.457594 0.018595
Si Si8 0.256767 0.209011 0.967840
O O1 0.435165 0.405871 0.673626
O O2 0.257383 0.310090 0.624301
O O3 0.253704 0.288918 0.337482
O O4 0.486123 0.241451 0.781673
O O5 0.411604 0.424665 0.116311
O O6 0.634900 0.495149 0.294762
O O7 0.384509 0.545375 0.855379
O O8 0.266785 0.693494 0.547515
O O9 0.520465 0.684658 0.964996
O O10 0.636110 0.279152 0.192451
O O11 0.565737 0.115481 0.066302
O O12 0.817645 0.443516 0.228015
O O13 0.920276 0.494464 0.601855
O O14 0.886717 0.332217 0.538137
O O15 0.245185 0.839765 0.608302
O O16 0.251845 0.865994 0.899122
#
# Coordination Sequence:
#
# PCOD9140145 Si02
#       8
#     4   4   4   4   4   4   4   4
#     4  12  25  50  78 111 153 203 263 319 398 461
#     4  11  24  45  74 108 148 194 249 319 377 468
#     4  11  25  43  71 110 146 195 251 309 391 452
#     4  12  26  46  73 109 151 204 258 315 387 471
#     4  12  24  45  72 107 146 202 252 322 380 462
#     4  11  23  43  76 109 147 192 257 328 379 466
#     4  11  23  45  72 110 144 196 256 313 392 458
#     4  12  24  45  72 108 149 196 258 315 390 470
#
# _framework density 24.953306999999999
#
# number of rings (size 3 to 8) (size 9 to 14) (size 15 to 20)
#    0.000    0.500    3.750    6.000    1.750    0.000 
#    2.250    0.000    0.000    0.000    0.000    0.000 
#    0.000    0.000    0.000    0.000    0.000    0.000 
#
# Total GULP energy -89345.095588 kJ/mol
# GULP energy per Si atom -5584.068474 kJ/mol
# Density = 2.489651 g / cm^3
# Si number density = 24.953307 Si / 1000 Ang^3
#
#
#
# Elastic Constant Matrix: (Units=GPa)
#
#
# Indices 1 2 3 4 5 6 
#
# 1 102.2355 -6.8293 8.3319 0.0000 -16.9798 0.0000
# 2 -6.8293 22.5384 12.1695 0.0000 -3.0625 0.0000
# 3 8.3319 12.1695 89.7999 0.0000 -23.0836 0.0000
# 4 0.0000 0.0000 0.0000 31.3777 0.0000 -8.1111
# 5 -16.9798 -3.0625 -23.0836 0.0000 41.8793 0.0000
# 6 0.0000 0.0000 0.0000 -8.1111 0.0000 38.5577
#
#
#
# Elastic Compliance Matrix: (Units=1/GPa)
#
#
# Indices 1 2 3 4 5 6 
#
# 1 0.010831 0.004112 -0.000415 0.000000 0.004463 0.000000
# 2 0.004112 0.049433 -0.006668 0.000000 0.001607 0.000000
# 3 -0.000415 -0.006668 0.013875 0.000000 0.006992 0.000000
# 4 0.000000 0.000000 0.000000 0.033702 0.000000 0.007090
# 5 0.004463 0.001607 0.006992 0.000000 0.029659 0.000000
# 6 0.000000 0.000000 0.000000 0.007090 0.000000 0.027427
#
#
# Mechanical properties :
#
#
# Convention : Reuss Voigt Hill
#
# Bulk Modulus (GPa) = 14.66280 26.87976 20.77128
# Shear Modulus (GPa) = 25.82626 35.75640 30.79133
#
# Velocity S-wave (km/s) = 3.22061 3.78952 3.51658
# Velocity P-wave (km/s) = 4.44056 5.47199 4.98303
#
# Compressibility (1/GPa) = 0.06819981
#
# Stress axis : x y z
#
# Youngs Moduli (GPa) = 92.32602 20.22929 72.07043
#
# Poissons Ratio (x) = -0.08319 0.02990
# Poissons Ratio (y) = -0.37968 0.48053
# Poissons Ratio (z) = 0.03830 0.13488
#
# Static dielectric constant tensor:
#      x y z
#    x 2.021380 0.000000 -0.006280 
#    y 0.000000 2.019100 0.000000 
#    z -0.006280 0.000000 1.945700 
# 
# From -- ./inp_files/9925.got.cif
#   From: 2010.05.17/outbox.cif.g08.bks.cpg/sg9_5_cif.got.tgz:9925.got - 2010.06.03 20:04:27.
