data_PCOD9140302
_publ_section_title
;
Structure prediction by ZEFSAII (Michael W. Deem and Ramdas Pophale) SiO2 
 PCOD9140302
Probable space group: C C
;
_chemical_formula_sum "Si O2"
_cell_formula_units_Z 32
_cell_length_a 15.433739
_cell_length_b 11.048910
_cell_length_c 8.683815
_cell_angle_alpha 90.000000
_cell_angle_beta 113.184517
_cell_angle_gamma 90.000000
_cell_volume 1361.228070
_symmetry_space_group_name_H-M "C C"
_symmetry_group_IT_number 9
_symmetry_cell_setting 'monoclinic'
loop_
_space_group_symop_operation_xyz
x,y,z
x,-y,1/2+z
1/2+x,1/2+y,z
1/2+x,1/2-y,1/2+z
loop_
_atom_site_type_symbol
_atom_site_label
_atom_site_fract_x
_atom_site_fract_y
_atom_site_fract_z
Si Si1 0.285790 0.530679 0.098390
Si Si2 0.663611 0.349245 0.925260
Si Si3 0.040120 0.633195 0.715179
Si Si4 0.854005 0.728479 0.721984
Si Si5 0.161469 0.588226 0.279281
Si Si6 0.059808 0.001764 0.090364
Si Si7 0.044813 0.250949 0.893573
Si Si8 0.391667 0.331799 0.077304
O O1 0.361495 0.636372 0.156525
O O2 0.197643 0.587785 0.130650
O O3 0.327491 0.397672 0.162849
O O4 0.246563 0.492226 0.906580
O O5 0.622017 0.225841 0.825896
O O6 0.630255 0.448278 0.773260
O O7 0.769705 0.333709 0.064947
O O8 0.607216 0.390112 0.036230
O O9 0.071751 0.495836 0.739334
O O10 0.024485 0.666642 0.526264
O O11 0.950002 0.659223 0.756443
O O12 0.844941 0.762426 0.898419
O O13 0.137716 0.704813 0.365287
O O14 0.049796 0.115385 0.967043
O O15 0.959636 0.942778 0.067989
O O16 0.961050 0.256823 0.713373
#
# Coordination Sequence:
#
# PCOD9140302 Si02
#       8
#     4   4   4   4   4   4   4   4
#     4  12  25  44  72 110 139 190 256 308 365 457
#     4  11  24  45  75 104 147 199 247 317 381 458
#     4  11  25  48  72 105 150 196 253 318 385 457
#     4  12  26  43  74 110 148 195 257 312 383 458
#     4  12  26  47  72 102 150 194 244 311 386 447
#     4  11  23  48  74 108 149 197 255 314 387 458
#     4  11  26  45  73 103 141 205 247 307 393 458
#     4  12  25  44  76 110 148 192 263 321 376 457
#
# _framework density 23.508182999999999
#
# number of rings (size 3 to 8) (size 9 to 14) (size 15 to 20)
#    0.000    0.500    6.250    2.250    5.250    0.000 
#    4.500    0.000    0.000    0.000    0.000    0.000 
#    0.000    0.000    0.000    0.000    0.000    0.000 
#
# Total GULP energy -89223.616915 kJ/mol
# GULP energy per Si atom -5576.476057 kJ/mol
# Density = 2.345468 g / cm^3
# Si number density = 23.508183 Si / 1000 Ang^3
#
#
#
# Elastic Constant Matrix: (Units=GPa)
#
#
# Indices 1 2 3 4 5 6 
#
# 1 62.9407 11.0702 7.0136 0.0000 -8.3564 0.0000
# 2 11.0702 54.5062 18.0736 0.0000 -5.1094 0.0000
# 3 7.0136 18.0736 131.2766 0.0000 7.0254 0.0000
# 4 0.0000 0.0000 0.0000 36.3660 0.0000 5.4991
# 5 -8.3564 -5.1094 7.0254 0.0000 37.4581 0.0000
# 6 0.0000 0.0000 0.0000 5.4991 0.0000 35.0845
#
#
#
# Elastic Compliance Matrix: (Units=1/GPa)
#
#
# Indices 1 2 3 4 5 6 
#
# 1 0.016939 -0.002880 -0.000697 0.000000 0.003517 0.000000
# 2 -0.002880 0.020089 -0.002752 0.000000 0.002614 0.000000
# 3 -0.000697 -0.002752 0.008144 0.000000 -0.002058 0.000000
# 4 0.000000 0.000000 0.000000 0.028166 0.000000 -0.004415
# 5 0.003517 0.002614 -0.002058 0.000000 0.028224 0.000000
# 6 0.000000 0.000000 0.000000 -0.004415 0.000000 0.029195
#
#
# Mechanical properties :
#
#
# Convention : Reuss Voigt Hill
#
# Bulk Modulus (GPa) = 30.75474 35.67092 33.21283
# Shear Modulus (GPa) = 32.41484 35.95278 34.18381
#
# Velocity S-wave (km/s) = 3.71735 3.91496 3.81743
# Velocity P-wave (km/s) = 5.61568 5.97015 5.79563
#
# Compressibility (1/GPa) = 0.03251531
#
# Stress axis : x y z
#
# Youngs Moduli (GPa) = 59.03534 49.77879 122.79387
#
# Poissons Ratio (x) = 0.14334 0.08556
# Poissons Ratio (y) = 0.17000 0.33790
# Poissons Ratio (z) = 0.04113 0.13698
#
# Static dielectric constant tensor:
#      x y z
#    x 1.963370 0.000000 0.067030 
#    y 0.000000 1.915910 0.000000 
#    z 0.067030 0.000000 1.940520 
# 
# From -- ./inp_files/9174.got.cif
#   From: 2010.05.17/outbox.cif.g08.bks.cpg/sg9_5_cif.got.tgz:9174.got - 2010.06.03 20:04:27.
