data_PCOD9140461
_publ_section_title
;
Structure prediction by ZEFSAII (Michael W. Deem and Ramdas Pophale) SiO2 
 PCOD9140461
Probable space group: C C
;
_chemical_formula_sum "Si O2"
_cell_formula_units_Z 28
_cell_length_a 15.618847
_cell_length_b 10.375640
_cell_length_c 8.664344
_cell_angle_alpha 90.000000
_cell_angle_beta 121.877807
_cell_angle_gamma 90.000000
_cell_volume 1192.332610
_symmetry_space_group_name_H-M "C C"
_symmetry_group_IT_number 9
_symmetry_cell_setting 'monoclinic'
loop_
_space_group_symop_operation_xyz
x,y,z
x,-y,1/2+z
1/2+x,1/2+y,z
1/2+x,1/2-y,1/2+z
loop_
_atom_site_type_symbol
_atom_site_label
_atom_site_fract_x
_atom_site_fract_y
_atom_site_fract_z
Si Si1 0.328790 0.346118 0.713600
Si Si2 0.675980 0.529652 0.924176
Si Si3 0.735056 0.051326 0.438862
Si Si4 0.550209 0.355909 0.031495
Si Si5 0.337266 0.234086 0.200925
Si Si6 0.864512 0.377948 0.036189
Si Si7 0.013692 0.388958 0.669223
O O1 0.269743 0.407274 0.511207
O O2 0.264860 0.381186 0.805315
O O3 0.348933 0.196956 0.682734
O O4 0.440182 0.395747 0.865563
O O5 0.589777 0.589908 0.733620
O O6 0.763561 0.459698 0.911462
O O7 0.627429 0.420264 0.985652
O O8 0.741354 0.641210 0.071043
O O9 0.799885 0.125786 0.627201
O O10 0.617772 0.077759 0.352287
O O11 0.543715 0.201243 0.052148
O O12 0.374304 0.222459 0.408888
O O13 0.430651 0.193876 0.182291
O O14 0.956708 0.475414 0.099867
#
# Coordination Sequence:
#
# PCOD9140461 Si02
#       7
#     4   4   4   4   4   4   4
#     4  12  28  48  75 112 156 201 254 323 379 460
#     4  11  24  45  79 109 148 197 255 312 381 453
#     4  12  26  50  76 111 159 200 256 321 388 452
#     4  12  24  47  75 114 147 204 251 319 383 457
#     4  11  24  48  74 109 153 197 257 316 379 462
#     4  11  27  48  74 111 151 200 256 312 384 462
#     4  11  27  44  79 108 152 203 251 317 384 456
#
# _framework density 23.483378999999999
#
# number of rings (size 3 to 8) (size 9 to 14) (size 15 to 20)
#    0.000    0.571    4.286    2.571    6.000    1.143 
#    2.571    0.000    0.000    0.000    0.000    0.000 
#    0.000    0.000    0.000    0.000    0.000    0.000 
#
# Total GULP energy -78182.488960 kJ/mol
# GULP energy per Si atom -5584.463497 kJ/mol
# Density = 2.342993 g / cm^3
# Si number density = 23.483379 Si / 1000 Ang^3
#
#
#
# Elastic Constant Matrix: (Units=GPa)
#
#
# Indices 1 2 3 4 5 6 
#
# 1 88.1243 33.1159 41.8426 0.0000 34.8064 0.0000
# 2 33.1159 90.9855 25.7607 0.0000 10.0967 0.0000
# 3 41.8426 25.7607 80.2067 0.0000 27.6485 0.0000
# 4 0.0000 0.0000 0.0000 40.5041 0.0000 5.2931
# 5 34.8064 10.0967 27.6485 0.0000 42.0974 0.0000
# 6 0.0000 0.0000 0.0000 5.2931 0.0000 28.5617
#
#
#
# Elastic Compliance Matrix: (Units=1/GPa)
#
#
# Indices 1 2 3 4 5 6 
#
# 1 0.020321 -0.004650 -0.004783 0.000000 -0.012545 0.000000
# 2 -0.004650 0.013161 -0.002635 0.000000 0.002419 0.000000
# 3 -0.004783 -0.002635 0.018392 0.000000 -0.007493 0.000000
# 4 0.000000 0.000000 0.000000 0.025302 0.000000 -0.004689
# 5 -0.012545 0.002419 -0.007493 0.000000 0.038467 0.000000
# 6 0.000000 0.000000 0.000000 -0.004689 0.000000 0.035881
#
#
# Mechanical properties :
#
#
# Convention : Reuss Voigt Hill
#
# Bulk Modulus (GPa) = 36.05183 51.19499 43.62341
# Shear Modulus (GPa) = 27.04076 32.80579 29.92327
#
# Velocity S-wave (km/s) = 3.39704 3.74167 3.57351
# Velocity P-wave (km/s) = 5.54724 6.36511 5.97020
#
# Compressibility (1/GPa) = 0.02773784
#
# Stress axis : x y z
#
# Youngs Moduli (GPa) = 49.21053 75.98326 54.37041
#
# Poissons Ratio (x) = 0.35331 0.26007
# Poissons Ratio (y) = 0.22882 0.14326
# Poissons Ratio (z) = 0.23539 0.20021
#
# Static dielectric constant tensor:
#      x y z
#    x 1.868200 0.000000 -0.035900 
#    y 0.000000 2.006810 0.000000 
#    z -0.035900 0.000000 1.893740 
# 
# From -- ./inp_files/9195.got.cif
#   From: 2010.05.17/outbox.cif.g08.bks.cpg/sg9_5_cif.got.tgz:9195.got - 2010.06.03 20:04:27.
