data_PCOD9140767
_publ_section_title
;
Structure prediction by ZEFSAII (Michael W. Deem and Ramdas Pophale) SiO2 
 PCOD9140767
Probable space group: C C
;
_chemical_formula_sum "Si O2"
_cell_formula_units_Z 20
_cell_length_a 9.760376
_cell_length_b 7.669033
_cell_length_c 10.917055
_cell_angle_alpha 90.000000
_cell_angle_beta 91.716546
_cell_angle_gamma 90.000000
_cell_volume 816.803745
_symmetry_space_group_name_H-M "C C"
_symmetry_group_IT_number 9
_symmetry_cell_setting 'monoclinic'
loop_
_space_group_symop_operation_xyz
x,y,z
x,-y,1/2+z
1/2+x,1/2+y,z
1/2+x,1/2-y,1/2+z
loop_
_atom_site_type_symbol
_atom_site_label
_atom_site_fract_x
_atom_site_fract_y
_atom_site_fract_z
Si Si1 0.575580 0.750510 0.309650
Si Si2 0.405400 0.099361 0.578967
Si Si3 0.405977 0.310406 0.043625
Si Si4 0.636014 0.123063 0.408502
Si Si5 0.143226 0.911086 0.201991
O O1 0.479140 0.817350 0.197448
O O2 0.480929 0.671087 0.414479
O O3 0.673337 0.597886 0.263178
O O4 0.645398 0.925896 0.361148
O O5 0.485378 0.158358 0.460460
O O6 0.244476 0.130021 0.592016
O O7 0.423952 0.891049 0.580394
O O8 0.489431 0.417941 0.145873
O O9 0.247945 0.353609 0.018392
O O10 0.161190 0.762133 0.303047
#
# Coordination Sequence:
#
# PCOD9140767 Si02
#       5
#     4   4   4   4   4
#     4  11  26  46  77 110 151 199 250 315 366 447
#     4  11  25  50  76 108 156 192 250 321 365 446
#     4  11  26  49  77 111 151 202 250 307 377 445
#     4  11  26  53  73 115 152 196 257 312 369 450
#     4  12  27  50  77 112 150 205 249 307 385 440
#
# _framework density 24.485686999999999
#
# number of rings (size 3 to 8) (size 9 to 14) (size 15 to 20)
#    0.000    0.800    4.000    1.200    5.600    6.400 
#    3.600    0.000    0.000    0.000    0.000    0.000 
#    0.000    0.000    0.000    0.000    0.000    0.000 
#
# Total GULP energy -56051.761924 kJ/mol
# GULP energy per Si atom -5605.176192 kJ/mol
# Density = 2.442996 g / cm^3
# Si number density = 24.485687 Si / 1000 Ang^3
#
#
#
# Elastic Constant Matrix: (Units=GPa)
#
#
# Indices 1 2 3 4 5 6 
#
# 1 106.3602 34.7369 37.1031 0.0000 -6.9204 0.0000
# 2 34.7369 103.8316 40.4572 0.0000 -0.3820 0.0000
# 3 37.1031 40.4572 74.9675 0.0000 -14.5953 0.0000
# 4 0.0000 0.0000 0.0000 29.9379 0.0000 -1.4400
# 5 -6.9204 -0.3820 -14.5953 0.0000 45.6379 0.0000
# 6 0.0000 0.0000 0.0000 -1.4400 0.0000 17.1858
#
#
#
# Elastic Compliance Matrix: (Units=1/GPa)
#
#
# Indices 1 2 3 4 5 6 
#
# 1 0.011719 -0.002129 -0.004594 0.000000 0.000290 0.000000
# 2 -0.002129 0.012781 -0.006276 0.000000 -0.002223 0.000000
# 3 -0.004594 -0.006276 0.020106 0.000000 0.005681 0.000000
# 4 0.000000 0.000000 0.000000 0.033538 0.000000 0.002810
# 5 0.000290 -0.002223 0.005681 0.000000 0.023754 0.000000
# 6 0.000000 0.000000 0.000000 0.002810 0.000000 0.058423
#
#
# Mechanical properties :
#
#
# Convention : Reuss Voigt Hill
#
# Bulk Modulus (GPa) = 53.74686 56.63931 55.19309
# Shear Modulus (GPa) = 25.97106 30.07646 28.02376
#
# Velocity S-wave (km/s) = 3.26031 3.50855 3.38671
# Velocity P-wave (km/s) = 6.01422 6.29246 6.15491
#
# Compressibility (1/GPa) = 0.01860574
#
# Stress axis : x y z
#
# Youngs Moduli (GPa) = 85.33103 78.24338 49.73639
#
# Poissons Ratio (x) = 0.16661 0.22851
# Poissons Ratio (y) = 0.18170 0.31215
# Poissons Ratio (z) = 0.39205 0.49107
#
# Static dielectric constant tensor:
#      x y z
#    x 1.937990 0.000000 -0.029920 
#    y 0.000000 1.881100 0.000000 
#    z -0.029920 0.000000 1.896670 
# 
# From -- ./inp_files/13999.got.cif
#   From: 2010.05.17/outbox.cif.g08.bks.cpg/sg9_7_cif.got.tgz:13999.got - 2010.06.03 20:04:27.
