data_PCOD9140549
_publ_section_title
;
Structure prediction by ZEFSAII (Michael W. Deem and Ramdas Pophale) SiO2 
 PCOD9140549
Probable space group: C C
;
_chemical_formula_sum "Si O2"
_cell_formula_units_Z 32
_cell_length_a 4.639146
_cell_length_b 18.856656
_cell_length_c 12.740471
_cell_angle_alpha 90.000000
_cell_angle_beta 86.843815
_cell_angle_gamma 90.000000
_cell_volume 1112.830313
_symmetry_space_group_name_H-M "C C"
_symmetry_group_IT_number 9
_symmetry_cell_setting 'monoclinic'
loop_
_space_group_symop_operation_xyz
x,y,z
x,-y,1/2+z
1/2+x,1/2+y,z
1/2+x,1/2-y,1/2+z
loop_
_atom_site_type_symbol
_atom_site_label
_atom_site_fract_x
_atom_site_fract_y
_atom_site_fract_z
Si Si1 0.897930 0.563385 0.384590
Si Si2 0.226940 0.119556 0.086378
Si Si3 0.844126 0.155572 0.407775
Si Si4 0.263033 0.806206 0.375708
Si Si5 0.857338 0.678440 0.596755
Si Si6 0.724984 0.982442 0.568995
Si Si7 0.352370 0.248057 0.203727
Si Si8 0.379966 0.061832 0.741020
O O1 0.620914 0.608374 0.430139
O O2 0.546679 0.452699 0.572957
O O3 0.146593 0.613548 0.328357
O O4 0.770204 0.507333 0.304390
O O5 0.225443 0.168877 0.189690
O O6 0.550005 0.090940 0.075055
O O7 0.150236 0.172083 0.992690
O O8 0.948276 0.234361 0.380941
O O9 0.586071 0.166526 0.498707
O O10 0.593519 0.022017 0.468621
O O11 0.012438 0.777850 0.303058
O O12 0.398081 0.879978 0.332905
O O13 0.082007 0.704036 0.680542
O O14 0.728039 0.606368 0.650819
O O15 0.597807 0.734974 0.608085
O O16 0.650549 0.030695 0.671190
#
# Coordination Sequence:
#
# PCOD9140549 Si02
#       8
#     4   4   4   4   4   4   4   4
#     4  12  28  51  79 118 165 220 283 356 429 518
#     4  12  27  50  81 123 172 219 288 356 441 516
#     4  12  27  50  79 120 164 214 280 364 431 505
#     4  11  28  50  88 121 166 226 286 357 439 523
#     4  11  24  47  82 111 161 217 281 347 433 503
#     4  12  28  50  80 118 166 229 278 361 428 522
#     4  11  26  47  77 122 165 217 277 359 427 518
#     4  11  28  51  80 115 163 224 287 338 434 519
#
# _framework density 28.755510999999998
#
# number of rings (size 3 to 8) (size 9 to 14) (size 15 to 20)
#    0.000    0.500    3.750    2.250    5.250    4.000 
#    0.000    0.000    0.000    0.000    0.000    0.000 
#    0.000    0.000    0.000    0.000    0.000    0.000 
#
# Total GULP energy -89437.218610 kJ/mol
# GULP energy per Si atom -5589.826163 kJ/mol
# Density = 2.869006 g / cm^3
# Si number density = 28.755511 Si / 1000 Ang^3
#
#
#
# Elastic Constant Matrix: (Units=GPa)
#
#
# Indices 1 2 3 4 5 6 
#
# 1 146.4419 50.7939 42.2393 0.0000 4.0047 0.0000
# 2 50.7939 195.1839 48.6460 0.0000 -0.3525 0.0000
# 3 42.2393 48.6460 124.8619 0.0000 20.8095 0.0000
# 4 0.0000 0.0000 0.0000 54.7826 0.0000 -9.4495
# 5 4.0047 -0.3525 20.8095 0.0000 39.5337 0.0000
# 6 0.0000 0.0000 0.0000 -9.4495 0.0000 65.1650
#
#
#
# Elastic Compliance Matrix: (Units=1/GPa)
#
#
# Indices 1 2 3 4 5 6 
#
# 1 0.007974 -0.001539 -0.002150 0.000000 0.000310 0.000000
# 2 -0.001539 0.006036 -0.002045 0.000000 0.001286 0.000000
# 3 -0.002150 -0.002045 0.010413 0.000000 -0.005282 0.000000
# 4 0.000000 0.000000 0.000000 0.018722 0.000000 0.002715
# 5 0.000310 0.001286 -0.005282 0.000000 0.028055 0.000000
# 6 0.000000 0.000000 0.000000 0.002715 0.000000 0.015739
#
#
# Mechanical properties :
#
#
# Convention : Reuss Voigt Hill
#
# Bulk Modulus (GPa) = 77.18821 83.31623 80.25222
# Shear Modulus (GPa) = 48.67317 53.55014 51.11165
#
# Velocity S-wave (km/s) = 4.11865 4.32007 4.22056
# Velocity P-wave (km/s) = 7.03697 7.34308 7.19166
#
# Compressibility (1/GPa) = 0.01295535
#
# Stress axis : x y z
#
# Youngs Moduli (GPa) = 125.40847 165.67458 96.03199
#
# Poissons Ratio (x) = 0.25494 0.20644
# Poissons Ratio (y) = 0.19298 0.19643
# Poissons Ratio (z) = 0.26958 0.33887
#
# Static dielectric constant tensor:
#      x y z
#    x 2.161070 0.000000 -0.045230 
#    y 0.000000 2.296580 0.000000 
#    z -0.045230 0.000000 2.401130 
# 
# From -- ./inp_files/21956.got.cif
#   From: 2010.05.17/outbox.cif.g08.bks.cpg/sg9_11_cif.got.tgz:21956.got - 2010.06.03 20:04:27.
