data_PCOD9140723
_publ_section_title
;
Structure prediction by ZEFSAII (Michael W. Deem and Ramdas Pophale) SiO2 
 PCOD9140723
Probable space group: C C
;
_chemical_formula_sum "Si O2"
_cell_formula_units_Z 32
_cell_length_a 17.198168
_cell_length_b 4.954201
_cell_length_c 14.729625
_cell_angle_alpha 90.000000
_cell_angle_beta 102.865422
_cell_angle_gamma 90.000000
_cell_volume 1223.504797
_symmetry_space_group_name_H-M "C C"
_symmetry_group_IT_number 9
_symmetry_cell_setting 'monoclinic'
loop_
_space_group_symop_operation_xyz
x,y,z
x,-y,1/2+z
1/2+x,1/2+y,z
1/2+x,1/2-y,1/2+z
loop_
_atom_site_type_symbol
_atom_site_label
_atom_site_fract_x
_atom_site_fract_y
_atom_site_fract_z
Si Si1 0.945900 0.331519 0.660370
Si Si2 0.769870 0.365157 0.431692
Si Si3 0.303887 0.452659 0.202133
Si Si4 0.500578 0.687166 0.276869
Si Si5 0.512799 0.727675 0.482211
Si Si6 0.665521 0.596399 0.251449
Si Si7 0.684721 0.647428 0.573269
Si Si8 0.374139 0.621663 0.912590
O O1 0.857046 0.217522 0.646666
O O2 0.979565 0.337201 0.567979
O O3 0.946264 0.633701 0.697606
O O4 0.994852 0.124771 0.739352
O O5 0.706667 0.390653 0.332384
O O6 0.722397 0.447777 0.509404
O O7 0.812312 0.078638 0.446259
O O8 0.838703 0.584651 0.424216
O O9 0.234641 0.290383 0.234352
O O10 0.257094 0.684588 0.136435
O O11 0.363010 0.480321 0.304765
O O12 0.487963 0.807613 0.374104
O O13 0.593042 0.748395 0.278386
O O14 0.607860 0.776805 0.505512
O O15 0.465545 0.433004 0.466545
O O16 0.639666 0.472790 0.149198
#
# Coordination Sequence:
#
# PCOD9140723 Si02
#       8
#     4   4   4   4   4   4   4   4
#     4  12  29  50  80 109 159 204 259 318 390 465
#     4  11  26  47  74 109 146 201 247 315 367 463
#     4  11  26  48  77 111 152 205 254 323 384 458
#     4  12  28  52  75 115 159 203 255 325 387 466
#     4  12  27  50  78 116 151 208 255 318 396 465
#     4  11  25  48  73 108 154 194 255 310 390 446
#     4  12  25  48  77 111 152 202 255 317 387 463
#     4  11  26  49  74 107 155 193 256 308 383 452
#
# _framework density 26.154371000000001
#
# number of rings (size 3 to 8) (size 9 to 14) (size 15 to 20)
#    0.000    0.500    5.000    1.500    8.750    2.000 
#    4.500    0.000    0.000    0.000    0.000    0.000 
#    0.000    0.000    0.000    0.000    0.000    0.000 
#
# Total GULP energy -89417.184714 kJ/mol
# GULP energy per Si atom -5588.574045 kJ/mol
# Density = 2.609484 g / cm^3
# Si number density = 26.154371 Si / 1000 Ang^3
#
#
#
# Elastic Constant Matrix: (Units=GPa)
#
#
# Indices 1 2 3 4 5 6 
#
# 1 111.0303 1.7680 25.4880 0.0000 -25.1854 0.0000
# 2 1.7680 58.6570 16.9315 0.0000 -8.2571 0.0000
# 3 25.4880 16.9315 129.6136 0.0000 -9.5887 0.0000
# 4 0.0000 0.0000 0.0000 29.4767 0.0000 7.2560
# 5 -25.1854 -8.2571 -9.5887 0.0000 47.7481 0.0000
# 6 0.0000 0.0000 0.0000 7.2560 0.0000 19.2854
#
#
#
# Elastic Compliance Matrix: (Units=1/GPa)
#
#
# Indices 1 2 3 4 5 6 
#
# 1 0.010636 0.000966 -0.001817 0.000000 0.005412 0.000000
# 2 0.000966 0.018138 -0.002324 0.000000 0.003179 0.000000
# 3 -0.001817 -0.002324 0.008400 0.000000 0.000326 0.000000
# 4 0.000000 0.000000 0.000000 0.037388 0.000000 -0.014067
# 5 0.005412 0.003179 0.000326 0.000000 0.024413 0.000000
# 6 0.000000 0.000000 0.000000 -0.014067 0.000000 0.057145
#
#
# Mechanical properties :
#
#
# Convention : Reuss Voigt Hill
#
# Bulk Modulus (GPa) = 32.44338 43.07509 37.75923
# Shear Modulus (GPa) = 28.94428 36.30961 32.62694
#
# Velocity S-wave (km/s) = 3.33028 3.73001 3.53579
# Velocity P-wave (km/s) = 5.21720 5.92080 5.58010
#
# Compressibility (1/GPa) = 0.03082293
#
# Stress axis : x y z
#
# Youngs Moduli (GPa) = 94.02014 55.13423 119.04269
#
# Poissons Ratio (x) = -0.05325 0.21634
# Poissons Ratio (y) = -0.09081 0.27666
# Poissons Ratio (z) = 0.17086 0.12813
#
# Static dielectric constant tensor:
#      x y z
#    x 2.193020 0.000000 0.100270 
#    y 0.000000 2.088220 0.000000 
#    z 0.100270 0.000000 2.111210 
# 
# From -- ./inp_files/26493.got.cif
#   From: 2010.05.17/outbox.cif.g08.bks.cpg/sg9_14_cif.got.tgz:26493.got - 2010.06.03 20:04:27.
