data_PCOD9140833
_publ_section_title
;
Structure prediction by ZEFSAII (Michael W. Deem and Ramdas Pophale) SiO2 
 PCOD9140833
Probable space group: C C
;
_chemical_formula_sum "Si O2"
_cell_formula_units_Z 24
_cell_length_a 24.893388
_cell_length_b 5.380457
_cell_length_c 13.423991
_cell_angle_alpha 90.000000
_cell_angle_beta 148.686492
_cell_angle_gamma 90.000000
_cell_volume 934.447077
_symmetry_space_group_name_H-M "C C"
_symmetry_group_IT_number 9
_symmetry_cell_setting 'monoclinic'
loop_
_space_group_symop_operation_xyz
x,y,z
x,-y,1/2+z
1/2+x,1/2+y,z
1/2+x,1/2-y,1/2+z
loop_
_atom_site_type_symbol
_atom_site_label
_atom_site_fract_x
_atom_site_fract_y
_atom_site_fract_z
Si Si1 0.853030 0.640995 0.873730
Si Si2 0.240735 0.656610 0.937959
Si Si3 0.452075 0.164810 0.688620
Si Si4 0.150894 0.038686 0.472003
Si Si5 0.380462 0.628310 0.794846
Si Si6 0.573490 0.170677 0.503626
O O1 0.727940 0.657978 0.678575
O O2 0.870677 0.386936 0.838134
O O3 0.888382 0.893591 0.879898
O O4 0.917475 0.580987 0.073726
O O5 0.150377 0.624629 0.716055
O O6 0.210790 0.882496 0.965392
O O7 0.343825 0.710149 0.039047
O O8 0.278610 0.429340 0.067207
O O9 0.508129 0.072604 0.876299
O O10 0.540567 0.329787 0.779611
O O11 0.127644 0.774526 0.488611
O O12 0.484630 0.637527 0.895738
#
# Coordination Sequence:
#
# PCOD9140833 Si02
#       6
#     4   4   4   4   4   4
#     4  11  27  51  81 112 159 205 269 327 396 467
#     4  11  26  50  72 115 157 203 265 327 386 469
#     4  12  27  50  75 116 155 212 260 333 387 474
#     4  11  26  48  75 112 151 205 260 317 399 457
#     4  11  26  52  79 115 155 211 262 331 394 468
#     4  12  26  47  78 112 155 208 266 317 400 467
#
# _framework density 25.683638999999999
#
# number of rings (size 3 to 8) (size 9 to 14) (size 15 to 20)
#    0.000    0.667    3.333    3.000    9.333    1.333 
#    6.000    0.000    0.000    0.000    0.000    0.000 
#    0.000    0.000    0.000    0.000    0.000    0.000 
#
# Total GULP energy -67134.430383 kJ/mol
# GULP energy per Si atom -5594.535865 kJ/mol
# Density = 2.562518 g / cm^3
# Si number density = 25.683639 Si / 1000 Ang^3
#
#
#
# Elastic Constant Matrix: (Units=GPa)
#
#
# Indices 1 2 3 4 5 6 
#
# 1 82.4154 25.7552 30.2520 0.0000 19.0826 0.0000
# 2 25.7552 107.8862 37.2305 0.0000 -1.9179 0.0000
# 3 30.2520 37.2305 200.6084 0.0000 -12.3617 0.0000
# 4 0.0000 0.0000 0.0000 35.8819 0.0000 -12.2418
# 5 19.0826 -1.9179 -12.3617 0.0000 35.1281 0.0000
# 6 0.0000 0.0000 0.0000 -12.2418 0.0000 31.7635
#
#
#
# Elastic Compliance Matrix: (Units=1/GPa)
#
#
# Indices 1 2 3 4 5 6 
#
# 1 0.016351 -0.003224 -0.002479 0.000000 -0.009931 0.000000
# 2 -0.003224 0.010540 -0.001356 0.000000 0.001850 0.000000
# 3 -0.002479 -0.001356 0.005815 0.000000 0.003319 0.000000
# 4 0.000000 0.000000 0.000000 0.032088 0.000000 0.012367
# 5 -0.009931 0.001850 0.003319 0.000000 0.035131 0.000000
# 6 0.000000 0.000000 0.000000 0.012367 0.000000 0.036249
#
#
# Mechanical properties :
#
#
# Convention : Reuss Voigt Hill
#
# Bulk Modulus (GPa) = 53.80287 64.15391 58.97839
# Shear Modulus (GPa) = 31.95145 40.39953 36.17549
#
# Velocity S-wave (km/s) = 3.53092 3.97037 3.75707
# Velocity P-wave (km/s) = 6.13327 6.78610 6.46793
#
# Compressibility (1/GPa) = 0.01858637
#
# Stress axis : x y z
#
# Youngs Moduli (GPa) = 61.15955 94.88114 171.97350
#
# Poissons Ratio (x) = 0.30593 0.42637
# Poissons Ratio (y) = 0.19720 0.23316
# Poissons Ratio (z) = 0.15163 0.12864
#
# Static dielectric constant tensor:
#      x y z
#    x 2.098570 0.000000 -0.005980 
#    y 0.000000 2.070850 0.000000 
#    z -0.005980 0.000000 1.989060 
# 
# From -- ./inp_files/28212.got.cif
#   From: 2010.05.17/outbox.cif.g08.bks.cpg/sg9_15_cif.got.tgz:28212.got - 2010.06.03 20:04:27.
