data_PCOD9140450
_publ_section_title
;
Structure prediction by ZEFSAII (Michael W. Deem and Ramdas Pophale) SiO2 
 PCOD9140450
Probable space group: C C
;
_chemical_formula_sum "Si O2"
_cell_formula_units_Z 32
_cell_length_a 10.187798
_cell_length_b 15.461781
_cell_length_c 10.690597
_cell_angle_alpha 90.000000
_cell_angle_beta 121.111834
_cell_angle_gamma 90.000000
_cell_volume 1441.773132
_symmetry_space_group_name_H-M "C C"
_symmetry_group_IT_number 9
_symmetry_cell_setting 'monoclinic'
loop_
_space_group_symop_operation_xyz
x,y,z
x,-y,1/2+z
1/2+x,1/2+y,z
1/2+x,1/2-y,1/2+z
loop_
_atom_site_type_symbol
_atom_site_label
_atom_site_fract_x
_atom_site_fract_y
_atom_site_fract_z
Si Si1 0.072570 0.698249 0.811150
Si Si2 0.793829 0.350421 0.989375
Si Si3 0.305895 0.006550 0.303541
Si Si4 0.274768 0.429825 0.274497
Si Si5 0.878645 0.329664 0.463640
Si Si6 0.046990 0.962608 0.022734
Si Si7 0.551109 0.058883 0.237982
Si Si8 0.294573 0.652215 0.524345
O O1 0.190867 0.619120 0.847325
O O2 0.933364 0.690329 0.640420
O O3 0.989328 0.697441 0.904462
O O4 0.185555 0.780358 0.867989
O O5 0.674695 0.408799 0.010528
O O6 0.858395 0.416701 0.918850
O O7 0.424102 0.002772 0.246629
O O8 0.296336 0.915819 0.371693
O O9 0.139259 0.023204 0.163922
O O10 0.432136 0.478120 0.385886
O O11 0.151818 0.505818 0.187542
O O12 0.290142 0.362066 0.170137
O O13 0.781633 0.248684 0.463985
O O14 0.973587 0.362315 0.628893
O O15 0.949434 0.891389 0.048980
O O16 0.664084 0.094494 0.397827
#
# Coordination Sequence:
#
# PCOD9140450 Si02
#       8
#     4   4   4   4   4   4   4   4
#     4  12  27  48  76 104 152 194 252 306 377 438
#     4  12  27  48  74 112 148 200 248 309 371 454
#     4  12  25  49  73 106 148 194 249 294 382 445
#     4  11  25  49  73 108 146 191 251 305 372 444
#     4  12  25  44  74 100 147 189 242 304 365 442
#     4  11  24  45  75 109 146 193 242 310 370 445
#     4  11  25  45  75 101 143 199 239 305 368 444
#     4  11  26  44  72 112 142 186 251 307 369 440
#
# _framework density 22.194893
#
# number of rings (size 3 to 8) (size 9 to 14) (size 15 to 20)
#    0.000    0.500    3.750    3.750    8.750    0.000 
#    0.000    0.000    0.000    0.000    0.000    0.000 
#    0.000    0.000    0.000    0.000    0.000    0.000 
#
# Total GULP energy -89435.655208 kJ/mol
# GULP energy per Si atom -5589.728450 kJ/mol
# Density = 2.214438 g / cm^3
# Si number density = 22.194893 Si / 1000 Ang^3
#
#
#
# Elastic Constant Matrix: (Units=GPa)
#
#
# Indices 1 2 3 4 5 6 
#
# 1 84.4532 34.1829 43.0839 0.0000 9.7129 0.0000
# 2 34.1829 112.2878 40.5135 0.0000 8.5872 0.0000
# 3 43.0839 40.5135 104.7161 0.0000 18.0413 0.0000
# 4 0.0000 0.0000 0.0000 41.4421 0.0000 8.3371
# 5 9.7129 8.5872 18.0413 0.0000 35.7357 0.0000
# 6 0.0000 0.0000 0.0000 8.3371 0.0000 33.8390
#
#
#
# Elastic Compliance Matrix: (Units=1/GPa)
#
#
# Indices 1 2 3 4 5 6 
#
# 1 0.015766 -0.002842 -0.005220 0.000000 -0.000967 0.000000
# 2 -0.002842 0.010871 -0.002979 0.000000 -0.000336 0.000000
# 3 -0.005220 -0.002979 0.013671 0.000000 -0.004767 0.000000
# 4 0.000000 0.000000 0.000000 0.025388 0.000000 -0.006255
# 5 -0.000967 -0.000336 -0.004767 0.000000 0.030733 0.000000
# 6 0.000000 0.000000 0.000000 -0.006255 0.000000 0.031093
#
#
# Mechanical properties :
#
#
# Convention : Reuss Voigt Hill
#
# Bulk Modulus (GPa) = 54.86738 59.66861 57.26800
# Shear Modulus (GPa) = 32.11706 34.44849 33.28277
#
# Velocity S-wave (km/s) = 3.80813 3.94393 3.87663
# Velocity P-wave (km/s) = 6.64155 6.90520 6.77466
#
# Compressibility (1/GPa) = 0.01822576
#
# Stress axis : x y z
#
# Youngs Moduli (GPa) = 63.42948 91.98542 73.14571
#
# Poissons Ratio (x) = 0.26141 0.38186
# Poissons Ratio (y) = 0.18026 0.21789
# Poissons Ratio (z) = 0.33113 0.27401
#
# Static dielectric constant tensor:
#      x y z
#    x 1.849080 0.000000 -0.013110 
#    y 0.000000 1.825780 0.000000 
#    z -0.013110 0.000000 1.827110 
# 
# From -- ./inp_files/14813.got.cif
#   From: 2010.05.17/outbox.cif.g08.bks.cpg/sg9_8_cif.got.tgz:14813.got - 2010.06.03 20:04:27.
