data_PCOD9140017
_publ_section_title
;
Structure prediction by ZEFSAII (Michael W. Deem and Ramdas Pophale) SiO2 
 PCOD9140017
Probable space group: C C
;
_chemical_formula_sum "Si O2"
_cell_formula_units_Z 32
_cell_length_a 14.511344
_cell_length_b 6.647257
_cell_length_c 19.242197
_cell_angle_alpha 90.000000
_cell_angle_beta 133.594091
_cell_angle_gamma 90.000000
_cell_volume 1344.277897
_symmetry_space_group_name_H-M "C C"
_symmetry_group_IT_number 9
_symmetry_cell_setting 'monoclinic'
loop_
_space_group_symop_operation_xyz
x,y,z
x,-y,1/2+z
1/2+x,1/2+y,z
1/2+x,1/2-y,1/2+z
loop_
_atom_site_type_symbol
_atom_site_label
_atom_site_fract_x
_atom_site_fract_y
_atom_site_fract_z
Si Si1 0.642990 0.162046 0.790520
Si Si2 0.064126 0.630333 0.364744
Si Si3 0.944514 0.013098 0.287806
Si Si4 0.273973 0.943633 0.412450
Si Si5 0.417806 0.636484 0.116590
Si Si6 0.127013 0.264354 0.486192
Si Si7 0.998229 0.215209 0.568918
Si Si8 0.247471 0.305065 0.772214
O O1 0.715375 0.340415 0.867479
O O2 0.546894 0.232993 0.680620
O O3 0.558115 0.034555 0.800683
O O4 0.745787 0.010758 0.813970
O O5 0.097005 0.497251 0.448995
O O6 0.172009 0.789534 0.394215
O O7 0.944509 0.778088 0.308314
O O8 0.821256 0.143261 0.241706
O O9 0.949301 0.024909 0.206836
O O10 0.049156 0.119988 0.392597
O O11 0.280772 0.255002 0.554901
O O12 0.306274 0.860331 0.352229
O O13 0.419007 0.480935 0.052818
O O14 0.403662 0.094817 0.020107
O O15 0.071910 0.207655 0.533411
O O16 0.105628 0.241006 0.682322
#
# Coordination Sequence:
#
# PCOD9140017 Si02
#       8
#     4   4   4   4   4   4   4   4
#     4  11  24  46  75 103 145 202 247 305 390 450
#     4  11  23  45  71 103 141 202 246 299 381 452
#     4  12  25  49  73 107 155 199 253 315 381 463
#     4  11  22  45  75 101 149 197 246 317 373 449
#     4  12  24  49  78 106 151 197 252 314 385 465
#     4  12  26  46  75 111 148 199 257 316 386 462
#     4  12  25  46  74 115 152 190 262 324 375 467
#     4  11  25  44  71 110 151 198 251 312 383 454
#
# _framework density 23.804600000000001
#
# number of rings (size 3 to 8) (size 9 to 14) (size 15 to 20)
#    0.000    0.500    7.500    0.750    1.750    2.000 
#    6.750    0.000    0.000    0.000    0.000    0.000 
#    0.000    0.000    0.000    0.000    0.000    0.000 
#
# Total GULP energy -89338.761820 kJ/mol
# GULP energy per Si atom -5583.672614 kJ/mol
# Density = 2.375042 g / cm^3
# Si number density = 23.804600 Si / 1000 Ang^3
#
#
#
# Elastic Constant Matrix: (Units=GPa)
#
#
# Indices 1 2 3 4 5 6 
#
# 1 87.9076 26.3169 28.0241 0.0000 -3.0645 0.0000
# 2 26.3169 106.4670 31.0386 0.0000 -5.4153 0.0000
# 3 28.0241 31.0386 93.0739 0.0000 -1.7944 0.0000
# 4 0.0000 0.0000 0.0000 35.6600 0.0000 -1.4647
# 5 -3.0645 -5.4153 -1.7944 0.0000 55.8028 0.0000
# 6 0.0000 0.0000 0.0000 -1.4647 0.0000 33.1771
#
#
#
# Elastic Compliance Matrix: (Units=1/GPa)
#
#
# Indices 1 2 3 4 5 6 
#
# 1 0.013085 -0.002291 -0.003168 0.000000 0.000394 0.000000
# 2 -0.002291 0.010850 -0.002913 0.000000 0.000833 0.000000
# 3 -0.003168 -0.002913 0.012668 0.000000 -0.000049 0.000000
# 4 0.000000 0.000000 0.000000 0.028094 0.000000 0.001240
# 5 0.000394 0.000833 -0.000049 0.000000 0.018021 0.000000
# 6 0.000000 0.000000 0.000000 0.001240 0.000000 0.030196
#
#
# Mechanical properties :
#
#
# Convention : Reuss Voigt Hill
#
# Bulk Modulus (GPa) = 50.35091 50.91196 50.63143
# Shear Modulus (GPa) = 36.68963 38.39924 37.54443
#
# Velocity S-wave (km/s) = 3.93018 4.02070 3.97570
# Velocity P-wave (km/s) = 6.46473 6.55657 6.51081
#
# Compressibility (1/GPa) = 0.01986062
#
# Stress axis : x y z
#
# Youngs Moduli (GPa) = 76.42255 92.16314 78.93604
#
# Poissons Ratio (x) = 0.21112 0.25010
# Poissons Ratio (y) = 0.17506 0.22991
# Poissons Ratio (z) = 0.24213 0.26844
#
# Static dielectric constant tensor:
#      x y z
#    x 2.019610 0.000000 -0.020110 
#    y 0.000000 1.949450 0.000000 
#    z -0.020110 0.000000 1.887960 
# 
# From -- ./inp_files/30874.got.cif
#   From: 2010.05.17/outbox.cif.g08.bks.cpg/sg9_16_cif.got.tgz:30874.got - 2010.06.03 20:04:27.
