data_PCOD9140537
_publ_section_title
;
Structure prediction by ZEFSAII (Michael W. Deem and Ramdas Pophale) SiO2 
 PCOD9140537
Probable space group: C C
;
_chemical_formula_sum "Si O2"
_cell_formula_units_Z 20
_cell_length_a 13.243424
_cell_length_b 9.341837
_cell_length_c 9.466843
_cell_angle_alpha 90.000000
_cell_angle_beta 38.309941
_cell_angle_gamma 90.000000
_cell_volume 726.055831
_symmetry_space_group_name_H-M "C C"
_symmetry_group_IT_number 9
_symmetry_cell_setting 'monoclinic'
loop_
_space_group_symop_operation_xyz
x,y,z
x,-y,1/2+z
1/2+x,1/2+y,z
1/2+x,1/2-y,1/2+z
loop_
_atom_site_type_symbol
_atom_site_label
_atom_site_fract_x
_atom_site_fract_y
_atom_site_fract_z
Si Si1 0.392140 0.815650 0.132330
Si Si2 0.899757 0.240204 0.742004
Si Si3 0.183138 0.017612 0.508682
Si Si4 0.721277 0.074249 0.140304
Si Si5 0.435190 0.693739 0.394213
O O1 0.343552 0.671455 0.102579
O O2 0.431100 0.778955 0.253183
O O3 0.237363 0.920013 0.317008
O O4 0.547790 0.889536 0.893575
O O5 0.841385 0.389103 0.876936
O O6 0.923554 0.276379 0.552624
O O7 0.049084 0.136901 0.617903
O O8 0.750663 0.133826 0.949624
O O9 0.093911 0.908810 0.712174
O O10 0.780258 0.912796 0.070912
#
# Coordination Sequence:
#
# PCOD9140537 Si02
#       5
#     4   4   4   4   4
#     4  12  26  48  77 112 158 201 250 318 387 455
#     4  11  27  47  76 110 150 201 258 315 376 452
#     4  11  27  48  76 112 157 198 259 312 385 453
#     4  11  24  47  75 109 151 202 247 316 384 454
#     4  11  26  50  76 113 150 200 258 319 372 466
#
# _framework density 27.54609
#
# number of rings (size 3 to 8) (size 9 to 14) (size 15 to 20)
#    0.000    0.800    2.000    4.800    8.400    0.000 
#    7.200    0.000    0.000    0.000    0.000    0.000 
#    0.000    0.000    0.000    0.000    0.000    0.000 
#
# Total GULP energy -56046.451951 kJ/mol
# GULP energy per Si atom -5604.645195 kJ/mol
# Density = 2.748339 g / cm^3
# Si number density = 27.546090 Si / 1000 Ang^3
#
#
#
# Elastic Constant Matrix: (Units=GPa)
#
#
# Indices 1 2 3 4 5 6 
#
# 1 70.1252 28.8416 69.0869 0.0000 16.1045 0.0000
# 2 28.8416 111.7233 59.0762 0.0000 -9.7383 0.0000
# 3 69.0869 59.0762 241.0470 0.0000 -0.2481 0.0000
# 4 0.0000 0.0000 0.0000 72.7442 0.0000 -2.1271
# 5 16.1045 -9.7383 -0.2481 0.0000 36.5200 0.0000
# 6 0.0000 0.0000 0.0000 -2.1271 0.0000 35.9731
#
#
#
# Elastic Compliance Matrix: (Units=1/GPa)
#
#
# Indices 1 2 3 4 5 6 
#
# 1 0.024759 -0.004235 -0.006071 0.000000 -0.012089 0.000000
# 2 -0.004235 0.011286 -0.001547 0.000000 0.004867 0.000000
# 3 -0.006071 -0.001547 0.006270 0.000000 0.002307 0.000000
# 4 0.000000 0.000000 0.000000 0.013771 0.000000 0.000814
# 5 -0.012089 0.004867 0.002307 0.000000 0.034027 0.000000
# 6 0.000000 0.000000 0.000000 0.000814 0.000000 0.027847
#
#
# Mechanical properties :
#
#
# Convention : Reuss Voigt Hill
#
# Bulk Modulus (GPa) = 53.73691 81.87832 67.80761
# Shear Modulus (GPa) = 33.81368 46.77352 40.29360
#
# Velocity S-wave (km/s) = 3.50742 4.12516 3.82877
# Velocity P-wave (km/s) = 5.99608 7.24416 6.64947
#
# Compressibility (1/GPa) = 0.01860918
#
# Stress axis : x y z
#
# Youngs Moduli (GPa) = 40.38894 88.60254 159.48788
#
# Poissons Ratio (x) = 0.37526 0.96821
# Poissons Ratio (y) = 0.17106 0.24675
# Poissons Ratio (z) = 0.24519 0.13708
#
# Static dielectric constant tensor:
#      x y z
#    x 2.240830 0.000000 -0.045080 
#    y 0.000000 2.133040 0.000000 
#    z -0.045080 0.000000 2.110040 
# 
# From -- ./inp_files/6633.got.cif
#   From: 2010.05.17/outbox.cif.g08.bks.cpg/sg9_4_cif.got.tgz:6633.got - 2010.06.03 20:04:27.
