data_PCOD9140213
_publ_section_title
;
Structure prediction by ZEFSAII (Michael W. Deem and Ramdas Pophale) SiO2 
 PCOD9140213
Probable space group: C C
;
_chemical_formula_sum "Si O2"
_cell_formula_units_Z 24
_cell_length_a 10.351186
_cell_length_b 9.428501
_cell_length_c 12.033347
_cell_angle_alpha 90.000000
_cell_angle_beta 119.643430
_cell_angle_gamma 90.000000
_cell_volume 1020.702280
_symmetry_space_group_name_H-M "C C"
_symmetry_group_IT_number 9
_symmetry_cell_setting 'monoclinic'
loop_
_space_group_symop_operation_xyz
x,y,z
x,-y,1/2+z
1/2+x,1/2+y,z
1/2+x,1/2-y,1/2+z
loop_
_atom_site_type_symbol
_atom_site_label
_atom_site_fract_x
_atom_site_fract_y
_atom_site_fract_z
Si Si1 0.985180 0.613009 0.746060
Si Si2 0.484998 0.549965 0.531360
Si Si3 0.181850 0.487211 0.017921
Si Si4 0.680598 0.278511 0.655488
Si Si5 0.297459 0.662650 0.270338
Si Si6 0.494133 0.193014 0.207938
O O1 0.841962 0.701327 0.718630
O O2 0.053452 0.557837 0.891228
O O3 0.098900 0.713316 0.727957
O O4 0.954286 0.470457 0.663297
O O5 0.331910 0.483831 0.512365
O O6 0.613498 0.434594 0.603772
O O7 0.444273 0.597224 0.389113
O O8 0.494411 0.693128 0.608832
O O9 0.170822 0.309084 0.809351
O O10 0.144976 0.326381 0.037500
O O11 0.860962 0.270646 0.736137
O O12 0.220753 0.557371 0.152208
#
# Coordination Sequence:
#
# PCOD9140213 Si02
#       6
#     4   4   4   4   4   4
#     4  12  25  46  75 106 143 197 241 306 365 434
#     4  11  24  48  74 107 146 193 245 305 362 438
#     4  11  23  45  74 104 146 188 249 304 357 437
#     4  11  25  47  76 107 143 197 244 301 373 428
#     4  12  24  47  74 105 150 190 245 304 366 434
#     4  11  25  47  71 109 146 191 242 300 365 435
#
# _framework density 23.513221999999999
#
# number of rings (size 3 to 8) (size 9 to 14) (size 15 to 20)
#    0.000    0.667    5.000    2.000    0.000    4.000 
#    0.000    3.333    0.000    0.000    0.000    0.000 
#    0.000    0.000    0.000    0.000    0.000    0.000 
#
# Total GULP energy -66990.583350 kJ/mol
# GULP energy per Si atom -5582.548612 kJ/mol
# Density = 2.345970 g / cm^3
# Si number density = 23.513222 Si / 1000 Ang^3
#
#
#
# Elastic Constant Matrix: (Units=GPa)
#
#
# Indices 1 2 3 4 5 6 
#
# 1 142.6282 51.4674 -1.2372 0.0000 -8.2816 0.0000
# 2 51.4674 162.6640 39.1658 0.0000 -1.9929 0.0000
# 3 -1.2372 39.1658 74.5180 0.0000 -3.4904 0.0000
# 4 0.0000 0.0000 0.0000 27.4829 0.0000 -4.8716
# 5 -8.2816 -1.9929 -3.4904 0.0000 27.7923 0.0000
# 6 0.0000 0.0000 0.0000 -4.8716 0.0000 49.7515
#
#
#
# Elastic Compliance Matrix: (Units=1/GPa)
#
#
# Indices 1 2 3 4 5 6 
#
# 1 0.008264 -0.003029 0.001845 0.000000 0.002477 0.000000
# 2 -0.003029 0.008148 -0.004374 0.000000 -0.000867 0.000000
# 3 0.001845 -0.004374 0.015853 0.000000 0.002227 0.000000
# 4 0.000000 0.000000 0.000000 0.037029 0.000000 0.003626
# 5 0.002477 -0.000867 0.002227 0.000000 0.036937 0.000000
# 6 0.000000 0.000000 0.000000 0.003626 0.000000 0.020455
#
#
# Mechanical properties :
#
#
# Convention : Reuss Voigt Hill
#
# Bulk Modulus (GPa) = 47.27873 62.06692 54.67282
# Shear Modulus (GPa) = 34.51824 40.36629 37.44226
#
# Velocity S-wave (km/s) = 3.83565 4.14786 3.99481
# Velocity P-wave (km/s) = 6.30613 7.02806 6.67686
#
# Compressibility (1/GPa) = 0.02115116
#
# Stress axis : x y z
#
# Youngs Moduli (GPa) = 121.00745 122.72430 63.07864
#
# Poissons Ratio (x) = 0.37169 -0.11638
# Poissons Ratio (y) = 0.36649 0.27588
# Poissons Ratio (z) = -0.22326 0.53675
#
# Static dielectric constant tensor:
#      x y z
#    x 1.918010 0.000000 -0.018560 
#    y 0.000000 1.940260 0.000000 
#    z -0.018560 0.000000 1.936990 
# 
# From -- ./inp_files/22375.got.cif
#   From: 2010.05.17/outbox.cif.g08.bks.cpg/sg9_12_cif.got.tgz:22375.got - 2010.06.03 20:04:27.
