data_PCOD9140703
_publ_section_title
;
Structure prediction by ZEFSAII (Michael W. Deem and Ramdas Pophale) SiO2 
 PCOD9140703
Probable space group: C C
;
_chemical_formula_sum "Si O2"
_cell_formula_units_Z 32
_cell_length_a 11.219896
_cell_length_b 14.611596
_cell_length_c 9.256124
_cell_angle_alpha 90.000000
_cell_angle_beta 122.666632
_cell_angle_gamma 90.000000
_cell_volume 1277.431458
_symmetry_space_group_name_H-M "C C"
_symmetry_group_IT_number 9
_symmetry_cell_setting 'monoclinic'
loop_
_space_group_symop_operation_xyz
x,y,z
x,-y,1/2+z
1/2+x,1/2+y,z
1/2+x,1/2-y,1/2+z
loop_
_atom_site_type_symbol
_atom_site_label
_atom_site_fract_x
_atom_site_fract_y
_atom_site_fract_z
Si Si1 0.129840 0.636473 0.971220
Si Si2 0.217356 0.669257 0.733166
Si Si3 0.741328 0.432796 0.384716
Si Si4 0.871523 0.707158 0.152056
Si Si5 0.007438 0.078288 0.984138
Si Si6 0.062031 0.190916 0.583286
Si Si7 0.983196 0.451207 0.935890
Si Si8 0.935443 0.913465 0.752055
O O1 0.134218 0.691126 0.824181
O O2 0.023984 0.550455 0.896446
O O3 0.129872 0.709809 0.100400
O O4 0.283309 0.591283 0.081770
O O5 0.228799 0.752388 0.629041
O O6 0.384878 0.654973 0.880740
O O7 0.123707 0.586377 0.607973
O O8 0.841917 0.346757 0.485909
O O9 0.641518 0.429342 0.462761
O O10 0.660145 0.395139 0.189893
O O11 0.842716 0.520764 0.435058
O O12 0.941913 0.631258 0.301270
O O13 0.962951 0.793007 0.156653
O O14 0.925188 0.990957 0.867172
O O15 0.035149 0.072245 0.175318
O O16 0.981460 0.169945 0.382330
#
# Coordination Sequence:
#
# PCOD9140703 Si02
#       8
#     4   4   4   4   4   4   4   4
#     4  11  26  47  75 113 153 207 262 318 397 470
#     4  11  26  49  76 111 156 209 261 323 397 475
#     4  12  27  49  75 118 159 205 265 322 400 458
#     4  12  27  48  79 113 159 210 263 327 393 474
#     4  11  25  47  75 117 151 207 264 323 384 475
#     4  12  26  49  76 115 158 207 262 329 390 476
#     4  12  27  51  79 114 161 204 262 331 398 473
#     4  11  26  46  79 107 157 205 265 317 391 471
#
# _framework density 25.050269
#
# number of rings (size 3 to 8) (size 9 to 14) (size 15 to 20)
#    0.000    0.500    3.750    3.000    5.250    1.000 
#    0.000    0.000    0.000    0.000    0.000    0.000 
#    0.000    0.000    0.000    0.000    0.000    0.000 
#
# Total GULP energy -89243.771053 kJ/mol
# GULP energy per Si atom -5577.735691 kJ/mol
# Density = 2.499325 g / cm^3
# Si number density = 25.050269 Si / 1000 Ang^3
#
#
#
# Elastic Constant Matrix: (Units=GPa)
#
#
# Indices 1 2 3 4 5 6 
#
# 1 121.7211 39.3120 54.2797 0.0000 -15.7246 0.0000
# 2 39.3120 77.0787 22.4665 0.0000 -13.0708 0.0000
# 3 54.2797 22.4665 90.5822 0.0000 -19.6488 0.0000
# 4 0.0000 0.0000 0.0000 50.0527 0.0000 -7.6948
# 5 -15.7246 -13.0708 -19.6488 0.0000 43.2952 0.0000
# 6 0.0000 0.0000 0.0000 -7.6948 0.0000 39.0412
#
#
#
# Elastic Compliance Matrix: (Units=1/GPa)
#
#
# Indices 1 2 3 4 5 6 
#
# 1 0.012527 -0.004491 -0.006322 0.000000 0.000325 0.000000
# 2 -0.004491 0.015940 -0.000635 0.000000 0.002893 0.000000
# 3 -0.006322 -0.000635 0.016023 0.000000 0.004784 0.000000
# 4 0.000000 0.000000 0.000000 0.020603 0.000000 0.004061
# 5 0.000325 0.002893 0.004784 0.000000 0.026260 0.000000
# 6 0.000000 0.000000 0.000000 0.004061 0.000000 0.026414
#
#
# Mechanical properties :
#
#
# Convention : Reuss Voigt Hill
#
# Bulk Modulus (GPa) = 46.30896 57.94426 52.12661
# Shear Modulus (GPa) = 33.81507 38.03274 35.92391
#
# Velocity S-wave (km/s) = 3.67807 3.90071 3.79102
# Velocity P-wave (km/s) = 6.04683 6.59309 6.32586
#
# Compressibility (1/GPa) = 0.02159409
#
# Stress axis : x y z
#
# Youngs Moduli (GPa) = 79.82484 62.73508 62.40852
#
# Poissons Ratio (x) = 0.28177 0.39457
# Poissons Ratio (y) = 0.35853 0.03960
# Poissons Ratio (z) = 0.50469 0.03981
#
# Static dielectric constant tensor:
#      x y z
#    x 2.069550 0.000000 0.053110 
#    y 0.000000 2.067650 0.000000 
#    z 0.053110 0.000000 2.031350 
# 
# From -- ./inp_files/7568.got.cif
#   From: 2010.05.17/outbox.cif.g08.bks.cpg/sg9_4_cif.got.tgz:7568.got - 2010.06.03 20:04:27.
