data_PCOD9140180
_publ_section_title
;
Structure prediction by ZEFSAII (Michael W. Deem and Ramdas Pophale) SiO2 
 PCOD9140180
Probable space group: C C
;
_chemical_formula_sum "Si O2"
_cell_formula_units_Z 24
_cell_length_a 7.324152
_cell_length_b 17.863526
_cell_length_c 7.520387
_cell_angle_alpha 90.000000
_cell_angle_beta 72.145543
_cell_angle_gamma 90.000000
_cell_volume 936.543497
_symmetry_space_group_name_H-M "C C"
_symmetry_group_IT_number 9
_symmetry_cell_setting 'monoclinic'
loop_
_space_group_symop_operation_xyz
x,y,z
x,-y,1/2+z
1/2+x,1/2+y,z
1/2+x,1/2-y,1/2+z
loop_
_atom_site_type_symbol
_atom_site_label
_atom_site_fract_x
_atom_site_fract_y
_atom_site_fract_z
Si Si1 0.598290 0.912972 0.654380
Si Si2 0.835874 0.017197 0.781394
Si Si3 0.731297 0.167216 0.640527
Si Si4 0.083616 0.255516 0.538732
Si Si5 0.309578 0.878055 0.150177
Si Si6 0.236751 0.031922 0.037891
O O1 0.571658 0.824899 0.678541
O O2 0.409676 0.937463 0.605393
O O3 0.780854 0.937669 0.475473
O O4 0.660604 0.960600 0.804241
O O5 0.822292 0.084874 0.642559
O O6 0.243668 0.081148 0.855347
O O7 0.032106 0.971556 0.700028
O O8 0.523569 0.152366 0.619353
O O9 0.887895 0.222650 0.511066
O O10 0.697121 0.208286 0.840478
O O11 0.180763 0.189174 0.618544
O O12 0.282364 0.943343 0.012153
#
# Coordination Sequence:
#
# PCOD9140180 Si02
#       6
#     4   4   4   4   4   4
#     4  11  24  48  70 113 151 195 257 319 376 460
#     4  11  23  44  78 106 149 198 257 313 377 459
#     4  11  25  52  72 113 156 203 258 317 389 461
#     4  11  27  49  76 113 162 200 256 321 395 461
#     4  12  26  48  79 113 153 202 258 321 385 458
#     4  12  23  45  81 108 147 204 258 311 384 459
#
# _framework density 25.626142000000002
#
# number of rings (size 3 to 8) (size 9 to 14) (size 15 to 20)
#    0.000    0.667    6.667    1.000    2.333    5.333 
#    6.000    0.000    0.000    0.000    0.000    0.000 
#    0.000    0.000    0.000    0.000    0.000    0.000 
#
# Total GULP energy -67126.565322 kJ/mol
# GULP energy per Si atom -5593.880444 kJ/mol
# Density = 2.556782 g / cm^3
# Si number density = 25.626142 Si / 1000 Ang^3
#
#
#
# Elastic Constant Matrix: (Units=GPa)
#
#
# Indices 1 2 3 4 5 6 
#
# 1 185.8097 73.8402 44.8612 0.0000 -6.4566 0.0000
# 2 73.8402 221.3137 35.0127 0.0000 6.6488 0.0000
# 3 44.8612 35.0127 95.3853 0.0000 0.0912 0.0000
# 4 0.0000 0.0000 0.0000 40.2165 0.0000 5.3523
# 5 -6.4566 6.6488 0.0912 0.0000 38.2591 0.0000
# 6 0.0000 0.0000 0.0000 5.3523 0.0000 57.0558
#
#
#
# Elastic Compliance Matrix: (Units=1/GPa)
#
#
# Indices 1 2 3 4 5 6 
#
# 1 0.006798 -0.001918 -0.002495 0.000000 0.001487 0.000000
# 2 -0.001918 0.005365 -0.001066 0.000000 -0.001253 0.000000
# 3 -0.002495 -0.001066 0.012049 0.000000 -0.000264 0.000000
# 4 0.000000 0.000000 0.000000 0.025180 0.000000 -0.002362
# 5 0.001487 -0.001253 -0.000264 0.000000 0.026607 0.000000
# 6 0.000000 0.000000 0.000000 -0.002362 0.000000 0.017748
#
#
# Mechanical properties :
#
#
# Convention : Reuss Voigt Hill
#
# Bulk Modulus (GPa) = 75.44813 89.99298 82.72056
# Shear Modulus (GPa) = 45.82048 50.35925 48.08987
#
# Velocity S-wave (km/s) = 4.23311 4.43781 4.33667
# Velocity P-wave (km/s) = 7.30740 7.83918 7.57796
#
# Compressibility (1/GPa) = 0.01325414
#
# Stress axis : x y z
#
# Youngs Moduli (GPa) = 147.10103 186.40247 82.99763
#
# Poissons Ratio (x) = 0.35755 0.20704
# Poissons Ratio (y) = 0.28216 0.08847
# Poissons Ratio (z) = 0.36695 0.19868
#
# Static dielectric constant tensor:
#      x y z
#    x 2.036790 0.000000 -0.034300 
#    y 0.000000 1.977500 0.000000 
#    z -0.034300 0.000000 2.247010 
# 
# From -- ./inp_files/13071.got.cif
#   From: 2010.05.17/outbox.cif.g08.bks.cpg/sg9_7_cif.got.tgz:13071.got - 2010.06.03 20:04:27.
