data_PCOD9140110
_publ_section_title
;
Structure prediction by ZEFSAII (Michael W. Deem and Ramdas Pophale) SiO2 
 PCOD9140110
Probable space group: C C
;
_chemical_formula_sum "Si O2"
_cell_formula_units_Z 28
_cell_length_a 9.443082
_cell_length_b 18.023951
_cell_length_c 9.392630
_cell_angle_alpha 90.000000
_cell_angle_beta 44.094789
_cell_angle_gamma 90.000000
_cell_volume 1112.410381
_symmetry_space_group_name_H-M "C C"
_symmetry_group_IT_number 9
_symmetry_cell_setting 'monoclinic'
loop_
_space_group_symop_operation_xyz
x,y,z
x,-y,1/2+z
1/2+x,1/2+y,z
1/2+x,1/2-y,1/2+z
loop_
_atom_site_type_symbol
_atom_site_label
_atom_site_fract_x
_atom_site_fract_y
_atom_site_fract_z
Si Si1 0.083390 0.051404 0.867040
Si Si2 0.296574 0.307461 0.290202
Si Si3 0.142281 0.204803 0.149575
Si Si4 0.023850 0.321794 0.744358
Si Si5 0.122667 0.081150 0.520339
Si Si6 0.433630 0.149296 0.719855
Si Si7 0.280569 0.389082 0.805090
O O1 0.054763 0.045710 0.720110
O O2 0.228233 0.122849 0.789717
O O3 0.184442 0.978237 0.858122
O O4 0.887043 0.057834 0.111857
O O5 0.203423 0.246311 0.250626
O O6 0.136511 0.340887 0.515437
O O7 0.453928 0.262741 0.276693
O O8 0.431114 0.368309 0.113935
O O9 0.055165 0.272707 0.115100
O O10 0.959905 0.146920 0.268644
O O11 0.340341 0.163221 0.944265
O O12 0.166907 0.334536 0.775230
O O13 0.821423 0.369900 0.905490
O O14 0.602835 0.090326 0.545410
#
# Coordination Sequence:
#
# PCOD9140110 Si02
#       7
#     4   4   4   4   4   4   4
#     4  11  28  51  72 110 150 216 256 315 378 472
#     4  12  27  46  75 117 153 192 254 323 402 447
#     4  11  25  40  71 117 152 193 243 325 384 455
#     4  12  26  45  81 109 150 198 251 325 387 460
#     4  12  28  51  77 108 160 205 267 314 387 465
#     4  11  23  42  73 107 152 189 258 306 386 453
#     4  11  25  45  77 108 151 197 257 310 392 458
#
# _framework density 25.170566999999998
#
# number of rings (size 3 to 8) (size 9 to 14) (size 15 to 20)
#    0.000    0.571    5.714    0.857    4.000    5.714 
#    2.571    0.000    0.000    0.000    0.000    0.000 
#    0.000    0.000    0.000    0.000    0.000    0.000 
#
# Total GULP energy -78200.289980 kJ/mol
# GULP energy per Si atom -5585.734999 kJ/mol
# Density = 2.511328 g / cm^3
# Si number density = 25.170567 Si / 1000 Ang^3
#
#
#
# Elastic Constant Matrix: (Units=GPa)
#
#
# Indices 1 2 3 4 5 6 
#
# 1 100.3848 21.8586 62.1879 0.0000 23.0825 0.0000
# 2 21.8586 46.9825 24.0762 0.0000 14.0167 0.0000
# 3 62.1879 24.0762 178.1326 0.0000 -3.9138 0.0000
# 4 0.0000 0.0000 0.0000 30.6479 0.0000 7.3250
# 5 23.0825 14.0167 -3.9138 0.0000 44.0925 0.0000
# 6 0.0000 0.0000 0.0000 7.3250 0.0000 17.8069
#
#
#
# Elastic Compliance Matrix: (Units=1/GPa)
#
#
# Indices 1 2 3 4 5 6 
#
# 1 0.015540 -0.002145 -0.005309 0.000000 -0.007925 0.000000
# 2 -0.002145 0.025989 -0.002926 0.000000 -0.007399 0.000000
# 3 -0.005309 -0.002926 0.007960 0.000000 0.004416 0.000000
# 4 0.000000 0.000000 0.000000 0.036186 0.000000 -0.014885
# 5 -0.007925 -0.007399 0.004416 0.000000 0.029572 0.000000
# 6 0.000000 0.000000 0.000000 -0.014885 0.000000 0.062281
#
#
# Mechanical properties :
#
#
# Convention : Reuss Voigt Hill
#
# Bulk Modulus (GPa) = 34.80947 60.19392 47.50170
# Shear Modulus (GPa) = 24.05389 33.00128 28.52759
#
# Velocity S-wave (km/s) = 3.09469 3.62485 3.37021
# Velocity P-wave (km/s) = 5.16032 6.44094 5.83586
#
# Compressibility (1/GPa) = 0.02872781
#
# Stress axis : x y z
#
# Youngs Moduli (GPa) = 64.34978 38.47717 125.62937
#
# Poissons Ratio (x) = 0.08253 0.66702
# Poissons Ratio (y) = 0.13803 0.36764
# Poissons Ratio (z) = 0.34166 0.11260
#
# Static dielectric constant tensor:
#      x y z
#    x 1.965220 0.000000 -0.017940 
#    y 0.000000 2.021610 0.000000 
#    z -0.017940 0.000000 2.054640 
# 
# From -- ./inp_files/5714.got.cif
#   From: 2010.05.17/outbox.cif.g08.bks.cpg/sg9_3_cif.got.tgz:5714.got - 2010.06.03 20:04:27.
