data_PCOD9140351
_publ_section_title
;
Structure prediction by ZEFSAII (Michael W. Deem and Ramdas Pophale) SiO2 
 PCOD9140351
Probable space group: C C
;
_chemical_formula_sum "Si O2"
_cell_formula_units_Z 24
_cell_length_a 6.914849
_cell_length_b 20.207533
_cell_length_c 8.522828
_cell_angle_alpha 90.000000
_cell_angle_beta 124.521653
_cell_angle_gamma 90.000000
_cell_volume 981.206891
_symmetry_space_group_name_H-M "C C"
_symmetry_group_IT_number 9
_symmetry_cell_setting 'monoclinic'
loop_
_space_group_symop_operation_xyz
x,y,z
x,-y,1/2+z
1/2+x,1/2+y,z
1/2+x,1/2-y,1/2+z
loop_
_atom_site_type_symbol
_atom_site_label
_atom_site_fract_x
_atom_site_fract_y
_atom_site_fract_z
Si Si1 0.733250 0.191053 0.620800
Si Si2 0.372050 0.141734 0.655143
Si Si3 0.532138 0.920876 0.808552
Si Si4 0.611685 0.458286 0.821977
Si Si5 0.241259 0.173691 0.949559
Si Si6 0.321192 0.546227 0.881287
O O1 0.489244 0.200295 0.604806
O O2 0.674113 0.131880 0.475960
O O3 0.802338 0.255487 0.554090
O O4 0.957755 0.171262 0.828781
O O5 0.168345 0.100007 0.473608
O O6 0.303427 0.165303 0.795477
O O7 0.596170 0.092600 0.760453
O O8 0.358199 0.962180 0.841669
O O9 0.382662 0.879136 0.616659
O O10 0.708283 0.972942 0.819335
O O11 0.531536 0.528775 0.855739
O O12 0.431282 0.439823 0.601553
#
# Coordination Sequence:
#
# PCOD9140351 Si02
#       6
#     4   4   4   4   4   4
#     4  11  25  47  70 106 151 196 256 309 369 444
#     4  11  27  45  73 111 146 197 249 307 383 442
#     4  11  25  45  72 109 145 192 248 302 375 448
#     4  11  24  42  68 102 145 183 232 302 366 441
#     4  12  25  49  74 106 151 200 252 317 366 445
#     4  12  24  44  71 106 146 186 239 305 377 450
#
# _framework density 24.459672999999999
#
# number of rings (size 3 to 8) (size 9 to 14) (size 15 to 20)
#    0.000    0.667    1.667    6.000    0.000    8.000 
#    3.000    0.000    0.000    0.000    0.000    0.000 
#    0.000    0.000    0.000    0.000    0.000    0.000 
#
# Total GULP energy -67155.292045 kJ/mol
# GULP energy per Si atom -5596.274337 kJ/mol
# Density = 2.440400 g / cm^3
# Si number density = 24.459673 Si / 1000 Ang^3
#
#
#
# Elastic Constant Matrix: (Units=GPa)
#
#
# Indices 1 2 3 4 5 6 
#
# 1 79.8878 39.7686 16.7448 0.0000 -6.6150 0.0000
# 2 39.7686 77.2013 37.1522 0.0000 7.8300 0.0000
# 3 16.7448 37.1522 151.3554 0.0000 17.6148 0.0000
# 4 0.0000 0.0000 0.0000 40.4038 0.0000 4.2435
# 5 -6.6150 7.8300 17.6148 0.0000 48.5522 0.0000
# 6 0.0000 0.0000 0.0000 4.2435 0.0000 35.4149
#
#
#
# Elastic Compliance Matrix: (Units=1/GPa)
#
#
# Indices 1 2 3 4 5 6 
#
# 1 0.017537 -0.009388 -0.000094 0.000000 0.003937 0.000000
# 2 -0.009388 0.019771 -0.003440 0.000000 -0.003219 0.000000
# 3 -0.000094 -0.003440 0.007725 0.000000 -0.002261 0.000000
# 4 0.000000 0.000000 0.000000 0.025066 0.000000 -0.003003
# 5 0.003937 -0.003219 -0.002261 0.000000 0.022472 0.000000
# 6 0.000000 0.000000 0.000000 -0.003003 0.000000 0.028597
#
#
# Mechanical properties :
#
#
# Convention : Reuss Voigt Hill
#
# Bulk Modulus (GPa) = 52.11227 55.08620 53.59924
# Shear Modulus (GPa) = 32.59329 39.19277 35.89303
#
# Velocity S-wave (km/s) = 3.65435 4.00727 3.83487
# Velocity P-wave (km/s) = 6.25758 6.63182 6.44742
#
# Compressibility (1/GPa) = 0.01918934
#
# Stress axis : x y z
#
# Youngs Moduli (GPa) = 57.02389 50.57948 129.45318
#
# Poissons Ratio (x) = 0.47482 0.01217
# Poissons Ratio (y) = 0.53532 0.44529
# Poissons Ratio (z) = 0.00536 0.17398
#
# Static dielectric constant tensor:
#      x y z
#    x 1.974330 0.000000 -0.022080 
#    y 0.000000 2.054320 0.000000 
#    z -0.022080 0.000000 1.937830 
# 
# From -- ./inp_files/5831.got.cif
#   From: 2010.05.17/outbox.cif.g08.bks.cpg/sg9_3_cif.got.tgz:5831.got - 2010.06.03 20:04:27.
