data_PCOD9140649
_publ_section_title
;
Structure prediction by ZEFSAII (Michael W. Deem and Ramdas Pophale) SiO2 
 PCOD9140649
Probable space group: C C
;
_chemical_formula_sum "Si O2"
_cell_formula_units_Z 32
_cell_length_a 15.160144
_cell_length_b 12.123960
_cell_length_c 13.350400
_cell_angle_alpha 90.000000
_cell_angle_beta 35.953152
_cell_angle_gamma 90.000000
_cell_volume 1440.693539
_symmetry_space_group_name_H-M "C C"
_symmetry_group_IT_number 9
_symmetry_cell_setting 'monoclinic'
loop_
_space_group_symop_operation_xyz
x,y,z
x,-y,1/2+z
1/2+x,1/2+y,z
1/2+x,1/2-y,1/2+z
loop_
_atom_site_type_symbol
_atom_site_label
_atom_site_fract_x
_atom_site_fract_y
_atom_site_fract_z
Si Si1 0.705910 0.118124 0.242630
Si Si2 0.518436 0.622881 0.173578
Si Si3 0.549745 0.743562 0.556547
Si Si4 0.199838 0.657890 0.547042
Si Si5 0.003998 0.445128 0.740223
Si Si6 0.270318 0.629996 0.713669
Si Si7 0.173112 0.083295 0.611638
Si Si8 0.047919 0.827717 0.430304
O O1 0.615833 0.102309 0.221992
O O2 0.606010 0.204143 0.396590
O O3 0.727606 0.997557 0.270281
O O4 0.871211 0.166670 0.068403
O O5 0.342900 0.651254 0.342636
O O6 0.614174 0.726753 0.122165
O O7 0.556403 0.515475 0.201702
O O8 0.566164 0.603570 0.014823
O O9 0.489225 0.853805 0.667238
O O10 0.424016 0.664467 0.625668
O O11 0.650567 0.788669 0.373905
O O12 0.638464 0.676252 0.560389
O O13 0.081494 0.559327 0.637114
O O14 0.268398 0.643876 0.595880
O O15 0.840931 0.460537 0.939511
O O16 0.143221 0.129064 0.749510
#
# Coordination Sequence:
#
# PCOD9140649 Si02
#       8
#     4   4   4   4   4   4   4   4
#     4  11  25  47  72 108 149 200 248 321 378 450
#     4  12  27  47  76 106 152 204 255 312 391 457
#     4  12  25  44  75 109 146 192 248 306 379 456
#     4  11  26  50  73 108 154 199 258 318 377 461
#     4  11  25  45  72 107 148 195 245 317 373 445
#     4  11  26  47  75 109 150 199 247 313 391 451
#     4  12  26  47  73 111 153 192 257 317 384 455
#     4  12  26  45  74 108 148 201 254 312 387 459
#
# _framework density 22.211524000000001
#
# number of rings (size 3 to 8) (size 9 to 14) (size 15 to 20)
#    0.000    0.500    2.500    5.250    7.000    2.000 
#    4.500    0.000    0.000    0.000    0.000    0.000 
#    0.000    0.000    0.000    0.000    0.000    0.000 
#
# Total GULP energy -89602.413528 kJ/mol
# GULP energy per Si atom -5600.150845 kJ/mol
# Density = 2.216097 g / cm^3
# Si number density = 22.211524 Si / 1000 Ang^3
#
#
#
# Elastic Constant Matrix: (Units=GPa)
#
#
# Indices 1 2 3 4 5 6 
#
# 1 86.2569 26.7619 28.5364 0.0000 7.3625 0.0000
# 2 26.7619 108.1498 19.1716 0.0000 2.5336 0.0000
# 3 28.5364 19.1716 85.3525 0.0000 -5.4813 0.0000
# 4 0.0000 0.0000 0.0000 36.7469 0.0000 -5.2554
# 5 7.3625 2.5336 -5.4813 0.0000 40.1759 0.0000
# 6 0.0000 0.0000 0.0000 -5.2554 0.0000 48.3149
#
#
#
# Elastic Compliance Matrix: (Units=1/GPa)
#
#
# Indices 1 2 3 4 5 6 
#
# 1 0.014099 -0.002654 -0.004311 0.000000 -0.003005 0.000000
# 2 -0.002654 0.010163 -0.001418 0.000000 -0.000348 0.000000
# 3 -0.004311 -0.001418 0.013652 0.000000 0.002742 0.000000
# 4 0.000000 0.000000 0.000000 0.027643 0.000000 0.003007
# 5 -0.003005 -0.000348 0.002742 0.000000 0.025837 0.000000
# 6 0.000000 0.000000 0.000000 0.003007 0.000000 0.021025
#
#
# Mechanical properties :
#
#
# Convention : Reuss Voigt Hill
#
# Bulk Modulus (GPa) = 47.28438 47.63321 47.45880
# Shear Modulus (GPa) = 36.70163 38.73348 37.71755
#
# Velocity S-wave (km/s) = 4.06934 4.18047 4.12528
# Velocity P-wave (km/s) = 6.58892 6.69280 6.64106
#
# Compressibility (1/GPa) = 0.02114863
#
# Stress axis : x y z
#
# Youngs Moduli (GPa) = 70.92514 98.39889 73.25031
#
# Poissons Ratio (x) = 0.26119 0.31576
# Poissons Ratio (y) = 0.18826 0.10384
# Poissons Ratio (z) = 0.30573 0.13949
#
# Static dielectric constant tensor:
#      x y z
#    x 1.818380 0.000000 0.012950 
#    y 0.000000 1.791120 0.000000 
#    z 0.012950 0.000000 1.785950 
# 
# From -- ./inp_files/9240.got.cif
#   From: 2010.05.17/outbox.cif.g08.bks.cpg/sg9_5_cif.got.tgz:9240.got - 2010.06.03 20:04:27.
