data_PCOD9140378
_publ_section_title
;
Structure prediction by ZEFSAII (Michael W. Deem and Ramdas Pophale) SiO2 
 PCOD9140378
Probable space group: C C
;
_chemical_formula_sum "Si O2"
_cell_formula_units_Z 24
_cell_length_a 16.360791
_cell_length_b 8.756824
_cell_length_c 13.954408
_cell_angle_alpha 90.000000
_cell_angle_beta 33.308599
_cell_angle_gamma 90.000000
_cell_volume 1097.872581
_symmetry_space_group_name_H-M "C C"
_symmetry_group_IT_number 9
_symmetry_cell_setting 'monoclinic'
loop_
_space_group_symop_operation_xyz
x,y,z
x,-y,1/2+z
1/2+x,1/2+y,z
1/2+x,1/2-y,1/2+z
loop_
_atom_site_type_symbol
_atom_site_label
_atom_site_fract_x
_atom_site_fract_y
_atom_site_fract_z
Si Si1 0.436920 0.592504 0.913700
Si Si2 0.143176 0.432056 0.202370
Si Si3 0.924264 0.388185 0.796285
Si Si4 0.153122 0.113610 0.089256
Si Si5 0.965958 0.484181 0.052834
Si Si6 0.654916 0.695028 0.870523
O O1 0.405024 0.730347 0.871111
O O2 0.515547 0.462429 0.775728
O O3 0.550228 0.642458 0.885862
O O4 0.287090 0.519362 0.100640
O O5 0.181818 0.272519 0.114979
O O6 0.076636 0.540360 0.185535
O O7 0.016279 0.425875 0.408619
O O8 0.931752 0.401014 0.673863
O O9 0.793474 0.501587 0.957023
O O10 0.119153 0.128638 0.010160
O O11 0.821549 0.370401 0.184741
O O12 0.106038 0.371335 0.934535
#
# Coordination Sequence:
#
# PCOD9140378 Si02
#       6
#     4   4   4   4   4   4
#     4  12  26  44  75 107 140 189 239 296 360 420
#     4  12  24  43  73 102 143 184 241 291 357 418
#     4  11  24  45  69 103 142 184 237 294 350 423
#     4  11  26  47  71 106 141 189 238 296 354 426
#     4  11  24  43  73 103 144 189 238 293 354 421
#     4  11  24  44  73 101 146 189 237 286 365 422
#
# _framework density 21.860461999999998
#
# number of rings (size 3 to 8) (size 9 to 14) (size 15 to 20)
#    0.000    0.667    3.333    4.000    2.333    2.667 
#    0.000    5.000    0.000    0.000    0.000    0.000 
#    0.000    0.000    0.000    0.000    0.000    0.000 
#
# Total GULP energy -67038.141456 kJ/mol
# GULP energy per Si atom -5586.511788 kJ/mol
# Density = 2.181071 g / cm^3
# Si number density = 21.860462 Si / 1000 Ang^3
#
#
#
# Elastic Constant Matrix: (Units=GPa)
#
#
# Indices 1 2 3 4 5 6 
#
# 1 98.1634 33.6348 57.7483 0.0000 15.0259 0.0000
# 2 33.6348 98.4479 38.3299 0.0000 3.1358 0.0000
# 3 57.7483 38.3299 128.7712 0.0000 17.4208 0.0000
# 4 0.0000 0.0000 0.0000 26.4047 0.0000 -5.5045
# 5 15.0259 3.1358 17.4208 0.0000 23.4069 0.0000
# 6 0.0000 0.0000 0.0000 -5.5045 0.0000 25.1936
#
#
#
# Elastic Compliance Matrix: (Units=1/GPa)
#
#
# Indices 1 2 3 4 5 6 
#
# 1 0.015059 -0.002974 -0.005131 0.000000 -0.005450 0.000000
# 2 -0.002974 0.012103 -0.002566 0.000000 0.002197 0.000000
# 3 -0.005131 -0.002566 0.011496 0.000000 -0.004918 0.000000
# 4 0.000000 0.000000 0.000000 0.039679 0.000000 0.008669
# 5 -0.005450 0.002197 -0.004918 0.000000 0.049587 0.000000
# 6 0.000000 0.000000 0.000000 0.008669 0.000000 0.041587
#
#
# Mechanical properties :
#
#
# Convention : Reuss Voigt Hill
#
# Bulk Modulus (GPa) = 57.74981 64.97871 61.36426
# Shear Modulus (GPa) = 25.42931 28.04567 26.73749
#
# Velocity S-wave (km/s) = 3.41435 3.58570 3.50108
# Velocity P-wave (km/s) = 6.48217 6.85068 6.66897
#
# Compressibility (1/GPa) = 0.01731608
#
# Stress axis : x y z
#
# Youngs Moduli (GPa) = 66.40766 82.62601 86.98773
#
# Poissons Ratio (x) = 0.24569 0.44631
# Poissons Ratio (y) = 0.19747 0.22323
# Poissons Ratio (z) = 0.34072 0.21204
#
# Static dielectric constant tensor:
#      x y z
#    x 1.815430 0.000000 -0.018190 
#    y 0.000000 1.792180 0.000000 
#    z -0.018190 0.000000 1.837820 
# 
# From -- ./inp_files/10331.got.cif
#   From: 2010.05.17/outbox.cif.g08.bks.cpg/sg9_6_cif.got.tgz:10331.got - 2010.06.03 20:04:27.
