data_PCOD9140574
_publ_section_title
;
Structure prediction by ZEFSAII (Michael W. Deem and Ramdas Pophale) SiO2 
 PCOD9140574
Probable space group: C C
;
_chemical_formula_sum "Si O2"
_cell_formula_units_Z 32
_cell_length_a 5.448793
_cell_length_b 28.226896
_cell_length_c 9.130776
_cell_angle_alpha 90.000000
_cell_angle_beta 70.343989
_cell_angle_gamma 90.000000
_cell_volume 1322.504320
_symmetry_space_group_name_H-M "C C"
_symmetry_group_IT_number 9
_symmetry_cell_setting 'monoclinic'
loop_
_space_group_symop_operation_xyz
x,y,z
x,-y,1/2+z
1/2+x,1/2+y,z
1/2+x,1/2-y,1/2+z
loop_
_atom_site_type_symbol
_atom_site_label
_atom_site_fract_x
_atom_site_fract_y
_atom_site_fract_z
Si Si1 0.967070 0.442840 0.759280
Si Si2 0.673293 0.431502 0.370891
Si Si3 0.864910 0.131793 0.142083
Si Si4 0.035420 0.645419 0.701912
Si Si5 0.646099 0.985149 0.423836
Si Si6 0.796676 0.799273 0.395228
Si Si7 0.015285 0.883604 0.934031
Si Si8 0.240099 0.798192 0.060284
O O1 0.676382 0.431670 0.871540
O O2 0.082327 0.392421 0.685990
O O3 0.034094 0.476839 0.609219
O O4 0.132036 0.461800 0.864903
O O5 0.558641 0.408205 0.540925
O O6 0.431456 0.461375 0.355340
O O7 0.780337 0.387847 0.253859
O O8 0.927035 0.460396 0.366510
O O9 0.925174 0.138718 0.298404
O O10 0.882093 0.175072 0.027829
O O11 0.092412 0.666507 0.851507
O O12 0.272006 0.614142 0.593271
O O13 0.000048 0.690383 0.601316
O O14 0.719459 0.747160 0.461788
O O15 0.022921 0.794234 0.229993
O O16 0.199374 0.844838 0.972511
#
# Coordination Sequence:
#
# PCOD9140574 Si02
#       8
#     4   4   4   4   4   4   4   4
#     4  11  26  50  74 115 149 206 258 328 404 471
#     4  11  24  50  80 109 151 210 258 328 399 477
#     4  11  24  48  76 105 152 205 254 322 396 476
#     4  11  25  49  72 112 156 210 264 324 403 486
#     4  11  27  47  81 111 155 197 271 327 397 474
#     4  11  27  45  76 107 159 206 265 330 394 478
#     4  11  26  46  75 111 154 206 258 326 398 486
#     4  11  27  45  72 116 148 206 264 325 401 468
#
# _framework density 24.19652
#
# number of rings (size 3 to 8) (size 9 to 14) (size 15 to 20)
#    0.000    1.000    2.500    2.250    8.750    3.000 
#    2.250    0.000    0.000    0.000    0.000    0.000 
#    0.000    0.000    0.000    0.000    0.000    0.000 
#
# Total GULP energy -89497.582468 kJ/mol
# GULP energy per Si atom -5593.598904 kJ/mol
# Density = 2.414145 g / cm^3
# Si number density = 24.196520 Si / 1000 Ang^3
#
#
#
# Elastic Constant Matrix: (Units=GPa)
#
#
# Indices 1 2 3 4 5 6 
#
# 1 119.3600 38.1489 41.9036 0.0000 -2.2603 0.0000
# 2 38.1489 77.2825 59.4683 0.0000 -9.6617 0.0000
# 3 41.9036 59.4683 126.2869 0.0000 8.2574 0.0000
# 4 0.0000 0.0000 0.0000 35.7826 0.0000 5.9865
# 5 -2.2603 -9.6617 8.2574 0.0000 45.1368 0.0000
# 6 0.0000 0.0000 0.0000 5.9865 0.0000 24.7269
#
#
#
# Elastic Compliance Matrix: (Units=1/GPa)
#
#
# Indices 1 2 3 4 5 6 
#
# 1 0.010145 -0.003796 -0.001578 0.000000 -0.000016 0.000000
# 2 -0.003796 0.023563 -0.010276 0.000000 0.006734 0.000000
# 3 -0.001578 -0.010276 0.013593 0.000000 -0.004765 0.000000
# 4 0.000000 0.000000 0.000000 0.029126 0.000000 -0.007052
# 5 -0.000016 0.006734 -0.004765 0.000000 0.024467 0.000000
# 6 0.000000 0.000000 0.000000 -0.007052 0.000000 0.042149
#
#
# Mechanical properties :
#
#
# Convention : Reuss Voigt Hill
#
# Bulk Modulus (GPa) = 62.49831 66.88567 64.69199
# Shear Modulus (GPa) = 27.82790 33.35649 30.59219
#
# Velocity S-wave (km/s) = 3.39496 3.71693 3.55959
# Velocity P-wave (km/s) = 6.42287 6.79143 6.60972
#
# Compressibility (1/GPa) = 0.01600043
#
# Stress axis : x y z
#
# Youngs Moduli (GPa) = 98.57314 42.44010 73.56872
#
# Poissons Ratio (x) = 0.16109 0.11607
# Poissons Ratio (y) = 0.37415 0.75602
# Poissons Ratio (z) = 0.15552 0.43613
#
# Static dielectric constant tensor:
#      x y z
#    x 1.980190 0.000000 -0.015810 
#    y 0.000000 2.007360 0.000000 
#    z -0.015810 0.000000 1.889320 
# 
# From -- ./inp_files/4478.got.cif
#   From: 2010.05.17/outbox.cif.g08.bks.cpg/sg9_3_cif.got.tgz:4478.got - 2010.06.03 20:04:27.
