data_PCOD9140623
_publ_section_title
;
Structure prediction by ZEFSAII (Michael W. Deem and Ramdas Pophale) SiO2 
 PCOD9140623
Probable space group: C C
;
_chemical_formula_sum "Si O2"
_cell_formula_units_Z 28
_cell_length_a 6.581232
_cell_length_b 18.166161
_cell_length_c 14.930424
_cell_angle_alpha 90.000000
_cell_angle_beta 46.043276
_cell_angle_gamma 90.000000
_cell_volume 1284.970398
_symmetry_space_group_name_H-M "C C"
_symmetry_group_IT_number 9
_symmetry_cell_setting 'monoclinic'
loop_
_space_group_symop_operation_xyz
x,y,z
x,-y,1/2+z
1/2+x,1/2+y,z
1/2+x,1/2-y,1/2+z
loop_
_atom_site_type_symbol
_atom_site_label
_atom_site_fract_x
_atom_site_fract_y
_atom_site_fract_z
Si Si1 0.009320 0.029914 0.871990
Si Si2 0.052455 0.085374 0.051267
Si Si3 0.469609 0.918469 0.779191
Si Si4 0.274705 0.228668 0.245292
Si Si5 0.453266 0.037748 0.473087
Si Si6 0.193767 0.852781 0.186627
Si Si7 0.724689 0.746168 0.043252
O O1 0.048920 0.109404 0.815653
O O2 0.303613 0.985791 0.785882
O O3 0.936975 0.050211 0.995603
O O4 0.775436 0.976002 0.902181
O O5 0.105660 0.171506 0.035760
O O6 0.798834 0.067247 0.194754
O O7 0.336068 0.043409 0.989057
O O8 0.420262 0.846379 0.735522
O O9 0.372288 0.912832 0.911594
O O10 0.472580 0.297635 0.209466
O O11 0.256652 0.229554 0.141386
O O12 0.992110 0.233823 0.396117
O O13 0.278865 0.076190 0.603677
O O14 0.484179 0.808722 0.113470
#
# Coordination Sequence:
#
# PCOD9140623 Si02
#       7
#     4   4   4   4   4   4   4
#     4  11  25  44  72 103 147 189 245 302 370 442
#     4  11  25  43  69 103 139 189 242 297 366 438
#     4  11  25  43  69 103 139 189 242 297 366 438
#     4  12  28  46  73 105 150 196 248 305 374 441
#     4  11  25  44  72 103 147 189 245 302 370 442
#     4  12  26  44  72 106 146 184 248 306 368 438
#     4  12  28  46  73 105 150 196 248 305 374 441
#
# _framework density 21.790386999999999
#
# number of rings (size 3 to 8) (size 9 to 14) (size 15 to 20)
#    0.000    0.571    1.429    5.143   10.000    8.000 
#    0.000    0.000    0.000    0.000    0.000    0.000 
#    0.000    0.000    0.000    0.000    0.000    0.000 
#
# Total GULP energy -78120.768726 kJ/mol
# GULP energy per Si atom -5580.054909 kJ/mol
# Density = 2.174079 g / cm^3
# Si number density = 21.790387 Si / 1000 Ang^3
#
#
#
# Elastic Constant Matrix: (Units=GPa)
#
#
# Indices 1 2 3 4 5 6 
#
# 1 60.8196 3.0735 18.3097 0.0000 2.9851 0.0000
# 2 3.0735 55.0205 -4.7657 0.0000 5.3291 0.0000
# 3 18.3097 -4.7657 76.9867 -0.0001 4.7074 0.0001
# 4 0.0000 0.0000 -0.0001 40.9515 0.0000 -5.6610
# 5 2.9851 5.3291 4.7074 0.0000 36.0900 0.0000
# 6 0.0000 0.0000 0.0001 -5.6610 0.0000 8.6798
#
#
#
# Elastic Compliance Matrix: (Units=1/GPa)
#
#
# Indices 1 2 3 4 5 6 
#
# 1 0.017831 -0.001296 -0.004277 0.000000 -0.000726 0.000000
# 2 -0.001296 0.018667 0.001639 0.000000 -0.002863 0.000000
# 3 -0.004277 0.001639 0.014214 0.000000 -0.001742 0.000000
# 4 0.000000 0.000000 0.000000 0.026839 0.000000 0.017504
# 5 -0.000726 -0.002863 -0.001742 0.000000 0.028419 0.000000
# 6 0.000000 0.000000 0.000000 0.017504 0.000000 0.126626
#
#
# Mechanical properties :
#
#
# Convention : Reuss Voigt Hill
#
# Bulk Modulus (GPa) = 23.34053 25.11799 24.22926
# Shear Modulus (GPa) = 19.62755 28.89155 24.25955
#
# Velocity S-wave (km/s) = 3.00449 3.64522 3.34026
# Velocity P-wave (km/s) = 4.77186 5.41008 5.10096
#
# Compressibility (1/GPa) = 0.04284393
#
# Stress axis : x y z
#
# Youngs Moduli (GPa) = 56.08330 53.57136 70.35158
#
# Poissons Ratio (x) = 0.06944 0.30086
# Poissons Ratio (y) = 0.07269 -0.11530
# Poissons Ratio (z) = 0.23984 -0.08780
#
# Static dielectric constant tensor:
#      x y z
#    x 1.782870 0.000000 0.003860 
#    y 0.000000 1.748440 0.000000 
#    z 0.003860 0.000000 1.841140 
# 
# From -- ./inp_files/13066.got.cif
#   From: 2010.05.17/outbox.cif.g08.bks.cpg/sg9_7_cif.got.tgz:13066.got - 2010.06.03 20:04:27.
