data_PCOD9140178
_publ_section_title
;
Structure prediction by ZEFSAII (Michael W. Deem and Ramdas Pophale) SiO2 
 PCOD9140178
Probable space group: C C
;
_chemical_formula_sum "Si O2"
_cell_formula_units_Z 24
_cell_length_a 5.003455
_cell_length_b 19.315737
_cell_length_c 10.517401
_cell_angle_alpha 90.000000
_cell_angle_beta 94.585077
_cell_angle_gamma 90.000000
_cell_volume 1013.205707
_symmetry_space_group_name_H-M "C C"
_symmetry_group_IT_number 9
_symmetry_cell_setting 'monoclinic'
loop_
_space_group_symop_operation_xyz
x,y,z
x,-y,1/2+z
1/2+x,1/2+y,z
1/2+x,1/2-y,1/2+z
loop_
_atom_site_type_symbol
_atom_site_label
_atom_site_fract_x
_atom_site_fract_y
_atom_site_fract_z
Si Si1 0.692610 0.484501 0.287370
Si Si2 0.224929 0.660379 0.428752
Si Si3 0.846531 0.985528 0.028509
Si Si4 0.568818 0.302614 0.513371
Si Si5 0.716270 0.354235 0.779875
Si Si6 0.572278 0.112443 0.933169
O O1 0.533190 0.488976 0.416632
O O2 0.754618 0.564258 0.264467
O O3 0.947496 0.434378 0.314738
O O4 0.510485 0.465120 0.159949
O O5 0.186048 0.582715 0.479417
O O6 0.137124 0.721758 0.516688
O O7 0.532646 0.661587 0.395778
O O8 0.015255 0.673788 0.306308
O O9 0.661244 0.053056 0.037608
O O10 0.548070 0.325781 0.657227
O O11 0.318239 0.334304 0.426176
O O12 0.828532 0.341369 0.470125
#
# Coordination Sequence:
#
# PCOD9140178 Si02
#       6
#     4   4   4   4   4   4
#     4  11  23  45  74 114 138 192 245 306 358 428
#     4  11  26  47  68 108 143 192 242 299 366 433
#     4  11  25  45  77 106 147 188 246 303 360 434
#     4  12  26  46  72 107 146 191 241 300 372 435
#     4  11  23  44  76  98 149 191 239 303 372 427
#     4  12  23  45  73 107 139 190 241 295 358 439
#
# _framework density 23.687194000000002
#
# number of rings (size 3 to 8) (size 9 to 14) (size 15 to 20)
#    0.000    0.667    5.000    2.000    2.333    2.667 
#    3.000    1.667    0.000    0.000    0.000    0.000 
#    0.000    0.000    0.000    0.000    0.000    0.000 
#
# Total GULP energy -67062.189250 kJ/mol
# GULP energy per Si atom -5588.515771 kJ/mol
# Density = 2.363328 g / cm^3
# Si number density = 23.687194 Si / 1000 Ang^3
#
#
#
# Elastic Constant Matrix: (Units=GPa)
#
#
# Indices 1 2 3 4 5 6 
#
# 1 125.5161 30.5446 20.2240 0.0000 10.6667 0.0000
# 2 30.5446 94.9006 -0.9992 0.0000 5.1390 0.0000
# 3 20.2240 -0.9992 85.3609 0.0000 19.6447 0.0000
# 4 0.0000 0.0000 0.0000 18.4220 0.0000 4.7844
# 5 10.6667 5.1390 19.6447 0.0000 32.6966 0.0000
# 6 0.0000 0.0000 0.0000 4.7844 0.0000 36.5786
#
#
#
# Elastic Compliance Matrix: (Units=1/GPa)
#
#
# Indices 1 2 3 4 5 6 
#
# 1 0.009084 -0.002868 -0.001865 0.000000 -0.001392 0.000000
# 2 -0.002868 0.011559 0.001181 0.000000 -0.001591 0.000000
# 3 -0.001865 0.001181 0.014011 0.000000 -0.007995 0.000000
# 4 0.000000 0.000000 0.000000 0.056192 0.000000 -0.007350
# 5 -0.001392 -0.001591 -0.007995 0.000000 0.036092 0.000000
# 6 0.000000 0.000000 0.000000 -0.007350 0.000000 0.028300
#
#
# Mechanical properties :
#
#
# Convention : Reuss Voigt Hill
#
# Bulk Modulus (GPa) = 36.29971 45.03516 40.66744
# Shear Modulus (GPa) = 29.15031 34.60664 31.87847
#
# Velocity S-wave (km/s) = 3.51185 3.82643 3.67251
# Velocity P-wave (km/s) = 5.63932 6.21094 5.93202
#
# Compressibility (1/GPa) = 0.02754843
#
# Stress axis : x y z
#
# Youngs Moduli (GPa) = 110.08484 86.51268 71.37412
#
# Poissons Ratio (x) = 0.24812 0.13314
# Poissons Ratio (y) = 0.31572 -0.08428
# Poissons Ratio (z) = 0.20536 -0.10216
#
# Static dielectric constant tensor:
#      x y z
#    x 1.937940 0.000000 -0.007980 
#    y 0.000000 1.892870 0.000000 
#    z -0.007980 0.000000 1.966260 
# 
# From -- ./inp_files/12992.got.cif
#   From: 2010.05.17/outbox.cif.g08.bks.cpg/sg9_7_cif.got.tgz:12992.got - 2010.06.03 20:04:27.
