data_PCOD9140100
_publ_section_title
;
Structure prediction by ZEFSAII (Michael W. Deem and Ramdas Pophale) SiO2 
 PCOD9140100
Probable space group: C C
;
_chemical_formula_sum "Si O2"
_cell_formula_units_Z 24
_cell_length_a 8.341756
_cell_length_b 17.260641
_cell_length_c 8.760210
_cell_angle_alpha 90.000000
_cell_angle_beta 50.977216
_cell_angle_gamma 90.000000
_cell_volume 979.922225
_symmetry_space_group_name_H-M "C C"
_symmetry_group_IT_number 9
_symmetry_cell_setting 'monoclinic'
loop_
_space_group_symop_operation_xyz
x,y,z
x,-y,1/2+z
1/2+x,1/2+y,z
1/2+x,1/2-y,1/2+z
loop_
_atom_site_type_symbol
_atom_site_label
_atom_site_fract_x
_atom_site_fract_y
_atom_site_fract_z
Si Si1 0.149800 0.424507 0.029470
Si Si2 0.123951 0.855296 0.148474
Si Si3 0.999654 0.820884 0.808245
Si Si4 0.790962 0.325225 0.360181
Si Si5 0.989667 0.420007 0.779249
Si Si6 0.187301 0.290829 0.454398
O O1 0.073135 0.506136 0.138710
O O2 0.012539 0.363310 0.205290
O O3 0.383885 0.399489 0.920346
O O4 0.101269 0.418140 0.877838
O O5 0.155052 0.864745 0.309948
O O6 0.883165 0.837115 0.272061
O O7 0.246782 0.917144 0.972653
O O8 0.251021 0.775917 0.036345
O O9 0.829244 0.766838 0.825634
O O10 0.184431 0.839394 0.584566
O O11 0.078756 0.763387 0.893040
O O12 0.043234 0.348689 0.635171
#
# Coordination Sequence:
#
# PCOD9140100 Si02
#       6
#     4   4   4   4   4   4
#     4  11  27  47  74 110 160 203 256 330 397 462
#     4  11  23  43  71 106 143 197 254 317 377 459
#     4  12  25  42  74 112 143 197 258 320 378 465
#     4  11  23  42  70 103 145 195 256 311 383 454
#     4  11  27  48  74 110 160 203 256 330 398 461
#     4  12  25  42  75 111 145 195 262 314 381 467
#
# _framework density 24.491738000000002
#
# number of rings (size 3 to 8) (size 9 to 14) (size 15 to 20)
#    0.000    0.667    3.333    4.000    2.333    2.667 
#    0.000    1.667    0.000    0.000    0.000    0.000 
#    0.000    0.000    0.000    0.000    0.000    0.000 
#
# Total GULP energy -67119.554378 kJ/mol
# GULP energy per Si atom -5593.296198 kJ/mol
# Density = 2.443599 g / cm^3
# Si number density = 24.491738 Si / 1000 Ang^3
#
#
#
# Elastic Constant Matrix: (Units=GPa)
#
#
# Indices 1 2 3 4 5 6 
#
# 1 109.4130 16.2581 69.6707 0.0000 9.6565 0.0000
# 2 16.2581 81.8924 49.2241 0.0000 12.6119 0.0000
# 3 69.6707 49.2241 204.3953 0.0000 9.8530 0.0000
# 4 0.0000 0.0000 0.0000 48.0175 0.0000 0.0397
# 5 9.6565 12.6119 9.8530 0.0000 35.8279 0.0000
# 6 0.0000 0.0000 0.0000 0.0397 0.0000 18.7575
#
#
#
# Elastic Compliance Matrix: (Units=1/GPa)
#
#
# Indices 1 2 3 4 5 6 
#
# 1 0.011840 0.000414 -0.004028 0.000000 -0.002229 0.000000
# 2 0.000414 0.014924 -0.003523 0.000000 -0.004396 0.000000
# 3 -0.004028 -0.003523 0.007096 0.000000 0.000374 0.000000
# 4 0.000000 0.000000 0.000000 0.020826 0.000000 -0.000044
# 5 -0.002229 -0.004396 0.000374 0.000000 0.029957 0.000000
# 6 0.000000 0.000000 0.000000 -0.000044 0.000000 0.053312
#
#
# Mechanical properties :
#
#
# Convention : Reuss Voigt Hill
#
# Bulk Modulus (GPa) = 51.06000 74.00073 62.53037
# Shear Modulus (GPa) = 31.49472 37.89043 34.69258
#
# Velocity S-wave (km/s) = 3.58988 3.93755 3.76773
# Velocity P-wave (km/s) = 6.17058 7.13810 6.67191
#
# Compressibility (1/GPa) = 0.01958480
#
# Stress axis : x y z
#
# Youngs Moduli (GPa) = 84.46098 67.00746 140.92654
#
# Poissons Ratio (x) = -0.02773 0.56765
# Poissons Ratio (y) = -0.03496 0.49651
# Poissons Ratio (z) = 0.34021 0.23608
#
# Static dielectric constant tensor:
#      x y z
#    x 2.048600 0.000000 0.034610 
#    y 0.000000 2.032960 0.000000 
#    z 0.034610 0.000000 1.930490 
# 
# From -- ./inp_files/5311.got.cif
#   From: 2010.05.17/outbox.cif.g08.bks.cpg/sg9_3_cif.got.tgz:5311.got - 2010.06.03 20:04:27.
