data_PCOD9140503
_publ_section_title
;
Structure prediction by ZEFSAII (Michael W. Deem and Ramdas Pophale) SiO2 
 PCOD9140503
Probable space group: C C
;
_chemical_formula_sum "Si O2"
_cell_formula_units_Z 24
_cell_length_a 14.946703
_cell_length_b 11.797588
_cell_length_c 11.334335
_cell_angle_alpha 90.000000
_cell_angle_beta 31.173072
_cell_angle_gamma 90.000000
_cell_volume 1034.546161
_symmetry_space_group_name_H-M "C C"
_symmetry_group_IT_number 9
_symmetry_cell_setting 'monoclinic'
loop_
_space_group_symop_operation_xyz
x,y,z
x,-y,1/2+z
1/2+x,1/2+y,z
1/2+x,1/2-y,1/2+z
loop_
_atom_site_type_symbol
_atom_site_label
_atom_site_fract_x
_atom_site_fract_y
_atom_site_fract_z
Si Si1 0.096040 0.606676 0.465770
Si Si2 0.527202 0.588034 0.171281
Si Si3 0.160803 0.705793 0.631426
Si Si4 0.047215 0.356892 0.518321
Si Si5 0.757080 0.674102 0.709008
Si Si6 0.672496 0.649216 0.531643
O O1 0.052177 0.649490 0.646987
O O2 0.145928 0.476042 0.417382
O O3 0.242990 0.692757 0.256432
O O4 0.935696 0.624922 0.557995
O O5 0.342792 0.641615 0.411236
O O6 0.658039 0.660405 0.106413
O O7 0.600782 0.616789 0.958583
O O8 0.539072 0.454423 0.175102
O O9 0.083402 0.688396 0.847054
O O10 0.101333 0.263889 0.553643
O O11 0.845357 0.382503 0.764713
O O12 0.729587 0.661913 0.602107
#
# Coordination Sequence:
#
# PCOD9140503 Si02
#       6
#     4   4   4   4   4   4
#     4  11  25  46  78 105 150 200 251 312 370 447
#     4  11  25  46  79 108 147 198 254 309 374 451
#     4  11  26  46  78 107 150 197 255 304 383 443
#     4  12  29  47  72 114 156 198 247 312 383 441
#     4  11  24  46  77 107 146 198 256 305 378 438
#     4  12  29  47  76 111 157 199 249 314 380 444
#
# _framework density 23.198578000000001
#
# number of rings (size 3 to 8) (size 9 to 14) (size 15 to 20)
#    0.000    0.667    1.667    6.000    9.333    2.667 
#    0.000    0.000    0.000    0.000    0.000    0.000 
#    0.000    0.000    0.000    0.000    0.000    0.000 
#
# Total GULP energy -67168.152562 kJ/mol
# GULP energy per Si atom -5597.346047 kJ/mol
# Density = 2.314578 g / cm^3
# Si number density = 23.198578 Si / 1000 Ang^3
#
#
#
# Elastic Constant Matrix: (Units=GPa)
#
#
# Indices 1 2 3 4 5 6 
#
# 1 135.5078 56.6389 46.5253 0.0000 17.3651 0.0000
# 2 56.6389 180.8324 8.3207 0.0000 5.7448 0.0000
# 3 46.5253 8.3207 86.3541 0.0001 16.4983 0.0000
# 4 0.0000 0.0000 0.0001 17.9600 0.0000 -9.7667
# 5 17.3651 5.7448 16.4983 0.0000 38.8212 0.0000
# 6 0.0000 0.0000 0.0000 -9.7667 0.0000 18.8463
#
#
#
# Elastic Compliance Matrix: (Units=1/GPa)
#
#
# Indices 1 2 3 4 5 6 
#
# 1 0.010656 -0.003037 -0.005032 0.000000 -0.002178 0.000000
# 2 -0.003037 0.006435 0.001021 0.000000 -0.000028 0.000000
# 3 -0.005032 0.001021 0.015011 0.000000 -0.004279 0.000000
# 4 0.000000 0.000000 0.000000 0.077528 0.000000 0.040177
# 5 -0.002178 -0.000028 -0.004279 0.000000 0.028556 0.000000
# 6 0.000000 0.000000 0.000000 0.040177 0.000000 0.073882
#
#
# Mechanical properties :
#
#
# Convention : Reuss Voigt Hill
#
# Bulk Modulus (GPa) = 55.53619 69.51825 62.52722
# Shear Modulus (GPa) = 21.53641 34.53947 28.03794
#
# Velocity S-wave (km/s) = 3.05019 3.86276 3.48027
# Velocity P-wave (km/s) = 6.03294 7.06585 6.56972
#
# Compressibility (1/GPa) = 0.01800628
#
# Stress axis : x y z
#
# Youngs Moduli (GPa) = 93.84452 155.39926 66.61930
#
# Poissons Ratio (x) = 0.47192 0.33525
# Poissons Ratio (y) = 0.28499 -0.06805
# Poissons Ratio (z) = 0.47225 -0.15873
#
# Static dielectric constant tensor:
#      x y z
#    x 1.876810 0.000000 -0.041190 
#    y 0.000000 1.899340 0.000000 
#    z -0.041190 0.000000 1.888830 
# 
# From -- ./inp_files/16338.got.cif
#   From: 2010.05.17/outbox.cif.g08.bks.cpg/sg9_9_cif.got.tgz:16338.got - 2010.06.03 20:04:27.
