data_PCOD9140253
_publ_section_title
;
Structure prediction by ZEFSAII (Michael W. Deem and Ramdas Pophale) SiO2 
 PCOD9140253
Probable space group: C C
;
_chemical_formula_sum "Si O2"
_cell_formula_units_Z 32
_cell_length_a 10.665061
_cell_length_b 9.366496
_cell_length_c 14.284160
_cell_angle_alpha 90.000000
_cell_angle_beta 101.613315
_cell_angle_gamma 90.000000
_cell_volume 1397.694564
_symmetry_space_group_name_H-M "C C"
_symmetry_group_IT_number 9
_symmetry_cell_setting 'monoclinic'
loop_
_space_group_symop_operation_xyz
x,y,z
x,-y,1/2+z
1/2+x,1/2+y,z
1/2+x,1/2-y,1/2+z
loop_
_atom_site_type_symbol
_atom_site_label
_atom_site_fract_x
_atom_site_fract_y
_atom_site_fract_z
Si Si1 0.501410 0.493421 0.665940
Si Si2 0.704548 0.019002 0.120568
Si Si3 0.089648 0.803378 0.331842
Si Si4 0.375045 0.818205 0.357268
Si Si5 0.976356 0.465365 0.722514
Si Si6 0.080847 0.198775 0.514778
Si Si7 0.341700 0.037584 0.521529
Si Si8 0.578094 0.748282 0.043554
O O1 0.353398 0.451762 0.657351
O O2 0.558625 0.553751 0.770182
O O3 0.515307 0.624211 0.594310
O O4 0.575788 0.364034 0.627442
O O5 0.615581 0.003142 0.198680
O O6 0.636486 0.145802 0.052182
O O7 0.687966 0.867589 0.066075
O O8 0.233126 0.757423 0.322835
O O9 0.993064 0.677722 0.285498
O O10 0.082565 0.820750 0.441934
O O11 0.479652 0.712952 0.416138
O O12 0.427722 0.901403 0.275573
O O13 0.356230 0.937372 0.434896
O O14 0.879052 0.451303 0.621025
O O15 0.203861 0.106673 0.507525
O O16 0.446595 0.162620 0.531058
#
# Coordination Sequence:
#
# PCOD9140253 Si02
#       8
#     4   4   4   4   4   4   4   4
#     4  12  26  45  71 104 144 185 241 297 348 434
#     4  11  24  47  72  97 142 191 231 295 366 415
#     4  12  25  46  73 109 144 191 244 289 364 427
#     4  12  25  45  72 103 147 191 236 301 355 428
#     4  11  24  46  74 102 144 191 235 299 361 424
#     4  12  23  46  74 103 139 192 239 292 360 426
#     4  11  23  46  75 102 144 189 240 295 363 421
#     4  11  24  49  71 104 148 186 234 298 363 423
#
# _framework density 22.894843999999999
#
# number of rings (size 3 to 8) (size 9 to 14) (size 15 to 20)
#    0.000    0.500    6.250    2.250    0.000    3.000 
#   15.750    0.000    0.000    0.000    0.000    0.000 
#    0.000    0.000    0.000    0.000    0.000    0.000 
#
# Total GULP energy -89624.874713 kJ/mol
# GULP energy per Si atom -5601.554670 kJ/mol
# Density = 2.284273 g / cm^3
# Si number density = 22.894844 Si / 1000 Ang^3
#
#
#
# Elastic Constant Matrix: (Units=GPa)
#
#
# Indices 1 2 3 4 5 6 
#
# 1 117.6000 14.3775 9.9205 0.0000 11.7792 0.0000
# 2 14.3775 95.0119 30.0542 0.0000 4.0876 0.0000
# 3 9.9205 30.0542 69.9311 0.0000 -12.0248 0.0000
# 4 0.0000 0.0000 0.0000 44.0040 0.0000 1.4109
# 5 11.7792 4.0876 -12.0248 0.0000 32.9831 0.0000
# 6 0.0000 0.0000 0.0000 1.4109 0.0000 39.5093
#
#
#
# Elastic Compliance Matrix: (Units=1/GPa)
#
#
# Indices 1 2 3 4 5 6 
#
# 1 0.009104 -0.000697 -0.001639 0.000000 -0.003762 0.000000
# 2 -0.000697 0.012660 -0.005941 0.000000 -0.003486 0.000000
# 3 -0.001639 -0.005941 0.018471 0.000000 0.008055 0.000000
# 4 0.000000 0.000000 0.000000 0.022751 0.000000 -0.000812
# 5 -0.003762 -0.003486 0.008055 0.000000 0.035031 0.000000
# 6 0.000000 0.000000 0.000000 -0.000812 0.000000 0.025339
#
#
# Mechanical properties :
#
#
# Convention : Reuss Voigt Hill
#
# Bulk Modulus (GPa) = 42.23032 43.47194 42.85113
# Shear Modulus (GPa) = 33.82859 38.51201 36.17030
#
# Velocity S-wave (km/s) = 3.84808 4.10582 3.97904
# Velocity P-wave (km/s) = 6.18296 6.44251 6.31407
#
# Compressibility (1/GPa) = 0.02367967
#
# Stress axis : x y z
#
# Youngs Moduli (GPa) = 109.84507 78.98987 54.13960
#
# Poissons Ratio (x) = 0.05509 0.08872
# Poissons Ratio (y) = 0.07661 0.32166
# Poissons Ratio (z) = 0.18000 0.46930
#
# Static dielectric constant tensor:
#      x y z
#    x 1.838110 0.000000 0.006420 
#    y 0.000000 1.873800 0.000000 
#    z 0.006420 0.000000 1.843340 
# 
# From -- ./inp_files/24394.got.cif
#   From: 2010.05.17/outbox.cif.g08.bks.cpg/sg9_13_cif.got.tgz:24394.got - 2010.06.03 20:04:27.
