data_PCOD9140907
_publ_section_title
;
Structure prediction by ZEFSAII (Michael W. Deem and Ramdas Pophale) SiO2 
 PCOD9140907
Probable space group: C C
;
_chemical_formula_sum "Si O2"
_cell_formula_units_Z 32
_cell_length_a 13.755018
_cell_length_b 13.324198
_cell_length_c 9.374875
_cell_angle_alpha 90.000000
_cell_angle_beta 56.876999
_cell_angle_gamma 90.000000
_cell_volume 1438.971663
_symmetry_space_group_name_H-M "C C"
_symmetry_group_IT_number 9
_symmetry_cell_setting 'monoclinic'
loop_
_space_group_symop_operation_xyz
x,y,z
x,-y,1/2+z
1/2+x,1/2+y,z
1/2+x,1/2-y,1/2+z
loop_
_atom_site_type_symbol
_atom_site_label
_atom_site_fract_x
_atom_site_fract_y
_atom_site_fract_z
Si Si1 0.257240 0.279960 0.269640
Si Si2 0.066648 0.946742 0.668945
Si Si3 0.535408 0.217392 0.730740
Si Si4 0.279445 0.953842 0.830308
Si Si5 0.913468 0.541703 0.955460
Si Si6 0.616545 0.069054 0.432876
Si Si7 0.245794 0.574020 0.044816
Si Si8 0.937657 0.055359 0.542779
O O1 0.147111 0.287233 0.249284
O O2 0.264299 0.164447 0.313870
O O3 0.248458 0.339047 0.426182
O O4 0.366861 0.339923 0.108929
O O5 0.027562 0.831435 0.682643
O O6 0.184129 0.980647 0.493917
O O7 0.974383 0.020763 0.669477
O O8 0.052656 0.949744 0.851572
O O9 0.555029 0.154481 0.571728
O O10 0.428972 0.157198 0.892524
O O11 0.313177 0.989226 0.645791
O O12 0.394223 0.972810 0.833935
O O13 0.030991 0.515730 0.942212
O O14 0.672011 0.107487 0.241771
O O15 0.698174 0.017497 0.485472
O O16 0.355765 0.527346 0.037635
#
# Coordination Sequence:
#
# PCOD9140907 Si02
#       8
#     4   4   4   4   4   4   4   4
#     4  12  25  46  77 105 139 192 237 298 366 425
#     4  12  28  47  68 104 152 189 235 296 360 429
#     4  12  25  46  77 105 139 192 237 298 366 425
#     4  12  28  47  68 104 152 189 235 296 360 429
#     4  12  23  47  73 100 142 188 241 288 356 431
#     4  12  21  42  73 107 136 172 238 303 352 417
#     4  12  21  42  73 107 136 172 238 303 352 417
#     4  12  23  47  73 100 142 188 241 288 356 431
#
# _framework density 22.238102000000001
#
# number of rings (size 3 to 8) (size 9 to 14) (size 15 to 20)
#    0.000    0.000    7.500    3.000    0.000    3.000 
#    0.000    0.000    0.000    0.000    0.000    0.000 
#    0.000    0.000    0.000    0.000    0.000    0.000 
#
# Total GULP energy -89163.463375 kJ/mol
# GULP energy per Si atom -5572.716461 kJ/mol
# Density = 2.218749 g / cm^3
# Si number density = 22.238102 Si / 1000 Ang^3
#
#
#
# Elastic Constant Matrix: (Units=GPa)
#
#
# Indices 1 2 3 4 5 6 
#
# 1 45.6166 -0.8914 8.2592 0.0000 6.2444 0.0000
# 2 -0.8914 89.2975 25.6305 0.0000 6.9842 0.0000
# 3 8.2592 25.6305 165.3036 0.0000 14.1465 0.0000
# 4 0.0000 0.0000 0.0000 31.5326 0.0000 5.1817
# 5 6.2444 6.9842 14.1465 0.0000 34.8472 0.0000
# 6 0.0000 0.0000 0.0000 5.1817 0.0000 26.2588
#
#
#
# Elastic Compliance Matrix: (Units=1/GPa)
#
#
# Indices 1 2 3 4 5 6 
#
# 1 0.022630 0.000792 -0.000925 0.000000 -0.003838 0.000000
# 2 0.000792 0.011842 -0.001720 0.000000 -0.001817 0.000000
# 3 -0.000925 -0.001720 0.006546 0.000000 -0.002147 0.000000
# 4 0.000000 0.000000 0.000000 0.032776 0.000000 -0.006468
# 5 -0.003838 -0.001817 -0.002147 0.000000 0.030620 0.000000
# 6 0.000000 0.000000 0.000000 -0.006468 0.000000 0.039359
#
#
# Mechanical properties :
#
#
# Convention : Reuss Voigt Hill
#
# Bulk Modulus (GPa) = 26.80141 40.69049 33.74595
# Shear Modulus (GPa) = 31.26602 36.34234 33.80418
#
# Velocity S-wave (km/s) = 3.75369 4.04696 3.90308
# Velocity P-wave (km/s) = 5.55564 6.33834 5.95985
#
# Compressibility (1/GPa) = 0.03731147
#
# Stress axis : x y z
#
# Youngs Moduli (GPa) = 44.18876 84.44321 152.76175
#
# Poissons Ratio (x) = -0.06685 0.14130
# Poissons Ratio (y) = -0.03498 0.26278
# Poissons Ratio (z) = 0.04087 0.14526
#
# Static dielectric constant tensor:
#      x y z
#    x 1.883860 0.000000 -0.117440 
#    y 0.000000 1.809930 0.000000 
#    z -0.117440 0.000000 1.891650 
# 
# From -- ./inp_files/9234.got.cif
#   From: 2010.05.17/outbox.cif.g08.bks.cpg/sg9_5_cif.got.tgz:9234.got - 2010.06.03 20:04:27.
