data_PCOD9140157
_publ_section_title
;
Structure prediction by ZEFSAII (Michael W. Deem and Ramdas Pophale) SiO2 
 PCOD9140157
Probable space group: C C
;
_chemical_formula_sum "Si O2"
_cell_formula_units_Z 32
_cell_length_a 16.222232
_cell_length_b 11.430034
_cell_length_c 9.145441
_cell_angle_alpha 90.000000
_cell_angle_beta 69.476920
_cell_angle_gamma 90.000000
_cell_volume 1588.126014
_symmetry_space_group_name_H-M "C C"
_symmetry_group_IT_number 9
_symmetry_cell_setting 'monoclinic'
loop_
_space_group_symop_operation_xyz
x,y,z
x,-y,1/2+z
1/2+x,1/2+y,z
1/2+x,1/2-y,1/2+z
loop_
_atom_site_type_symbol
_atom_site_label
_atom_site_fract_x
_atom_site_fract_y
_atom_site_fract_z
Si Si1 0.567350 0.269449 0.000000
Si Si2 0.958850 0.579945 0.236434
Si Si3 0.667062 0.671851 0.711753
Si Si4 0.119937 0.583708 0.738432
Si Si5 0.909278 0.134374 0.175571
Si Si6 0.371412 0.886747 0.102333
Si Si7 0.205290 0.610191 0.381019
Si Si8 0.007366 0.004005 0.377714
O O1 0.495574 0.194498 0.133601
O O2 0.649265 0.279887 0.059883
O O3 0.588149 0.199499 0.839634
O O4 0.534782 0.396683 0.976037
O O5 0.898235 0.505256 0.166260
O O6 0.909061 0.610873 0.415673
O O7 0.040327 0.494659 0.225523
O O8 0.766210 0.626209 0.665080
O O9 0.659619 0.778791 0.830633
O O10 0.592215 0.575297 0.787586
O O11 0.184610 0.611219 0.564849
O O12 0.165219 0.505303 0.834078
O O13 0.914767 0.275020 0.157410
O O14 0.808021 0.112350 0.280008
O O15 0.968397 0.072664 0.262523
O O16 0.936277 0.078190 0.003276
#
# Coordination Sequence:
#
# PCOD9140157 Si02
#       8
#     4   4   4   4   4   4   4   4
#     4  12  25  43  69 101 129 186 227 269 341 405
#     4  12  23  46  71 100 136 178 230 281 332 405
#     4  11  26  48  67  99 141 180 226 278 338 408
#     4  12  22  41  75  98 137 176 231 274 342 397
#     4  11  26  46  69 100 140 176 228 279 339 403
#     4  11  27  45  71 102 137 177 228 286 334 392
#     4  11  23  44  70 103 134 177 228 287 332 398
#     4  12  26  45  70  97 140 184 222 272 348 408
#
# _framework density 20.149535
#
# number of rings (size 3 to 8) (size 9 to 14) (size 15 to 20)
#    0.000    0.500    5.000    2.250    5.250    1.000 
#    4.500    0.000    0.000    0.000    0.000    0.000 
#    0.000    0.000    0.000    0.000    0.000    0.000 
#
# Total GULP energy -89516.718155 kJ/mol
# GULP energy per Si atom -5594.794885 kJ/mol
# Density = 2.010367 g / cm^3
# Si number density = 20.149535 Si / 1000 Ang^3
#
#
#
# Elastic Constant Matrix: (Units=GPa)
#
#
# Indices 1 2 3 4 5 6 
#
# 1 68.8932 39.7057 33.3876 0.0000 -2.9608 0.0000
# 2 39.7057 83.2192 21.3072 0.0000 -3.9066 0.0000
# 3 33.3876 21.3072 115.6401 0.0000 -7.6532 0.0000
# 4 0.0000 0.0000 0.0000 42.1624 0.0000 -0.5837
# 5 -2.9608 -3.9066 -7.6532 0.0000 32.0504 0.0000
# 6 0.0000 0.0000 0.0000 -0.5837 0.0000 13.8629
#
#
#
# Elastic Compliance Matrix: (Units=1/GPa)
#
#
# Indices 1 2 3 4 5 6 
#
# 1 0.022197 -0.009400 -0.004691 0.000000 -0.000215 0.000000
# 2 -0.009400 0.016623 -0.000277 0.000000 0.001092 0.000000
# 3 -0.004691 -0.000277 0.010183 0.000000 0.001964 0.000000
# 4 0.000000 0.000000 0.000000 0.023732 0.000000 0.000999
# 5 -0.000215 0.001092 0.001964 0.000000 0.031783 0.000000
# 6 0.000000 0.000000 0.000000 0.000999 0.000000 0.072177
#
#
# Mechanical properties :
#
#
# Convention : Reuss Voigt Hill
#
# Bulk Modulus (GPa) = 49.33837 50.72816 50.03326
# Shear Modulus (GPa) = 23.56428 29.17193 26.36811
#
# Velocity S-wave (km/s) = 3.42346 3.80909 3.62141
# Velocity P-wave (km/s) = 6.33767 6.67653 6.50930
#
# Compressibility (1/GPa) = 0.02026820
#
# Stress axis : x y z
#
# Youngs Moduli (GPa) = 45.05185 60.15639 98.20380
#
# Poissons Ratio (x) = 0.56544 0.46067
# Poissons Ratio (y) = 0.42347 0.02719
# Poissons Ratio (z) = 0.21134 0.01665
#
# Static dielectric constant tensor:
#      x y z
#    x 1.692220 0.000000 0.010040 
#    y 0.000000 1.704810 0.000000 
#    z 0.010040 0.000000 1.689450 
# 
# From -- ./inp_files/9095.got.cif
#   From: 2010.05.17/outbox.cif.g08.bks.cpg/sg9_5_cif.got.tgz:9095.got - 2010.06.03 20:04:27.
