data_PCOD9140075
_publ_section_title
;
Structure prediction by ZEFSAII (Michael W. Deem and Ramdas Pophale) SiO2 
 PCOD9140075
Probable space group: C C
;
_chemical_formula_sum "Si O2"
_cell_formula_units_Z 32
_cell_length_a 5.328476
_cell_length_b 12.724949
_cell_length_c 20.653154
_cell_angle_alpha 90.000000
_cell_angle_beta 97.103659
_cell_angle_gamma 90.000000
_cell_volume 1389.629297
_symmetry_space_group_name_H-M "C C"
_symmetry_group_IT_number 9
_symmetry_cell_setting 'monoclinic'
loop_
_space_group_symop_operation_xyz
x,y,z
x,-y,1/2+z
1/2+x,1/2+y,z
1/2+x,1/2-y,1/2+z
loop_
_atom_site_type_symbol
_atom_site_label
_atom_site_fract_x
_atom_site_fract_y
_atom_site_fract_z
Si Si1 0.784230 0.873021 0.148640
Si Si2 0.965669 0.689228 0.224537
Si Si3 0.852287 0.546298 0.560091
Si Si4 0.753292 0.785202 0.548780
Si Si5 0.721527 0.363356 0.475917
Si Si6 0.058030 0.078122 0.157763
Si Si7 0.124932 0.124658 0.823551
Si Si8 0.603060 0.961602 0.264369
O O1 0.915813 0.760758 0.158262
O O2 0.645087 0.919658 0.081196
O O3 0.585828 0.882080 0.201916
O O4 0.972167 0.963782 0.176133
O O5 0.680381 0.643351 0.219368
O O6 0.069016 0.770679 0.279628
O O7 0.111925 0.579949 0.236346
O O8 0.732562 0.661273 0.562403
O O9 0.755713 0.488031 0.493060
O O10 0.768685 0.460300 0.611335
O O11 0.487433 0.819846 0.511084
O O12 0.982154 0.811495 0.505376
O O13 0.852127 0.852389 0.613631
O O14 0.688821 0.347166 0.399084
O O15 0.360538 0.061494 0.800793
O O16 0.858644 0.063068 0.811358
#
# Coordination Sequence:
#
# PCOD9140075 Si02
#       8
#     4   4   4   4   4   4   4   4
#     4  11  23  40  66 101 141 175 221 279 349 416
#     4  11  23  41  67  98 137 180 225 279 350 409
#     4  11  24  40  68 100 140 180 222 287 350 412
#     4  11  25  43  71 102 133 182 228 283 349 406
#     4  11  26  48  70 100 138 183 240 285 335 413
#     4  11  23  41  63 102 142 178 222 283 352 422
#     4  11  27  48  70  99 138 185 240 285 335 407
#     4  11  25  45  67 100 133 181 224 285 340 407
#
# _framework density 23.027722000000001
#
# number of rings (size 3 to 8) (size 9 to 14) (size 15 to 20)
#    0.000    1.000    3.750    2.250    1.750    7.000 
#    0.000    0.000    0.000    0.000    0.000    0.000 
#    0.000    0.000    0.000    0.000    0.000    0.000 
#
# Total GULP energy -89287.693696 kJ/mol
# GULP energy per Si atom -5580.480856 kJ/mol
# Density = 2.297531 g / cm^3
# Si number density = 23.027722 Si / 1000 Ang^3
#
#
#
# Elastic Constant Matrix: (Units=GPa)
#
#
# Indices 1 2 3 4 5 6 
#
# 1 136.3754 47.3512 40.8087 0.0000 19.0025 0.0000
# 2 47.3512 185.5665 27.8894 0.0000 13.8354 0.0000
# 3 40.8087 27.8894 90.5696 0.0000 19.0628 0.0000
# 4 0.0000 0.0000 0.0000 26.3288 0.0000 9.2791
# 5 19.0025 13.8354 19.0628 0.0000 36.6102 0.0000
# 6 0.0000 0.0000 0.0000 9.2791 0.0000 41.6820
#
#
#
# Elastic Compliance Matrix: (Units=1/GPa)
#
#
# Indices 1 2 3 4 5 6 
#
# 1 0.009198 -0.001694 -0.003091 0.000000 -0.002524 0.000000
# 2 -0.001694 0.006025 -0.000896 0.000000 -0.000931 0.000000
# 3 -0.003091 -0.000896 0.013815 0.000000 -0.005250 0.000000
# 4 0.000000 0.000000 0.000000 0.041215 0.000000 -0.009175
# 5 -0.002524 -0.000931 -0.005250 0.000000 0.031711 0.000000
# 6 0.000000 0.000000 0.000000 -0.009175 0.000000 0.026034
#
#
# Mechanical properties :
#
#
# Convention : Reuss Voigt Hill
#
# Bulk Modulus (GPa) = 56.57708 71.62336 64.10022
# Shear Modulus (GPa) = 34.42294 40.68836 37.55565
#
# Velocity S-wave (km/s) = 3.87052 4.20805 4.04281
# Velocity P-wave (km/s) = 6.67810 7.40141 7.04904
#
# Compressibility (1/GPa) = 0.01767500
#
# Stress axis : x y z
#
# Youngs Moduli (GPa) = 108.72289 165.96680 72.38457
#
# Poissons Ratio (x) = 0.28118 0.22376
# Poissons Ratio (y) = 0.18420 0.06486
# Poissons Ratio (z) = 0.33610 0.14872
#
# Static dielectric constant tensor:
#      x y z
#    x 2.001120 0.000000 -0.029410 
#    y 0.000000 1.864620 0.000000 
#    z -0.029410 0.000000 1.876870 
# 
# From -- ./inp_files/32019.got.cif
#   From: 2010.05.17/outbox.cif.g08.bks.cpg/sg9_17_cif.got.tgz:32019.got - 2010.06.03 20:04:27.
