data_PCOD9140460
_publ_section_title
;
Structure prediction by ZEFSAII (Michael W. Deem and Ramdas Pophale) SiO2 
 PCOD9140460
Probable space group: C C
;
_chemical_formula_sum "Si O2"
_cell_formula_units_Z 32
_cell_length_a 5.980058
_cell_length_b 17.384331
_cell_length_c 14.252326
_cell_angle_alpha 90.000000
_cell_angle_beta 60.976570
_cell_angle_gamma 90.000000
_cell_volume 1295.596882
_symmetry_space_group_name_H-M "C C"
_symmetry_group_IT_number 9
_symmetry_cell_setting 'monoclinic'
loop_
_space_group_symop_operation_xyz
x,y,z
x,-y,1/2+z
1/2+x,1/2+y,z
1/2+x,1/2-y,1/2+z
loop_
_atom_site_type_symbol
_atom_site_label
_atom_site_fract_x
_atom_site_fract_y
_atom_site_fract_z
Si Si1 0.112650 0.426322 0.697460
Si Si2 0.431884 0.150435 0.039023
Si Si3 0.715806 0.803313 0.165693
Si Si4 0.109538 0.595203 0.511118
Si Si5 0.094242 0.002129 0.336247
Si Si6 0.731070 0.795119 0.817089
Si Si7 0.914880 0.154815 0.817735
Si Si8 0.111532 0.011679 0.110491
O O1 0.231930 0.360782 0.738141
O O2 0.320967 0.492081 0.634498
O O3 0.029558 0.387914 0.616555
O O4 0.869413 0.461620 0.802334
O O5 0.366401 0.238069 0.076356
O O6 0.205928 0.094147 0.053330
O O7 0.637354 0.143503 0.916533
O O8 0.495239 0.752670 0.262042
O O9 0.889896 0.843657 0.209951
O O10 0.603881 0.863588 0.113700
O O11 0.357254 0.541447 0.437437
O O12 0.152050 0.664630 0.429148
O O13 0.844858 0.547988 0.547906
O O14 0.081464 0.910280 0.335878
O O15 0.070650 0.018265 0.230218
O O16 0.516563 0.736297 0.828599
#
# Coordination Sequence:
#
# PCOD9140460 Si02
#       8
#     4   4   4   4   4   4   4   4
#     4  11  24  47  83 112 165 204 264 348 399 488
#     4  11  24  45  78 112 151 209 262 326 411 471
#     4  12  27  50  79 118 163 215 270 344 401 493
#     4  12  27  52  85 118 162 225 275 332 423 483
#     4  11  26  51  74 120 156 211 273 326 404 493
#     4  12  26  49  77 121 157 205 278 339 405 491
#     4  12  28  48  78 113 161 207 272 333 401 487
#     4  11  24  50  78 114 161 208 268 330 410 486
#
# _framework density 24.699041999999999
#
# number of rings (size 3 to 8) (size 9 to 14) (size 15 to 20)
#    0.000    0.500    5.000    2.250    3.500    6.000 
#    0.000    0.000    2.750    0.000    0.000    0.000 
#    0.000    0.000    0.000    0.000    0.000    0.000 
#
# Total GULP energy -89562.469332 kJ/mol
# GULP energy per Si atom -5597.654333 kJ/mol
# Density = 2.464283 g / cm^3
# Si number density = 24.699042 Si / 1000 Ang^3
#
#
#
# Elastic Constant Matrix: (Units=GPa)
#
#
# Indices 1 2 3 4 5 6 
#
# 1 83.5242 58.4657 27.5952 0.0000 -17.0950 0.0000
# 2 58.4657 136.5235 52.1104 0.0000 -10.0951 0.0000
# 3 27.5952 52.1104 96.0412 0.0000 -11.6933 0.0000
# 4 0.0000 0.0000 0.0000 41.5605 0.0000 -15.0046
# 5 -17.0950 -10.0951 -11.6933 0.0000 50.5064 0.0000
# 6 0.0000 0.0000 0.0000 -15.0046 0.0000 40.9960
#
#
#
# Elastic Compliance Matrix: (Units=1/GPa)
#
#
# Indices 1 2 3 4 5 6 
#
# 1 0.018160 -0.007139 -0.000792 0.000000 0.004536 0.000000
# 2 -0.007139 0.012069 -0.004628 0.000000 -0.001076 0.000000
# 3 -0.000792 -0.004628 0.013383 0.000000 0.001905 0.000000
# 4 0.000000 0.000000 0.000000 0.027725 0.000000 0.010147
# 5 0.004536 -0.001076 0.001905 0.000000 0.021561 0.000000
# 6 0.000000 0.000000 0.000000 0.010147 0.000000 0.028107
#
#
# Mechanical properties :
#
#
# Convention : Reuss Voigt Hill
#
# Bulk Modulus (GPa) = 54.07339 65.82570 59.94955
# Shear Modulus (GPa) = 32.83259 38.47374 35.65316
#
# Velocity S-wave (km/s) = 3.64992 3.95105 3.80347
# Velocity P-wave (km/s) = 6.30103 6.89372 6.60403
#
# Compressibility (1/GPa) = 0.01849338
#
# Stress axis : x y z
#
# Youngs Moduli (GPa) = 55.06589 82.85593 74.72229
#
# Poissons Ratio (x) = 0.59153 0.05917
# Poissons Ratio (y) = 0.39313 0.34583
# Poissons Ratio (z) = 0.04361 0.38347
#
# Static dielectric constant tensor:
#      x y z
#    x 2.035080 0.000000 -0.030610 
#    y 0.000000 1.982380 0.000000 
#    z -0.030610 0.000000 1.944850 
# 
# From -- ./inp_files/22036.got.cif
#   From: 2010.05.17/outbox.cif.g08.bks.cpg/sg9_12_cif.got.tgz:22036.got - 2010.06.03 20:04:27.
