data_PCOD9140969
_publ_section_title
;
Structure prediction by ZEFSAII (Michael W. Deem and Ramdas Pophale) SiO2 
 PCOD9140969
Probable space group: C C
;
_chemical_formula_sum "Si O2"
_cell_formula_units_Z 20
_cell_length_a 5.163290
_cell_length_b 27.813272
_cell_length_c 5.297615
_cell_angle_alpha 90.000000
_cell_angle_beta 88.085837
_cell_angle_gamma 90.000000
_cell_volume 760.355315
_symmetry_space_group_name_H-M "C C"
_symmetry_group_IT_number 9
_symmetry_cell_setting 'monoclinic'
loop_
_space_group_symop_operation_xyz
x,y,z
x,-y,1/2+z
1/2+x,1/2+y,z
1/2+x,1/2-y,1/2+z
loop_
_atom_site_type_symbol
_atom_site_label
_atom_site_fract_x
_atom_site_fract_y
_atom_site_fract_z
Si Si1 0.319060 0.031332 0.592970
Si Si2 0.170194 0.899391 0.469890
Si Si3 0.751447 0.298029 0.299020
Si Si4 0.261391 0.306918 0.010269
Si Si5 0.674587 0.911026 0.786629
O O1 0.177318 0.081032 0.681399
O O2 0.605551 0.052035 0.513847
O O3 0.268659 0.000020 0.345347
O O4 0.154459 0.841578 0.476667
O O5 0.436575 0.913040 0.598236
O O6 0.932091 0.921669 0.625881
O O7 0.700689 0.243519 0.379110
O O8 0.564676 0.305653 0.065454
O O9 0.057327 0.305813 0.249622
O O10 0.192632 0.356511 0.880070
#
# Coordination Sequence:
#
# PCOD9140969 Si02
#       5
#     4   4   4   4   4
#     4  12  28  54  82 118 158 212 270 336 400 470
#     4  12  27  50  79 113 159 204 266 330 397 474
#     4  12  24  43  72 111 158 206 261 321 393 476
#     4  12  24  43  72 111 158 206 261 321 393 476
#     4  12  27  50  79 113 159 204 266 330 397 474
#
# _framework density 26.303491999999999
#
# number of rings (size 3 to 8) (size 9 to 14) (size 15 to 20)
#    0.000    0.000    4.000    6.000    0.000    1.600 
#    0.000    0.000    0.000    0.000    0.000    0.000 
#    0.000    0.000    0.000    0.000    0.000    0.000 
#
# Total GULP energy -55975.723495 kJ/mol
# GULP energy per Si atom -5597.572350 kJ/mol
# Density = 2.624362 g / cm^3
# Si number density = 26.303492 Si / 1000 Ang^3
#
#
#
# Elastic Constant Matrix: (Units=GPa)
#
#
# Indices 1 2 3 4 5 6 
#
# 1 109.4513 22.8614 31.6404 0.0000 -11.2765 0.0000
# 2 22.8614 154.4230 54.6538 0.0000 3.3048 0.0000
# 3 31.6404 54.6538 134.2595 0.0000 -20.4744 0.0000
# 4 0.0000 0.0000 0.0000 61.5894 0.0000 -1.1230
# 5 -11.2765 3.3048 -20.4744 0.0000 53.7065 0.0000
# 6 0.0000 0.0000 0.0000 -1.1230 0.0000 35.5548
#
#
#
# Elastic Compliance Matrix: (Units=1/GPa)
#
#
# Indices 1 2 3 4 5 6 
#
# 1 0.009984 -0.000884 -0.001768 0.000000 0.001477 0.000000
# 2 -0.000884 0.007800 -0.003258 0.000000 -0.001908 0.000000
# 3 -0.001768 -0.003258 0.009731 0.000000 0.003539 0.000000
# 4 0.000000 0.000000 0.000000 0.016246 0.000000 0.000513
# 5 0.001477 -0.001908 0.003539 0.000000 0.020396 0.000000
# 6 0.000000 0.000000 0.000000 0.000513 0.000000 0.028142
#
#
# Mechanical properties :
#
#
# Convention : Reuss Voigt Hill
#
# Bulk Modulus (GPa) = 63.71103 68.49389 66.10246
# Shear Modulus (GPa) = 45.72415 49.43536 47.57975
#
# Velocity S-wave (km/s) = 4.17385 4.33993 4.25770
# Velocity P-wave (km/s) = 6.89218 7.15610 7.02538
#
# Compressibility (1/GPa) = 0.01569587
#
# Stress axis : x y z
#
# Youngs Moduli (GPa) = 100.15675 128.19711 102.76631
#
# Poissons Ratio (x) = 0.11333 0.18168
# Poissons Ratio (y) = 0.08854 0.33481
# Poissons Ratio (z) = 0.17707 0.41766
#
# Static dielectric constant tensor:
#      x y z
#    x 2.010910 0.000000 0.030680 
#    y 0.000000 2.098100 0.000000 
#    z 0.030680 0.000000 2.121410 
# 
# From -- ./inp_files/250.got.cif
#   From: 2010.05.17/outbox.cif.g08.bks.cpg/sg9_1_cif.got.tgz:250.got - 2010.06.03 20:04:27.
