data_PCOD9140362
_publ_section_title
;
Structure prediction by ZEFSAII (Michael W. Deem and Ramdas Pophale) SiO2 
 PCOD9140362
Probable space group: C C
;
_chemical_formula_sum "Si O2"
_cell_formula_units_Z 24
_cell_length_a 12.942682
_cell_length_b 9.285937
_cell_length_c 8.898662
_cell_angle_alpha 90.000000
_cell_angle_beta 82.578853
_cell_angle_gamma 90.000000
_cell_volume 1060.526587
_symmetry_space_group_name_H-M "C C"
_symmetry_group_IT_number 9
_symmetry_cell_setting 'monoclinic'
loop_
_space_group_symop_operation_xyz
x,y,z
x,-y,1/2+z
1/2+x,1/2+y,z
1/2+x,1/2-y,1/2+z
loop_
_atom_site_type_symbol
_atom_site_label
_atom_site_fract_x
_atom_site_fract_y
_atom_site_fract_z
Si Si1 0.065940 0.616161 0.527210
Si Si2 0.191382 0.418194 0.296298
Si Si3 0.526517 0.436361 0.535783
Si Si4 0.356117 0.094321 0.746256
Si Si5 0.391568 0.399915 0.840767
Si Si6 0.732692 0.626042 0.467607
O O1 0.098581 0.507752 0.391612
O O2 0.159001 0.620469 0.632838
O O3 0.045103 0.776363 0.468466
O O4 0.963801 0.568571 0.638008
O O5 0.292941 0.518094 0.290216
O O6 0.209677 0.276563 0.392156
O O7 0.491987 0.410964 0.713023
O O8 0.429724 0.518298 0.480045
O O9 0.628694 0.531061 0.499477
O O10 0.367641 0.231027 0.854696
O O11 0.278150 0.140472 0.626572
O O12 0.313425 0.960468 0.847077
#
# Coordination Sequence:
#
# PCOD9140362 Si02
#       6
#     4   4   4   4   4   4
#     4  11  24  43  64  94 130 171 217 268 323 386
#     4  12  24  41  66  97 130 170 216 270 325 384
#     4  11  24  44  66  93 129 173 218 266 324 388
#     4  11  24  43  64  94 130 171 217 268 323 386
#     4  11  24  44  66  93 129 173 218 266 324 388
#     4  12  24  41  66  97 130 170 216 270 325 384
#
# _framework density 22.630268999999998
#
# number of rings (size 3 to 8) (size 9 to 14) (size 15 to 20)
#    0.000    0.667    0.000   10.000    0.000    4.000 
#    0.000    0.000    0.000    0.000    0.000    0.000 
#    0.000    0.000    0.000    0.000    0.000    0.000 
#
# Total GULP energy -67232.419787 kJ/mol
# GULP energy per Si atom -5602.701649 kJ/mol
# Density = 2.257876 g / cm^3
# Si number density = 22.630269 Si / 1000 Ang^3
#
#
#
# Elastic Constant Matrix: (Units=GPa)
#
#
# Indices 1 2 3 4 5 6 
#
# 1 92.2913 18.6547 -4.1905 0.0000 -9.6538 0.0000
# 2 18.6547 125.7286 27.2996 0.0000 -21.7052 0.0000
# 3 -4.1905 27.2996 46.0447 0.0000 13.7097 0.0000
# 4 0.0000 0.0000 0.0000 33.1786 0.0000 -2.8451
# 5 -9.6538 -21.7052 13.7097 0.0000 47.2584 0.0000
# 6 0.0000 0.0000 0.0000 -2.8451 0.0000 31.6994
#
#
#
# Elastic Compliance Matrix: (Units=1/GPa)
#
#
# Indices 1 2 3 4 5 6 
#
# 1 0.011412 -0.001967 0.001948 0.000000 0.000862 0.000000
# 2 -0.001967 0.011584 -0.009316 0.000000 0.007621 0.000000
# 3 0.001948 -0.009316 0.031276 0.000000 -0.012954 0.000000
# 4 0.000000 0.000000 0.000000 0.030374 0.000000 0.002726
# 5 0.000862 0.007621 -0.012954 0.000000 0.028595 0.000000
# 6 0.000000 0.000000 0.000000 0.002726 0.000000 0.031791
#
#
# Mechanical properties :
#
#
# Convention : Reuss Voigt Hill
#
# Bulk Modulus (GPa) = 28.08936 38.62135 33.35535
# Shear Modulus (GPa) = 28.47883 37.24732 32.86308
#
# Velocity S-wave (km/s) = 3.55130 4.06138 3.81487
# Velocity P-wave (km/s) = 5.40878 6.25271 5.84599
#
# Compressibility (1/GPa) = 0.03560067
#
# Stress axis : x y z
#
# Youngs Moduli (GPa) = 87.63033 86.32515 31.97344
#
# Poissons Ratio (x) = 0.16983 -0.06229
# Poissons Ratio (y) = 0.17240 0.29788
# Poissons Ratio (z) = -0.17072 0.80424
#
# Static dielectric constant tensor:
#      x y z
#    x 1.850870 0.000000 0.012330 
#    y 0.000000 1.807060 0.000000 
#    z 0.012330 0.000000 1.817540 
# 
# From -- ./inp_files/6718.got.cif
#   From: 2010.05.17/outbox.cif.g08.bks.cpg/sg9_4_cif.got.tgz:6718.got - 2010.06.03 20:04:27.
