data_PCOD9140869
_publ_section_title
;
Structure prediction by ZEFSAII (Michael W. Deem and Ramdas Pophale) SiO2 
 PCOD9140869
Probable space group: C C
;
_chemical_formula_sum "Si O2"
_cell_formula_units_Z 28
_cell_length_a 15.073025
_cell_length_b 7.881648
_cell_length_c 15.647878
_cell_angle_alpha 90.000000
_cell_angle_beta 143.397199
_cell_angle_gamma 90.000000
_cell_volume 1108.438453
_symmetry_space_group_name_H-M "C C"
_symmetry_group_IT_number 9
_symmetry_cell_setting 'monoclinic'
loop_
_space_group_symop_operation_xyz
x,y,z
x,-y,1/2+z
1/2+x,1/2+y,z
1/2+x,1/2-y,1/2+z
loop_
_atom_site_type_symbol
_atom_site_label
_atom_site_fract_x
_atom_site_fract_y
_atom_site_fract_z
Si Si1 0.155350 0.654006 0.804500
Si Si2 0.448271 0.786661 0.488845
Si Si3 0.335700 0.127731 0.332713
Si Si4 0.472332 0.588343 0.261336
Si Si5 0.241517 0.578793 0.225356
Si Si6 0.110660 0.868519 0.503505
Si Si7 0.802460 0.148172 0.526200
O O1 0.268525 0.807773 0.870982
O O2 0.017912 0.742636 0.746264
O O3 0.151771 0.571119 0.705565
O O4 0.214993 0.502504 0.910004
O O5 0.381815 0.622235 0.392638
O O6 0.621587 0.772563 0.639200
O O7 0.355172 0.794829 0.503101
O O8 0.420622 0.950229 0.409102
O O9 0.204838 0.104088 0.162154
O O10 0.451387 0.274981 0.393886
O O11 0.312136 0.584949 0.186051
O O12 0.588073 0.529808 0.423534
O O13 0.452242 0.437291 0.178236
O O14 0.205542 0.732430 0.523664
#
# Coordination Sequence:
#
# PCOD9140869 Si02
#       7
#     4   4   4   4   4   4   4
#     4  11  27  46  78 112 153 201 263 324 390 472
#     4  11  28  46  79 104 157 205 253 323 393 464
#     4  12  26  48  78 110 153 208 254 319 399 461
#     4  12  27  48  79 113 156 206 260 324 392 476
#     4  11  27  52  71 117 153 207 262 321 396 473
#     4  12  26  50  77 113 157 203 258 330 390 474
#     4  11  27  50  72 115 155 194 266 325 388 478
#
# _framework density 25.260762
#
# number of rings (size 3 to 8) (size 9 to 14) (size 15 to 20)
#    0.000    0.571    2.857    2.571   16.000    0.000 
#    0.000    0.000    0.000    0.000    0.000    0.000 
#    0.000    0.000    0.000    0.000    0.000    0.000 
#
# Total GULP energy -78270.697935 kJ/mol
# GULP energy per Si atom -5590.764138 kJ/mol
# Density = 2.520327 g / cm^3
# Si number density = 25.260762 Si / 1000 Ang^3
#
#
#
# Elastic Constant Matrix: (Units=GPa)
#
#
# Indices 1 2 3 4 5 6 
#
# 1 138.6361 58.0030 21.9550 0.0000 -0.0537 0.0000
# 2 58.0030 99.8856 20.5881 0.0000 -4.0168 0.0000
# 3 21.9550 20.5881 90.9800 0.0000 1.9365 0.0000
# 4 0.0000 0.0000 0.0000 30.5309 0.0000 6.0236
# 5 -0.0537 -4.0168 1.9365 0.0000 24.6790 0.0000
# 6 0.0000 0.0000 0.0000 6.0236 0.0000 49.2291
#
#
#
# Elastic Compliance Matrix: (Units=1/GPa)
#
#
# Indices 1 2 3 4 5 6 
#
# 1 0.009648 -0.005410 -0.001088 0.000000 -0.000774 0.000000
# 2 -0.005410 0.013624 -0.001828 0.000000 0.002349 0.000000
# 3 -0.001088 -0.001828 0.011693 0.000000 -0.001217 0.000000
# 4 0.000000 0.000000 0.000000 0.033564 0.000000 -0.004107
# 5 -0.000774 0.002349 -0.001217 0.000000 0.040997 0.000000
# 6 0.000000 0.000000 0.000000 -0.004107 0.000000 0.020816
#
#
# Mechanical properties :
#
#
# Convention : Reuss Voigt Hill
#
# Bulk Modulus (GPa) = 54.59737 58.95488 56.77612
# Shear Modulus (GPa) = 32.65899 36.15150 34.40525
#
# Velocity S-wave (km/s) = 3.59956 3.78714 3.69454
# Velocity P-wave (km/s) = 6.23989 6.52015 6.38156
#
# Compressibility (1/GPa) = 0.01831590
#
# Stress axis : x y z
#
# Youngs Moduli (GPa) = 103.64402 73.39990 85.51856
#
# Poissons Ratio (x) = 0.39707 0.09302
# Poissons Ratio (y) = 0.56068 0.15629
# Poissons Ratio (z) = 0.11273 0.13414
#
# Static dielectric constant tensor:
#      x y z
#    x 2.026510 0.000000 -0.003220 
#    y 0.000000 2.039130 0.000000 
#    z -0.003220 0.000000 1.999930 
# 
# From -- ./inp_files/25759.got.cif
#   From: 2010.05.17/outbox.cif.g08.bks.cpg/sg9_13_cif.got.tgz:25759.got - 2010.06.03 20:04:27.
