data_PCOD9140165
_publ_section_title
;
Structure prediction by ZEFSAII (Michael W. Deem and Ramdas Pophale) SiO2 
 PCOD9140165
Probable space group: C C
;
_chemical_formula_sum "Si O2"
_cell_formula_units_Z 32
_cell_length_a 15.213349
_cell_length_b 13.989634
_cell_length_c 12.970867
_cell_angle_alpha 90.000000
_cell_angle_beta 151.914090
_cell_angle_gamma 90.000000
_cell_volume 1299.666638
_symmetry_space_group_name_H-M "C C"
_symmetry_group_IT_number 9
_symmetry_cell_setting 'monoclinic'
loop_
_space_group_symop_operation_xyz
x,y,z
x,-y,1/2+z
1/2+x,1/2+y,z
1/2+x,1/2-y,1/2+z
loop_
_atom_site_type_symbol
_atom_site_label
_atom_site_fract_x
_atom_site_fract_y
_atom_site_fract_z
Si Si1 0.472040 0.665166 0.090700
Si Si2 0.288405 0.579819 0.230405
Si Si3 0.116940 0.346270 0.348682
Si Si4 0.097690 0.048737 0.933741
Si Si5 0.345065 0.705885 0.748101
Si Si6 0.001772 0.479817 0.608252
Si Si7 0.089000 0.952088 0.181337
Si Si8 0.978131 0.386392 0.795379
O O1 0.582529 0.736670 0.280403
O O2 0.556554 0.567077 0.133355
O O3 0.306647 0.625667 0.988897
O O4 0.380164 0.729239 0.904190
O O5 0.444806 0.524263 0.322111
O O6 0.441814 0.616856 0.472200
O O7 0.148182 0.526771 0.166315
O O8 0.158444 0.634901 0.012684
O O9 0.977780 0.417174 0.142154
O O10 0.027971 0.145747 0.911822
O O11 0.073498 0.058887 0.786989
O O12 0.323452 0.038189 0.177791
O O13 0.357915 0.789883 0.678698
O O14 0.161482 0.641226 0.549259
O O15 0.801682 0.438665 0.367849
O O16 0.053391 0.415983 0.761954
#
# Coordination Sequence:
#
# PCOD9140165 Si02
#       8
#     4   4   4   4   4   4   4   4
#     4  12  25  44  70 110 145 187 240 319 381 441
#     4  12  23  47  73 102 146 206 246 303 385 460
#     4  12  26  46  72 107 156 190 250 324 381 449
#     4  11  23  44  72 107 143 193 253 316 377 453
#     4  12  22  43  73 110 149 183 243 327 387 433
#     4  11  26  47  72 107 144 200 257 307 373 470
#     4  11  24  46  75 104 144 196 257 304 375 466
#     4  11  25  41  73 113 145 189 252 318 381 450
#
# _framework density 24.621697999999999
#
# number of rings (size 3 to 8) (size 9 to 14) (size 15 to 20)
#    0.000    0.500    5.000    3.000    0.000    6.000 
#    2.250    2.500    0.000    0.000    0.000    0.000 
#    0.000    0.000    0.000    0.000    0.000    0.000 
#
# Total GULP energy -89118.261578 kJ/mol
# GULP energy per Si atom -5569.891349 kJ/mol
# Density = 2.456566 g / cm^3
# Si number density = 24.621698 Si / 1000 Ang^3
#
#
#
# Elastic Constant Matrix: (Units=GPa)
#
#
# Indices 1 2 3 4 5 6 
#
# 1 147.4188 18.7890 40.0396 0.0000 -7.6577 0.0000
# 2 18.7890 42.8021 13.5373 -0.0001 -24.2504 -0.0001
# 3 40.0396 13.5373 119.2611 -0.0001 -5.2742 -0.0001
# 4 0.0000 -0.0001 -0.0001 34.5235 -0.0001 -3.9641
# 5 -7.6577 -24.2504 -5.2742 -0.0001 51.2944 0.0000
# 6 0.0000 -0.0001 -0.0001 -3.9641 0.0000 19.6546
#
#
#
# Elastic Compliance Matrix: (Units=1/GPa)
#
#
# Indices 1 2 3 4 5 6 
#
# 1 0.007757 -0.002947 -0.002290 0.000000 -0.000471 0.000000
# 2 -0.002947 0.034112 -0.002199 0.000000 0.015461 0.000000
# 3 -0.002290 -0.002199 0.009385 0.000000 -0.000416 0.000000
# 4 0.000000 0.000000 0.000000 0.029653 0.000000 0.005980
# 5 -0.000471 0.015461 -0.000416 0.000000 0.026692 0.000000
# 6 0.000000 0.000000 0.000000 0.005980 0.000000 0.052085
#
#
# Mechanical properties :
#
#
# Convention : Reuss Voigt Hill
#
# Bulk Modulus (GPa) = 27.48693 50.46821 38.97757
# Shear Modulus (GPa) = 26.78332 36.90225 31.84278
#
# Velocity S-wave (km/s) = 3.30175 3.87559 3.60012
# Velocity P-wave (km/s) = 5.07182 6.36937 5.75727
#
# Compressibility (1/GPa) = 0.03638093
#
# Stress axis : x y z
#
# Youngs Moduli (GPa) = 128.92123 29.31485 106.55192
#
# Poissons Ratio (x) = 0.08640 0.24405
# Poissons Ratio (y) = 0.37998 0.23429
# Poissons Ratio (z) = 0.29528 0.06446
#
# Static dielectric constant tensor:
#      x y z
#    x 1.952070 0.000000 -0.018450 
#    y 0.000000 2.037300 0.000000 
#    z -0.018450 0.000000 2.083530 
# 
# From -- ./inp_files/18550.got.cif
#   From: 2010.05.17/outbox.cif.g08.bks.cpg/sg9_10_cif.got.tgz:18550.got - 2010.06.03 20:04:27.
