data_PCOD9140496
_publ_section_title
;
Structure prediction by ZEFSAII (Michael W. Deem and Ramdas Pophale) SiO2 
 PCOD9140496
Probable space group: C C
;
_chemical_formula_sum "Si O2"
_cell_formula_units_Z 28
_cell_length_a 9.431156
_cell_length_b 13.908547
_cell_length_c 20.733359
_cell_angle_alpha 90.000000
_cell_angle_beta 154.057572
_cell_angle_gamma 90.000000
_cell_volume 1189.768453
_symmetry_space_group_name_H-M "C C"
_symmetry_group_IT_number 9
_symmetry_cell_setting 'monoclinic'
loop_
_space_group_symop_operation_xyz
x,y,z
x,-y,1/2+z
1/2+x,1/2+y,z
1/2+x,1/2-y,1/2+z
loop_
_atom_site_type_symbol
_atom_site_label
_atom_site_fract_x
_atom_site_fract_y
_atom_site_fract_z
Si Si1 0.294530 0.875397 0.329530
Si Si2 0.219766 0.436415 0.737107
Si Si3 0.694719 0.622011 0.127955
Si Si4 0.101127 0.237761 0.355499
Si Si5 0.893822 0.312212 0.851643
Si Si6 0.344310 0.489097 0.063341
Si Si7 0.656281 0.381483 0.415240
O O1 0.345166 0.803656 0.290361
O O2 0.141385 0.847991 0.334431
O O3 0.108080 0.966306 0.224444
O O4 0.639970 0.916027 0.492347
O O5 0.530541 0.366221 0.857058
O O6 0.367349 0.541985 0.807327
O O7 0.990037 0.398809 0.700869
O O8 0.988325 0.427355 0.579181
O O9 0.808853 0.653204 0.245449
O O10 0.512132 0.518679 0.064300
O O11 0.438383 0.704600 0.002863
O O12 0.096769 0.216572 0.277251
O O13 0.101626 0.215687 0.931449
O O14 0.115828 0.396386 0.971382
#
# Coordination Sequence:
#
# PCOD9140496 Si02
#       7
#     4   4   4   4   4   4   4
#     4  11  24  47  73 107 146 195 244 310 375 451
#     4  12  28  50  73 114 157 202 258 318 381 460
#     4  11  27  50  75 114 146 210 248 325 390 453
#     4  11  27  49  74 107 153 190 261 307 381 466
#     4  12  26  46  76 108 146 195 256 312 384 449
#     4  11  24  46  75 103 145 191 254 303 382 452
#     4  12  28  46  76 113 153 203 255 313 383 451
#
# _framework density 23.533989999999999
#
# number of rings (size 3 to 8) (size 9 to 14) (size 15 to 20)
#    0.000    0.571    2.857    3.429   12.000    0.000 
#    2.571    0.000    0.000    0.000    0.000    0.000 
#    0.000    0.000    0.000    0.000    0.000    0.000 
#
# Total GULP energy -78156.575991 kJ/mol
# GULP energy per Si atom -5582.612571 kJ/mol
# Density = 2.348043 g / cm^3
# Si number density = 23.533990 Si / 1000 Ang^3
#
#
#
# Elastic Constant Matrix: (Units=GPa)
#
#
# Indices 1 2 3 4 5 6 
#
# 1 170.0020 35.7673 26.1764 -0.0001 0.4328 0.0001
# 2 35.7673 104.8043 26.3661 0.0015 11.2776 0.0013
# 3 26.1764 26.3661 69.9578 0.0134 -1.5792 0.0006
# 4 -0.0001 0.0015 0.0134 32.8138 0.0041 0.7022
# 5 0.4328 11.2776 -1.5792 0.0041 27.1447 0.0001
# 6 0.0001 0.0013 0.0006 0.7022 0.0001 29.0964
#
#
#
# Elastic Compliance Matrix: (Units=1/GPa)
#
#
# Indices 1 2 3 4 5 6 
#
# 1 0.006538 -0.001856 -0.001734 0.000001 0.000566 0.000000
# 2 -0.001856 0.011679 -0.003821 0.000002 -0.005045 0.000000
# 3 -0.001734 -0.003821 0.016441 -0.000007 0.002572 0.000000
# 4 0.000001 0.000002 -0.000007 0.030491 -0.000006 -0.000736
# 5 0.000566 -0.005045 0.002572 -0.000006 0.039076 0.000000
# 6 0.000000 0.000000 0.000000 -0.000736 0.000000 0.034386
#
#
# Mechanical properties :
#
#
# Convention : Reuss Voigt Hill
#
# Bulk Modulus (GPa) = 50.41275 57.93153 54.17214
# Shear Modulus (GPa) = 31.24085 34.90794 33.07439
#
# Velocity S-wave (km/s) = 3.64741 3.85554 3.75292
# Velocity P-wave (km/s) = 6.26146 6.67007 6.46899
#
# Compressibility (1/GPa) = 0.01983625
#
# Stress axis : x y z
#
# Youngs Moduli (GPa) = 152.94349 85.62244 60.82208
#
# Poissons Ratio (x) = 0.15892 0.10548
# Poissons Ratio (y) = 0.28387 0.23241
# Poissons Ratio (z) = 0.26523 0.32717
#
# Static dielectric constant tensor:
#      x y z
#    x 1.986360 0.000000 0.058530 
#    y 0.000000 1.889440 0.000000 
#    z 0.058530 0.000000 1.898090 
# 
# From -- ./inp_files/32764.got.cif
#   From: 2010.05.17/outbox.cif.g08.bks.cpg/sg9_17_cif.got.tgz:32764.got - 2010.06.03 20:04:27.
