data_PCOD9140596
_publ_section_title
;
Structure prediction by ZEFSAII (Michael W. Deem and Ramdas Pophale) SiO2 
 PCOD9140596
Probable space group: C C
;
_chemical_formula_sum "Si O2"
_cell_formula_units_Z 20
_cell_length_a 17.406368
_cell_length_b 7.031026
_cell_length_c 14.281411
_cell_angle_alpha 90.000000
_cell_angle_beta 155.491769
_cell_angle_gamma 90.000000
_cell_volume 725.039750
_symmetry_space_group_name_H-M "C C"
_symmetry_group_IT_number 9
_symmetry_cell_setting 'monoclinic'
loop_
_space_group_symop_operation_xyz
x,y,z
x,-y,1/2+z
1/2+x,1/2+y,z
1/2+x,1/2-y,1/2+z
loop_
_atom_site_type_symbol
_atom_site_label
_atom_site_fract_x
_atom_site_fract_y
_atom_site_fract_z
Si Si1 0.455980 0.071205 0.286610
Si Si2 0.086404 0.099625 0.309051
Si Si3 0.368537 0.492676 0.244390
Si Si4 0.540771 0.015541 0.171842
Si Si5 0.161552 0.852585 0.212616
O O1 0.420538 0.559720 0.196961
O O2 0.410329 0.265601 0.289737
O O3 0.653538 0.981334 0.533227
O O4 0.274751 0.938688 0.078323
O O5 0.001583 0.618064 0.228041
O O6 0.098317 0.954936 0.237473
O O7 0.507572 0.602465 0.465767
O O8 0.069781 0.698965 0.737469
O O9 0.685310 0.133829 0.271026
O O10 0.354515 0.044378 0.904442
#
# Coordination Sequence:
#
# PCOD9140596 Si02
#       5
#     4   4   4   4   4
#     4  11  24  49  84 118 167 215 281 338 417 505
#     4  11  27  52  83 115 166 229 272 348 411 498
#     4  12  25  51  84 124 170 217 272 349 426 493
#     4  11  26  53  76 114 167 216 282 336 410 493
#     4  11  28  51  79 119 166 215 277 351 412 503
#
# _framework density 27.584692
#
# number of rings (size 3 to 8) (size 9 to 14) (size 15 to 20)
#    0.000    0.800    4.000    1.200    8.400    1.600 
#    7.200    0.000    0.000    0.000    0.000    0.000 
#    0.000    0.000    0.000    0.000    0.000    0.000 
#
# Total GULP energy -56075.251520 kJ/mol
# GULP energy per Si atom -5607.525152 kJ/mol
# Density = 2.752191 g / cm^3
# Si number density = 27.584692 Si / 1000 Ang^3
#
#
#
# Elastic Constant Matrix: (Units=GPa)
#
#
# Indices 1 2 3 4 5 6 
#
# 1 88.3480 51.8438 31.8144 0.0001 11.2384 0.0000
# 2 51.8438 180.9396 32.7807 0.0001 15.1334 0.0000
# 3 31.8144 32.7807 170.5964 0.0001 26.5281 0.0001
# 4 0.0001 0.0001 0.0001 38.8879 0.0001 -4.2583
# 5 11.2384 15.1334 26.5281 0.0001 58.6395 0.0000
# 6 0.0000 0.0000 0.0001 -4.2583 0.0000 47.2171
#
#
#
# Elastic Compliance Matrix: (Units=1/GPa)
#
#
# Indices 1 2 3 4 5 6 
#
# 1 0.014247 -0.003675 -0.001800 0.000000 -0.000968 0.000000
# 2 -0.003675 0.006735 -0.000482 0.000000 -0.000816 0.000000
# 3 -0.001800 -0.000482 0.006688 0.000000 -0.002556 0.000000
# 4 0.000000 0.000000 0.000000 0.025971 0.000000 0.002342
# 5 -0.000968 -0.000816 -0.002556 0.000000 0.018606 0.000000
# 6 0.000000 0.000000 0.000000 0.002342 0.000000 0.021390
#
#
# Mechanical properties :
#
#
# Convention : Reuss Voigt Hill
#
# Bulk Modulus (GPa) = 63.47127 74.75130 69.11129
# Shear Modulus (GPa) = 45.12521 50.51192 47.81856
#
# Velocity S-wave (km/s) = 4.04899 4.28385 4.16807
# Velocity P-wave (km/s) = 6.70214 7.18513 6.94783
#
# Compressibility (1/GPa) = 0.01575516
#
# Stress axis : x y z
#
# Youngs Moduli (GPa) = 70.19135 148.47285 149.53054
#
# Poissons Ratio (x) = 0.54564 0.26919
# Poissons Ratio (y) = 0.25795 0.07207
# Poissons Ratio (z) = 0.12636 0.07156
#
# Static dielectric constant tensor:
#      x y z
#    x 2.090330 0.000000 0.062220 
#    y 0.000000 2.170510 0.000000 
#    z 0.062220 0.000000 2.262800 
# 
# From -- ./inp_files/6807.got.cif
#   From: 2010.05.17/outbox.cif.g08.bks.cpg/sg9_4_cif.got.tgz:6807.got - 2010.06.03 20:04:27.
