data_PCOD9140328
_publ_section_title
;
Structure prediction by ZEFSAII (Michael W. Deem and Ramdas Pophale) SiO2 
 PCOD9140328
Probable space group: C C
;
_chemical_formula_sum "Si O2"
_cell_formula_units_Z 32
_cell_length_a 9.759139
_cell_length_b 10.894940
_cell_length_c 13.883215
_cell_angle_alpha 90.000000
_cell_angle_beta 68.638972
_cell_angle_gamma 90.000000
_cell_volume 1374.731121
_symmetry_space_group_name_H-M "C C"
_symmetry_group_IT_number 9
_symmetry_cell_setting 'monoclinic'
loop_
_space_group_symop_operation_xyz
x,y,z
x,-y,1/2+z
1/2+x,1/2+y,z
1/2+x,1/2-y,1/2+z
loop_
_atom_site_type_symbol
_atom_site_label
_atom_site_fract_x
_atom_site_fract_y
_atom_site_fract_z
Si Si1 0.367070 0.869978 0.751490
Si Si2 0.794217 0.729138 0.553079
Si Si3 0.062005 0.611361 0.011561
Si Si4 0.100344 0.197153 0.790839
Si Si5 0.538735 0.587961 0.302500
Si Si6 0.558542 0.354652 0.576298
Si Si7 0.719758 0.851915 0.945075
Si Si8 0.342625 0.982653 0.436225
O O1 0.450393 0.896362 0.630852
O O2 0.456397 0.764357 0.784211
O O3 0.194282 0.845548 0.782973
O O4 0.374297 0.988861 0.818148
O O5 0.673430 0.780640 0.510223
O O6 0.717262 0.698767 0.673783
O O7 0.865400 0.607675 0.490877
O O8 0.916471 0.830066 0.547285
O O9 0.156363 0.488661 0.970212
O O10 0.954537 0.617012 0.948160
O O11 0.165302 0.275785 0.863611
O O12 0.062890 0.055862 0.819068
O O13 0.514449 0.603742 0.193798
O O14 0.394640 0.634430 0.393453
O O15 0.650903 0.227183 0.550014
O O16 0.675011 0.448626 0.501480
#
# Coordination Sequence:
#
# PCOD9140328 Si02
#       8
#     4   4   4   4   4   4   4   4
#     4  11  25  46  74 106 145 200 247 305 371 443
#     4  11  24  46  75 104 148 194 249 307 366 444
#     4  11  25  46  73 109 145 191 253 304 369 444
#     4  11  23  50  75 100 144 200 245 305 376 435
#     4  12  27  49  72 109 147 195 252 308 370 452
#     4  12  25  46  72 108 148 195 241 313 374 435
#     4  12  27  46  75 110 149 192 251 310 376 444
#     4  12  24  47  74 102 152 199 242 306 378 439
#
# _framework density 23.277280999999999
#
# number of rings (size 3 to 8) (size 9 to 14) (size 15 to 20)
#    0.000    0.500    6.250    0.750    5.250    2.000 
#    2.250    0.000    0.000    0.000    0.000    0.000 
#    0.000    0.000    0.000    0.000    0.000    0.000 
#
# Total GULP energy -89581.068416 kJ/mol
# GULP energy per Si atom -5598.816776 kJ/mol
# Density = 2.322430 g / cm^3
# Si number density = 23.277281 Si / 1000 Ang^3
#
#
#
# Elastic Constant Matrix: (Units=GPa)
#
#
# Indices 1 2 3 4 5 6 
#
# 1 148.0117 28.6787 23.5090 0.0000 -13.1619 0.0000
# 2 28.6787 90.1048 15.5556 0.0000 0.2296 0.0000
# 3 23.5090 15.5556 55.2447 0.0000 -17.0044 0.0000
# 4 0.0000 0.0000 0.0000 39.9289 0.0000 -3.2310
# 5 -13.1619 0.2296 -17.0044 0.0000 40.0423 0.0000
# 6 0.0000 0.0000 0.0000 -3.2310 0.0000 39.9699
#
#
#
# Elastic Compliance Matrix: (Units=1/GPa)
#
#
# Indices 1 2 3 4 5 6 
#
# 1 0.007644 -0.002061 -0.002181 0.000000 0.001598 0.000000
# 2 -0.002061 0.012320 -0.003247 0.000000 -0.002127 0.000000
# 3 -0.002181 -0.003247 0.022695 0.000000 0.008940 0.000000
# 4 0.000000 0.000000 0.000000 0.025209 0.000000 0.002038
# 5 0.001598 -0.002127 0.008940 0.000000 0.029307 0.000000
# 6 0.000000 0.000000 0.000000 0.002038 0.000000 0.025184
#
#
# Mechanical properties :
#
#
# Convention : Reuss Voigt Hill
#
# Bulk Modulus (GPa) = 36.12320 47.64977 41.88648
# Shear Modulus (GPa) = 34.11501 39.02941 36.57221
#
# Velocity S-wave (km/s) = 3.83246 4.09922 3.96808
# Velocity P-wave (km/s) = 5.92756 6.55131 6.24723
#
# Compressibility (1/GPa) = 0.02768304
#
# Stress axis : x y z
#
# Youngs Moduli (GPa) = 130.82222 81.16907 44.06241
#
# Poissons Ratio (x) = 0.16725 0.09609
# Poissons Ratio (y) = 0.26956 0.14306
# Poissons Ratio (z) = 0.28528 0.26354
#
# Static dielectric constant tensor:
#      x y z
#    x 1.902650 0.000000 0.017140 
#    y 0.000000 1.858000 0.000000 
#    z 0.017140 0.000000 1.855780 
# 
# From -- ./inp_files/22814.got.cif
#   From: 2010.05.17/outbox.cif.g08.bks.cpg/sg9_12_cif.got.tgz:22814.got - 2010.06.03 20:04:27.
