data_PCOD9140005
_publ_section_title
;
Structure prediction by ZEFSAII (Michael W. Deem and Ramdas Pophale) SiO2 
 PCOD9140005
Probable space group: C C
;
_chemical_formula_sum "Si O2"
_cell_formula_units_Z 32
_cell_length_a 19.514830
_cell_length_b 9.925860
_cell_length_c 9.576373
_cell_angle_alpha 90.000000
_cell_angle_beta 49.304625
_cell_angle_gamma 90.000000
_cell_volume 1406.404635
_symmetry_space_group_name_H-M "C C"
_symmetry_group_IT_number 9
_symmetry_cell_setting 'monoclinic'
loop_
_space_group_symop_operation_xyz
x,y,z
x,-y,1/2+z
1/2+x,1/2+y,z
1/2+x,1/2-y,1/2+z
loop_
_atom_site_type_symbol
_atom_site_label
_atom_site_fract_x
_atom_site_fract_y
_atom_site_fract_z
Si Si1 0.221410 0.710524 0.195730
Si Si2 0.352728 0.509814 0.627152
Si Si3 0.621932 0.755775 0.102734
Si Si4 0.984391 0.393070 0.632412
Si Si5 0.111291 0.866228 0.912789
Si Si6 0.795172 0.699426 0.326177
Si Si7 0.973492 0.911681 0.705538
Si Si8 0.573236 0.041125 0.278766
O O1 0.272648 0.572075 0.162300
O O2 0.190120 0.768087 0.384981
O O3 0.136454 0.330344 0.712252
O O4 0.280731 0.797435 0.012601
O O5 0.317167 0.649313 0.740720
O O6 0.396853 0.419188 0.689997
O O7 0.428210 0.536316 0.408673
O O8 0.632477 0.654765 0.219926
O O9 0.520983 0.728265 0.179099
O O10 0.626386 0.909817 0.149876
O O11 0.888002 0.381147 0.687915
O O12 0.040712 0.254899 0.538306
O O13 0.041415 0.502629 0.473702
O O14 0.990890 0.427753 0.785703
O O15 0.205948 0.852515 0.867685
O O16 0.054748 0.995701 0.037165
#
# Coordination Sequence:
#
# PCOD9140005 Si02
#       8
#     4   4   4   4   4   4   4   4
#     4  12  24  41  72 101 132 177 237 282 338 403
#     4  12  23  43  69 106 131 182 240 287 333 417
#     4  11  25  44  68 103 132 187 228 277 351 410
#     4  11  22  45  69  96 136 177 226 280 341 399
#     4  11  24  47  70  98 142 179 225 291 343 405
#     4  12  25  43  70 101 135 181 229 282 345 412
#     4  12  25  46  71  96 146 183 225 286 355 408
#     4  11  22  45  69  99 134 178 226 287 336 402
#
# _framework density 22.753053000000001
#
# number of rings (size 3 to 8) (size 9 to 14) (size 15 to 20)
#    0.000    0.500    6.250    3.000    3.500    1.000 
#    4.500    0.000    0.000    0.000    0.000    0.000 
#    0.000    0.000    0.000    0.000    0.000    0.000 
#
# Total GULP energy -89471.491250 kJ/mol
# GULP energy per Si atom -5591.968203 kJ/mol
# Density = 2.270127 g / cm^3
# Si number density = 22.753053 Si / 1000 Ang^3
#
#
#
# Elastic Constant Matrix: (Units=GPa)
#
#
# Indices 1 2 3 4 5 6 
#
# 1 105.6532 2.3248 20.1201 0.0000 0.7913 0.0000
# 2 2.3248 24.2465 17.3012 0.0000 3.1870 0.0000
# 3 20.1201 17.3012 121.5082 0.0000 18.6195 0.0000
# 4 0.0000 0.0000 0.0000 20.1850 0.0000 -8.3874
# 5 0.7913 3.1870 18.6195 0.0000 38.3813 0.0000
# 6 0.0000 0.0000 0.0000 -8.3874 0.0000 28.5646
#
#
#
# Elastic Compliance Matrix: (Units=1/GPa)
#
#
# Indices 1 2 3 4 5 6 
#
# 1 0.009788 0.000227 -0.001749 0.000000 0.000628 0.000000
# 2 0.000227 0.045930 -0.006473 0.000000 -0.000678 0.000000
# 3 -0.001749 -0.006473 0.010105 0.000000 -0.004328 0.000000
# 4 0.000000 0.000000 0.000000 0.056426 0.000000 0.016568
# 5 0.000628 -0.000678 -0.004328 0.000000 0.028197 0.000000
# 6 0.000000 0.000000 0.000000 0.016568 0.000000 0.039873
#
#
# Mechanical properties :
#
#
# Convention : Reuss Voigt Hill
#
# Bulk Modulus (GPa) = 20.06772 36.76665 28.41718
# Shear Modulus (GPa) = 22.42942 31.53696 26.98319
#
# Velocity S-wave (km/s) = 3.14311 3.72701 3.44745
# Velocity P-wave (km/s) = 4.69160 5.89194 5.32570
#
# Compressibility (1/GPa) = 0.04983128
#
# Stress axis : x y z
#
# Youngs Moduli (GPa) = 102.16198 21.77241 98.96511
#
# Poissons Ratio (x) = -0.00495 0.17313
# Poissons Ratio (y) = -0.02321 0.64065
# Poissons Ratio (z) = 0.17872 0.14094
#
# Static dielectric constant tensor:
#      x y z
#    x 1.811480 0.000000 0.007150 
#    y 0.000000 1.868450 0.000000 
#    z 0.007150 0.000000 1.826190 
# 
# From -- ./inp_files/11633.got.cif
#   From: 2010.05.17/outbox.cif.g08.bks.cpg/sg9_6_cif.got.tgz:11633.got - 2010.06.03 20:04:27.
