data_PCOD9140637
_publ_section_title
;
Structure prediction by ZEFSAII (Michael W. Deem and Ramdas Pophale) SiO2 
 PCOD9140637
Probable space group: C C
;
_chemical_formula_sum "Si O2"
_cell_formula_units_Z 20
_cell_length_a 9.776634
_cell_length_b 16.599421
_cell_length_c 5.376300
_cell_angle_alpha 90.000000
_cell_angle_beta 118.818088
_cell_angle_gamma 90.000000
_cell_volume 764.445470
_symmetry_space_group_name_H-M "C C"
_symmetry_group_IT_number 9
_symmetry_cell_setting 'monoclinic'
loop_
_space_group_symop_operation_xyz
x,y,z
x,-y,1/2+z
1/2+x,1/2+y,z
1/2+x,1/2-y,1/2+z
loop_
_atom_site_type_symbol
_atom_site_label
_atom_site_fract_x
_atom_site_fract_y
_atom_site_fract_z
Si Si1 0.533670 0.971489 0.600160
Si Si2 0.955553 0.161591 0.030149
Si Si3 0.137455 0.305877 0.484742
Si Si4 0.701014 0.323536 0.386962
Si Si5 0.240372 0.086664 0.408070
O O1 0.365633 0.015844 0.502857
O O2 0.608859 0.021346 0.438255
O O3 0.543223 0.880951 0.508349
O O4 0.775114 0.163481 0.927455
O O5 0.034495 0.237930 0.252034
O O6 0.019229 0.172415 0.808011
O O7 0.054185 0.080708 0.192109
O O8 0.220206 0.264344 0.793250
O O9 0.735245 0.377790 0.178827
O O10 0.784353 0.352432 0.715665
#
# Coordination Sequence:
#
# PCOD9140637 Si02
#       5
#     4   4   4   4   4
#     4  12  29  46  74 112 157 204 256 313 407 468
#     4   9  24  43  76 110 148 197 263 322 376 456
#     4  11  25  44  78 115 149 202 261 330 375 474
#     4   9  21  43  74 106 148 191 266 307 385 447
#     4   9  21  46  68 101 152 202 242 316 381 469
#
# _framework density 26.162755000000001
#
# number of rings (size 3 to 8) (size 9 to 14) (size 15 to 20)
#    1.200    0.800    0.000    1.200   11.200    3.200 
#    0.000    2.000    0.000    0.000    0.000    0.000 
#    0.000    0.000    0.000    0.000    0.000    0.000 
#
# Total GULP energy -55724.621351 kJ/mol
# GULP energy per Si atom -5572.462135 kJ/mol
# Density = 2.610321 g / cm^3
# Si number density = 26.162755 Si / 1000 Ang^3
#
#
#
# Elastic Constant Matrix: (Units=GPa)
#
#
# Indices 1 2 3 4 5 6 
#
# 1 114.7349 30.5475 63.6704 0.0000 -29.1460 0.0000
# 2 30.5475 121.8601 56.5117 0.0000 -16.0352 0.0000
# 3 63.6704 56.5117 174.9105 0.0000 -53.5690 0.0000
# 4 0.0000 0.0000 0.0000 17.2422 0.0000 -17.1764
# 5 -29.1460 -16.0352 -53.5690 0.0000 47.7386 0.0000
# 6 0.0000 0.0000 0.0000 -17.1764 0.0000 53.0620
#
#
#
# Elastic Compliance Matrix: (Units=1/GPa)
#
#
# Indices 1 2 3 4 5 6 
#
# 1 0.011422 -0.001144 -0.002697 0.000000 0.003563 0.000000
# 2 -0.001144 0.009772 -0.002970 0.000000 -0.000749 0.000000
# 3 -0.002697 -0.002970 0.010435 0.000000 0.009065 0.000000
# 4 0.000000 0.000000 0.000000 0.085601 0.000000 0.027710
# 5 0.003563 -0.000749 0.009065 0.000000 0.033043 0.000000
# 6 0.000000 0.000000 0.000000 0.027710 0.000000 0.027816
#
#
# Mechanical properties :
#
#
# Convention : Reuss Voigt Hill
#
# Bulk Modulus (GPa) = 55.53485 79.21830 67.37658
# Shear Modulus (GPa) = 25.28922 40.99361 33.14141
#
# Velocity S-wave (km/s) = 3.11241 3.96266 3.56299
# Velocity P-wave (km/s) = 5.84713 7.16112 6.53722
#
# Compressibility (1/GPa) = 0.01800671
#
# Stress axis : x y z
#
# Youngs Moduli (GPa) = 87.55010 102.33661 95.83180
#
# Poissons Ratio (x) = 0.11704 0.25847
# Poissons Ratio (y) = 0.10013 0.28464
# Poissons Ratio (z) = 0.23614 0.30396
#
# Static dielectric constant tensor:
#      x y z
#    x 2.080500 0.000000 0.072430 
#    y 0.000000 2.146300 0.000000 
#    z 0.072430 0.000000 2.158500 
# 
# From -- ./inp_files/540.got.cif
#   From: 2010.05.17/outbox.cif.g08.bks.cpg/sg9_1_cif.got.tgz:540.got - 2010.06.03 20:04:27.
