data_PCOD9140025
_publ_section_title
;
Structure prediction by ZEFSAII (Michael W. Deem and Ramdas Pophale) SiO2 
 PCOD9140025
Probable space group: C C
;
_chemical_formula_sum "Si O2"
_cell_formula_units_Z 20
_cell_length_a 23.270023
_cell_length_b 4.856452
_cell_length_c 13.575075
_cell_angle_alpha 90.000000
_cell_angle_beta 150.868543
_cell_angle_gamma 90.000000
_cell_volume 746.830647
_symmetry_space_group_name_H-M "C C"
_symmetry_group_IT_number 9
_symmetry_cell_setting 'monoclinic'
loop_
_space_group_symop_operation_xyz
x,y,z
x,-y,1/2+z
1/2+x,1/2+y,z
1/2+x,1/2-y,1/2+z
loop_
_atom_site_type_symbol
_atom_site_label
_atom_site_fract_x
_atom_site_fract_y
_atom_site_fract_z
Si Si1 0.715560 0.212855 0.949730
Si Si2 0.107847 0.854731 0.442267
Si Si3 0.474294 0.998112 0.522825
Si Si4 0.819468 0.014052 0.801446
Si Si5 0.956053 0.625482 0.765488
O O1 0.664834 0.474631 0.936247
O O2 0.614407 0.022816 0.751686
O O3 0.820691 0.312290 0.037015
O O4 0.784468 0.031668 0.134466
O O5 0.203851 0.695418 0.654260
O O6 0.017087 0.603398 0.288173
O O7 0.034465 0.098706 0.383130
O O8 0.374650 0.780610 0.411282
O O9 0.459097 0.982705 0.381671
O O10 0.429008 0.294359 0.486893
#
# Coordination Sequence:
#
# PCOD9140025 Si02
#       5
#     4   4   4   4   4
#     4  11  26  48  76 103 153 191 244 304 366 431
#     4  12  23  46  75 105 151 195 237 310 369 427
#     4  11  25  44  77 101 144 196 244 295 374 426
#     4  11  22  46  70 100 144 191 236 301 362 427
#     4  11  24  44  72 107 148 193 245 304 365 437
#
# _framework density 26.779834999999999
#
# number of rings (size 3 to 8) (size 9 to 14) (size 15 to 20)
#    0.000    0.800    6.000    2.400    2.800    0.000 
#    3.600    4.000    0.000    0.000    0.000    0.000 
#    0.000    0.000    0.000    0.000    0.000    0.000 
#
# Total GULP energy -55840.977582 kJ/mol
# GULP energy per Si atom -5584.097758 kJ/mol
# Density = 2.671888 g / cm^3
# Si number density = 26.779835 Si / 1000 Ang^3
#
#
#
# Elastic Constant Matrix: (Units=GPa)
#
#
# Indices 1 2 3 4 5 6 
#
# 1 80.4319 21.7364 28.3497 0.0001 24.6100 -0.0001
# 2 21.7364 155.2437 25.6850 0.0008 18.9959 0.0004
# 3 28.3497 25.6850 169.3881 -0.0005 4.5660 -0.0003
# 4 0.0001 0.0008 -0.0005 50.9686 0.0000 12.4822
# 5 24.6100 18.9959 4.5660 0.0000 47.1107 -0.0001
# 6 -0.0001 0.0004 -0.0003 12.4822 -0.0001 22.1393
#
#
#
# Elastic Compliance Matrix: (Units=1/GPa)
#
#
# Indices 1 2 3 4 5 6 
#
# 1 0.015842 -0.000895 -0.002308 0.000000 -0.007691 0.000000
# 2 -0.000895 0.006984 -0.000848 0.000000 -0.002266 0.000000
# 3 -0.002308 -0.000848 0.006394 0.000000 0.000928 0.000000
# 4 0.000000 0.000000 0.000000 0.022763 0.000000 -0.012834
# 5 -0.007691 -0.002266 0.000928 0.000000 0.026068 0.000000
# 6 0.000000 0.000000 0.000000 -0.012834 0.000000 0.052404
#
#
# Mechanical properties :
#
#
# Convention : Reuss Voigt Hill
#
# Bulk Modulus (GPa) = 47.35655 61.84511 54.60083
# Shear Modulus (GPa) = 34.34142 45.99656 40.16899
#
# Velocity S-wave (km/s) = 3.58489 4.14887 3.87715
# Velocity P-wave (km/s) = 5.90401 6.78932 6.36208
#
# Compressibility (1/GPa) = 0.02111640
#
# Stress axis : x y z
#
# Youngs Moduli (GPa) = 63.12521 143.17477 156.40826
#
# Poissons Ratio (x) = 0.12815 0.36104
# Poissons Ratio (y) = 0.05650 0.13266
# Poissons Ratio (z) = 0.14571 0.12144
#
# Static dielectric constant tensor:
#      x y z
#    x 2.251560 0.000000 0.014070 
#    y 0.000000 2.050710 0.000000 
#    z 0.014070 0.000000 2.144410 
# 
# From -- ./inp_files/23931.got.cif
#   From: 2010.05.17/outbox.cif.g08.bks.cpg/sg9_12_cif.got.tgz:23931.got - 2010.06.03 20:04:27.
