data_PCOD9140118
_publ_section_title
;
Structure prediction by ZEFSAII (Michael W. Deem and Ramdas Pophale) SiO2 
 PCOD9140118
Probable space group: C C
;
_chemical_formula_sum "Si O2"
_cell_formula_units_Z 24
_cell_length_a 5.639881
_cell_length_b 30.019505
_cell_length_c 6.082356
_cell_angle_alpha 90.000000
_cell_angle_beta 78.092306
_cell_angle_gamma 90.000000
_cell_volume 1007.622431
_symmetry_space_group_name_H-M "C C"
_symmetry_group_IT_number 9
_symmetry_cell_setting 'monoclinic'
loop_
_space_group_symop_operation_xyz
x,y,z
x,-y,1/2+z
1/2+x,1/2+y,z
1/2+x,1/2-y,1/2+z
loop_
_atom_site_type_symbol
_atom_site_label
_atom_site_fract_x
_atom_site_fract_y
_atom_site_fract_z
Si Si1 0.631550 0.573442 0.284850
Si Si2 0.711282 0.707926 0.742312
Si Si3 0.121122 0.310019 0.818890
Si Si4 0.134535 0.477859 0.774121
Si Si5 0.879180 0.858642 0.126830
Si Si6 0.436501 0.139675 0.976103
O O1 0.389960 0.549008 0.244145
O O2 0.550388 0.602686 0.511069
O O3 0.870098 0.545975 0.311020
O O4 0.724690 0.606231 0.073619
O O5 0.670109 0.759921 0.733765
O O6 0.481618 0.675484 0.786696
O O7 0.854752 0.689814 0.926283
O O8 0.876046 0.693637 0.506876
O O9 0.084779 0.351337 0.666778
O O10 0.336314 0.324853 0.935038
O O11 0.139417 0.499003 0.520962
O O12 0.620999 0.877109 0.255920
#
# Coordination Sequence:
#
# PCOD9140118 Si02
#       6
#     4   4   4   4   4   4
#     4  12  28  52  85 118 163 199 265 328 402 493
#     4  11  24  38  69  95 153 205 275 320 383 446
#     4  11  23  43  59 105 146 212 269 325 376 451
#     4  12  31  59  90 126 163 210 257 326 416 511
#     4  11  26  44  70 109 149 204 267 319 397 452
#     4  11  26  44  71 107 150 206 261 326 392 453
#
# _framework density 23.818445000000001
#
# number of rings (size 3 to 8) (size 9 to 14) (size 15 to 20)
#    0.000    0.667    1.667    4.000   11.667    2.667 
#    0.000    0.000    0.000    0.000    0.000    0.000 
#    0.000    0.000    0.000    0.000    0.000    0.000 
#
# Total GULP energy -66955.629032 kJ/mol
# GULP energy per Si atom -5579.635753 kJ/mol
# Density = 2.376423 g / cm^3
# Si number density = 23.818445 Si / 1000 Ang^3
#
#
#
# Elastic Constant Matrix: (Units=GPa)
#
#
# Indices 1 2 3 4 5 6 
#
# 1 151.2965 80.3765 41.4382 0.0000 -9.0093 0.0000
# 2 80.3765 103.0348 62.1853 0.0000 -14.5530 0.0000
# 3 41.4382 62.1853 92.9698 0.0000 -11.5988 0.0000
# 4 0.0000 0.0000 0.0000 25.0240 0.0000 -8.1478
# 5 -9.0093 -14.5530 -11.5988 0.0000 39.5870 0.0000
# 6 0.0000 0.0000 0.0000 -8.1478 0.0000 61.5242
#
#
#
# Elastic Compliance Matrix: (Units=1/GPa)
#
#
# Indices 1 2 3 4 5 6 
#
# 1 0.011417 -0.009852 0.001426 0.000000 -0.000606 0.000000
# 2 -0.009852 0.025105 -0.011967 0.000000 0.003481 0.000000
# 3 0.001426 -0.011967 0.018285 0.000000 0.001283 0.000000
# 4 0.000000 0.000000 0.000000 0.041762 0.000000 0.005531
# 5 -0.000606 0.003481 0.001283 0.000000 0.026778 0.000000
# 6 0.000000 0.000000 0.000000 0.005531 0.000000 0.016986
#
#
# Mechanical properties :
#
#
# Convention : Reuss Voigt Hill
#
# Bulk Modulus (GPa) = 71.32413 79.47790 75.40102
# Shear Modulus (GPa) = 26.91149 36.11379 31.51264
#
# Velocity S-wave (km/s) = 3.36498 3.89808 3.64130
# Velocity P-wave (km/s) = 6.71621 7.32808 7.02880
#
# Compressibility (1/GPa) = 0.01402050
#
# Stress axis : x y z
#
# Youngs Moduli (GPa) = 87.58804 39.83251 54.68975
#
# Poissons Ratio (x) = 0.39244 -0.07797
# Poissons Ratio (y) = 0.86295 0.65445
# Poissons Ratio (z) = -0.12487 0.47666
#
# Static dielectric constant tensor:
#      x y z
#    x 1.940050 0.000000 -0.001450 
#    y 0.000000 1.908840 0.000000 
#    z -0.001450 0.000000 1.943380 
# 
# From -- ./inp_files/293.got.cif
#   From: 2010.05.17/outbox.cif.g08.bks.cpg/sg9_1_cif.got.tgz:293.got - 2010.06.03 20:04:27.
