data_PCOD9140783
_publ_section_title
;
Structure prediction by ZEFSAII (Michael W. Deem and Ramdas Pophale) SiO2 
 PCOD9140783
Probable space group: C C
;
_chemical_formula_sum "Si O2"
_cell_formula_units_Z 32
_cell_length_a 15.519595
_cell_length_b 5.365306
_cell_length_c 19.470913
_cell_angle_alpha 90.000000
_cell_angle_beta 48.788307
_cell_angle_gamma 90.000000
_cell_volume 1219.666180
_symmetry_space_group_name_H-M "C C"
_symmetry_group_IT_number 9
_symmetry_cell_setting 'monoclinic'
loop_
_space_group_symop_operation_xyz
x,y,z
x,-y,1/2+z
1/2+x,1/2+y,z
1/2+x,1/2-y,1/2+z
loop_
_atom_site_type_symbol
_atom_site_label
_atom_site_fract_x
_atom_site_fract_y
_atom_site_fract_z
Si Si1 0.237490 0.265467 0.478550
Si Si2 0.515013 0.006500 0.127739
Si Si3 0.712484 0.762291 0.739329
Si Si4 0.726017 0.614145 0.110724
Si Si5 0.126739 0.983005 0.904787
Si Si6 0.018795 0.464891 0.270575
Si Si7 0.435763 0.489248 0.607256
Si Si8 0.419580 0.632242 0.425831
O O1 0.150566 0.494309 0.540522
O O2 0.201032 0.164417 0.422556
O O3 0.362933 0.377111 0.427663
O O4 0.207208 0.066326 0.554295
O O5 0.473125 0.230261 0.101697
O O6 0.483109 0.101462 0.220207
O O7 0.463073 0.734732 0.145654
O O8 0.751255 0.558839 0.663132
O O9 0.706383 0.666894 0.819936
O O10 0.799600 0.984913 0.680100
O O11 0.587571 0.851045 0.783229
O O12 0.613246 0.768692 0.190879
O O13 0.836144 0.774307 0.029981
O O14 0.050855 0.850633 0.884485
O O15 0.017598 0.101636 0.001968
O O16 0.919819 0.322411 0.362114
#
# Coordination Sequence:
#
# PCOD9140783 Si02
#       8
#     4   4   4   4   4   4   4   4
#     4  11  26  51  81 112 167 216 281 346 424 508
#     4  11  25  52  80 115 159 214 277 336 415 508
#     4  12  28  49  78 118 164 214 280 346 432 512
#     4  12  24  51  80 112 162 221 275 343 426 514
#     4  11  27  52  78 123 161 215 280 355 415 523
#     4  12  26  48  80 116 160 214 277 342 420 517
#     4  11  28  50  83 114 163 219 269 349 423 485
#     4  12  28  49  82 118 160 221 277 349 435 495
#
# _framework density 26.236688999999998
#
# number of rings (size 3 to 8) (size 9 to 14) (size 15 to 20)
#    0.000    0.500    3.750    3.000    8.750    1.000 
#    6.750    0.000    0.000    0.000    0.000    0.000 
#    0.000    0.000    0.000    0.000    0.000    0.000 
#
# Total GULP energy -89547.989199 kJ/mol
# GULP energy per Si atom -5596.749325 kJ/mol
# Density = 2.617697 g / cm^3
# Si number density = 26.236689 Si / 1000 Ang^3
#
#
#
# Elastic Constant Matrix: (Units=GPa)
#
#
# Indices 1 2 3 4 5 6 
#
# 1 89.5487 25.2217 42.4662 0.0024 -0.3543 0.0088
# 2 25.2217 71.9689 24.5527 0.0208 -1.3417 0.0292
# 3 42.4662 24.5527 153.8971 -0.0025 1.4042 -0.0012
# 4 0.0024 0.0208 -0.0025 55.2429 -0.0016 -2.9766
# 5 -0.3543 -1.3417 1.4042 -0.0016 53.2946 0.0012
# 6 0.0088 0.0292 -0.0012 -2.9766 0.0012 40.2067
#
#
#
# Elastic Compliance Matrix: (Units=1/GPa)
#
#
# Indices 1 2 3 4 5 6 
#
# 1 0.013731 -0.003720 -0.003196 0.000001 0.000082 0.000000
# 2 -0.003720 0.015713 -0.001484 -0.000006 0.000410 -0.000011
# 3 -0.003196 -0.001484 0.007619 0.000001 -0.000259 0.000002
# 4 0.000001 -0.000006 0.000001 0.018174 0.000000 0.001346
# 5 0.000082 0.000410 -0.000259 0.000000 0.018781 -0.000001
# 6 0.000000 -0.000011 0.000002 0.001346 -0.000001 0.024971
#
#
# Mechanical properties :
#
#
# Convention : Reuss Voigt Hill
#
# Bulk Modulus (GPa) = 49.35382 55.54400 52.44891
# Shear Modulus (GPa) = 40.80180 44.62710 42.71445
#
# Velocity S-wave (km/s) = 3.94781 4.12872 4.03928
# Velocity P-wave (km/s) = 6.29540 6.62909 6.46440
#
# Compressibility (1/GPa) = 0.02026186
#
# Stress axis : x y z
#
# Youngs Moduli (GPa) = 72.82844 63.64342 131.25242
#
# Poissons Ratio (x) = 0.23676 0.41950
# Poissons Ratio (y) = 0.27093 0.19478
# Poissons Ratio (z) = 0.23277 0.09445
#
# Static dielectric constant tensor:
#      x y z
#    x 2.259910 -0.000020 0.038640 
#    y -0.000020 2.093520 -0.000010 
#    z 0.038640 -0.000010 1.971410 
# 
# From -- ./inp_files/30455.got.cif
#   From: 2010.05.17/outbox.cif.g08.bks.cpg/sg9_16_cif.got.tgz:30455.got - 2010.06.03 20:04:27.
