data_PCOD9140621
_publ_section_title
;
Structure prediction by ZEFSAII (Michael W. Deem and Ramdas Pophale) SiO2 
 PCOD9140621
Probable space group: C C
;
_chemical_formula_sum "Si O2"
_cell_formula_units_Z 16
_cell_length_a 7.112214
_cell_length_b 19.995655
_cell_length_c 4.893862
_cell_angle_alpha 90.000000
_cell_angle_beta 112.229443
_cell_angle_gamma 90.000000
_cell_volume 644.245381
_symmetry_space_group_name_H-M "C C"
_symmetry_group_IT_number 9
_symmetry_cell_setting 'monoclinic'
loop_
_space_group_symop_operation_xyz
x,y,z
x,-y,1/2+z
1/2+x,1/2+y,z
1/2+x,1/2-y,1/2+z
loop_
_atom_site_type_symbol
_atom_site_label
_atom_site_fract_x
_atom_site_fract_y
_atom_site_fract_z
Si Si1 0.747790 0.628966 0.798660
Si Si2 0.131810 0.456009 0.604027
Si Si3 0.413496 0.197094 0.390564
Si Si4 0.337307 0.651316 0.852790
O O1 0.764303 0.653080 0.497468
O O2 0.522186 0.620700 0.783289
O O3 0.898561 0.567239 0.932621
O O4 0.850469 0.687172 0.042823
O O5 0.166837 0.480135 0.928742
O O6 0.269535 0.396623 0.561044
O O7 0.405583 0.273877 0.474837
O O8 0.634608 0.166637 0.566785
#
# Coordination Sequence:
#
# PCOD9140621 Si02
#       4
#     4   4   4   4
#     4  11  26  44  70 100 140 184 221 289 341 405
#     4  11  26  47  67 100 139 184 241 276 325 417
#     4  11  25  41  68 110 139 169 230 279 354 417
#     4  11  25  44  75 102 142 181 220 292 352 409
#
# _framework density 24.835255
#
# number of rings (size 3 to 8) (size 9 to 14) (size 15 to 20)
#    0.000    1.000    2.500    3.000    7.000   10.000 
#    0.000    0.000    0.000    0.000    0.000    0.000 
#    0.000    0.000    0.000    0.000    0.000    0.000 
#
# Total GULP energy -44857.711054 kJ/mol
# GULP energy per Si atom -5607.213882 kJ/mol
# Density = 2.477873 g / cm^3
# Si number density = 24.835255 Si / 1000 Ang^3
#
#
#
# Elastic Constant Matrix: (Units=GPa)
#
#
# Indices 1 2 3 4 5 6 
#
# 1 199.8260 43.0892 12.0097 0.0000 -0.3918 0.0000
# 2 43.0892 117.8730 6.8798 0.0000 0.9668 0.0000
# 3 12.0097 6.8798 66.3300 0.0000 -2.3173 0.0000
# 4 0.0000 0.0000 0.0000 30.0096 0.0000 -2.5465
# 5 -0.3918 0.9668 -2.3173 0.0000 27.9404 0.0000
# 6 0.0000 0.0000 0.0000 -2.5465 0.0000 46.7143
#
#
#
# Elastic Compliance Matrix: (Units=1/GPa)
#
#
# Indices 1 2 3 4 5 6 
#
# 1 0.005473 -0.001956 -0.000785 0.000000 0.000079 0.000000
# 2 -0.001956 0.009238 -0.000618 0.000000 -0.000398 0.000000
# 3 -0.000785 -0.000618 0.015327 0.000000 0.001282 0.000000
# 4 0.000000 0.000000 0.000000 0.033478 0.000000 0.001825
# 5 0.000079 -0.000398 0.001282 0.000000 0.035912 0.000000
# 6 0.000000 0.000000 0.000000 0.001825 0.000000 0.021506
#
#
# Mechanical properties :
#
#
# Convention : Reuss Voigt Hill
#
# Bulk Modulus (GPa) = 42.88078 56.44293 49.66186
# Shear Modulus (GPa) = 36.92065 42.40288 39.66177
#
# Velocity S-wave (km/s) = 3.85986 4.13651 4.00058
# Velocity P-wave (km/s) = 6.09658 6.75208 6.43268
#
# Compressibility (1/GPa) = 0.02332047
#
# Stress axis : x y z
#
# Youngs Moduli (GPa) = 182.70128 108.24922 65.24346
#
# Poissons Ratio (x) = 0.21170 0.05124
# Poissons Ratio (y) = 0.35730 0.04032
# Poissons Ratio (z) = 0.14349 0.06690
#
# Static dielectric constant tensor:
#      x y z
#    x 1.940190 0.000000 0.022280 
#    y 0.000000 1.947770 0.000000 
#    z 0.022280 0.000000 1.912580 
# 
# From -- ./inp_files/131.got.cif
#   From: 2010.05.17/outbox.cif.g08.bks.cpg/sg9_1_cif.got.tgz:131.got - 2010.06.03 20:04:27.
