data_PCOD9140993
_publ_section_title
;
Structure prediction by ZEFSAII (Michael W. Deem and Ramdas Pophale) SiO2 
 PCOD9140993
Probable space group: C C
;
_chemical_formula_sum "Si O2"
_cell_formula_units_Z 32
_cell_length_a 11.110624
_cell_length_b 18.448030
_cell_length_c 8.659532
_cell_angle_alpha 90.000000
_cell_angle_beta 55.310301
_cell_angle_gamma 90.000000
_cell_volume 1459.435267
_symmetry_space_group_name_H-M "C C"
_symmetry_group_IT_number 9
_symmetry_cell_setting 'monoclinic'
loop_
_space_group_symop_operation_xyz
x,y,z
x,-y,1/2+z
1/2+x,1/2+y,z
1/2+x,1/2-y,1/2+z
loop_
_atom_site_type_symbol
_atom_site_label
_atom_site_fract_x
_atom_site_fract_y
_atom_site_fract_z
Si Si1 0.300020 0.728056 0.820380
Si Si2 0.598379 0.916379 0.808983
Si Si3 0.404336 0.455375 0.443234
Si Si4 0.930222 0.501999 0.163256
Si Si5 0.595784 0.753975 0.754389
Si Si6 0.686811 0.620279 0.883757
Si Si7 0.923342 0.098048 0.584428
Si Si8 0.228282 0.870484 0.707882
O O1 0.439243 0.719458 0.830670
O O2 0.309886 0.663022 0.691632
O O3 0.312279 0.802087 0.716825
O O4 0.165458 0.729463 0.035808
O O5 0.759498 0.919950 0.619517
O O6 0.484526 0.950949 0.768864
O O7 0.571950 0.830989 0.855585
O O8 0.571340 0.969032 0.973606
O O9 0.547550 0.426640 0.428440
O O10 0.382147 0.540345 0.486574
O O11 0.426312 0.440702 0.247701
O O12 0.827195 0.432151 0.266030
O O13 0.829765 0.558460 0.141598
O O14 0.687373 0.693523 0.780355
O O15 0.676334 0.640829 0.071026
O O16 0.086178 0.122207 0.420429
#
# Coordination Sequence:
#
# PCOD9140993 Si02
#       8
#     4   4   4   4   4   4   4   4
#     4  12  24  47  73 102 145 198 242 299 385 448
#     4  12  26  47  72 108 153 183 244 314 377 436
#     4  12  25  44  76 106 142 194 246 302 374 444
#     4  12  26  46  77 107 143 197 244 310 372 447
#     4  12  24  47  75 104 146 198 243 298 383 449
#     4  12  26  48  75 112 144 197 260 303 367 464
#     4  12  25  46  74 104 145 193 250 303 368 455
#     4  12  26  47  76 109 144 194 255 313 370 453
#
# _framework density 21.926289000000001
#
# number of rings (size 3 to 8) (size 9 to 14) (size 15 to 20)
#    0.000    0.000    7.500    2.250    1.750    0.000 
#   11.250    0.000    0.000    0.000    0.000    0.000 
#    0.000    0.000    0.000    0.000    0.000    0.000 
#
# Total GULP energy -89497.749823 kJ/mol
# GULP energy per Si atom -5593.609364 kJ/mol
# Density = 2.187638 g / cm^3
# Si number density = 21.926289 Si / 1000 Ang^3
#
#
#
# Elastic Constant Matrix: (Units=GPa)
#
#
# Indices 1 2 3 4 5 6 
#
# 1 55.3736 8.5737 20.3037 0.0000 -9.9689 0.0000
# 2 8.5737 149.4169 43.6946 0.0000 13.8958 0.0000
# 3 20.3037 43.6946 101.8229 0.0000 -3.1844 0.0000
# 4 0.0000 0.0000 0.0000 38.5522 0.0000 -0.4592
# 5 -9.9689 13.8958 -3.1844 0.0000 21.7649 0.0000
# 6 0.0000 0.0000 0.0000 -0.4592 0.0000 36.0422
#
#
#
# Elastic Compliance Matrix: (Units=1/GPa)
#
#
# Indices 1 2 3 4 5 6 
#
# 1 0.021295 -0.001143 -0.003444 0.000000 0.009980 0.000000
# 2 -0.001143 0.008401 -0.003577 0.000000 -0.006410 0.000000
# 3 -0.003444 -0.003577 0.012120 0.000000 0.002480 0.000000
# 4 0.000000 0.000000 0.000000 0.025943 0.000000 0.000331
# 5 0.009980 -0.006410 0.002480 0.000000 0.054972 0.000000
# 6 0.000000 0.000000 0.000000 0.000331 0.000000 0.027749
#
#
# Mechanical properties :
#
#
# Convention : Reuss Voigt Hill
#
# Bulk Modulus (GPa) = 39.23408 50.19527 44.71467
# Shear Modulus (GPa) = 28.52165 34.87462 31.69814
#
# Velocity S-wave (km/s) = 3.61057 3.99248 3.80632
# Velocity P-wave (km/s) = 5.94257 6.64798 6.30515
#
# Compressibility (1/GPa) = 0.02548804
#
# Stress axis : x y z
#
# Youngs Moduli (GPa) = 46.95830 119.03906 82.50556
#
# Poissons Ratio (x) = 0.13606 0.28413
# Poissons Ratio (y) = 0.05367 0.29516
# Poissons Ratio (z) = 0.16171 0.42586
#
# Static dielectric constant tensor:
#      x y z
#    x 1.802540 0.000000 0.003330 
#    y 0.000000 1.876490 0.000000 
#    z 0.003330 0.000000 1.787490 
# 
# From -- ./inp_files/8012.got.cif
#   From: 2010.05.17/outbox.cif.g08.bks.cpg/sg9_5_cif.got.tgz:8012.got - 2010.06.03 20:04:27.
