data_PCOD9140569
_publ_section_title
;
Structure prediction by ZEFSAII (Michael W. Deem and Ramdas Pophale) SiO2 
 PCOD9140569
Probable space group: C C
;
_chemical_formula_sum "Si O2"
_cell_formula_units_Z 24
_cell_length_a 5.200347
_cell_length_b 13.307161
_cell_length_c 14.758047
_cell_angle_alpha 90.000000
_cell_angle_beta 79.405304
_cell_angle_gamma 90.000000
_cell_volume 1003.873754
_symmetry_space_group_name_H-M "C C"
_symmetry_group_IT_number 9
_symmetry_cell_setting 'monoclinic'
loop_
_space_group_symop_operation_xyz
x,y,z
x,-y,1/2+z
1/2+x,1/2+y,z
1/2+x,1/2-y,1/2+z
loop_
_atom_site_type_symbol
_atom_site_label
_atom_site_fract_x
_atom_site_fract_y
_atom_site_fract_z
Si Si1 0.097290 0.558743 0.016930
Si Si2 0.327728 0.745240 0.565043
Si Si3 0.506762 0.296280 0.409729
Si Si4 0.731516 0.461228 0.284364
Si Si5 0.782777 0.056733 0.671182
Si Si6 0.248417 0.105704 0.433502
O O1 0.282129 0.503109 0.076470
O O2 0.936403 0.644941 0.080481
O O3 0.266535 0.625542 0.936132
O O4 0.915541 0.474877 0.981248
O O5 0.113260 0.767960 0.502296
O O6 0.230859 0.674130 0.651364
O O7 0.554393 0.675140 0.505069
O O8 0.716730 0.355363 0.337810
O O9 0.428701 0.189812 0.374829
O O10 0.549023 0.454906 0.208603
O O11 0.619332 0.542879 0.361752
O O12 0.030959 0.481979 0.241536
#
# Coordination Sequence:
#
# PCOD9140569 Si02
#       6
#     4   4   4   4   4   4
#     4  11  24  48  75 103 139 199 248 297 360 450
#     4  11  25  46  78 102 141 194 257 294 357 451
#     4  11  25  46  78 102 141 194 257 294 357 451
#     4  12  28  48  70 111 154 184 238 311 372 425
#     4  12  28  48  70 111 154 184 238 311 372 425
#     4  11  24  48  75 103 139 199 248 297 360 450
#
# _framework density 23.907388000000001
#
# number of rings (size 3 to 8) (size 9 to 14) (size 15 to 20)
#    0.000    0.667    3.333    3.000    9.333    1.333 
#    0.000    0.000    0.000    0.000    0.000    0.000 
#    0.000    0.000    0.000    0.000    0.000    0.000 
#
# Total GULP energy -67150.549031 kJ/mol
# GULP energy per Si atom -5595.879086 kJ/mol
# Density = 2.385297 g / cm^3
# Si number density = 23.907388 Si / 1000 Ang^3
#
#
#
# Elastic Constant Matrix: (Units=GPa)
#
#
# Indices 1 2 3 4 5 6 
#
# 1 65.0096 17.9696 -1.3502 0.0000 3.2317 0.0000
# 2 17.9696 161.5614 14.3311 0.0000 -1.5207 0.0000
# 3 -1.3502 14.3311 37.9124 0.0000 1.2946 0.0000
# 4 0.0000 0.0000 0.0000 12.7757 0.0000 -8.5712
# 5 3.2317 -1.5207 1.2946 0.0000 35.7985 0.0000
# 6 0.0000 0.0000 0.0000 -8.5712 0.0000 56.9616
#
#
#
# Elastic Compliance Matrix: (Units=1/GPa)
#
#
# Indices 1 2 3 4 5 6 
#
# 1 0.016018 -0.001916 0.001349 0.000000 -0.001576 0.000000
# 2 -0.001916 0.006638 -0.002596 0.000000 0.000549 0.000000
# 3 0.001349 -0.002596 0.027448 0.000000 -0.001225 0.000000
# 4 0.000000 0.000000 0.000000 0.087063 0.000000 0.013101
# 5 -0.001576 0.000549 -0.001225 0.000000 0.028144 0.000000
# 6 0.000000 0.000000 0.000000 0.013101 0.000000 0.019527
#
#
# Mechanical properties :
#
#
# Convention : Reuss Voigt Hill
#
# Bulk Modulus (GPa) = 22.84311 36.26493 29.55402
# Shear Modulus (GPa) = 24.30042 36.67603 30.48822
#
# Velocity S-wave (km/s) = 3.19162 3.92099 3.57496
# Velocity P-wave (km/s) = 4.81223 5.97501 5.42486
#
# Compressibility (1/GPa) = 0.04377688
#
# Stress axis : x y z
#
# Youngs Moduli (GPa) = 62.42846 150.64379 36.43271
#
# Poissons Ratio (x) = 0.28865 -0.04913
# Poissons Ratio (y) = 0.11962 0.09459
# Poissons Ratio (z) = -0.08419 0.39111
#
# Static dielectric constant tensor:
#      x y z
#    x 2.013580 0.000000 -0.101820 
#    y 0.000000 1.933880 0.000000 
#    z -0.101820 0.000000 1.972600 
# 
# From -- ./inp_files/21605.got.cif
#   From: 2010.05.17/outbox.cif.g08.bks.cpg/sg9_11_cif.got.tgz:21605.got - 2010.06.03 20:04:27.
