data_PCOD9140983
_publ_section_title
;
Structure prediction by ZEFSAII (Michael W. Deem and Ramdas Pophale) SiO2 
 PCOD9140983
Probable space group: C C
;
_chemical_formula_sum "Si O2"
_cell_formula_units_Z 28
_cell_length_a 12.116557
_cell_length_b 13.860017
_cell_length_c 8.069396
_cell_angle_alpha 90.000000
_cell_angle_beta 112.925289
_cell_angle_gamma 90.000000
_cell_volume 1248.101912
_symmetry_space_group_name_H-M "C C"
_symmetry_group_IT_number 9
_symmetry_cell_setting 'monoclinic'
loop_
_space_group_symop_operation_xyz
x,y,z
x,-y,1/2+z
1/2+x,1/2+y,z
1/2+x,1/2-y,1/2+z
loop_
_atom_site_type_symbol
_atom_site_label
_atom_site_fract_x
_atom_site_fract_y
_atom_site_fract_z
Si Si1 0.794060 0.847650 0.558330
Si Si2 0.876465 0.215196 0.445274
Si Si3 0.383737 0.967275 0.037261
Si Si4 0.301891 0.201230 0.258336
Si Si5 0.967022 0.970117 0.149078
Si Si6 0.024426 0.619326 0.925054
Si Si7 0.637894 0.436880 0.524384
O O1 0.797438 0.785503 0.731485
O O2 0.808671 0.782273 0.403128
O O3 0.663129 0.894921 0.469842
O O4 0.896171 0.930108 0.630574
O O5 0.839301 0.265628 0.596175
O O6 0.888319 0.104516 0.502865
O O7 0.996872 0.270443 0.459859
O O8 0.438887 0.908401 0.221853
O O9 0.256928 0.019069 0.007436
O O10 0.367657 0.892144 0.876065
O O11 0.477785 0.049199 0.041660
O O12 0.169628 0.159087 0.144372
O O13 0.019531 0.922589 0.344967
O O14 0.090361 0.984560 0.123293
#
# Coordination Sequence:
#
# PCOD9140983 Si02
#       7
#     4   4   4   4   4   4   4
#     4  12  31  51  74 116 162 200 251 324 393 462
#     4  12  28  50  75 117 152 204 260 311 393 464
#     4  12  24  49  76 114 148 201 257 320 387 450
#     4  12  27  49  79 115 148 199 264 314 387 459
#     4  12  27  49  77 111 157 202 256 323 392 452
#     4  12  27  47  79 110 159 196 255 320 381 469
#     4  12  24  45  84 107 150 196 265 320 375 456
#
# _framework density 22.434066000000001
#
# number of rings (size 3 to 8) (size 9 to 14) (size 15 to 20)
#    0.000    0.000    7.143    0.857    8.000    1.143 
#    0.000    0.000    0.000    0.000    0.000    0.000 
#    0.000    0.000    0.000    0.000    0.000    0.000 
#
# Total GULP energy -78157.444235 kJ/mol
# GULP energy per Si atom -5582.674588 kJ/mol
# Density = 2.238301 g / cm^3
# Si number density = 22.434066 Si / 1000 Ang^3
#
#
#
# Elastic Constant Matrix: (Units=GPa)
#
#
# Indices 1 2 3 4 5 6 
#
# 1 69.2420 22.9283 15.1991 0.0000 2.5412 0.0000
# 2 22.9283 89.2103 32.8410 0.0000 -5.8798 0.0000
# 3 15.1991 32.8410 134.8466 0.0000 -11.1974 0.0000
# 4 0.0000 0.0000 0.0000 -69.4311 0.0000 2.2196
# 5 2.5412 -5.8798 -11.1974 0.0000 34.8683 0.0000
# 6 0.0000 0.0000 0.0000 2.2196 0.0000 27.8333
#
#
#
# Elastic Compliance Matrix: (Units=1/GPa)
#
#
# Indices 1 2 3 4 5 6 
#
# 1 0.016035 -0.003880 -0.001042 0.000000 -0.002157 0.000000
# 2 -0.003880 0.013297 -0.002662 0.000000 0.001670 0.000000
# 3 -0.001042 -0.002662 0.008374 0.000000 0.002316 0.000000
# 4 0.000000 0.000000 0.000000 -0.014366 0.000000 0.001146
# 5 -0.002157 0.001670 0.002316 0.000000 0.029862 0.000000
# 6 0.000000 0.000000 0.000000 0.001146 0.000000 0.035837
#
#
# Mechanical properties :
#
#
# Convention : Reuss Voigt Hill
#
# Bulk Modulus (GPa) = 44.36986 48.35953 46.36470
# Shear Modulus (GPa) = 44.75540 13.47612 29.11576
#
# Velocity S-wave (km/s) = 4.47136 2.45358 3.60646
# Velocity P-wave (km/s) = 6.81750 5.44333 6.16879
#
# Compressibility (1/GPa) = 0.02253782
#
# Stress axis : x y z
#
# Youngs Moduli (GPa) = 62.36490 75.20599 119.41788
#
# Poissons Ratio (x) = 0.29179 0.12438
# Poissons Ratio (y) = 0.24197 0.31793
# Poissons Ratio (z) = 0.06496 0.20022
#
# Static dielectric constant tensor:
#      x y z
#    x 1.816610 0.000000 -0.056130 
#    y 0.000000 1.866380 0.000000 
#    z -0.056130 0.000000 1.984540 
# 
# From -- ./inp_files/7515.got.cif
#   From: 2010.05.17/outbox.cif.g08.bks.cpg/sg9_4_cif.got.tgz:7515.got - 2010.06.03 20:04:27.
