data_PCOD9140556
_publ_section_title
;
Structure prediction by ZEFSAII (Michael W. Deem and Ramdas Pophale) SiO2 
 PCOD9140556
Probable space group: C C
;
_chemical_formula_sum "Si O2"
_cell_formula_units_Z 28
_cell_length_a 8.507003
_cell_length_b 12.237318
_cell_length_c 12.881200
_cell_angle_alpha 90.000000
_cell_angle_beta 121.428143
_cell_angle_gamma 90.000000
_cell_volume 1144.242947
_symmetry_space_group_name_H-M "C C"
_symmetry_group_IT_number 9
_symmetry_cell_setting 'monoclinic'
loop_
_space_group_symop_operation_xyz
x,y,z
x,-y,1/2+z
1/2+x,1/2+y,z
1/2+x,1/2-y,1/2+z
loop_
_atom_site_type_symbol
_atom_site_label
_atom_site_fract_x
_atom_site_fract_y
_atom_site_fract_z
Si Si1 0.509080 0.482730 0.829290
Si Si2 0.704385 0.850258 0.617253
Si Si3 0.117031 0.173227 0.737412
Si Si4 0.934705 0.310530 0.843996
Si Si5 0.929210 0.555171 0.524261
Si Si6 0.309122 0.616665 0.922669
Si Si7 0.920632 0.463789 0.256530
O O1 0.363754 0.388236 0.753298
O O2 0.490451 0.569702 0.726703
O O3 0.469643 0.545494 0.924538
O O4 0.721236 0.449914 0.909180
O O5 0.601726 0.743266 0.627021
O O6 0.802439 0.841885 0.538569
O O7 0.552297 0.946365 0.563235
O O8 0.082463 0.253900 0.820738
O O9 0.316754 0.119334 0.795427
O O10 0.854313 0.412247 0.750779
O O11 0.794456 0.219108 0.838331
O O12 0.022301 0.357533 0.980097
O O13 0.904117 0.579880 0.635444
O O14 0.134548 0.538250 0.854358
#
# Coordination Sequence:
#
# PCOD9140556 Si02
#       7
#     4   4   4   4   4   4   4
#     4  11  26  48  75 110 143 198 242 304 366 438
#     4  12  25  50  74 107 149 191 243 309 356 447
#     4  11  25  47  74 105 144 194 247 292 375 430
#     4  11  24  48  70 107 148 192 242 307 353 448
#     4  12  25  49  77 102 156 191 236 312 365 425
#     4  11  25  47  72 113 145 191 249 292 374 434
#     4  12  24  49  74 110 149 191 239 306 363 434
#
# _framework density 24.470327000000001
#
# number of rings (size 3 to 8) (size 9 to 14) (size 15 to 20)
#    0.000    0.571    5.714    0.857    4.000    0.000 
#   15.429    0.000    0.000    0.000    0.000    0.000 
#    0.000    0.000    0.000    0.000    0.000    0.000 
#
# Total GULP energy -78179.106259 kJ/mol
# GULP energy per Si atom -5584.221876 kJ/mol
# Density = 2.441463 g / cm^3
# Si number density = 24.470327 Si / 1000 Ang^3
#
#
#
# Elastic Constant Matrix: (Units=GPa)
#
#
# Indices 1 2 3 4 5 6 
#
# 1 136.0540 39.1046 30.0028 0.0000 -40.6869 0.0000
# 2 39.1046 69.4830 0.0652 0.0000 -13.7407 0.0000
# 3 30.0028 0.0652 71.3441 0.0000 -29.4028 0.0000
# 4 0.0000 0.0000 0.0000 29.1234 0.0000 -15.0569
# 5 -40.6869 -13.7407 -29.4028 0.0000 56.6474 0.0000
# 6 0.0000 0.0000 0.0000 -15.0569 0.0000 49.7693
#
#
#
# Elastic Compliance Matrix: (Units=1/GPa)
#
#
# Indices 1 2 3 4 5 6 
#
# 1 0.010952 -0.005094 -0.002377 0.000000 0.005397 0.000000
# 2 -0.005094 0.017693 0.003036 0.000000 0.002209 0.000000
# 3 -0.002377 0.003036 0.018590 0.000000 0.008678 0.000000
# 4 0.000000 0.000000 0.000000 0.040703 0.000000 0.012314
# 5 0.005397 0.002209 0.008678 0.000000 0.026570 0.000000
# 6 0.000000 0.000000 0.000000 0.012314 0.000000 0.023818
#
#
# Mechanical properties :
#
#
# Convention : Reuss Voigt Hill
#
# Bulk Modulus (GPa) = 26.06492 46.13625 36.10059
# Shear Modulus (GPa) = 31.25296 40.95525 36.10410
#
# Velocity S-wave (km/s) = 3.57764 4.09549 3.84529
# Velocity P-wave (km/s) = 5.26695 6.42331 5.87366
#
# Compressibility (1/GPa) = 0.03836574
#
# Stress axis : x y z
#
# Youngs Moduli (GPa) = 91.30398 56.51932 53.79236
#
# Poissons Ratio (x) = 0.28793 0.12786
# Poissons Ratio (y) = 0.46514 -0.16334
# Poissons Ratio (z) = 0.21702 -0.17162
#
# Static dielectric constant tensor:
#      x y z
#    x 1.901710 0.000000 -0.055270 
#    y 0.000000 1.993520 0.000000 
#    z -0.055270 0.000000 1.959830 
# 
# From -- ./inp_files/22937.got.cif
#   From: 2010.05.17/outbox.cif.g08.bks.cpg/sg9_12_cif.got.tgz:22937.got - 2010.06.03 20:04:27.
