data_PCOD9140719
_publ_section_title
;
Structure prediction by ZEFSAII (Michael W. Deem and Ramdas Pophale) SiO2 
 PCOD9140719
Probable space group: C C
;
_chemical_formula_sum "Si O2"
_cell_formula_units_Z 24
_cell_length_a 24.753882
_cell_length_b 7.509437
_cell_length_c 10.038976
_cell_angle_alpha 90.000000
_cell_angle_beta 29.840288
_cell_angle_gamma 90.000000
_cell_volume 928.552642
_symmetry_space_group_name_H-M "C C"
_symmetry_group_IT_number 9
_symmetry_cell_setting 'monoclinic'
loop_
_space_group_symop_operation_xyz
x,y,z
x,-y,1/2+z
1/2+x,1/2+y,z
1/2+x,1/2-y,1/2+z
loop_
_atom_site_type_symbol
_atom_site_label
_atom_site_fract_x
_atom_site_fract_y
_atom_site_fract_z
Si Si1 0.042250 0.953396 0.675510
Si Si2 0.227206 0.177823 0.624914
Si Si3 0.325318 0.187056 0.896403
Si Si4 0.906417 0.045165 0.708733
Si Si5 0.567197 0.035060 0.347508
Si Si6 0.134359 0.673459 0.953105
O O1 0.157938 0.865178 0.403331
O O2 0.976537 0.958727 0.677118
O O3 0.065004 0.160592 0.651325
O O4 0.976373 0.877622 0.938907
O O5 0.332101 0.298312 0.423998
O O6 0.150614 0.304791 0.703323
O O7 0.253623 0.983935 0.506652
O O8 0.340048 0.375844 0.790362
O O9 0.444963 0.098166 0.641736
O O10 0.259450 0.261290 0.169012
O O11 0.596723 0.013069 0.128932
O O12 0.598341 0.877939 0.381047
#
# Coordination Sequence:
#
# PCOD9140719 Si02
#       6
#     4   4   4   4   4   4
#     4  11  25  52  74 111 154 194 254 314 371 453
#     4  11  26  45  76 111 145 202 241 306 378 441
#     4  11  25  48  71 111 149 192 250 303 372 449
#     4  12  25  51  76 108 153 197 247 313 375 444
#     4  12  25  49  74 111 150 198 251 311 376 447
#     4  11  26  47  77 110 151 199 251 311 378 448
#
# _framework density 25.846677
#
# number of rings (size 3 to 8) (size 9 to 14) (size 15 to 20)
#    0.000    0.667    5.000    1.000    2.333    4.000 
#   12.000    0.000    0.000    0.000    0.000    0.000 
#    0.000    0.000    0.000    0.000    0.000    0.000 
#
# Total GULP energy -67061.465489 kJ/mol
# GULP energy per Si atom -5588.455457 kJ/mol
# Density = 2.578785 g / cm^3
# Si number density = 25.846677 Si / 1000 Ang^3
#
#
#
# Elastic Constant Matrix: (Units=GPa)
#
#
# Indices 1 2 3 4 5 6 
#
# 1 44.7052 1.4586 44.7337 0.0000 1.7758 0.0000
# 2 1.4586 125.6823 22.8244 0.0000 -11.2321 0.0000
# 3 44.7337 22.8244 183.6145 0.0000 -22.0501 0.0000
# 4 0.0000 0.0000 0.0000 58.2367 0.0000 -12.4571
# 5 1.7758 -11.2321 -22.0501 0.0000 27.8813 0.0000
# 6 0.0000 0.0000 0.0000 -12.4571 0.0000 34.4764
#
#
#
# Elastic Compliance Matrix: (Units=1/GPa)
#
#
# Indices 1 2 3 4 5 6 
#
# 1 0.031488 0.000445 -0.008780 0.000000 -0.008770 0.000000
# 2 0.000445 0.008340 -0.000823 0.000000 0.002680 0.000000
# 3 -0.008780 -0.000823 0.008524 0.000000 0.006969 0.000000
# 4 0.000000 0.000000 0.000000 0.018610 0.000000 0.006724
# 5 -0.008770 0.002680 0.006969 0.000000 0.043016 0.000000
# 6 0.000000 0.000000 0.000000 0.006724 0.000000 0.031435
#
#
# Mechanical properties :
#
#
# Convention : Reuss Voigt Hill
#
# Bulk Modulus (GPa) = 33.29213 54.67061 43.98137
# Shear Modulus (GPa) = 29.45642 43.11790 36.28716
#
# Velocity S-wave (km/s) = 3.37955 4.08881 3.75098
# Velocity P-wave (km/s) = 5.30444 6.59462 5.98440
#
# Compressibility (1/GPa) = 0.03003713
#
# Stress axis : x y z
#
# Youngs Moduli (GPa) = 31.75800 119.89722 117.30894
#
# Poissons Ratio (x) = -0.05339 1.02996
# Poissons Ratio (y) = -0.01414 0.09659
# Poissons Ratio (z) = 0.27883 0.09872
#
# Static dielectric constant tensor:
#      x y z
#    x 2.183180 0.000000 0.041450 
#    y 0.000000 2.037540 0.000000 
#    z 0.041450 0.000000 2.083510 
# 
# From -- ./inp_files/12361.got.cif
#   From: 2010.05.17/outbox.cif.g08.bks.cpg/sg9_7_cif.got.tgz:12361.got - 2010.06.03 20:04:27.
