data_PCOD9140332
_publ_section_title
;
Structure prediction by ZEFSAII (Michael W. Deem and Ramdas Pophale) SiO2 
 PCOD9140332
Probable space group: C C
;
_chemical_formula_sum "Si O2"
_cell_formula_units_Z 20
_cell_length_a 8.099732
_cell_length_b 19.090571
_cell_length_c 6.226570
_cell_angle_alpha 90.000000
_cell_angle_beta 128.612553
_cell_angle_gamma 90.000000
_cell_volume 752.320381
_symmetry_space_group_name_H-M "C C"
_symmetry_group_IT_number 9
_symmetry_cell_setting 'monoclinic'
loop_
_space_group_symop_operation_xyz
x,y,z
x,-y,1/2+z
1/2+x,1/2+y,z
1/2+x,1/2-y,1/2+z
loop_
_atom_site_type_symbol
_atom_site_label
_atom_site_fract_x
_atom_site_fract_y
_atom_site_fract_z
Si Si1 0.044410 0.413032 0.013530
Si Si2 0.761621 0.828740 0.506418
Si Si3 0.193499 0.020773 0.718272
Si Si4 0.433471 0.650531 0.581183
Si Si5 0.673520 0.308009 0.649668
O O1 0.097920 0.386872 0.298116
O O2 0.258181 0.398746 0.055691
O O3 0.928482 0.487059 0.915231
O O4 0.874192 0.356767 0.789507
O O5 0.707886 0.758908 0.328296
O O6 0.992704 0.853979 0.617862
O O7 0.800804 0.815006 0.784285
O O8 0.125426 0.101465 0.662656
O O9 0.120019 0.998348 0.411389
O O10 0.547952 0.706342 0.827803
#
# Coordination Sequence:
#
# PCOD9140332 Si02
#       5
#     4   4   4   4   4
#     4  11  26  50  78 119 164 222 281 352 427 502
#     4  11  25  47  79 116 166 218 285 347 428 509
#     4  12  28  53  82 120 172 222 283 353 419 519
#     4  11  28  49  80 125 167 230 285 351 432 514
#     4  11  23  51  71 118 165 210 284 349 420 508
#
# _framework density 26.584417999999999
#
# number of rings (size 3 to 8) (size 9 to 14) (size 15 to 20)
#    0.000    0.800    4.000    1.200    5.600    6.400 
#    0.000    0.000    0.000    0.000    0.000    0.000 
#    0.000    0.000    0.000    0.000    0.000    0.000 
#
# Total GULP energy -55754.664322 kJ/mol
# GULP energy per Si atom -5575.466432 kJ/mol
# Density = 2.652391 g / cm^3
# Si number density = 26.584418 Si / 1000 Ang^3
#
#
#
# Elastic Constant Matrix: (Units=GPa)
#
#
# Indices 1 2 3 4 5 6 
#
# 1 110.9634 50.8469 51.0824 0.0000 17.2064 0.0000
# 2 50.8469 110.7115 78.8919 0.0000 5.8514 0.0000
# 3 51.0824 78.8919 263.1879 0.0000 -24.6814 0.0000
# 4 0.0000 0.0000 0.0000 56.8306 0.0000 2.8234
# 5 17.2064 5.8514 -24.6814 0.0000 55.4840 0.0000
# 6 0.0000 0.0000 0.0000 2.8234 0.0000 43.5524
#
#
#
# Elastic Compliance Matrix: (Units=1/GPa)
#
#
# Indices 1 2 3 4 5 6 
#
# 1 0.012320 -0.004421 -0.001441 0.000000 -0.003996 0.000000
# 2 -0.004421 0.013525 -0.003341 0.000000 -0.001542 0.000000
# 3 -0.001441 -0.003341 0.005380 0.000000 0.003192 0.000000
# 4 0.000000 0.000000 0.000000 0.017653 0.000000 -0.001144
# 5 -0.003996 -0.001542 0.003192 0.000000 0.020845 0.000000
# 6 0.000000 0.000000 0.000000 -0.001144 0.000000 0.023035
#
#
# Mechanical properties :
#
#
# Convention : Reuss Voigt Hill
#
# Bulk Modulus (GPa) = 77.99720 94.05613 86.02666
# Shear Modulus (GPa) = 43.31401 51.44285 47.37843
#
# Velocity S-wave (km/s) = 4.04084 4.40372 4.22618
# Velocity P-wave (km/s) = 7.15362 7.83033 7.49961
#
# Compressibility (1/GPa) = 0.01282097
#
# Stress axis : x y z
#
# Youngs Moduli (GPa) = 81.16566 73.93866 185.87343
#
# Poissons Ratio (x) = 0.32685 0.26783
# Poissons Ratio (y) = 0.35879 0.62095
# Poissons Ratio (z) = 0.11695 0.24701
#
# Static dielectric constant tensor:
#      x y z
#    x 2.187530 0.000000 -0.133690 
#    y 0.000000 2.027520 0.000000 
#    z -0.133690 0.000000 2.161600 
# 
# From -- ./inp_files/714.got.cif
#   From: 2010.05.17/outbox.cif.g08.bks.cpg/sg9_1_cif.got.tgz:714.got - 2010.06.03 20:04:27.
