data_PCOD9140529
_publ_section_title
;
Structure prediction by ZEFSAII (Michael W. Deem and Ramdas Pophale) SiO2 
 PCOD9140529
Probable space group: C C
;
_chemical_formula_sum "Si O2"
_cell_formula_units_Z 32
_cell_length_a 11.660374
_cell_length_b 19.046164
_cell_length_c 8.470168
_cell_angle_alpha 90.000000
_cell_angle_beta 45.378165
_cell_angle_gamma 90.000000
_cell_volume 1338.889177
_symmetry_space_group_name_H-M "C C"
_symmetry_group_IT_number 9
_symmetry_cell_setting 'monoclinic'
loop_
_space_group_symop_operation_xyz
x,y,z
x,-y,1/2+z
1/2+x,1/2+y,z
1/2+x,1/2-y,1/2+z
loop_
_atom_site_type_symbol
_atom_site_label
_atom_site_fract_x
_atom_site_fract_y
_atom_site_fract_z
Si Si1 0.867000 0.777054 0.446950
Si Si2 0.240849 0.950429 0.488001
Si Si3 0.545342 0.276130 0.949935
Si Si4 0.746543 0.810753 0.032356
Si Si5 0.603697 0.575993 0.441929
Si Si6 0.746248 0.082605 0.943571
Si Si7 0.109333 0.449630 0.239378
Si Si8 0.171923 0.811353 0.353530
O O1 0.744170 0.840532 0.525769
O O2 0.788942 0.708099 0.596179
O O3 0.994479 0.807512 0.450738
O O4 0.953024 0.760538 0.199163
O O5 0.109849 0.948821 0.755135
O O6 0.420722 0.946618 0.382162
O O7 0.209063 0.884185 0.403926
O O8 0.218633 0.023659 0.421845
O O9 0.638864 0.212502 0.785647
O O10 0.656794 0.343036 0.879684
O O11 0.425118 0.302498 0.927831
O O12 0.698581 0.890254 0.046566
O O13 0.704701 0.753895 0.940338
O O14 0.429424 0.575676 0.695887
O O15 0.638501 0.068957 0.893586
O O16 0.692162 0.023596 0.119203
#
# Coordination Sequence:
#
# PCOD9140529 Si02
#       8
#     4   4   4   4   4   4   4   4
#     4  11  26  48  71 113 146 200 246 317 373 450
#     4  12  27  48  74 115 152 195 256 315 388 446
#     4  11  24  47  73 108 144 200 253 305 377 455
#     4  12  24  46  77 106 149 199 252 308 377 458
#     4  11  25  47  74 109 145 204 249 308 375 458
#     4  11  27  49  76 107 151 204 256 305 378 463
#     4  12  26  49  73 113 148 200 250 320 379 449
#     4  12  27  46  76 111 155 194 250 318 379 451
#
# _framework density 23.900409
#
# number of rings (size 3 to 8) (size 9 to 14) (size 15 to 20)
#    0.000    0.500    3.750    4.500    7.000    0.000 
#    2.250    0.000    0.000    0.000    0.000    0.000 
#    0.000    0.000    0.000    0.000    0.000    0.000 
#
# Total GULP energy -89621.513709 kJ/mol
# GULP energy per Si atom -5601.344607 kJ/mol
# Density = 2.384601 g / cm^3
# Si number density = 23.900409 Si / 1000 Ang^3
#
#
#
# Elastic Constant Matrix: (Units=GPa)
#
#
# Indices 1 2 3 4 5 6 
#
# 1 139.9633 7.7028 0.7124 0.0000 -0.3008 0.0000
# 2 7.7028 33.5038 10.9423 0.0000 2.2730 0.0000
# 3 0.7124 10.9423 54.4762 0.0000 13.4135 0.0000
# 4 0.0000 0.0000 0.0000 31.2539 0.0000 7.5357
# 5 -0.3008 2.2730 13.4135 0.0000 39.0342 0.0000
# 6 0.0000 0.0000 0.0000 7.5357 0.0000 43.8679
#
#
#
# Elastic Compliance Matrix: (Units=1/GPa)
#
#
# Indices 1 2 3 4 5 6 
#
# 1 0.007240 -0.001747 0.000238 0.000000 0.000076 0.000000
# 2 -0.001747 0.032370 -0.006567 0.000000 0.000358 0.000000
# 3 0.000238 -0.006567 0.021388 0.000000 -0.006965 0.000000
# 4 0.000000 0.000000 0.000000 0.033378 0.000000 -0.005734
# 5 0.000076 0.000358 -0.006965 0.000000 0.027992 0.000000
# 6 0.000000 0.000000 0.000000 -0.005734 0.000000 0.023781
#
#
# Mechanical properties :
#
#
# Convention : Reuss Voigt Hill
#
# Bulk Modulus (GPa) = 22.29986 29.62870 25.96428
# Shear Modulus (GPa) = 28.20878 36.73691 32.47285
#
# Velocity S-wave (km/s) = 3.43922 3.92482 3.69002
# Velocity P-wave (km/s) = 5.01214 5.74130 5.38907
#
# Compressibility (1/GPa) = 0.04484332
#
# Stress axis : x y z
#
# Youngs Moduli (GPa) = 138.12452 30.89315 46.75585
#
# Poissons Ratio (x) = 0.05398 -0.01111
# Poissons Ratio (y) = 0.24134 0.30706
# Poissons Ratio (z) = -0.03282 0.20288
#
# Static dielectric constant tensor:
#      x y z
#    x 1.925250 0.000000 0.011650 
#    y 0.000000 1.864680 0.000000 
#    z 0.011650 0.000000 1.943000 
# 
# From -- ./inp_files/8375.got.cif
#   From: 2010.05.17/outbox.cif.g08.bks.cpg/sg9_5_cif.got.tgz:8375.got - 2010.06.03 20:04:27.
