data_PCOD9140825
_publ_section_title
;
Structure prediction by ZEFSAII (Michael W. Deem and Ramdas Pophale) SiO2 
 PCOD9140825
Probable space group: C C
;
_chemical_formula_sum "Si O2"
_cell_formula_units_Z 24
_cell_length_a 10.254569
_cell_length_b 11.763796
_cell_length_c 7.461946
_cell_angle_alpha 90.000000
_cell_angle_beta 92.720663
_cell_angle_gamma 90.000000
_cell_volume 899.139744
_symmetry_space_group_name_H-M "C C"
_symmetry_group_IT_number 9
_symmetry_cell_setting 'monoclinic'
loop_
_space_group_symop_operation_xyz
x,y,z
x,-y,1/2+z
1/2+x,1/2+y,z
1/2+x,1/2-y,1/2+z
loop_
_atom_site_type_symbol
_atom_site_label
_atom_site_fract_x
_atom_site_fract_y
_atom_site_fract_z
Si Si1 0.037080 0.376699 0.030760
Si Si2 0.428553 0.100074 0.142045
Si Si3 0.152180 0.156359 0.209063
Si Si4 0.991845 0.922343 0.195761
Si Si5 0.808316 0.923049 0.868112
Si Si6 0.165551 0.739097 0.092205
O O1 0.070916 0.261706 0.131163
O O2 0.953774 0.465902 0.138681
O O3 0.175242 0.429841 0.972413
O O4 0.959332 0.359009 0.843752
O O5 0.281403 0.135281 0.098675
O O6 0.420772 0.381453 0.009484
O O7 0.544968 0.155253 0.036798
O O8 0.194352 0.189896 0.414895
O O9 0.066601 0.042377 0.189950
O O10 0.868016 0.954948 0.311982
O O11 0.104261 0.829807 0.230143
O O12 0.772896 0.838538 0.701112
#
# Coordination Sequence:
#
# PCOD9140825 Si02
#       6
#     4   4   4   4   4   4
#     4  11  26  52  76 113 153 209 259 323 399 461
#     4  11  27  48  79 109 158 205 262 327 386 477
#     4  12  29  48  81 115 161 207 263 329 399 475
#     4  12  27  49  79 120 155 211 263 330 399 475
#     4  11  26  47  84 108 161 206 263 330 391 474
#     4  11  27  50  75 119 150 214 262 323 402 468
#
# _framework density 26.692178999999999
#
# number of rings (size 3 to 8) (size 9 to 14) (size 15 to 20)
#    0.000    0.667    1.667    4.000    9.333    4.000 
#    3.000    0.000    0.000    0.000    0.000    0.000 
#    0.000    0.000    0.000    0.000    0.000    0.000 
#
# Total GULP energy -67198.918559 kJ/mol
# GULP energy per Si atom -5599.909880 kJ/mol
# Density = 2.663143 g / cm^3
# Si number density = 26.692179 Si / 1000 Ang^3
#
#
#
# Elastic Constant Matrix: (Units=GPa)
#
#
# Indices 1 2 3 4 5 6 
#
# 1 112.7952 30.4437 31.0558 0.0000 -2.0675 0.0000
# 2 30.4437 159.9900 33.8167 0.0000 -6.3426 0.0000
# 3 31.0558 33.8167 86.6363 0.0000 22.6949 0.0000
# 4 0.0000 0.0000 0.0000 24.9058 0.0000 4.1421
# 5 -2.0675 -6.3426 22.6949 0.0000 33.8244 0.0000
# 6 0.0000 0.0000 0.0000 4.1421 0.0000 1.6135
#
#
#
# Elastic Compliance Matrix: (Units=1/GPa)
#
#
# Indices 1 2 3 4 5 6 
#
# 1 0.010336 -0.000952 -0.004188 0.000000 0.003263 0.000000
# 2 -0.000952 0.007308 -0.003464 0.000000 0.003636 0.000000
# 3 -0.004188 -0.003464 0.017753 0.000000 -0.012817 0.000000
# 4 0.000000 0.000000 0.000000 0.070066 0.000000 -0.179869
# 5 0.003263 0.003636 -0.012817 0.000000 0.039046 0.000000
# 6 0.000000 0.000000 0.000000 -0.179869 0.000000 1.081526
#
#
# Mechanical properties :
#
#
# Convention : Reuss Voigt Hill
#
# Bulk Modulus (GPa) = 54.97848 61.11710 58.04779
# Shear Modulus (GPa) = 4.00223 29.67575 16.83899
#
# Velocity S-wave (km/s) = 1.22583 3.33795 2.51441
# Velocity P-wave (km/s) = 4.75873 6.14838 5.49764
#
# Compressibility (1/GPa) = 0.01818893
#
# Stress axis : x y z
#
# Youngs Moduli (GPa) = 96.75378 136.83981 56.32752
#
# Poissons Ratio (x) = 0.13029 0.23590
# Poissons Ratio (y) = 0.09212 0.19510
# Poissons Ratio (z) = 0.40521 0.47397
#
# Static dielectric constant tensor:
#      x y z
#    x 2.109500 0.000000 -0.085070 
#    y 0.000000 2.160550 0.000000 
#    z -0.085070 0.000000 2.152630 
# 
# From -- ./inp_files/6967.got.cif
#   From: 2010.05.17/outbox.cif.g08.bks.cpg/sg9_4_cif.got.tgz:6967.got - 2010.06.03 20:04:27.
