data_PCOD9140609
_publ_section_title
;
Structure prediction by ZEFSAII (Michael W. Deem and Ramdas Pophale) SiO2 
 PCOD9140609
Probable space group: C C
;
_chemical_formula_sum "Si O2"
_cell_formula_units_Z 28
_cell_length_a 8.814565
_cell_length_b 9.757125
_cell_length_c 25.016965
_cell_angle_alpha 90.000000
_cell_angle_beta 150.488989
_cell_angle_gamma 90.000000
_cell_volume 1059.848241
_symmetry_space_group_name_H-M "C C"
_symmetry_group_IT_number 9
_symmetry_cell_setting 'monoclinic'
loop_
_space_group_symop_operation_xyz
x,y,z
x,-y,1/2+z
1/2+x,1/2+y,z
1/2+x,1/2-y,1/2+z
loop_
_atom_site_type_symbol
_atom_site_label
_atom_site_fract_x
_atom_site_fract_y
_atom_site_fract_z
Si Si1 0.205910 0.901105 0.875000
Si Si2 0.270181 0.739901 0.323109
Si Si3 0.270439 0.071759 0.989485
Si Si4 0.704243 0.954877 0.482505
Si Si5 0.600115 0.210396 0.630399
Si Si6 0.645995 0.953984 0.340638
Si Si7 0.886727 0.760389 0.685231
O O1 0.011751 0.786787 0.848833
O O2 0.068312 0.877724 0.774185
O O3 0.575269 0.923543 0.980253
O O4 0.125244 0.030266 0.887866
O O5 0.465657 0.832404 0.422283
O O6 0.185713 0.599147 0.324552
O O7 0.944163 0.810739 0.213516
O O8 0.545138 0.180139 0.072309
O O9 0.405557 0.924126 0.052166
O O10 0.979719 0.119440 0.935008
O O11 0.630060 0.988225 0.398338
O O12 0.008336 0.864075 0.581570
O O13 0.545068 0.224446 0.677378
O O14 0.403229 0.871209 0.229504
#
# Coordination Sequence:
#
# PCOD9140609 Si02
#       7
#     4   4   4   4   4   4   4
#     4  11  24  51  73 106 160 194 253 325 380 443
#     4  11  26  48  72 107 149 196 248 317 377 455
#     4  11  26  50  76 111 158 203 253 322 380 462
#     4  12  24  49  73 106 150 200 252 316 382 454
#     4  12  26  45  79 107 149 205 258 309 386 459
#     4  11  26  47  74 109 156 199 251 320 388 445
#     4  12  26  46  77 116 146 211 255 315 383 468
#
# _framework density 26.418876999999998
#
# number of rings (size 3 to 8) (size 9 to 14) (size 15 to 20)
#    0.000    0.571    5.714    1.714   10.000    0.000 
#    5.143    0.000    0.000    0.000    0.000    0.000 
#    0.000    0.000    0.000    0.000    0.000    0.000 
#
# Total GULP energy -78088.194299 kJ/mol
# GULP energy per Si atom -5577.728164 kJ/mol
# Density = 2.635875 g / cm^3
# Si number density = 26.418877 Si / 1000 Ang^3
#
#
#
# Elastic Constant Matrix: (Units=GPa)
#
#
# Indices 1 2 3 4 5 6 
#
# 1 129.4789 31.5733 10.3286 0.0000 -13.1540 0.0000
# 2 31.5733 103.8556 26.3309 0.0000 -0.9429 0.0000
# 3 10.3286 26.3309 86.1053 0.0002 18.6288 0.0000
# 4 0.0000 0.0000 0.0002 57.0545 0.0000 14.8695
# 5 -13.1540 -0.9429 18.6288 0.0000 51.1747 0.0000
# 6 0.0000 0.0000 0.0000 14.8695 0.0000 16.3392
#
#
#
# Elastic Compliance Matrix: (Units=1/GPa)
#
#
# Indices 1 2 3 4 5 6 
#
# 1 0.008624 -0.002386 -0.000841 0.000000 0.002479 0.000000
# 2 -0.002386 0.011201 -0.003312 0.000000 0.000799 0.000000
# 3 -0.000841 -0.003312 0.013880 0.000000 -0.005330 0.000000
# 4 0.000000 0.000000 0.000000 0.022977 0.000000 -0.020910
# 5 0.002479 0.000799 -0.005330 0.000000 0.022133 0.000000
# 6 0.000000 0.000000 0.000000 -0.020910 0.000000 0.080231
#
#
# Mechanical properties :
#
#
# Convention : Reuss Voigt Hill
#
# Bulk Modulus (GPa) = 48.47894 50.65615 49.56754
# Shear Modulus (GPa) = 27.93288 41.66082 34.79685
#
# Velocity S-wave (km/s) = 3.25515 3.97537 3.63315
# Velocity P-wave (km/s) = 5.70245 6.34723 6.03346
#
# Compressibility (1/GPa) = 0.02062751
#
# Stress axis : x y z
#
# Youngs Moduli (GPa) = 115.95490 89.27731 72.04356
#
# Poissons Ratio (x) = 0.21302 0.06060
# Poissons Ratio (y) = 0.27667 0.23860
# Poissons Ratio (z) = 0.09754 0.29567
#
# Static dielectric constant tensor:
#      x y z
#    x 2.127330 0.000000 0.051900 
#    y 0.000000 2.152740 0.000000 
#    z 0.051900 0.000000 2.139520 
# 
# From -- ./inp_files/22564.got.cif
#   From: 2010.05.17/outbox.cif.g08.bks.cpg/sg9_12_cif.got.tgz:22564.got - 2010.06.03 20:04:27.
