data_PCOD9140803
_publ_section_title
;
Structure prediction by ZEFSAII (Michael W. Deem and Ramdas Pophale) SiO2 
 PCOD9140803
Probable space group: C C
;
_chemical_formula_sum "Si O2"
_cell_formula_units_Z 28
_cell_length_a 6.895570
_cell_length_b 7.306492
_cell_length_c 28.104461
_cell_angle_alpha 90.000000
_cell_angle_beta 125.207882
_cell_angle_gamma 90.000000
_cell_volume 1156.941148
_symmetry_space_group_name_H-M "C C"
_symmetry_group_IT_number 9
_symmetry_cell_setting 'monoclinic'
loop_
_space_group_symop_operation_xyz
x,y,z
x,-y,1/2+z
1/2+x,1/2+y,z
1/2+x,1/2-y,1/2+z
loop_
_atom_site_type_symbol
_atom_site_label
_atom_site_fract_x
_atom_site_fract_y
_atom_site_fract_z
Si Si1 0.789760 0.331411 0.497740
Si Si2 0.951742 0.530046 0.330536
Si Si3 0.944072 0.919368 0.226123
Si Si4 0.660078 0.528810 0.573548
Si Si5 0.868413 0.030047 0.816560
Si Si6 0.376084 0.919369 0.920972
Si Si7 0.530395 0.331411 0.649355
O O1 0.783699 0.412501 0.549736
O O2 0.523314 0.265696 0.448208
O O3 0.881152 0.471491 0.471004
O O4 0.961912 0.157405 0.521835
O O5 0.160078 0.500001 0.323548
O O6 0.718399 0.420606 0.280820
O O7 0.910076 0.750000 0.323548
O O8 0.997584 0.483767 0.392343
O O9 0.939004 0.028510 0.176091
O O10 0.822572 0.016232 0.254753
O O11 0.796842 0.734303 0.198888
O O12 0.536454 0.412502 0.597360
O O13 0.858245 0.657404 0.625260
O O14 0.101758 0.920607 0.866276
#
# Coordination Sequence:
#
# PCOD9140803 Si02
#       7
#     4   4   4   4   4   4   4
#     4  12  26  47  74 102 144 187 240 304 356 422
#     4  11  26  46  71 113 147 188 236 290 349 453
#     4  11  26  47  76 108 146 191 236 291 368 424
#     4  12  28  48  72 106 138 186 252 298 356 420
#     4  11  26  46  71 113 147 188 236 290 349 453
#     4  11  26  47  76 108 146 191 236 291 368 424
#     4  12  26  47  74 102 144 187 240 304 356 422
#
# _framework density 24.201749
#
# number of rings (size 3 to 8) (size 9 to 14) (size 15 to 20)
#    0.000    0.571    2.857    3.429    4.000    9.143 
#    0.000    0.000    0.000    0.000    0.000    0.000 
#    0.000    0.000    0.000    0.000    0.000    0.000 
#
# Total GULP energy -78468.474416 kJ/mol
# GULP energy per Si atom -5604.891030 kJ/mol
# Density = 2.414666 g / cm^3
# Si number density = 24.201749 Si / 1000 Ang^3
#
#
#
# Elastic Constant Matrix: (Units=GPa)
#
#
# Indices 1 2 3 4 5 6 
#
# 1 174.1699 29.6940 19.8629 0.0000 -21.8290 0.0000
# 2 29.6940 59.4601 -10.4896 0.0000 -5.4953 0.0000
# 3 19.8629 -10.4896 61.2663 0.0000 -16.7661 0.0000
# 4 0.0000 0.0000 0.0000 28.0129 0.0000 0.8221
# 5 -21.8290 -5.4953 -16.7661 0.0000 53.0589 0.0000
# 6 0.0000 0.0000 0.0000 0.8221 0.0000 38.3007
#
#
#
# Elastic Compliance Matrix: (Units=1/GPa)
#
#
# Indices 1 2 3 4 5 6 
#
# 1 0.006854 -0.003690 -0.002394 0.000000 0.001681 0.000000
# 2 -0.003690 0.019774 0.005174 0.000000 0.002165 0.000000
# 3 -0.002394 0.005174 0.019552 0.000000 0.005729 0.000000
# 4 0.000000 0.000000 0.000000 0.035720 0.000000 -0.000767
# 5 0.001681 0.002165 0.005729 0.000000 0.021573 0.000000
# 6 0.000000 0.000000 0.000000 -0.000767 0.000000 0.026126
#
#
# Mechanical properties :
#
#
# Convention : Reuss Voigt Hill
#
# Bulk Modulus (GPa) = 22.54232 41.44787 31.99510
# Shear Modulus (GPa) = 34.19845 40.92977 37.56411
#
# Velocity S-wave (km/s) = 3.76314 4.11687 3.94397
# Velocity P-wave (km/s) = 5.31189 6.30566 5.82999
#
# Compressibility (1/GPa) = 0.04436100
#
# Stress axis : x y z
#
# Youngs Moduli (GPa) = 145.89287 50.57233 51.14543
#
# Poissons Ratio (x) = 0.18661 0.12244
# Poissons Ratio (y) = 0.53834 -0.26464
# Poissons Ratio (z) = 0.34925 -0.26168
#
# Static dielectric constant tensor:
#      x y z
#    x 1.888310 0.000000 0.021100 
#    y 0.000000 1.935740 0.000000 
#    z 0.021100 0.000000 1.973110 
# 
# From -- ./inp_files/34860.got.cif
#   From: 2010.05.17/outbox.cif.g08.bks.cpg/sg9_18_cif.got.tgz:34860.got - 2010.06.03 20:04:27.
