data_PCOD9140084
_publ_section_title
;
Structure prediction by ZEFSAII (Michael W. Deem and Ramdas Pophale) SiO2 
 PCOD9140084
Probable space group: C C
;
_chemical_formula_sum "Si O2"
_cell_formula_units_Z 24
_cell_length_a 13.766826
_cell_length_b 10.380539
_cell_length_c 10.170680
_cell_angle_alpha 90.000000
_cell_angle_beta 137.627984
_cell_angle_gamma 90.000000
_cell_volume 979.548640
_symmetry_space_group_name_H-M "C C"
_symmetry_group_IT_number 9
_symmetry_cell_setting 'monoclinic'
loop_
_space_group_symop_operation_xyz
x,y,z
x,-y,1/2+z
1/2+x,1/2+y,z
1/2+x,1/2-y,1/2+z
loop_
_atom_site_type_symbol
_atom_site_label
_atom_site_fract_x
_atom_site_fract_y
_atom_site_fract_z
Si Si1 0.454230 0.911747 0.651530
Si Si2 0.887364 0.605300 0.419565
Si Si3 0.561876 0.359823 0.526599
Si Si4 0.561876 0.640177 0.491752
Si Si5 0.190172 0.248631 0.887472
Si Si6 0.387364 0.105300 0.749763
O O1 0.357762 0.779570 0.555062
O O2 0.626942 0.891279 0.824241
O O3 0.417644 0.938331 0.449093
O O4 0.425922 0.074644 0.623222
O O5 0.713264 0.619809 0.253671
O O6 0.917644 0.561669 0.280795
O O7 0.964543 0.745509 0.484962
O O8 0.489402 0.500000 0.436702
O O9 0.621730 0.316156 0.445841
O O10 0.621730 0.683844 0.692218
O O11 0.464543 0.754491 0.338724
O O12 0.713264 0.619809 0.567458
#
# Coordination Sequence:
#
# PCOD9140084 Si02
#       6
#     4   4   4   4   4   4
#     4  12  24  43  69  95 133 173 219 264 330 386
#     4  11  23  42  64  96 131 165 216 272 315 382
#     4  11  23  41  67  95 132 168 216 270 324 382
#     4  11  23  41  67  95 132 168 216 270 324 382
#     4  12  20  41  69  91 127 181 207 258 330 388
#     4  11  23  42  64  96 131 165 216 272 315 382
#
# _framework density 24.501083000000001
#
# number of rings (size 3 to 8) (size 9 to 14) (size 15 to 20)
#    0.000    0.667   10.000    0.000    0.000    4.000 
#    6.000    0.000    0.000    0.000    0.000    0.000 
#    0.000    0.000    0.000    0.000    0.000    0.000 
#
# Total GULP energy -66855.386304 kJ/mol
# GULP energy per Si atom -5571.282192 kJ/mol
# Density = 2.444532 g / cm^3
# Si number density = 24.501083 Si / 1000 Ang^3
#
#
#
# Elastic Constant Matrix: (Units=GPa)
#
#
# Indices 1 2 3 4 5 6 
#
# 1 110.1199 75.0445 25.5058 0.0000 -10.6380 0.0000
# 2 75.0445 227.1933 88.5624 0.0000 24.3860 0.0000
# 3 25.5058 88.5624 101.7702 0.0000 -4.4228 0.0000
# 4 0.0000 0.0000 0.0000 47.4661 0.0000 2.4633
# 5 -10.6380 24.3860 -4.4228 0.0000 50.5699 0.0000
# 6 0.0000 0.0000 0.0000 2.4633 0.0000 46.1016
#
#
#
# Elastic Compliance Matrix: (Units=1/GPa)
#
#
# Indices 1 2 3 4 5 6 
#
# 1 0.013036 -0.005648 0.001893 0.000000 0.005631 0.000000
# 2 -0.005648 0.009893 -0.007481 0.000000 -0.006613 0.000000
# 3 0.001893 -0.007481 0.016097 0.000000 0.005414 0.000000
# 4 0.000000 0.000000 0.000000 0.021126 0.000000 -0.001129
# 5 0.005631 -0.006613 0.005414 0.000000 0.024622 0.000000
# 6 0.000000 0.000000 0.000000 -0.001129 0.000000 0.021752
#
#
# Mechanical properties :
#
#
# Convention : Reuss Voigt Hill
#
# Bulk Modulus (GPa) = 60.41124 90.81208 75.61166
# Shear Modulus (GPa) = 37.17020 45.49224 41.33122
#
# Velocity S-wave (km/s) = 3.89920 4.31367 4.11166
# Velocity P-wave (km/s) = 6.70685 7.87117 7.31222
#
# Compressibility (1/GPa) = 0.01655321
#
# Stress axis : x y z
#
# Youngs Moduli (GPa) = 76.71234 101.07899 62.12267
#
# Poissons Ratio (x) = 0.57091 -0.11759
# Poissons Ratio (y) = 0.43328 0.46475
# Poissons Ratio (z) = -0.14520 0.75619
#
# Static dielectric constant tensor:
#      x y z
#    x 2.090960 0.000000 -0.208820 
#    y 0.000000 1.976100 0.000000 
#    z -0.208820 0.000000 1.975200 
# 
# From -- ./inp_files/26651.got.cif
#   From: 2010.05.17/outbox.cif.g08.bks.cpg/sg9_14_cif.got.tgz:26651.got - 2010.06.03 20:04:27.
