data_PCOD9140773
_publ_section_title
;
Structure prediction by ZEFSAII (Michael W. Deem and Ramdas Pophale) SiO2 
 PCOD9140773
Probable space group: C C
;
_chemical_formula_sum "Si O2"
_cell_formula_units_Z 24
_cell_length_a 9.132418
_cell_length_b 20.620954
_cell_length_c 9.306582
_cell_angle_alpha 90.000000
_cell_angle_beta 31.768544
_cell_angle_gamma 90.000000
_cell_volume 922.728937
_symmetry_space_group_name_H-M "C C"
_symmetry_group_IT_number 9
_symmetry_cell_setting 'monoclinic'
loop_
_space_group_symop_operation_xyz
x,y,z
x,-y,1/2+z
1/2+x,1/2+y,z
1/2+x,1/2-y,1/2+z
loop_
_atom_site_type_symbol
_atom_site_label
_atom_site_fract_x
_atom_site_fract_y
_atom_site_fract_z
Si Si1 0.276480 0.796017 0.788260
Si Si2 0.738149 0.125842 0.961031
Si Si3 0.355609 0.082749 0.773042
Si Si4 0.508010 0.295235 0.485810
Si Si5 0.642365 0.512314 0.695355
Si Si6 0.382750 0.384942 0.007821
O O1 0.414649 0.855716 0.762597
O O2 0.642076 0.888290 0.092114
O O3 0.039540 0.748757 0.041591
O O4 0.120023 0.830996 0.787532
O O5 0.913320 0.177106 0.909193
O O6 0.876594 0.057415 0.883896
O O7 0.762831 0.128556 0.767155
O O8 0.131522 0.140686 0.957061
O O9 0.268342 0.025218 0.954347
O O10 0.360515 0.053168 0.608450
O O11 0.744205 0.240627 0.273379
O O12 0.529141 0.454085 0.887404
#
# Coordination Sequence:
#
# PCOD9140773 Si02
#       6
#     4   4   4   4   4   4
#     4  12  26  47  77 118 160 212 276 343 412 495
#     4  11  25  50  83 121 160 219 281 346 416 505
#     4  11  28  51  81 122 168 225 276 356 422 510
#     4  11  28  53  83 117 167 220 283 344 425 504
#     4  11  26  51  80 121 169 220 282 343 432 506
#     4  12  27  46  80 121 164 216 276 346 423 490
#
# _framework density 26.009806000000001
#
# number of rings (size 3 to 8) (size 9 to 14) (size 15 to 20)
#    0.000    0.667    3.333    2.000    9.333    1.333 
#    6.000    0.000    0.000    0.000    0.000    0.000 
#    0.000    0.000    0.000    0.000    0.000    0.000 
#
# Total GULP energy -67200.123106 kJ/mol
# GULP energy per Si atom -5600.010259 kJ/mol
# Density = 2.595061 g / cm^3
# Si number density = 26.009806 Si / 1000 Ang^3
#
#
#
# Elastic Constant Matrix: (Units=GPa)
#
#
# Indices 1 2 3 4 5 6 
#
# 1 196.8300 69.8204 56.3968 0.0000 -18.2961 0.0000
# 2 69.8204 124.8203 36.0134 0.0000 -9.2192 0.0000
# 3 56.3968 36.0134 90.9694 -0.0001 -17.5716 0.0000
# 4 0.0000 0.0000 -0.0001 41.5196 0.0001 -9.2008
# 5 -18.2961 -9.2192 -17.5716 0.0001 49.2796 0.0000
# 6 0.0000 0.0000 0.0000 -9.2008 0.0000 56.0426
#
#
#
# Elastic Compliance Matrix: (Units=1/GPa)
#
#
# Indices 1 2 3 4 5 6 
#
# 1 0.007114 -0.003036 -0.003016 0.000000 0.000998 0.000000
# 2 -0.003036 0.010349 -0.002211 0.000000 0.000021 0.000000
# 3 -0.003016 -0.002211 0.014436 0.000000 0.003614 0.000000
# 4 0.000000 0.000000 0.000000 0.024994 0.000000 0.004103
# 5 0.000998 0.000021 0.003614 0.000000 0.021955 0.000000
# 6 0.000000 0.000000 0.000000 0.004103 0.000000 0.018517
#
#
# Mechanical properties :
#
#
# Convention : Reuss Voigt Hill
#
# Bulk Modulus (GPa) = 65.04571 81.89787 73.47179
# Shear Modulus (GPa) = 42.01114 46.06098 44.03606
#
# Velocity S-wave (km/s) = 4.02332 4.21278 4.11914
# Velocity P-wave (km/s) = 6.82973 7.43095 7.13668
#
# Compressibility (1/GPa) = 0.01537380
#
# Stress axis : x y z
#
# Youngs Moduli (GPa) = 140.56300 96.62763 69.27176
#
# Poissons Ratio (x) = 0.29332 0.20892
# Poissons Ratio (y) = 0.42669 0.15317
# Poissons Ratio (z) = 0.42394 0.21365
#
# Static dielectric constant tensor:
#      x y z
#    x 2.019530 0.000000 0.003560 
#    y 0.000000 2.054160 0.000000 
#    z 0.003560 0.000000 2.132050 
# 
# From -- ./inp_files/5321.got.cif
#   From: 2010.05.17/outbox.cif.g08.bks.cpg/sg9_3_cif.got.tgz:5321.got - 2010.06.03 20:04:27.
