data_PCOD9140855
_publ_section_title
;
Structure prediction by ZEFSAII (Michael W. Deem and Ramdas Pophale) SiO2 
 PCOD9140855
Probable space group: C C
;
_chemical_formula_sum "Si O2"
_cell_formula_units_Z 28
_cell_length_a 19.577665
_cell_length_b 7.887528
_cell_length_c 9.069902
_cell_angle_alpha 90.000000
_cell_angle_beta 133.433980
_cell_angle_gamma 90.000000
_cell_volume 1017.046816
_symmetry_space_group_name_H-M "C C"
_symmetry_group_IT_number 9
_symmetry_cell_setting 'monoclinic'
loop_
_space_group_symop_operation_xyz
x,y,z
x,-y,1/2+z
1/2+x,1/2+y,z
1/2+x,1/2-y,1/2+z
loop_
_atom_site_type_symbol
_atom_site_label
_atom_site_fract_x
_atom_site_fract_y
_atom_site_fract_z
Si Si1 0.278160 0.102869 0.993990
Si Si2 0.450677 0.739977 0.581674
Si Si3 0.315091 0.244969 0.631199
Si Si4 0.638925 0.231159 0.083485
Si Si5 0.808627 0.729409 0.337713
Si Si6 0.513628 0.645677 0.136220
Si Si7 0.109310 0.356736 0.027608
O O1 0.180630 0.160009 0.779683
O O2 0.361118 0.218925 0.054743
O O3 0.285229 0.073632 0.177990
O O4 0.297054 0.903764 0.973732
O O5 0.407586 0.789485 0.359217
O O6 0.486321 0.550550 0.603908
O O7 0.534950 0.838180 0.785780
O O8 0.228321 0.282201 0.605142
O O9 0.320678 0.372636 0.505421
O O10 0.605480 0.046675 0.082601
O O11 0.560822 0.313611 0.863350
O O12 0.716281 0.828811 0.137030
O O13 0.919277 0.749887 0.462836
O O14 0.584410 0.713995 0.113527
#
# Coordination Sequence:
#
# PCOD9140855 Si02
#       7
#     4   4   4   4   4   4   4
#     4  11  26  51  83 123 166 218 281 353 427 500
#     4  11  28  52  83 121 173 219 279 350 426 502
#     4  11  26  51  83 123 166 218 281 353 427 500
#     4  11  28  52  83 121 173 219 279 350 426 502
#     4  12  26  46  84 112 168 206 290 344 426 480
#     4  12  29  51  83 125 169 222 287 346 423 506
#     4  12  29  51  83 125 169 222 287 346 423 506
#
# _framework density 27.53069
#
# number of rings (size 3 to 8) (size 9 to 14) (size 15 to 20)
#    0.000    0.571    2.857    3.429   12.000    3.429 
#    0.000    0.000    0.000    0.000    0.000    0.000 
#    0.000    0.000    0.000    0.000    0.000    0.000 
#
# Total GULP energy -78261.470899 kJ/mol
# GULP energy per Si atom -5590.105064 kJ/mol
# Density = 2.746803 g / cm^3
# Si number density = 27.530690 Si / 1000 Ang^3
#
#
#
# Elastic Constant Matrix: (Units=GPa)
#
#
# Indices 1 2 3 4 5 6 
#
# 1 98.0811 35.1756 43.7168 0.0000 -10.7039 0.0000
# 2 35.1756 186.0882 71.3208 0.0000 16.8359 0.0000
# 3 43.7168 71.3208 285.9214 0.0000 9.5366 0.0000
# 4 0.0000 0.0000 0.0000 37.6732 0.0000 5.2663
# 5 -10.7039 16.8359 9.5366 0.0000 58.6404 0.0000
# 6 0.0000 0.0000 0.0000 5.2663 0.0000 42.6131
#
#
#
# Elastic Compliance Matrix: (Units=1/GPa)
#
#
# Indices 1 2 3 4 5 6 
#
# 1 0.011857 -0.001964 -0.001422 0.000000 0.002959 0.000000
# 2 -0.001964 0.006396 -0.001229 0.000000 -0.001995 0.000000
# 3 -0.001422 -0.001229 0.004040 0.000000 -0.000564 0.000000
# 4 0.000000 0.000000 0.000000 0.027011 0.000000 -0.003338
# 5 0.002959 -0.001995 -0.000564 0.000000 0.018258 0.000000
# 6 0.000000 0.000000 0.000000 -0.003338 0.000000 0.023880
#
#
# Mechanical properties :
#
#
# Convention : Reuss Voigt Hill
#
# Bulk Modulus (GPa) = 76.54392 96.72413 86.63402
# Shear Modulus (GPa) = 47.60776 55.77719 51.69247
#
# Velocity S-wave (km/s) = 4.16295 4.50599 4.33786
# Velocity P-wave (km/s) = 7.13935 7.89186 7.52502
#
# Compressibility (1/GPa) = 0.01306440
#
# Stress axis : x y z
#
# Youngs Moduli (GPa) = 84.34076 156.33586 247.51722
#
# Poissons Ratio (x) = 0.30706 0.35188
# Poissons Ratio (y) = 0.16565 0.30412
# Poissons Ratio (z) = 0.11990 0.19209
#
# Static dielectric constant tensor:
#      x y z
#    x 2.242510 0.000000 -0.074560 
#    y 0.000000 2.357810 0.000000 
#    z -0.074560 0.000000 2.081580 
# 
# From -- ./inp_files/11373.got.cif
#   From: 2010.05.17/outbox.cif.g08.bks.cpg/sg9_6_cif.got.tgz:11373.got - 2010.06.03 20:04:27.
