data_PCOD9140386
_publ_section_title
;
Structure prediction by ZEFSAII (Michael W. Deem and Ramdas Pophale) SiO2 
 PCOD9140386
Probable space group: C C
;
_chemical_formula_sum "Si O2"
_cell_formula_units_Z 32
_cell_length_a 28.655383
_cell_length_b 8.920527
_cell_length_c 8.934985
_cell_angle_alpha 90.000000
_cell_angle_beta 39.095430
_cell_angle_gamma 90.000000
_cell_volume 1440.303782
_symmetry_space_group_name_H-M "C C"
_symmetry_group_IT_number 9
_symmetry_cell_setting 'monoclinic'
loop_
_space_group_symop_operation_xyz
x,y,z
x,-y,1/2+z
1/2+x,1/2+y,z
1/2+x,1/2-y,1/2+z
loop_
_atom_site_type_symbol
_atom_site_label
_atom_site_fract_x
_atom_site_fract_y
_atom_site_fract_z
Si Si1 0.252980 0.653636 0.288330
Si Si2 0.585890 0.854150 0.249483
Si Si3 0.088514 0.926892 0.956256
Si Si4 0.346469 0.465965 0.277834
Si Si5 0.249478 0.979261 0.170073
Si Si6 0.496106 0.084374 0.673550
Si Si7 0.996033 0.867045 0.481662
Si Si8 0.842214 0.640829 0.161172
O O1 0.170055 0.591862 0.515841
O O2 0.305241 0.596401 0.290167
O O3 0.246993 0.832929 0.283744
O O4 0.291789 0.588130 0.044191
O O5 0.591183 0.694268 0.317028
O O6 0.544446 0.855362 0.193253
O O7 0.540734 0.955244 0.478843
O O8 0.041011 0.866730 0.214555
O O9 0.168881 0.976751 0.812335
O O10 0.047343 0.065225 0.983370
O O11 0.360296 0.315545 0.145055
O O12 0.423973 0.529677 0.143008
O O13 0.285373 0.117633 0.167640
O O14 0.302217 0.926775 0.905059
O O15 0.478233 0.203798 0.587769
O O16 0.416090 0.048015 0.941100
#
# Coordination Sequence:
#
# PCOD9140386 Si02
#       8
#     4   4   4   4   4   4   4   4
#     4  11  24  44  67  98 135 174 227 278 341 404
#     4  12  26  44  68 100 136 176 223 280 339 404
#     4  12  25  45  70  98 136 180 228 279 340 405
#     4  11  25  43  69  98 133 179 224 282 339 403
#     4  11  25  43  69  98 133 179 224 282 339 403
#     4  12  26  44  68 100 136 176 223 280 339 404
#     4  12  25  45  70  98 136 180 228 279 340 405
#     4  11  24  44  67  98 135 174 227 278 341 404
#
# _framework density 22.217534000000001
#
# number of rings (size 3 to 8) (size 9 to 14) (size 15 to 20)
#    0.000    0.500    0.000    9.000    0.000   12.000 
#    0.000    0.000    0.000    0.000    0.000    0.000 
#    0.000    0.000    0.000    0.000    0.000    0.000 
#
# Total GULP energy -89621.307904 kJ/mol
# GULP energy per Si atom -5601.331744 kJ/mol
# Density = 2.216697 g / cm^3
# Si number density = 22.217534 Si / 1000 Ang^3
#
#
#
# Elastic Constant Matrix: (Units=GPa)
#
#
# Indices 1 2 3 4 5 6 
#
# 1 95.5505 15.2819 9.3311 0.0000 -15.9265 0.0000
# 2 15.2819 76.9944 16.3288 0.0000 -5.3839 0.0000
# 3 9.3311 16.3288 137.1856 0.0000 -13.4936 0.0000
# 4 0.0000 0.0000 0.0000 28.9410 0.0000 -3.8114
# 5 -15.9265 -5.3839 -13.4936 0.0000 37.8441 0.0000
# 6 0.0000 0.0000 0.0000 -3.8114 0.0000 14.9232
#
#
#
# Elastic Compliance Matrix: (Units=1/GPa)
#
#
# Indices 1 2 3 4 5 6 
#
# 1 0.011545 -0.001951 -0.000106 0.000000 0.004543 0.000000
# 2 -0.001951 0.013724 -0.001440 0.000000 0.000618 0.000000
# 3 -0.000106 -0.001440 0.007714 0.000000 0.002501 0.000000
# 4 0.000000 0.000000 0.000000 0.035756 0.000000 0.009132
# 5 0.004543 0.000618 0.002501 0.000000 0.029316 0.000000
# 6 0.000000 0.000000 0.000000 0.009132 0.000000 0.069342
#
#
# Mechanical properties :
#
#
# Convention : Reuss Voigt Hill
#
# Bulk Modulus (GPa) = 38.47888 43.51267 40.99578
# Shear Modulus (GPa) = 27.31422 34.26090 30.78756
#
# Velocity S-wave (km/s) = 3.51008 3.93117 3.72658
# Velocity P-wave (km/s) = 5.81243 6.34294 6.08347
#
# Compressibility (1/GPa) = 0.02598828
#
# Stress axis : x y z
#
# Youngs Moduli (GPa) = 86.61448 72.86585 129.63421
#
# Poissons Ratio (x) = 0.14219 0.01376
# Poissons Ratio (y) = 0.16901 0.18668
# Poissons Ratio (z) = 0.00919 0.10493
#
# Static dielectric constant tensor:
#      x y z
#    x 1.780020 0.000000 0.019050 
#    y 0.000000 1.870250 0.000000 
#    z 0.019050 0.000000 1.814090 
# 
# From -- ./inp_files/12401.got.cif
#   From: 2010.05.17/outbox.cif.g08.bks.cpg/sg9_7_cif.got.tgz:12401.got - 2010.06.03 20:04:27.
