data_PCOD9140449
_publ_section_title
;
Structure prediction by ZEFSAII (Michael W. Deem and Ramdas Pophale) SiO2 
 PCOD9140449
Probable space group: C C
;
_chemical_formula_sum "Si O2"
_cell_formula_units_Z 24
_cell_length_a 8.539456
_cell_length_b 12.298324
_cell_length_c 10.185844
_cell_angle_alpha 90.000000
_cell_angle_beta 118.342159
_cell_angle_gamma 90.000000
_cell_volume 941.497409
_symmetry_space_group_name_H-M "C C"
_symmetry_group_IT_number 9
_symmetry_cell_setting 'monoclinic'
loop_
_space_group_symop_operation_xyz
x,y,z
x,-y,1/2+z
1/2+x,1/2+y,z
1/2+x,1/2-y,1/2+z
loop_
_atom_site_type_symbol
_atom_site_label
_atom_site_fract_x
_atom_site_fract_y
_atom_site_fract_z
Si Si1 0.947200 0.802571 0.081340
Si Si2 0.513677 0.466335 0.470923
Si Si3 0.768096 0.369863 0.367125
Si Si4 0.166347 0.225594 0.177455
Si Si5 0.144023 0.544870 0.698007
Si Si6 0.954574 0.558956 0.348757
O O1 0.762689 0.777740 0.086187
O O2 0.109210 0.797013 0.247382
O O3 0.932182 0.706617 0.969962
O O4 0.971734 0.919078 0.022242
O O5 0.692804 0.443128 0.458376
O O6 0.525101 0.366293 0.579227
O O7 0.355907 0.453776 0.301888
O O8 0.818047 0.459189 0.280584
O O9 0.090054 0.331350 0.217814
O O10 0.331041 0.164589 0.313299
O O11 0.067763 0.530969 0.522519
O O12 0.071535 0.452609 0.765988
#
# Coordination Sequence:
#
# PCOD9140449 Si02
#       6
#     4   4   4   4   4   4
#     4  11  24  45  75 107 147 195 247 303 377 435
#     4  11  24  45  76 106 147 198 249 300 373 444
#     4  11  26  47  75 105 148 198 243 313 368 445
#     4  11  24  49  74 106 150 196 246 309 371 434
#     4  12  26  45  76 108 147 198 244 305 374 443
#     4  12  28  49  72 112 153 189 251 312 367 443
#
# _framework density 25.491306000000002
#
# number of rings (size 3 to 8) (size 9 to 14) (size 15 to 20)
#    0.000    0.667    3.333    4.000    7.000    1.333 
#    3.000    0.000    0.000    0.000    0.000    0.000 
#    0.000    0.000    0.000    0.000    0.000    0.000 
#
# Total GULP energy -67096.030824 kJ/mol
# GULP energy per Si atom -5591.335902 kJ/mol
# Density = 2.543329 g / cm^3
# Si number density = 25.491306 Si / 1000 Ang^3
#
#
#
# Elastic Constant Matrix: (Units=GPa)
#
#
# Indices 1 2 3 4 5 6 
#
# 1 42.9524 33.8022 23.7965 0.0000 8.5712 0.0000
# 2 33.8022 184.5323 46.4842 0.0000 2.3436 0.0000
# 3 23.7965 46.4842 158.3036 0.0000 19.5087 0.0000
# 4 0.0000 0.0000 0.0000 46.4102 0.0000 1.0472
# 5 8.5712 2.3436 19.5087 0.0000 31.9801 0.0000
# 6 0.0000 0.0000 0.0000 1.0472 0.0000 47.6843
#
#
#
# Elastic Compliance Matrix: (Units=1/GPa)
#
#
# Indices 1 2 3 4 5 6 
#
# 1 0.029518 -0.004754 -0.002281 0.000000 -0.006172 0.000000
# 2 -0.004754 0.006631 -0.001438 0.000000 0.001665 0.000000
# 3 -0.002281 -0.001438 0.007562 0.000000 -0.003897 0.000000
# 4 0.000000 0.000000 0.000000 0.021558 0.000000 -0.000473
# 5 -0.006172 0.001665 -0.003897 0.000000 0.035178 0.000000
# 6 0.000000 0.000000 0.000000 -0.000473 0.000000 0.020982
#
#
# Mechanical properties :
#
#
# Convention : Reuss Voigt Hill
#
# Bulk Modulus (GPa) = 37.36051 65.99490 51.67771
# Shear Modulus (GPa) = 33.94525 43.99529 38.97027
#
# Velocity S-wave (km/s) = 3.65312 4.15889 3.91419
# Velocity P-wave (km/s) = 5.69928 7.00052 6.38314
#
# Compressibility (1/GPa) = 0.02676623
#
# Stress axis : x y z
#
# Youngs Moduli (GPa) = 33.87756 150.80749 132.23738
#
# Poissons Ratio (x) = 0.71696 0.30158
# Poissons Ratio (y) = 0.16106 0.19012
# Poissons Ratio (z) = 0.07726 0.21681
#
# Static dielectric constant tensor:
#      x y z
#    x 2.061020 0.000000 -0.028310 
#    y 0.000000 2.064570 0.000000 
#    z -0.028310 0.000000 2.046160 
# 
# From -- ./inp_files/14262.got.cif
#   From: 2010.05.17/outbox.cif.g08.bks.cpg/sg9_8_cif.got.tgz:14262.got - 2010.06.03 20:04:27.
