data_PCOD9140215
_publ_section_title
;
Structure prediction by ZEFSAII (Michael W. Deem and Ramdas Pophale) SiO2 
 PCOD9140215
Probable space group: C C
;
_chemical_formula_sum "Si O2"
_cell_formula_units_Z 28
_cell_length_a 8.337954
_cell_length_b 16.396455
_cell_length_c 10.874654
_cell_angle_alpha 90.000000
_cell_angle_beta 123.480073
_cell_angle_gamma 90.000000
_cell_volume 1240.027824
_symmetry_space_group_name_H-M "C C"
_symmetry_group_IT_number 9
_symmetry_cell_setting 'monoclinic'
loop_
_space_group_symop_operation_xyz
x,y,z
x,-y,1/2+z
1/2+x,1/2+y,z
1/2+x,1/2-y,1/2+z
loop_
_atom_site_type_symbol
_atom_site_label
_atom_site_fract_x
_atom_site_fract_y
_atom_site_fract_z
Si Si1 0.301660 0.525622 0.253690
Si Si2 0.536486 0.396548 0.237780
Si Si3 0.681538 0.594932 0.532583
Si Si4 0.917224 0.354071 0.901450
Si Si5 0.937117 0.622343 0.003324
Si Si6 0.516248 0.973306 0.317122
Si Si7 0.289992 0.248579 0.128137
O O1 0.386528 0.470972 0.179490
O O2 0.485957 0.570496 0.383417
O O3 0.211831 0.471198 0.323843
O O4 0.119103 0.582175 0.147892
O O5 0.606556 0.372225 0.131853
O O6 0.723575 0.417724 0.398016
O O7 0.427191 0.318415 0.240795
O O8 0.801308 0.642531 0.480072
O O9 0.835325 0.528487 0.647851
O O10 0.786972 0.319252 0.734499
O O11 0.987769 0.445251 0.888826
O O12 0.100036 0.296123 0.004683
O O13 0.887896 0.705420 0.051529
O O14 0.005195 0.609543 0.891913
#
# Coordination Sequence:
#
# PCOD9140215 Si02
#       7
#     4   4   4   4   4   4   4
#     4  12  22  43  76 110 141 189 250 306 357 427
#     4  11  25  46  71 105 151 191 238 308 370 442
#     4  11  25  45  73 109 144 188 255 301 364 429
#     4  12  26  47  75 105 150 195 244 304 374 442
#     4  11  24  45  69 108 141 192 241 302 363 437
#     4  11  23  45  75 106 141 187 250 309 354 438
#     4  12  25  49  71 103 150 198 238 304 384 439
#
# _framework density 22.580137000000001
#
# number of rings (size 3 to 8) (size 9 to 14) (size 15 to 20)
#    0.000    0.571    2.857    6.857    0.000    0.000 
#   10.286    0.000    0.000    0.000    0.000    0.000 
#    0.000    0.000    0.000    0.000    0.000    0.000 
#
# Total GULP energy -78044.699971 kJ/mol
# GULP energy per Si atom -5574.621427 kJ/mol
# Density = 2.252874 g / cm^3
# Si number density = 22.580137 Si / 1000 Ang^3
#
#
#
# Elastic Constant Matrix: (Units=GPa)
#
#
# Indices 1 2 3 4 5 6 
#
# 1 121.2902 53.9076 41.2043 0.0000 13.2051 0.0000
# 2 53.9076 62.5302 55.0454 0.0000 8.9425 0.0000
# 3 41.2043 55.0454 125.6486 0.0000 16.5923 0.0000
# 4 0.0000 0.0000 0.0000 34.8775 0.0000 -6.6707
# 5 13.2051 8.9425 16.5923 0.0000 45.8836 0.0000
# 6 0.0000 0.0000 0.0000 -6.6707 0.0000 22.8943
#
#
#
# Elastic Compliance Matrix: (Units=1/GPa)
#
#
# Indices 1 2 3 4 5 6 
#
# 1 0.013619 -0.012627 0.001322 0.000000 -0.001936 0.000000
# 2 -0.012627 0.037783 -0.012517 0.000000 0.000797 0.000000
# 3 0.001322 -0.012517 0.013376 0.000000 -0.002778 0.000000
# 4 0.000000 0.000000 0.000000 0.030364 0.000000 0.008847
# 5 -0.001936 0.000797 -0.002778 0.000000 0.023201 0.000000
# 6 0.000000 0.000000 0.000000 0.008847 0.000000 0.046257
#
#
# Mechanical properties :
#
#
# Convention : Reuss Voigt Hill
#
# Bulk Modulus (GPa) = 58.36866 67.75373 63.06119
# Shear Modulus (GPa) = 22.94065 31.35184 27.14624
#
# Velocity S-wave (km/s) = 3.19088 3.73026 3.47106
# Velocity P-wave (km/s) = 6.28341 6.97310 6.63722
#
# Compressibility (1/GPa) = 0.01713248
#
# Stress axis : x y z
#
# Youngs Moduli (GPa) = 73.42823 26.46716 74.76353
#
# Poissons Ratio (x) = 0.33421 -0.09880
# Poissons Ratio (y) = 0.92719 0.93578
# Poissons Ratio (z) = -0.09704 0.33128
#
# Static dielectric constant tensor:
#      x y z
#    x 1.846020 0.000000 -0.032970 
#    y 0.000000 1.847600 0.000000 
#    z -0.032970 0.000000 1.890120 
# 
# From -- ./inp_files/15138.got.cif
#   From: 2010.05.17/outbox.cif.g08.bks.cpg/sg9_8_cif.got.tgz:15138.got - 2010.06.03 20:04:27.
