data_PCOD9140010
_publ_section_title
;
Structure prediction by ZEFSAII (Michael W. Deem and Ramdas Pophale) SiO2 
 PCOD9140010
Probable space group: C C
;
_chemical_formula_sum "Si O2"
_cell_formula_units_Z 28
_cell_length_a 10.246656
_cell_length_b 10.036816
_cell_length_c 24.146384
_cell_angle_alpha 90.000000
_cell_angle_beta 33.719164
_cell_angle_gamma 90.000000
_cell_volume 1378.539392
_symmetry_space_group_name_H-M "C C"
_symmetry_group_IT_number 9
_symmetry_cell_setting 'monoclinic'
loop_
_space_group_symop_operation_xyz
x,y,z
x,-y,1/2+z
1/2+x,1/2+y,z
1/2+x,1/2-y,1/2+z
loop_
_atom_site_type_symbol
_atom_site_label
_atom_site_fract_x
_atom_site_fract_y
_atom_site_fract_z
Si Si1 0.309500 0.031986 0.300430
Si Si2 0.771356 0.018494 0.692145
Si Si3 0.582659 0.831844 0.969303
Si Si4 0.547666 0.160448 0.354391
Si Si5 0.526345 0.321724 0.196057
Si Si6 0.935078 0.067145 0.847362
Si Si7 0.165259 0.042697 0.966220
O O1 0.428403 0.175038 0.246342
O O2 0.525991 0.946157 0.248975
O O3 0.137150 0.019635 0.414474
O O4 0.168904 0.983251 0.296715
O O5 0.876810 0.125441 0.696943
O O6 0.735335 0.883603 0.741814
O O7 0.947465 0.992349 0.580748
O O8 0.623993 0.810066 0.889140
O O9 0.693092 0.700903 0.957406
O O10 0.721476 0.966587 0.934648
O O11 0.303724 0.828263 0.082119
O O12 0.399134 0.284884 0.384454
O O13 0.388790 0.029209 0.413441
O O14 0.479665 0.414027 0.266274
#
# Coordination Sequence:
#
# PCOD9140010 Si02
#       7
#     4   4   4   4   4   4   4
#     4  11  26  43  73 101 145 181 235 293 348 419
#     4  11  23  45  73  98 141 189 231 286 361 412
#     4  12  25  43  73 106 138 183 242 288 354 417
#     4  11  23  44  68  99 143 184 232 287 349 422
#     4  12  25  46  71 107 142 182 238 298 348 427
#     4  12  26  44  70 104 141 185 235 295 345 423
#     4  11  22  45  72  97 138 192 223 291 355 416
#
# _framework density 20.311354000000001
#
# number of rings (size 3 to 8) (size 9 to 14) (size 15 to 20)
#    0.000    0.571    8.571    0.000    4.000    2.286 
#    0.000    0.000    0.000    0.000    0.000    0.000 
#    0.000    0.000    0.000    0.000    0.000    0.000 
#
# Total GULP energy -78121.807887 kJ/mol
# GULP energy per Si atom -5580.129135 kJ/mol
# Density = 2.026512 g / cm^3
# Si number density = 20.311354 Si / 1000 Ang^3
#
#
#
# Elastic Constant Matrix: (Units=GPa)
#
#
# Indices 1 2 3 4 5 6 
#
# 1 89.0846 34.1199 38.7673 0.0000 -6.1284 0.0000
# 2 34.1199 113.3729 49.0667 -0.0001 -15.3277 0.0000
# 3 38.7673 49.0667 125.6884 -0.0004 4.7869 0.0001
# 4 0.0000 -0.0001 -0.0004 23.9256 0.0004 -7.4087
# 5 -6.1284 -15.3277 4.7869 0.0004 24.2504 0.0000
# 6 0.0000 0.0000 0.0001 -7.4087 0.0000 38.9580
#
#
#
# Elastic Compliance Matrix: (Units=1/GPa)
#
#
# Indices 1 2 3 4 5 6 
#
# 1 0.013796 -0.002282 -0.003468 0.000000 0.002729 0.000000
# 2 -0.002282 0.012583 -0.004523 0.000000 0.008269 0.000000
# 3 -0.003468 -0.004523 0.011017 0.000000 -0.005910 0.000000
# 4 0.000000 0.000000 0.000000 0.044411 -0.000001 0.008446
# 5 0.002729 0.008269 -0.005910 -0.000001 0.048319 0.000000
# 6 0.000000 0.000000 0.000000 0.008446 0.000000 0.027275
#
#
# Mechanical properties :
#
#
# Convention : Reuss Voigt Hill
#
# Bulk Modulus (GPa) = 59.35152 63.56154 61.45653
# Shear Modulus (GPa) = 27.23827 31.17294 29.20560
#
# Velocity S-wave (km/s) = 3.66599 3.92184 3.79607
# Velocity P-wave (km/s) = 6.87049 7.20204 7.03822
#
# Compressibility (1/GPa) = 0.01684877
#
# Stress axis : x y z
#
# Youngs Moduli (GPa) = 72.48263 79.47342 90.77004
#
# Poissons Ratio (x) = 0.18136 0.31483
# Poissons Ratio (y) = 0.16541 0.41057
# Poissons Ratio (z) = 0.25140 0.35947
#
# Static dielectric constant tensor:
#      x y z
#    x 1.726640 0.000000 0.000010 
#    y 0.000000 1.742200 0.000000 
#    z 0.000010 0.000000 1.784180 
# 
# From -- ./inp_files/20842.got.cif
#   From: 2010.05.17/outbox.cif.g08.bks.cpg/sg9_11_cif.got.tgz:20842.got - 2010.06.03 20:04:27.
