data_PCOD9140485
_publ_section_title
;
Structure prediction by ZEFSAII (Michael W. Deem and Ramdas Pophale) SiO2 
 PCOD9140485
Probable space group: C C
;
_chemical_formula_sum "Si O2"
_cell_formula_units_Z 28
_cell_length_a 6.427865
_cell_length_b 17.085056
_cell_length_c 14.205436
_cell_angle_alpha 90.000000
_cell_angle_beta 54.192463
_cell_angle_gamma 90.000000
_cell_volume 1265.177736
_symmetry_space_group_name_H-M "C C"
_symmetry_group_IT_number 9
_symmetry_cell_setting 'monoclinic'
loop_
_space_group_symop_operation_xyz
x,y,z
x,-y,1/2+z
1/2+x,1/2+y,z
1/2+x,1/2-y,1/2+z
loop_
_atom_site_type_symbol
_atom_site_label
_atom_site_fract_x
_atom_site_fract_y
_atom_site_fract_z
Si Si1 0.020590 0.695335 0.920900
Si Si2 0.322981 0.162273 0.762169
Si Si3 0.322012 0.448209 0.403840
Si Si4 0.565155 0.683814 0.168494
Si Si5 0.754947 0.041508 0.235659
Si Si6 0.782111 0.069760 0.568551
Si Si7 0.750008 0.352164 0.832970
O O1 0.107239 0.615016 0.942473
O O2 0.244764 0.760400 0.864738
O O3 0.933425 0.674257 0.838621
O O4 0.784612 0.722320 0.047508
O O5 0.329209 0.254317 0.732083
O O6 0.524796 0.120383 0.638827
O O7 0.083346 0.102918 0.829518
O O8 0.294277 0.517221 0.333963
O O9 0.267471 0.488733 0.516593
O O10 0.468500 0.603727 0.149309
O O11 0.669345 0.659468 0.244501
O O12 0.487209 0.087870 0.286104
O O13 0.802066 0.959989 0.170102
O O14 0.020475 0.112228 0.457078
#
# Coordination Sequence:
#
# PCOD9140485 Si02
#       7
#     4   4   4   4   4   4   4
#     4  11  24  46  72  99 139 188 231 287 351 421
#     4  11  25  47  67 103 140 181 237 282 353 424
#     4  12  26  42  70 103 141 182 230 291 353 417
#     4  11  24  46  72  99 139 188 231 287 351 421
#     4  12  26  42  70 103 141 182 230 291 353 417
#     4  12  24  46  68 102 140 178 230 294 346 422
#     4  11  25  47  67 103 140 181 237 282 353 424
#
# _framework density 22.131277999999998
#
# number of rings (size 3 to 8) (size 9 to 14) (size 15 to 20)
#    0.000    0.571    4.286    3.429    4.000    0.000 
#    0.000    2.857    0.000    0.000    0.000    0.000 
#    0.000    0.000    0.000    0.000    0.000    0.000 
#
# Total GULP energy -78049.460547 kJ/mol
# GULP energy per Si atom -5574.961468 kJ/mol
# Density = 2.208091 g / cm^3
# Si number density = 22.131278 Si / 1000 Ang^3
#
#
#
# Elastic Constant Matrix: (Units=GPa)
#
#
# Indices 1 2 3 4 5 6 
#
# 1 61.8005 26.1822 29.8275 0.0000 -17.5152 0.0000
# 2 26.1822 97.8044 7.6234 0.0000 -4.0955 0.0000
# 3 29.8275 7.6234 95.7979 0.0000 -12.7709 0.0000
# 4 0.0000 0.0000 0.0000 120.0771 0.0000 0.7982
# 5 -17.5152 -4.0955 -12.7709 0.0000 23.9984 0.0000
# 6 0.0000 0.0000 0.0000 0.7982 0.0000 37.6031
#
#
#
# Elastic Compliance Matrix: (Units=1/GPa)
#
#
# Indices 1 2 3 4 5 6 
#
# 1 0.025433 -0.005766 -0.005507 0.000000 0.014648 0.000000
# 2 -0.005766 0.011641 0.000616 0.000000 -0.001894 0.000000
# 3 -0.005507 0.000616 0.012467 0.000000 0.002720 0.000000
# 4 0.000000 0.000000 0.000000 0.008329 0.000000 -0.000177
# 5 0.014648 -0.001894 0.002720 0.000000 0.053484 0.000000
# 6 0.000000 0.000000 0.000000 -0.000177 0.000000 0.026597
#
#
# Mechanical properties :
#
#
# Convention : Reuss Voigt Hill
#
# Bulk Modulus (GPa) = 35.42648 42.51874 38.97261
# Shear Modulus (GPa) = 29.64297 49.12037 39.38167
#
# Velocity S-wave (km/s) = 3.66377 4.71627 4.22294
# Velocity P-wave (km/s) = 5.82579 6.99366 6.43627
#
# Compressibility (1/GPa) = 0.02822747
#
# Stress axis : x y z
#
# Youngs Moduli (GPa) = 39.31867 85.90583 80.21207
#
# Poissons Ratio (x) = 0.49532 0.44175
# Poissons Ratio (y) = 0.22670 -0.04945
# Poissons Ratio (z) = 0.21654 -0.05296
#
# Static dielectric constant tensor:
#      x y z
#    x 1.825450 0.000000 -0.021840 
#    y 0.000000 1.721930 0.000000 
#    z -0.021840 0.000000 1.805200 
# 
# From -- ./inp_files/13068.got.cif
#   From: 2010.05.17/outbox.cif.g08.bks.cpg/sg9_7_cif.got.tgz:13068.got - 2010.06.03 20:04:27.
