data_PCOD9140467
_publ_section_title
;
Structure prediction by ZEFSAII (Michael W. Deem and Ramdas Pophale) SiO2 
 PCOD9140467
Probable space group: C C
;
_chemical_formula_sum "Si O2"
_cell_formula_units_Z 28
_cell_length_a 18.773662
_cell_length_b 12.191311
_cell_length_c 7.727187
_cell_angle_alpha 90.000000
_cell_angle_beta 44.780704
_cell_angle_gamma 90.000000
_cell_volume 1245.768130
_symmetry_space_group_name_H-M "C C"
_symmetry_group_IT_number 9
_symmetry_cell_setting 'monoclinic'
loop_
_space_group_symop_operation_xyz
x,y,z
x,-y,1/2+z
1/2+x,1/2+y,z
1/2+x,1/2-y,1/2+z
loop_
_atom_site_type_symbol
_atom_site_label
_atom_site_fract_x
_atom_site_fract_y
_atom_site_fract_z
Si Si1 0.959290 0.550165 0.678640
Si Si2 0.430974 0.297664 0.794680
Si Si3 0.755137 0.576713 0.504359
Si Si4 0.106411 0.936059 0.558511
Si Si5 0.070008 0.621923 0.160156
Si Si6 0.966157 0.847796 0.320086
Si Si7 0.291851 0.682947 0.834774
O O1 0.937637 0.666675 0.803022
O O2 0.983047 0.588577 0.445152
O O3 0.057816 0.478088 0.550667
O O4 0.862612 0.472896 0.867408
O O5 0.527476 0.342524 0.733569
O O6 0.439127 0.336284 0.576329
O O7 0.337789 0.344309 0.066314
O O8 0.695355 0.474725 0.527448
O O9 0.774917 0.685584 0.362782
O O10 0.672354 0.610824 0.787687
O O11 0.034325 0.044108 0.665001
O O12 0.035072 0.741802 0.157434
O O13 0.181716 0.630514 0.043549
O O14 0.868881 0.844718 0.360000
#
# Coordination Sequence:
#
# PCOD9140467 Si02
#       7
#     4   4   4   4   4   4   4
#     4  11  24  46  68 107 144 185 246 299 359 437
#     4  11  26  48  70 108 147 189 242 301 369 435
#     4  12  23  42  78 107 132 196 252 298 354 430
#     4  12  23  46  72 104 146 182 248 303 357 430
#     4  11  24  47  69 104 147 187 240 308 362 428
#     4  11  25  48  73 104 148 187 242 308 358 439
#     4  12  25  47  74 106 144 192 242 297 373 437
#
# _framework density 22.476094
#
# number of rings (size 3 to 8) (size 9 to 14) (size 15 to 20)
#    0.000    0.571    4.286    4.286    2.000    1.143 
#    2.571    0.000    0.000    0.000    0.000    0.000 
#    0.000    0.000    0.000    0.000    0.000    0.000 
#
# Total GULP energy -78048.685686 kJ/mol
# GULP energy per Si atom -5574.906120 kJ/mol
# Density = 2.242494 g / cm^3
# Si number density = 22.476094 Si / 1000 Ang^3
#
#
#
# Elastic Constant Matrix: (Units=GPa)
#
#
# Indices 1 2 3 4 5 6 
#
# 1 136.2912 31.4936 38.7436 0.0000 -30.1547 0.0000
# 2 31.4936 60.6605 33.9535 0.0000 -8.7615 0.0000
# 3 38.7436 33.9535 117.0594 0.0000 -10.8309 0.0000
# 4 0.0000 0.0000 0.0000 24.6915 0.0000 -2.2234
# 5 -30.1547 -8.7615 -10.8309 0.0000 40.2227 0.0000
# 6 0.0000 0.0000 0.0000 -2.2234 0.0000 19.1975
#
#
#
# Elastic Compliance Matrix: (Units=1/GPa)
#
#
# Indices 1 2 3 4 5 6 
#
# 1 0.009994 -0.003287 -0.001771 0.000000 0.006300 0.000000
# 2 -0.003287 0.021079 -0.004952 0.000000 0.000793 0.000000
# 3 -0.001771 -0.004952 0.010607 0.000000 0.000449 0.000000
# 4 0.000000 0.000000 0.000000 0.040927 0.000000 0.004740
# 5 0.006300 0.000793 0.000449 0.000000 0.029878 0.000000
# 6 0.000000 0.000000 0.000000 0.004740 0.000000 0.052639
#
#
# Mechanical properties :
#
#
# Convention : Reuss Voigt Hill
#
# Bulk Modulus (GPa) = 46.17399 58.04363 52.10881
# Shear Modulus (GPa) = 25.99221 30.81037 28.40129
#
# Velocity S-wave (km/s) = 3.40433 3.70646 3.55860
# Velocity P-wave (km/s) = 6.00340 6.64814 6.33398
#
# Compressibility (1/GPa) = 0.02165721
#
# Stress axis : x y z
#
# Youngs Moduli (GPa) = 100.05784 47.44151 94.27702
#
# Poissons Ratio (x) = 0.15596 0.16701
# Poissons Ratio (y) = 0.32893 0.46691
# Poissons Ratio (z) = 0.17725 0.23495
#
# Static dielectric constant tensor:
#      x y z
#    x 1.842270 0.000000 0.014170 
#    y 0.000000 2.084320 0.000000 
#    z 0.014170 0.000000 1.696810 
# 
# From -- ./inp_files/6985.got.cif
#   From: 2010.05.17/outbox.cif.g08.bks.cpg/sg9_4_cif.got.tgz:6985.got - 2010.06.03 20:04:27.
