data_PCOD9140547
_publ_section_title
;
Structure prediction by ZEFSAII (Michael W. Deem and Ramdas Pophale) SiO2 
 PCOD9140547
Probable space group: C C
;
_chemical_formula_sum "Si O2"
_cell_formula_units_Z 24
_cell_length_a 9.069615
_cell_length_b 10.356814
_cell_length_c 12.845351
_cell_angle_alpha 90.000000
_cell_angle_beta 131.817157
_cell_angle_gamma 90.000000
_cell_volume 899.245678
_symmetry_space_group_name_H-M "C C"
_symmetry_group_IT_number 9
_symmetry_cell_setting 'monoclinic'
loop_
_space_group_symop_operation_xyz
x,y,z
x,-y,1/2+z
1/2+x,1/2+y,z
1/2+x,1/2-y,1/2+z
loop_
_atom_site_type_symbol
_atom_site_label
_atom_site_fract_x
_atom_site_fract_y
_atom_site_fract_z
Si Si1 0.222830 0.781212 0.806500
Si Si2 0.395765 0.885128 0.554269
Si Si3 0.761972 0.022389 0.704693
Si Si4 0.111550 0.347784 0.873448
Si Si5 0.112494 0.122548 0.466928
Si Si6 0.477919 0.527283 0.608931
O O1 0.186898 0.643811 0.735211
O O2 0.450523 0.819683 0.888294
O O3 0.178717 0.776346 0.909601
O O4 0.088091 0.892601 0.686856
O O5 0.269172 0.768944 0.449769
O O6 0.488371 0.857272 0.710459
O O7 0.580047 0.938676 0.575334
O O8 0.248892 0.002295 0.501975
O O9 0.915131 0.078762 0.692461
O O10 0.893784 0.920355 0.829715
O O11 0.254743 0.471341 0.957443
O O12 0.108478 0.115823 0.591763
#
# Coordination Sequence:
#
# PCOD9140547 Si02
#       6
#     4   4   4   4   4   4
#     4  11  25  50  86 111 168 221 264 350 419 483
#     4  12  26  49  81 115 166 217 274 337 417 492
#     4  11  25  52  78 119 167 213 278 341 409 492
#     4  12  25  48  80 113 167 217 268 343 411 491
#     4  11  24  47  78 125 153 210 281 327 416 501
#     4  11  25  48  79 119 159 212 277 332 416 497
#
# _framework density 26.689036000000002
#
# number of rings (size 3 to 8) (size 9 to 14) (size 15 to 20)
#    0.000    0.667    5.000    2.000    2.333    1.333 
#    9.000    0.000    0.000    0.000    0.000    0.000 
#    0.000    0.000    0.000    0.000    0.000    0.000 
#
# Total GULP energy -67068.659846 kJ/mol
# GULP energy per Si atom -5589.054987 kJ/mol
# Density = 2.662829 g / cm^3
# Si number density = 26.689036 Si / 1000 Ang^3
#
#
#
# Elastic Constant Matrix: (Units=GPa)
#
#
# Indices 1 2 3 4 5 6 
#
# 1 182.5515 54.8414 33.6130 0.0000 -20.9985 0.0000
# 2 54.8414 131.2871 42.7211 0.0000 11.8286 0.0000
# 3 33.6130 42.7211 110.7750 0.0000 12.7464 0.0000
# 4 0.0000 0.0000 0.0000 59.2291 0.0000 12.1957
# 5 -20.9985 11.8286 12.7464 0.0000 70.8184 0.0000
# 6 0.0000 0.0000 0.0000 12.1957 0.0000 38.6926
#
#
#
# Elastic Compliance Matrix: (Units=1/GPa)
#
#
# Indices 1 2 3 4 5 6 
#
# 1 0.006840 -0.002659 -0.001363 0.000000 0.002718 0.000000
# 2 -0.002659 0.009796 -0.002749 0.000000 -0.001930 0.000000
# 3 -0.001363 -0.002749 0.010717 0.000000 -0.001874 0.000000
# 4 0.000000 0.000000 0.000000 0.018055 0.000000 -0.005691
# 5 0.002718 -0.001930 -0.001874 0.000000 0.015586 0.000000
# 6 0.000000 0.000000 0.000000 -0.005691 0.000000 0.027639
#
#
# Mechanical properties :
#
#
# Convention : Reuss Voigt Hill
#
# Bulk Modulus (GPa) = 72.40370 76.32941 74.36656
# Shear Modulus (GPa) = 46.82628 53.31056 50.06842
#
# Velocity S-wave (km/s) = 4.19324 4.47416 4.33597
# Velocity P-wave (km/s) = 7.11560 7.43992 7.27957
#
# Compressibility (1/GPa) = 0.01381145
#
# Stress axis : x y z
#
# Youngs Moduli (GPa) = 146.19574 102.08385 93.31252
#
# Poissons Ratio (x) = 0.27140 0.12718
# Poissons Ratio (y) = 0.38868 0.25652
# Poissons Ratio (z) = 0.19925 0.28064
#
# Static dielectric constant tensor:
#      x y z
#    x 2.200880 0.000000 -0.116650 
#    y 0.000000 2.082370 0.000000 
#    z -0.116650 0.000000 2.162210 
# 
# From -- ./inp_files/22654.got.cif
#   From: 2010.05.17/outbox.cif.g08.bks.cpg/sg9_12_cif.got.tgz:22654.got - 2010.06.03 20:04:27.
