data_PCOD9140405
_publ_section_title
;
Structure prediction by ZEFSAII (Michael W. Deem and Ramdas Pophale) SiO2 
 PCOD9140405
Probable space group: C C
;
_chemical_formula_sum "Si O2"
_cell_formula_units_Z 24
_cell_length_a 14.982138
_cell_length_b 12.276621
_cell_length_c 9.969614
_cell_angle_alpha 90.000000
_cell_angle_beta 32.404592
_cell_angle_gamma 90.000000
_cell_volume 982.675786
_symmetry_space_group_name_H-M "C C"
_symmetry_group_IT_number 9
_symmetry_cell_setting 'monoclinic'
loop_
_space_group_symop_operation_xyz
x,y,z
x,-y,1/2+z
1/2+x,1/2+y,z
1/2+x,1/2-y,1/2+z
loop_
_atom_site_type_symbol
_atom_site_label
_atom_site_fract_x
_atom_site_fract_y
_atom_site_fract_z
Si Si1 0.103600 0.092989 0.173720
Si Si2 0.435314 0.809840 0.915462
Si Si3 0.056841 0.386867 0.468507
Si Si4 0.788131 0.215207 0.466768
Si Si5 0.721917 0.512393 0.281034
Si Si6 0.713665 0.877140 0.770927
O O1 0.280141 0.157308 0.945115
O O2 0.090639 0.055554 0.340492
O O3 0.961625 0.169870 0.296896
O O4 0.126028 0.997665 0.041284
O O5 0.512918 0.845497 0.673695
O O6 0.564714 0.825629 0.872498
O O7 0.369693 0.685981 0.005736
O O8 0.288736 0.897081 0.136425
O O9 0.156809 0.300687 0.253229
O O10 0.175402 0.494262 0.315501
O O11 0.886970 0.418275 0.605642
O O12 0.728898 0.154044 0.407993
#
# Coordination Sequence:
#
# PCOD9140405 Si02
#       6
#     4   4   4   4   4   4
#     4  12  27  47  76 106 150 196 251 310 385 462
#     4  11  24  44  74 108 145 200 248 315 386 452
#     4  11  26  48  72 109 153 195 253 326 383 453
#     4  12  27  47  74 108 151 200 249 312 390 460
#     4  11  24  48  73 105 145 196 253 316 380 459
#     4  11  24  44  75 106 150 197 254 307 386 462
#
# _framework density 24.423110999999999
#
# number of rings (size 3 to 8) (size 9 to 14) (size 15 to 20)
#    0.000    0.667    3.333    4.000    7.000    2.667 
#    3.000    0.000    0.000    0.000    0.000    0.000 
#    0.000    0.000    0.000    0.000    0.000    0.000 
#
# Total GULP energy -67152.299824 kJ/mol
# GULP energy per Si atom -5596.024985 kJ/mol
# Density = 2.436752 g / cm^3
# Si number density = 24.423111 Si / 1000 Ang^3
#
#
#
# Elastic Constant Matrix: (Units=GPa)
#
#
# Indices 1 2 3 4 5 6 
#
# 1 190.2751 41.7070 45.8913 0.0000 19.1222 0.0000
# 2 41.7070 65.1992 44.5460 0.0000 10.0371 0.0000
# 3 45.8913 44.5460 90.6183 0.0000 15.1627 0.0000
# 4 0.0000 0.0000 0.0000 39.3732 0.0000 -5.8989
# 5 19.1222 10.0371 15.1627 0.0000 34.9618 0.0000
# 6 0.0000 0.0000 0.0000 -5.8989 0.0000 35.7527
#
#
#
# Elastic Compliance Matrix: (Units=1/GPa)
#
#
# Indices 1 2 3 4 5 6 
#
# 1 0.006440 -0.002725 -0.001578 0.000000 -0.002056 0.000000
# 2 -0.002725 0.024357 -0.010430 0.000000 -0.000979 0.000000
# 3 -0.001578 -0.010430 0.017593 0.000000 -0.003773 0.000000
# 4 0.000000 0.000000 0.000000 0.026042 0.000000 0.004297
# 5 -0.002056 -0.000979 -0.003773 0.000000 0.031644 0.000000
# 6 0.000000 0.000000 0.000000 0.004297 0.000000 0.028679
#
#
# Mechanical properties :
#
#
# Convention : Reuss Voigt Hill
#
# Bulk Modulus (GPa) = 52.84082 67.82012 60.33047
# Shear Modulus (GPa) = 29.32066 36.28076 32.80071
#
# Velocity S-wave (km/s) = 3.46862 3.85841 3.66870
# Velocity P-wave (km/s) = 6.14202 6.90499 6.53465
#
# Compressibility (1/GPa) = 0.01892476
#
# Stress axis : x y z
#
# Youngs Moduli (GPa) = 155.27923 41.05529 56.84213
#
# Poissons Ratio (x) = 0.11188 0.08969
# Poissons Ratio (y) = 0.42316 0.59285
# Poissons Ratio (z) = 0.24500 0.42819
#
# Static dielectric constant tensor:
#      x y z
#    x 1.892850 0.000000 -0.007180 
#    y 0.000000 1.996970 0.000000 
#    z -0.007180 0.000000 1.944610 
# 
# From -- ./inp_files/6931.got.cif
#   From: 2010.05.17/outbox.cif.g08.bks.cpg/sg9_4_cif.got.tgz:6931.got - 2010.06.03 20:04:27.
