data_PCOD9140329
_publ_section_title
;
Structure prediction by ZEFSAII (Michael W. Deem and Ramdas Pophale) SiO2 
 PCOD9140329
Probable space group: C C
;
_chemical_formula_sum "Si O2"
_cell_formula_units_Z 32
_cell_length_a 14.928167
_cell_length_b 11.657164
_cell_length_c 9.017791
_cell_angle_alpha 90.000000
_cell_angle_beta 58.090348
_cell_angle_gamma 90.000000
_cell_volume 1332.131865
_symmetry_space_group_name_H-M "C C"
_symmetry_group_IT_number 9
_symmetry_cell_setting 'monoclinic'
loop_
_space_group_symop_operation_xyz
x,y,z
x,-y,1/2+z
1/2+x,1/2+y,z
1/2+x,1/2-y,1/2+z
loop_
_atom_site_type_symbol
_atom_site_label
_atom_site_fract_x
_atom_site_fract_y
_atom_site_fract_z
Si Si1 0.585660 0.120655 0.846240
Si Si2 0.989151 0.147355 0.453401
Si Si3 0.002770 0.402154 0.092674
Si Si4 0.135267 0.035259 0.739247
Si Si5 0.265598 0.113844 0.889122
Si Si6 0.799300 0.883534 0.326622
Si Si7 0.332511 0.367391 0.841579
Si Si8 0.933478 0.191891 0.952226
O O1 0.571899 0.119119 0.680245
O O2 0.699580 0.147833 0.815546
O O3 0.510471 0.221777 0.968882
O O4 0.548839 0.003561 0.953665
O O5 0.896085 0.099664 0.631750
O O6 0.945336 0.138694 0.324809
O O7 0.091798 0.070972 0.374923
O O8 0.885951 0.426695 0.260537
O O9 0.987495 0.297159 0.991046
O O10 0.200416 0.970359 0.553887
O O11 0.210694 0.110049 0.776762
O O12 0.028492 0.110870 0.806818
O O13 0.274038 0.247614 0.931857
O O14 0.847099 0.791044 0.398741
O O15 0.782561 0.008299 0.417975
O O16 0.360632 0.361960 0.644400
#
# Coordination Sequence:
#
# PCOD9140329 Si02
#       8
#     4   4   4   4   4   4   4   4
#     4  12  30  49  80 112 159 214 263 327 417 468
#     4  12  26  49  74 110 160 198 267 338 387 480
#     4  11  28  54  75 114 165 208 266 337 398 492
#     4  12  24  45  79 115 145 209 257 320 398 474
#     4  11  26  44  80 108 157 202 261 321 404 468
#     4  12  27  47  79 118 152 205 276 327 399 483
#     4  11  23  50  75 104 159 210 251 338 389 468
#     4  11  24  50  76 113 159 202 265 328 392 475
#
# _framework density 24.021646
#
# number of rings (size 3 to 8) (size 9 to 14) (size 15 to 20)
#    0.000    0.500    5.000    2.250    8.750    0.000 
#    9.000    0.000    0.000    0.000    0.000    0.000 
#    0.000    0.000    0.000    0.000    0.000    0.000 
#
# Total GULP energy -89443.768029 kJ/mol
# GULP energy per Si atom -5590.235502 kJ/mol
# Density = 2.396697 g / cm^3
# Si number density = 24.021646 Si / 1000 Ang^3
#
#
#
# Elastic Constant Matrix: (Units=GPa)
#
#
# Indices 1 2 3 4 5 6 
#
# 1 170.6690 48.0359 46.1642 0.0000 18.4814 0.0000
# 2 48.0359 129.0010 32.6088 0.0000 9.4838 0.0000
# 3 46.1642 32.6088 95.2447 0.0000 -11.6312 0.0000
# 4 0.0000 0.0000 0.0000 34.0295 0.0000 4.7335
# 5 18.4814 9.4838 -11.6312 0.0000 29.9986 0.0000
# 6 0.0000 0.0000 0.0000 4.7335 0.0000 28.8297
#
#
#
# Elastic Compliance Matrix: (Units=1/GPa)
#
#
# Indices 1 2 3 4 5 6 
#
# 1 0.008062 -0.001509 -0.004135 0.000000 -0.006093 0.000000
# 2 -0.001509 0.009252 -0.002813 0.000000 -0.003086 0.000000
# 3 -0.004135 -0.002813 0.014577 0.000000 0.009089 0.000000
# 4 0.000000 0.000000 0.000000 0.030073 0.000000 -0.004938
# 5 -0.006093 -0.003086 0.009089 0.000000 0.041588 0.000000
# 6 0.000000 0.000000 0.000000 -0.004938 0.000000 0.035497
#
#
# Mechanical properties :
#
#
# Convention : Reuss Voigt Hill
#
# Bulk Modulus (GPa) = 66.77209 72.05917 69.41563
# Shear Modulus (GPa) = 31.06448 36.44529 33.75489
#
# Velocity S-wave (km/s) = 3.59999 3.89933 3.75265
# Velocity P-wave (km/s) = 6.71840 7.09477 6.90915
#
# Compressibility (1/GPa) = 0.01497632
#
# Stress axis : x y z
#
# Youngs Moduli (GPa) = 124.03311 108.08848 68.60326
#
# Poissons Ratio (x) = 0.16309 0.28369
# Poissons Ratio (y) = 0.18715 0.19298
# Poissons Ratio (z) = 0.51291 0.30405
#
# Static dielectric constant tensor:
#      x y z
#    x 1.956100 0.000000 0.037480 
#    y 0.000000 1.954160 0.000000 
#    z 0.037480 0.000000 1.931160 
# 
# From -- ./inp_files/9237.got.cif
#   From: 2010.05.17/outbox.cif.g08.bks.cpg/sg9_5_cif.got.tgz:9237.got - 2010.06.03 20:04:27.
