data_PCOD9140754
_publ_section_title
;
Structure prediction by ZEFSAII (Michael W. Deem and Ramdas Pophale) SiO2 
 PCOD9140754
Probable space group: C C
;
_chemical_formula_sum "Si O2"
_cell_formula_units_Z 32
_cell_length_a 17.573447
_cell_length_b 8.887497
_cell_length_c 9.654792
_cell_angle_alpha 90.000000
_cell_angle_beta 52.474944
_cell_angle_gamma 90.000000
_cell_volume 1195.914694
_symmetry_space_group_name_H-M "C C"
_symmetry_group_IT_number 9
_symmetry_cell_setting 'monoclinic'
loop_
_space_group_symop_operation_xyz
x,y,z
x,-y,1/2+z
1/2+x,1/2+y,z
1/2+x,1/2-y,1/2+z
loop_
_atom_site_type_symbol
_atom_site_label
_atom_site_fract_x
_atom_site_fract_y
_atom_site_fract_z
Si Si1 0.052000 0.726726 0.632400
Si Si2 0.845320 0.151974 0.683406
Si Si3 0.016731 0.959687 0.462150
Si Si4 0.671741 0.973565 0.780581
Si Si5 0.607279 0.188351 0.066310
Si Si6 0.875429 0.435909 0.471433
Si Si7 0.676586 0.493689 0.599044
Si Si8 0.408838 0.755244 0.883355
O O1 0.114183 0.636808 0.448663
O O2 0.992745 0.854448 0.617173
O O3 0.975025 0.630208 0.802551
O O4 0.126603 0.834329 0.626985
O O5 0.832476 0.306608 0.615986
O O6 0.832007 0.189041 0.861219
O O7 0.957052 0.109284 0.544399
O O8 0.783525 0.009751 0.693612
O O9 0.966149 0.876935 0.391184
O O10 0.129462 0.965506 0.301906
O O11 0.647196 0.915267 0.653091
O O12 0.635352 0.132384 0.882962
O O13 0.641925 0.359634 0.051693
O O14 0.493188 0.168956 0.200273
O O15 0.789311 0.468985 0.459366
O O16 0.884731 0.608653 0.515324
#
# Coordination Sequence:
#
# PCOD9140754 Si02
#       8
#     4   4   4   4   4   4   4   4
#     4  12  26  50  77 118 152 209 262 340 391 489
#     4  12  30  46  80 112 160 210 262 331 406 486
#     4  11  25  49  76 105 158 204 260 325 399 475
#     4  12  28  49  80 120 160 211 271 332 412 479
#     4  11  26  53  80 116 161 210 264 343 401 486
#     4  12  29  47  79 116 152 206 271 321 406 478
#     4  11  26  50  76 112 161 205 265 331 403 478
#     4  11  26  48  74 109 152 203 263 323 396 471
#
# _framework density 26.757762
#
# number of rings (size 3 to 8) (size 9 to 14) (size 15 to 20)
#    0.000    0.500    5.000    2.250   10.500    3.000 
#    0.000    0.000    0.000    0.000    0.000    0.000 
#    0.000    0.000    0.000    0.000    0.000    0.000 
#
# Total GULP energy -89320.204944 kJ/mol
# GULP energy per Si atom -5582.512809 kJ/mol
# Density = 2.669686 g / cm^3
# Si number density = 26.757762 Si / 1000 Ang^3
#
#
#
# Elastic Constant Matrix: (Units=GPa)
#
#
# Indices 1 2 3 4 5 6 
#
# 1 93.6333 51.3342 22.4714 0.0000 -5.4869 0.0000
# 2 51.3342 143.7785 32.4229 0.0000 11.0559 0.0000
# 3 22.4714 32.4229 73.4882 0.0000 -20.1654 0.0000
# 4 0.0000 0.0000 0.0000 47.3086 0.0000 9.4179
# 5 -5.4869 11.0559 -20.1654 0.0000 48.0643 0.0000
# 6 0.0000 0.0000 0.0000 9.4179 0.0000 63.6705
#
#
#
# Elastic Compliance Matrix: (Units=1/GPa)
#
#
# Indices 1 2 3 4 5 6 
#
# 1 0.013758 -0.004708 -0.001584 0.000000 0.001989 0.000000
# 2 -0.004708 0.009936 -0.004203 0.000000 -0.004586 0.000000
# 3 -0.001584 -0.004203 0.018265 0.000000 0.008449 0.000000
# 4 0.000000 0.000000 0.000000 0.021779 0.000000 -0.003222
# 5 0.001989 -0.004586 0.008449 0.000000 0.025632 0.000000
# 6 0.000000 0.000000 0.000000 -0.003222 0.000000 0.016182
#
#
# Mechanical properties :
#
#
# Convention : Reuss Voigt Hill
#
# Bulk Modulus (GPa) = 47.68845 58.15078 52.91961
# Shear Modulus (GPa) = 37.44425 45.45343 41.44884
#
# Velocity S-wave (km/s) = 3.74489 4.12600 3.94005
# Velocity P-wave (km/s) = 6.04648 6.66918 6.36545
#
# Compressibility (1/GPa) = 0.02096944
#
# Stress axis : x y z
#
# Youngs Moduli (GPa) = 72.68677 100.63977 54.75023
#
# Poissons Ratio (x) = 0.47378 0.08673
# Poissons Ratio (y) = 0.34219 0.23011
# Poissons Ratio (z) = 0.11514 0.42298
#
# Static dielectric constant tensor:
#      x y z
#    x 2.198200 0.000000 -0.062690 
#    y 0.000000 2.113580 0.000000 
#    z -0.062690 0.000000 2.203740 
# 
# From -- ./inp_files/17898.got.cif
#   From: 2010.05.17/outbox.cif.g08.bks.cpg/sg9_9_cif.got.tgz:17898.got - 2010.06.03 20:04:27.
