data_PCOD9140959
_publ_section_title
;
Structure prediction by ZEFSAII (Michael W. Deem and Ramdas Pophale) SiO2 
 PCOD9140959
Probable space group: C C
;
_chemical_formula_sum "Si O2"
_cell_formula_units_Z 32
_cell_length_a 7.748354
_cell_length_b 20.014054
_cell_length_c 11.411407
_cell_angle_alpha 90.000000
_cell_angle_beta 49.201574
_cell_angle_gamma 90.000000
_cell_volume 1339.636764
_symmetry_space_group_name_H-M "C C"
_symmetry_group_IT_number 9
_symmetry_cell_setting 'monoclinic'
loop_
_space_group_symop_operation_xyz
x,y,z
x,-y,1/2+z
1/2+x,1/2+y,z
1/2+x,1/2-y,1/2+z
loop_
_atom_site_type_symbol
_atom_site_label
_atom_site_fract_x
_atom_site_fract_y
_atom_site_fract_z
Si Si1 0.714310 0.234496 0.829490
Si Si2 0.458789 0.025774 0.491644
Si Si3 0.880302 0.354237 0.159996
Si Si4 0.690553 0.760778 0.589083
Si Si5 0.986874 0.602600 0.855049
Si Si6 0.791273 0.104512 0.174034
Si Si7 0.923993 0.855327 0.863026
Si Si8 0.328871 0.524419 0.531358
O O1 0.594542 0.162845 0.880383
O O2 0.554348 0.291243 0.849013
O O3 0.942719 0.238113 0.651985
O O4 0.823687 0.247875 0.908450
O O5 0.297908 0.078699 0.629031
O O6 0.577375 0.068197 0.334470
O O7 0.651786 0.009056 0.503879
O O8 0.372468 0.955890 0.480827
O O9 0.779336 0.289686 0.146271
O O10 0.843685 0.363567 0.313928
O O11 0.154385 0.349385 0.015283
O O12 0.710942 0.835790 0.626561
O O13 0.191229 0.563876 0.694642
O O14 0.934476 0.134198 0.219081
O O15 0.908260 0.045015 0.049545
O O16 0.001908 0.922479 0.897449
#
# Coordination Sequence:
#
# PCOD9140959 Si02
#       8
#     4   4   4   4   4   4   4   4
#     4  12  24  38  60  90 126 162 203 255 307 364
#     4   8  15  31  57  86 115 152 197 251 300 346
#     4   9  19  37  61  86 120 160 202 255 307 355
#     4  12  24  38  60  90 126 162 203 255 307 364
#     4   9  17  32  59  84 112 158 204 240 293 364
#     4   9  17  32  59  84 112 158 204 240 293 364
#     4   9  19  37  61  86 120 160 202 255 307 355
#     4   8  15  31  57  86 115 152 197 251 300 346
#
# _framework density 23.887073000000001
#
# number of rings (size 3 to 8) (size 9 to 14) (size 15 to 20)
#    0.000    3.000    0.000    4.500    0.000    0.000 
#    0.000    0.000    0.000   73.500    0.000    0.000 
#    0.000    0.000    0.000    0.000    0.000    0.000 
#
# Total GULP energy -89373.417112 kJ/mol
# GULP energy per Si atom -5585.838570 kJ/mol
# Density = 2.383271 g / cm^3
# Si number density = 23.887073 Si / 1000 Ang^3
#
#
#
# Elastic Constant Matrix: (Units=GPa)
#
#
# Indices 1 2 3 4 5 6 
#
# 1 62.9852 58.6826 21.1317 0.0000 10.0963 0.0000
# 2 58.6826 158.6258 16.0599 0.0000 16.9228 0.0000
# 3 21.1317 16.0599 30.6711 0.0000 10.8459 0.0000
# 4 0.0000 0.0000 0.0000 20.2882 0.0000 21.9571
# 5 10.0963 16.9228 10.8459 0.0000 24.4324 0.0000
# 6 0.0000 0.0000 0.0000 21.9571 0.0000 36.1273
#
#
#
# Elastic Compliance Matrix: (Units=1/GPa)
#
#
# Indices 1 2 3 4 5 6 
#
# 1 0.030042 -0.009630 -0.016162 0.000000 0.001430 0.000000
# 2 -0.009630 0.010028 0.002886 0.000000 -0.004247 0.000000
# 3 -0.016162 0.002886 0.048128 0.000000 -0.016685 0.000000
# 4 0.000000 0.000000 0.000000 0.144022 0.000000 -0.087532
# 5 0.001430 -0.004247 -0.016685 0.000000 0.050687 0.000000
# 6 0.000000 0.000000 0.000000 -0.087532 0.000000 0.080879
#
#
# Mechanical properties :
#
#
# Convention : Reuss Voigt Hill
#
# Bulk Modulus (GPa) = 23.59233 49.33674 36.46454
# Shear Modulus (GPa) = 11.80009 26.59679 19.19844
#
# Velocity S-wave (km/s) = 2.22501 3.34044 2.83807
# Velocity P-wave (km/s) = 4.06189 5.96465 5.10275
#
# Compressibility (1/GPa) = 0.04238666
#
# Stress axis : x y z
#
# Youngs Moduli (GPa) = 33.28669 99.72412 20.77795
#
# Poissons Ratio (x) = 0.96036 0.33580
# Poissons Ratio (y) = 0.32056 -0.05997
# Poissons Ratio (z) = 0.53796 -0.28783
#
# Static dielectric constant tensor:
#      x y z
#    x 1.914320 0.000000 -0.017640 
#    y 0.000000 1.892840 0.000000 
#    z -0.017640 0.000000 1.936390 
# 
# From -- ./inp_files/15421.got.cif
#   From: 2010.05.17/outbox.cif.g08.bks.cpg/sg9_8_cif.got.tgz:15421.got - 2010.06.03 20:04:27.
