data_PCOD9140699
_publ_section_title
;
Structure prediction by ZEFSAII (Michael W. Deem and Ramdas Pophale) SiO2 
 PCOD9140699
Probable space group: C C
;
_chemical_formula_sum "Si O2"
_cell_formula_units_Z 28
_cell_length_a 15.587738
_cell_length_b 9.919072
_cell_length_c 21.908487
_cell_angle_alpha 90.000000
_cell_angle_beta 159.451377
_cell_angle_gamma 90.000000
_cell_volume 1188.984783
_symmetry_space_group_name_H-M "C C"
_symmetry_group_IT_number 9
_symmetry_cell_setting 'monoclinic'
loop_
_space_group_symop_operation_xyz
x,y,z
x,-y,1/2+z
1/2+x,1/2+y,z
1/2+x,1/2-y,1/2+z
loop_
_atom_site_type_symbol
_atom_site_label
_atom_site_fract_x
_atom_site_fract_y
_atom_site_fract_z
Si Si1 0.575560 0.592810 0.613130
Si Si2 0.216198 0.814853 0.663657
Si Si3 0.210471 0.264227 0.293975
Si Si4 0.479594 0.443374 0.737075
Si Si5 0.286738 0.321894 0.024043
Si Si6 0.511341 0.131839 0.001587
Si Si7 0.462003 0.968651 0.605746
O O1 0.671153 0.473888 0.634424
O O2 0.333215 0.590439 0.493662
O O3 0.531531 0.717834 0.539922
O O4 0.782584 0.608946 0.804200
O O5 0.122969 0.775362 0.668871
O O6 0.499296 0.789555 0.839572
O O7 0.004183 0.746109 0.483178
O O8 0.082051 0.166581 0.257020
O O9 0.142192 0.422086 0.255390
O O10 0.402567 0.583973 0.653476
O O11 0.244116 0.395453 0.615614
O O12 0.692964 0.467875 0.927760
O O13 0.432804 0.180739 0.113968
O O14 0.510554 0.047640 0.064726
#
# Coordination Sequence:
#
# PCOD9140699 Si02
#       7
#     4   4   4   4   4   4   4
#     4  11  25  47  72 111 150 198 251 315 366 465
#     4  12  27  47  77 112 150 202 254 321 369 458
#     4  12  28  49  75 111 156 195 256 314 383 442
#     4  12  25  50  76 107 152 202 245 317 376 455
#     4  11  26  46  78 106 149 199 250 306 386 443
#     4  11  26  45  74 106 156 195 247 310 384 441
#     4  11  27  48  74 113 149 197 251 319 368 464
#
# _framework density 23.549502
#
# number of rings (size 3 to 8) (size 9 to 14) (size 15 to 20)
#    0.000    0.571    5.714    0.000   10.000    1.143 
#    2.571    0.000    0.000    0.000    0.000    0.000 
#    0.000    0.000    0.000    0.000    0.000    0.000 
#
# Total GULP energy -78275.959403 kJ/mol
# GULP energy per Si atom -5591.139957 kJ/mol
# Density = 2.349590 g / cm^3
# Si number density = 23.549502 Si / 1000 Ang^3
#
#
#
# Elastic Constant Matrix: (Units=GPa)
#
#
# Indices 1 2 3 4 5 6 
#
# 1 75.2091 15.3261 37.0646 -0.0014 23.8362 -0.0025
# 2 15.3261 84.3248 18.8602 -0.0072 7.5877 -0.0044
# 3 37.0646 18.8602 112.3610 0.0244 23.0920 -0.0049
# 4 -0.0014 -0.0072 0.0244 34.0510 -0.0028 -8.2554
# 5 23.8362 7.5877 23.0920 -0.0028 42.5051 -0.0008
# 6 -0.0025 -0.0044 -0.0049 -8.2554 -0.0008 29.1014
#
#
#
# Elastic Compliance Matrix: (Units=1/GPa)
#
#
# Indices 1 2 3 4 5 6 
#
# 1 0.018077 -0.001680 -0.004119 0.000003 -0.007600 0.000001
# 2 -0.001680 0.012533 -0.001445 0.000004 -0.000510 0.000003
# 3 -0.004119 -0.001445 0.011227 -0.000009 -0.003531 -0.000001
# 4 0.000003 0.000004 -0.000009 0.031537 0.000005 0.008946
# 5 -0.007600 -0.000510 -0.003531 0.000005 0.029798 0.000001
# 6 0.000001 0.000003 -0.000001 0.008946 0.000001 0.036901
#
#
# Mechanical properties :
#
#
# Convention : Reuss Voigt Hill
#
# Bulk Modulus (GPa) = 36.56433 46.04407 41.30420
# Shear Modulus (GPa) = 30.54784 34.50776 32.52780
#
# Velocity S-wave (km/s) = 3.60554 3.83211 3.72055
# Velocity P-wave (km/s) = 5.73529 6.25896 6.00284
#
# Compressibility (1/GPa) = 0.02734906
#
# Stress axis : x y z
#
# Youngs Moduli (GPa) = 55.31794 79.78719 89.07126
#
# Poissons Ratio (x) = 0.13408 0.36691
# Poissons Ratio (y) = 0.09296 0.12867
# Poissons Ratio (z) = 0.22787 0.11526
#
# Static dielectric constant tensor:
#      x y z
#    x 1.861180 -0.000010 -0.008090 
#    y -0.000010 1.992600 0.000000 
#    z -0.008090 0.000000 1.880110 
# 
# From -- ./inp_files/33792.got.cif
#   From: 2010.05.17/outbox.cif.g08.bks.cpg/sg9_17_cif.got.tgz:33792.got - 2010.06.03 20:04:27.
