data_PCOD9140536
_publ_section_title
;
Structure prediction by ZEFSAII (Michael W. Deem and Ramdas Pophale) SiO2 
 PCOD9140536
Probable space group: C C
;
_chemical_formula_sum "Si O2"
_cell_formula_units_Z 28
_cell_length_a 5.081635
_cell_length_b 21.882183
_cell_length_c 12.356004
_cell_angle_alpha 90.000000
_cell_angle_beta 60.620988
_cell_angle_gamma 90.000000
_cell_volume 1197.254581
_symmetry_space_group_name_H-M "C C"
_symmetry_group_IT_number 9
_symmetry_cell_setting 'monoclinic'
loop_
_space_group_symop_operation_xyz
x,y,z
x,-y,1/2+z
1/2+x,1/2+y,z
1/2+x,1/2-y,1/2+z
loop_
_atom_site_type_symbol
_atom_site_label
_atom_site_fract_x
_atom_site_fract_y
_atom_site_fract_z
Si Si1 0.134920 0.388148 0.617970
Si Si2 0.039110 0.036090 0.183222
Si Si3 0.589742 0.597930 0.583538
Si Si4 0.637733 0.209221 0.708917
Si Si5 0.111701 0.281319 0.471124
Si Si6 0.289399 0.396122 0.921375
Si Si7 0.651740 0.208247 0.305838
O O1 0.416233 0.426827 0.604445
O O2 0.198252 0.347228 0.500407
O O3 0.073868 0.337767 0.724581
O O4 0.857656 0.433975 0.653394
O O5 0.812499 0.050899 0.327587
O O6 0.041832 0.965406 0.155146
O O7 0.332302 0.647675 0.662447
O O8 0.523608 0.590465 0.468702
O O9 0.944491 0.611522 0.530173
O O10 0.575439 0.215862 0.849695
O O11 0.306754 0.229428 0.731918
O O12 0.833222 0.257207 0.598230
O O13 0.371132 0.230956 0.431529
O O14 0.358145 0.333795 0.841882
#
# Coordination Sequence:
#
# PCOD9140536 Si02
#       7
#     4   4   4   4   4   4   4
#     4  11  25  47  74 107 147 206 252 310 385 462
#     4  11  26  49  73 107 148 209 261 313 382 463
#     4  12  27  46  74 110 146 200 261 318 376 462
#     4  12  28  43  75 111 157 194 258 321 394 465
#     4  12  25  46  70 114 147 200 249 322 396 462
#     4  11  24  47  75 102 151 201 251 315 398 458
#     4  11  25  44  75 109 154 202 252 319 399 472
#
# _framework density 23.386838000000001
#
# number of rings (size 3 to 8) (size 9 to 14) (size 15 to 20)
#    0.000    0.571    2.857    5.143    8.000    2.286 
#    0.000    0.000    0.000    0.000    0.000    0.000 
#    0.000    0.000    0.000    0.000    0.000    0.000 
#
# Total GULP energy -78223.012302 kJ/mol
# GULP energy per Si atom -5587.358022 kJ/mol
# Density = 2.333361 g / cm^3
# Si number density = 23.386838 Si / 1000 Ang^3
#
#
#
# Elastic Constant Matrix: (Units=GPa)
#
#
# Indices 1 2 3 4 5 6 
#
# 1 100.6963 22.8878 10.4625 0.0000 7.3472 0.0000
# 2 22.8878 113.3250 29.3738 0.0000 6.9153 0.0000
# 3 10.4625 29.3738 85.4037 0.0000 12.6143 0.0000
# 4 0.0000 0.0000 0.0000 36.4314 0.0000 -3.7875
# 5 7.3472 6.9153 12.6143 0.0000 26.3812 0.0000
# 6 0.0000 0.0000 0.0000 -3.7875 0.0000 34.8425
#
#
#
# Elastic Compliance Matrix: (Units=1/GPa)
#
#
# Indices 1 2 3 4 5 6 
#
# 1 0.010565 -0.001917 -0.000295 0.000000 -0.002299 0.000000
# 2 -0.001917 0.010061 -0.003136 0.000000 -0.000604 0.000000
# 3 -0.000295 -0.003136 0.013655 0.000000 -0.005625 0.000000
# 4 0.000000 0.000000 0.000000 0.027763 0.000000 0.003018
# 5 -0.002299 -0.000604 -0.005625 0.000000 0.041394 0.000000
# 6 0.000000 0.000000 0.000000 0.003018 0.000000 0.029029
#
#
# Mechanical properties :
#
#
# Convention : Reuss Voigt Hill
#
# Bulk Modulus (GPa) = 42.40288 47.20813 44.80551
# Shear Modulus (GPa) = 33.10719 35.31107 34.20913
#
# Velocity S-wave (km/s) = 3.76657 3.88992 3.82874
# Velocity P-wave (km/s) = 6.08987 6.35648 6.22461
#
# Compressibility (1/GPa) = 0.02358330
#
# Stress axis : x y z
#
# Youngs Moduli (GPa) = 94.65242 99.39238 73.23425
#
# Poissons Ratio (x) = 0.19053 0.02164
# Poissons Ratio (y) = 0.18144 0.22969
# Poissons Ratio (z) = 0.02797 0.31174
#
# Static dielectric constant tensor:
#      x y z
#    x 1.929340 0.000000 0.008310 
#    y 0.000000 1.885580 0.000000 
#    z 0.008310 0.000000 1.884870 
# 
# From -- ./inp_files/13431.got.cif
#   From: 2010.05.17/outbox.cif.g08.bks.cpg/sg9_7_cif.got.tgz:13431.got - 2010.06.03 20:04:27.
