data_PCOD9140441
_publ_section_title
;
Structure prediction by ZEFSAII (Michael W. Deem and Ramdas Pophale) SiO2 
 PCOD9140441
Probable space group: C C
;
_chemical_formula_sum "Si O2"
_cell_formula_units_Z 32
_cell_length_a 26.268602
_cell_length_b 5.575797
_cell_length_c 8.857342
_cell_angle_alpha 90.000000
_cell_angle_beta 110.414788
_cell_angle_gamma 90.000000
_cell_volume 1215.838517
_symmetry_space_group_name_H-M "C C"
_symmetry_group_IT_number 9
_symmetry_cell_setting 'monoclinic'
loop_
_space_group_symop_operation_xyz
x,y,z
x,-y,1/2+z
1/2+x,1/2+y,z
1/2+x,1/2-y,1/2+z
loop_
_atom_site_type_symbol
_atom_site_label
_atom_site_fract_x
_atom_site_fract_y
_atom_site_fract_z
Si Si1 0.434700 0.152625 0.443150
Si Si2 0.355721 0.242635 0.846008
Si Si3 0.104254 0.657987 0.359680
Si Si4 0.535764 0.169982 0.013104
Si Si5 0.203788 0.945549 0.612664
Si Si6 0.693904 0.182932 0.886404
Si Si7 0.291719 0.400222 0.064520
Si Si8 0.954316 0.959312 0.755892
O O1 0.442457 0.355776 0.579091
O O2 0.446201 0.264321 0.290033
O O3 0.374362 0.037427 0.380204
O O4 0.483606 0.969801 0.524846
O O5 0.338117 0.313982 0.997124
O O6 0.312962 0.384316 0.694096
O O7 0.409685 0.335200 0.817631
O O8 0.068306 0.521737 0.446245
O O9 0.150807 0.815179 0.487325
O O10 0.138073 0.449976 0.309276
O O11 0.069223 0.773579 0.189025
O O12 0.512594 0.373335 0.877916
O O13 0.200726 0.909472 0.786878
O O14 0.259455 0.815997 0.615229
O O15 0.198328 0.218869 0.559849
O O16 0.744253 0.011972 0.912795
#
# Coordination Sequence:
#
# PCOD9140441 Si02
#       8
#     4   4   4   4   4   4   4   4
#     4  11  27  48  74 109 150 197 259 323 385 458
#     4  11  26  48  77 104 146 197 252 318 388 456
#     4  11  24  46  70 106 152 198 253 309 387 466
#     4  11  24  45  73 103 146 202 253 314 377 454
#     4  11  26  43  72 109 150 193 253 317 385 465
#     4  11  26  44  71 110 148 195 251 318 385 464
#     4  11  25  50  76 105 146 193 257 318 388 470
#     4  11  26  46  71 108 148 195 256 317 379 457
#
# _framework density 26.319286000000002
#
# number of rings (size 3 to 8) (size 9 to 14) (size 15 to 20)
#    0.000    1.000    3.750    0.750    5.250    8.000 
#    0.000    1.250    0.000    0.000    0.000    0.000 
#    0.000    0.000    0.000    0.000    0.000    0.000 
#
# Total GULP energy -89529.550066 kJ/mol
# GULP energy per Si atom -5595.596879 kJ/mol
# Density = 2.625938 g / cm^3
# Si number density = 26.319286 Si / 1000 Ang^3
#
#
#
# Elastic Constant Matrix: (Units=GPa)
#
#
# Indices 1 2 3 4 5 6 
#
# 1 111.2827 20.5206 53.0287 0.0000 4.9615 0.0000
# 2 20.5206 61.2486 34.5766 0.0000 0.3923 0.0000
# 3 53.0287 34.5766 136.1813 0.0000 3.5643 0.0000
# 4 0.0000 0.0000 0.0000 38.0339 0.0000 -9.3234
# 5 4.9615 0.3923 3.5643 0.0000 40.7939 0.0000
# 6 0.0000 0.0000 0.0000 -9.3234 0.0000 44.0462
#
#
#
# Elastic Compliance Matrix: (Units=1/GPa)
#
#
# Indices 1 2 3 4 5 6 
#
# 1 0.011191 -0.001515 -0.003947 0.000000 -0.001002 0.000000
# 2 -0.001515 0.019266 -0.004312 0.000000 0.000376 0.000000
# 3 -0.003947 -0.004312 0.009984 0.000000 -0.000351 0.000000
# 4 0.000000 0.000000 0.000000 0.027731 0.000000 0.005870
# 5 -0.001002 0.000376 -0.000351 0.000000 0.024662 0.000000
# 6 0.000000 0.000000 0.000000 0.005870 0.000000 0.023946
#
#
# Mechanical properties :
#
#
# Convention : Reuss Voigt Hill
#
# Bulk Modulus (GPa) = 47.86010 58.32940 53.09475
# Shear Modulus (GPa) = 34.89382 37.94725 36.42054
#
# Velocity S-wave (km/s) = 3.64509 3.80123 3.72398
# Velocity P-wave (km/s) = 5.99495 6.44020 6.22156
#
# Compressibility (1/GPa) = 0.02089423
#
# Stress axis : x y z
#
# Youngs Moduli (GPa) = 89.35838 51.90473 100.16057
#
# Poissons Ratio (x) = 0.07863 0.39532
# Poissons Ratio (y) = 0.13536 0.43186
# Poissons Ratio (z) = 0.35269 0.22379
#
# Static dielectric constant tensor:
#      x y z
#    x 2.030860 0.000000 0.035380 
#    y 0.000000 2.164030 0.000000 
#    z 0.035380 0.000000 2.027020 
# 
# From -- ./inp_files/12658.got.cif
#   From: 2010.05.17/outbox.cif.g08.bks.cpg/sg9_7_cif.got.tgz:12658.got - 2010.06.03 20:04:27.
