data_PCOD9140430
_publ_section_title
;
Structure prediction by ZEFSAII (Michael W. Deem and Ramdas Pophale) SiO2 
 PCOD9140430
Probable space group: C C
;
_chemical_formula_sum "Si O2"
_cell_formula_units_Z 32
_cell_length_a 19.395811
_cell_length_b 10.871656
_cell_length_c 11.109092
_cell_angle_alpha 90.000000
_cell_angle_beta 140.704223
_cell_angle_gamma 90.000000
_cell_volume 1483.569997
_symmetry_space_group_name_H-M "C C"
_symmetry_group_IT_number 9
_symmetry_cell_setting 'monoclinic'
loop_
_space_group_symop_operation_xyz
x,y,z
x,-y,1/2+z
1/2+x,1/2+y,z
1/2+x,1/2-y,1/2+z
loop_
_atom_site_type_symbol
_atom_site_label
_atom_site_fract_x
_atom_site_fract_y
_atom_site_fract_z
Si Si1 0.995020 0.561434 0.018810
Si Si2 0.760101 0.853722 0.585172
Si Si3 0.088773 0.174981 0.695945
Si Si4 0.436023 0.545383 0.911234
Si Si5 0.137497 0.117910 0.021223
Si Si6 0.827896 0.748957 0.431409
Si Si7 0.258649 0.886971 0.223672
Si Si8 0.022845 0.576597 0.789428
O O1 0.034063 0.702256 0.070958
O O2 0.054461 0.498597 0.211452
O O3 0.871892 0.546470 0.897707
O O4 0.001921 0.511778 0.890922
O O5 0.833574 0.970688 0.718207
O O6 0.771925 0.827515 0.460876
O O7 0.798126 0.731503 0.705055
O O8 0.636334 0.855092 0.462394
O O9 0.193679 0.144525 0.756521
O O10 0.006313 0.059206 0.575993
O O11 0.122046 0.192846 0.878695
O O12 0.390576 0.656706 0.929016
O O13 0.522597 0.599942 0.932891
O O14 0.230636 0.177195 0.231550
O O15 0.180744 0.980551 0.046789
O O16 0.920564 0.663556 0.619099
#
# Coordination Sequence:
#
# PCOD9140430 Si02
#       8
#     4   4   4   4   4   4   4   4
#     4  12  26  47  72 105 146 188 241 296 362 425
#     4  12  26  46  74  99 147 185 241 290 360 424
#     4  11  25  45  73 101 143 186 240 293 359 431
#     4  11  26  47  71 108 139 192 235 293 362 429
#     4  11  27  45  74 108 139 189 239 301 355 434
#     4  12  26  47  73 104 141 188 240 298 359 426
#     4  11  24  45  72 102 136 187 238 290 358 420
#     4  12  28  46  73 107 147 191 236 301 361 425
#
# _framework density 21.569593999999999
#
# number of rings (size 3 to 8) (size 9 to 14) (size 15 to 20)
#    0.000    0.500    5.000    1.500   12.250    2.000 
#    0.000    0.000    0.000    0.000    0.000    0.000 
#    0.000    0.000    0.000    0.000    0.000    0.000 
#
# Total GULP energy -89324.985978 kJ/mol
# GULP energy per Si atom -5582.811624 kJ/mol
# Density = 2.152050 g / cm^3
# Si number density = 21.569594 Si / 1000 Ang^3
#
#
#
# Elastic Constant Matrix: (Units=GPa)
#
#
# Indices 1 2 3 4 5 6 
#
# 1 117.7341 44.1768 55.3105 0.0000 2.4354 0.0000
# 2 44.1768 42.1579 5.5185 0.0000 -13.2539 0.0000
# 3 55.3105 5.5185 87.2213 0.0000 -11.2112 0.0000
# 4 0.0000 0.0000 0.0000 26.1192 0.0000 -8.6314
# 5 2.4354 -13.2539 -11.2112 0.0000 35.1202 0.0000
# 6 0.0000 0.0000 0.0000 -8.6314 0.0000 7.4863
#
#
#
# Elastic Compliance Matrix: (Units=1/GPa)
#
#
# Indices 1 2 3 4 5 6 
#
# 1 0.036671 -0.043678 -0.023918 0.000000 -0.026662 0.000000
# 2 -0.043678 0.078953 0.028074 0.000000 0.041786 0.000000
# 3 -0.023918 0.028074 0.027562 0.000000 0.021052 0.000000
# 4 0.000000 0.000000 0.000000 0.061852 0.000000 0.071313
# 5 -0.026662 0.041786 0.021052 0.000000 0.052812 0.000000
# 6 0.000000 0.000000 0.000000 0.071313 0.000000 0.215797
#
#
# Mechanical properties :
#
#
# Convention : Reuss Voigt Hill
#
# Bulk Modulus (GPa) = 15.59067 50.79166 33.19116
# Shear Modulus (GPa) = 8.70971 23.21897 15.96434
#
# Velocity S-wave (km/s) = 2.01165 3.28452 2.72349
# Velocity P-wave (km/s) = 3.55519 6.16303 5.03102
#
# Compressibility (1/GPa) = 0.06414091
#
# Stress axis : x y z
#
# Youngs Moduli (GPa) = 27.26962 12.66583 36.28172
#
# Poissons Ratio (x) = 0.55322 0.86778
# Poissons Ratio (y) = 1.19109 -1.01857
# Poissons Ratio (z) = 0.65223 -0.35558
#
# Static dielectric constant tensor:
#      x y z
#    x 1.768380 0.000000 -0.025650 
#    y 0.000000 1.798080 0.000000 
#    z -0.025650 0.000000 1.771550 
# 
# From -- ./inp_files/19321.got.cif
#   From: 2010.05.17/outbox.cif.g08.bks.cpg/sg9_10_cif.got.tgz:19321.got - 2010.06.03 20:04:27.
