data_PCOD9140050
_publ_section_title
;
Structure prediction by ZEFSAII (Michael W. Deem and Ramdas Pophale) SiO2 
 PCOD9140050
Probable space group: C C
;
_chemical_formula_sum "Si O2"
_cell_formula_units_Z 32
_cell_length_a 14.906878
_cell_length_b 8.363649
_cell_length_c 11.441098
_cell_angle_alpha 90.000000
_cell_angle_beta 90.799502
_cell_angle_gamma 90.000000
_cell_volume 1426.290267
_symmetry_space_group_name_H-M "C C"
_symmetry_group_IT_number 9
_symmetry_cell_setting 'monoclinic'
loop_
_space_group_symop_operation_xyz
x,y,z
x,-y,1/2+z
1/2+x,1/2+y,z
1/2+x,1/2-y,1/2+z
loop_
_atom_site_type_symbol
_atom_site_label
_atom_site_fract_x
_atom_site_fract_y
_atom_site_fract_z
Si Si1 0.358960 0.363909 0.753810
Si Si2 0.050272 0.766175 0.733906
Si Si3 0.624907 0.115334 0.525950
Si Si4 0.687436 0.602226 0.406302
Si Si5 0.520577 0.895376 0.806464
Si Si6 0.289398 0.778715 0.466156
Si Si7 0.832727 0.243580 0.740273
Si Si8 0.167749 0.720388 0.144567
O O1 0.452109 0.322133 0.694087
O O2 0.367135 0.282215 0.882231
O O3 0.348361 0.554156 0.753101
O O4 0.268859 0.290049 0.695727
O O5 0.114049 0.751607 0.622535
O O6 0.095510 0.880805 0.830751
O O7 0.041482 0.581238 0.776718
O O8 0.538411 0.117191 0.444095
O O9 0.712306 0.145501 0.451030
O O10 0.642835 0.947731 0.585007
O O11 0.742023 0.438178 0.419063
O O12 0.754118 0.713388 0.330389
O O13 0.667027 0.656065 0.538212
O O14 0.420972 0.844106 0.773428
O O15 0.590523 0.775686 0.741842
O O16 0.313450 0.782602 0.603311
#
# Coordination Sequence:
#
# PCOD9140050 Si02
#       8
#     4   4   4   4   4   4   4   4
#     4  12  27  45  72 105 143 184 241 296 358 415
#     4  11  26  45  70 107 144 182 239 294 356 426
#     4  11  22  47  72  97 141 190 233 291 347 427
#     4  12  27  46  72 102 146 186 238 296 356 420
#     4  11  25  44  73 105 141 191 238 287 359 426
#     4  12  27  46  75 103 146 185 245 292 356 425
#     4  12  28  48  72 106 143 190 241 290 360 429
#     4  11  24  45  72  97 140 192 229 292 360 418
#
# _framework density 22.435825999999999
#
# number of rings (size 3 to 8) (size 9 to 14) (size 15 to 20)
#    0.000    0.500    5.000    2.250    8.750    2.000 
#    0.000    0.000    0.000    0.000    0.000    0.000 
#    0.000    0.000    0.000    0.000    0.000    0.000 
#
# Total GULP energy -89424.684306 kJ/mol
# GULP energy per Si atom -5589.042769 kJ/mol
# Density = 2.238476 g / cm^3
# Si number density = 22.435826 Si / 1000 Ang^3
#
#
#
# Elastic Constant Matrix: (Units=GPa)
#
#
# Indices 1 2 3 4 5 6 
#
# 1 100.3044 -0.1033 20.7198 0.0000 15.5801 0.0000
# 2 -0.1033 76.0020 9.2183 0.0000 0.6743 0.0000
# 3 20.7198 9.2183 44.2012 0.0000 9.5809 0.0000
# 4 0.0000 0.0000 0.0000 25.3443 0.0000 -3.4520
# 5 15.5801 0.6743 9.5809 0.0000 36.2353 0.0000
# 6 0.0000 0.0000 0.0000 -3.4520 0.0000 32.9376
#
#
#
# Elastic Compliance Matrix: (Units=1/GPa)
#
#
# Indices 1 2 3 4 5 6 
#
# 1 0.011524 0.000622 -0.004726 0.000000 -0.003717 0.000000
# 2 0.000622 0.013542 -0.003186 0.000000 0.000323 0.000000
# 3 -0.004726 -0.003186 0.026573 0.000000 -0.004935 0.000000
# 4 0.000000 0.000000 0.000000 0.040028 0.000000 0.004195
# 5 -0.003717 0.000323 -0.004935 0.000000 0.030494 0.000000
# 6 0.000000 0.000000 0.000000 0.004195 0.000000 0.030800
#
#
# Mechanical properties :
#
#
# Convention : Reuss Voigt Hill
#
# Bulk Modulus (GPa) = 26.98372 31.13080 29.05726
# Shear Modulus (GPa) = 27.79411 31.61496 29.70454
#
# Velocity S-wave (km/s) = 3.52352 3.75791 3.64260
# Velocity P-wave (km/s) = 5.34853 5.72143 5.53812
#
# Compressibility (1/GPa) = 0.03705938
#
# Stress axis : x y z
#
# Youngs Moduli (GPa) = 86.77635 73.84477 37.63185
#
# Poissons Ratio (x) = -0.04592 0.17785
# Poissons Ratio (y) = -0.05396 0.11988
# Poissons Ratio (z) = 0.41010 0.23525
#
# Static dielectric constant tensor:
#      x y z
#    x 1.780620 0.000000 0.000180 
#    y 0.000000 1.808070 0.000000 
#    z 0.000180 0.000000 1.905630 
# 
# From -- ./inp_files/17785.got.cif
#   From: 2010.05.17/outbox.cif.g08.bks.cpg/sg9_9_cif.got.tgz:17785.got - 2010.06.03 20:04:27.
