data_PCOD9140260
_publ_section_title
;
Structure prediction by ZEFSAII (Michael W. Deem and Ramdas Pophale) SiO2 
 PCOD9140260
Probable space group: C C
;
_chemical_formula_sum "Si O2"
_cell_formula_units_Z 24
_cell_length_a 20.424230
_cell_length_b 8.872964
_cell_length_c 12.707647
_cell_angle_alpha 90.000000
_cell_angle_beta 153.717581
_cell_angle_gamma 90.000000
_cell_volume 1019.725613
_symmetry_space_group_name_H-M "C C"
_symmetry_group_IT_number 9
_symmetry_cell_setting 'monoclinic'
loop_
_space_group_symop_operation_xyz
x,y,z
x,-y,1/2+z
1/2+x,1/2+y,z
1/2+x,1/2-y,1/2+z
loop_
_atom_site_type_symbol
_atom_site_label
_atom_site_fract_x
_atom_site_fract_y
_atom_site_fract_z
Si Si1 0.393870 0.956145 0.188560
Si Si2 0.072031 0.623997 0.627002
Si Si3 0.117158 0.962070 0.413510
Si Si4 0.562714 0.802782 0.688320
Si Si5 0.898859 0.199391 0.051561
Si Si6 0.753434 0.370528 0.295412
O O1 0.491024 0.050561 0.409816
O O2 0.456848 0.801946 0.232498
O O3 0.234837 0.941370 0.015017
O O4 0.355198 0.050919 0.029796
O O5 0.105000 0.478597 0.748095
O O6 0.964366 0.732878 0.538139
O O7 0.616728 0.293306 0.367365
O O8 0.222964 0.699472 0.807526
O O9 0.959255 0.032680 0.158928
O O10 0.167965 0.004256 0.603758
O O11 0.642513 0.731216 0.701840
O O12 0.384262 0.789122 0.418604
#
# Coordination Sequence:
#
# PCOD9140260 Si02
#       6
#     4   4   4   4   4   4
#     4  11  23  46  76 103 156 193 245 317 358 450
#     4  12  26  49  78 109 156 195 259 306 383 444
#     4  11  24  44  76 108 149 194 252 303 377 443
#     4  11  24  47  73 110 144 201 239 312 373 441
#     4  12  25  48  76 115 147 206 248 313 380 444
#     4  11  24  44  75 105 150 193 247 303 373 440
#
# _framework density 23.535743
#
# number of rings (size 3 to 8) (size 9 to 14) (size 15 to 20)
#    0.000    0.667    5.000    2.000    0.000    4.000 
#    0.000    1.667    0.000    0.000    0.000    0.000 
#    0.000    0.000    0.000    0.000    0.000    0.000 
#
# Total GULP energy -67078.702765 kJ/mol
# GULP energy per Si atom -5589.891897 kJ/mol
# Density = 2.348217 g / cm^3
# Si number density = 23.535743 Si / 1000 Ang^3
#
#
#
# Elastic Constant Matrix: (Units=GPa)
#
#
# Indices 1 2 3 4 5 6 
#
# 1 110.7623 37.3356 56.7822 0.0000 32.7707 0.0000
# 2 37.3356 85.4486 31.9151 0.0000 3.6162 0.0000
# 3 56.7822 31.9151 93.2574 0.0000 13.8064 0.0000
# 4 0.0000 0.0000 0.0000 39.9635 0.0000 -3.3576
# 5 32.7707 3.6162 13.8064 0.0000 40.4164 0.0000
# 6 0.0000 0.0000 0.0000 -3.3576 0.0000 45.5379
#
#
#
# Elastic Compliance Matrix: (Units=1/GPa)
#
#
# Indices 1 2 3 4 5 6 
#
# 1 0.017834 -0.004455 -0.007639 0.000000 -0.011453 0.000000
# 2 -0.004455 0.014537 -0.002743 0.000000 0.003248 0.000000
# 3 -0.007639 -0.002743 0.016178 0.000000 0.000913 0.000000
# 4 0.000000 0.000000 0.000000 0.025179 0.000000 0.001856
# 5 -0.011453 0.003248 0.000913 0.000000 0.033426 0.000000
# 6 0.000000 0.000000 0.000000 0.001856 0.000000 0.022097
#
#
# Mechanical properties :
#
#
# Convention : Reuss Voigt Hill
#
# Bulk Modulus (GPa) = 52.98050 60.17047 56.57549
# Shear Modulus (GPa) = 30.26344 36.07925 33.17135
#
# Velocity S-wave (km/s) = 3.58977 3.91955 3.75827
# Velocity P-wave (km/s) = 6.30408 6.79006 6.55157
#
# Compressibility (1/GPa) = 0.01887487
#
# Stress axis : x y z
#
# Youngs Moduli (GPa) = 56.07122 68.79227 61.81284
#
# Poissons Ratio (x) = 0.30645 0.47219
# Poissons Ratio (y) = 0.24978 0.16957
# Poissons Ratio (z) = 0.42833 0.18872
#
# Static dielectric constant tensor:
#      x y z
#    x 1.952920 0.000000 0.015480 
#    y 0.000000 1.947390 0.000000 
#    z 0.015480 0.000000 1.920000 
# 
# From -- ./inp_files/6943.got.cif
#   From: 2010.05.17/outbox.cif.g08.bks.cpg/sg9_4_cif.got.tgz:6943.got - 2010.06.03 20:04:27.
