data_PCOD9140653
_publ_section_title
;
Structure prediction by ZEFSAII (Michael W. Deem and Ramdas Pophale) SiO2 
 PCOD9140653
Probable space group: C C
;
_chemical_formula_sum "Si O2"
_cell_formula_units_Z 28
_cell_length_a 8.441607
_cell_length_b 17.250502
_cell_length_c 9.176229
_cell_angle_alpha 90.000000
_cell_angle_beta 126.011244
_cell_angle_gamma 90.000000
_cell_volume 1080.903245
_symmetry_space_group_name_H-M "C C"
_symmetry_group_IT_number 9
_symmetry_cell_setting 'monoclinic'
loop_
_space_group_symop_operation_xyz
x,y,z
x,-y,1/2+z
1/2+x,1/2+y,z
1/2+x,1/2-y,1/2+z
loop_
_atom_site_type_symbol
_atom_site_label
_atom_site_fract_x
_atom_site_fract_y
_atom_site_fract_z
Si Si1 0.843400 0.397146 0.373100
Si Si2 0.569422 0.461772 0.831875
Si Si3 0.199656 0.478491 0.417198
Si Si4 0.859012 0.157319 0.819577
Si Si5 0.097173 0.347262 0.767015
Si Si6 0.982498 0.139429 0.549083
Si Si7 0.716326 0.684247 0.232376
O O1 0.703848 0.461928 0.379403
O O2 0.705733 0.341803 0.203849
O O3 0.994466 0.445729 0.361497
O O4 0.974834 0.349723 0.555099
O O5 0.366686 0.471234 0.632412
O O6 0.674330 0.385193 0.821545
O O7 0.525016 0.439436 0.975712
O O8 0.269255 0.422586 0.326520
O O9 0.149944 0.565077 0.342484
O O10 0.708866 0.226641 0.778330
O O11 0.894102 0.149606 0.665669
O O12 0.062004 0.170456 0.017698
O O13 0.941731 0.317682 0.799776
O O14 0.316936 0.315473 0.870473
#
# Coordination Sequence:
#
# PCOD9140653 Si02
#       7
#     4   4   4   4   4   4   4
#     4  12  24  43  71 112 143 191 243 308 375 436
#     4  11  25  45  74 112 147 196 247 314 380 451
#     4  11  25  45  74 108 150 194 250 310 377 443
#     4  11  27  49  74 108 151 204 255 306 379 457
#     4  12  24  42  74 108 147 189 242 308 371 438
#     4  12  26  43  72 108 147 187 248 305 372 446
#     4  11  25  51  75 104 153 205 251 305 378 459
#
# _framework density 25.904263
#
# number of rings (size 3 to 8) (size 9 to 14) (size 15 to 20)
#    0.000    0.571    5.714    1.714    4.000    3.429 
#    2.571    1.429    0.000    0.000    0.000    0.000 
#    0.000    0.000    0.000    0.000    0.000    0.000 
#
# Total GULP energy -78300.685317 kJ/mol
# GULP energy per Si atom -5592.906094 kJ/mol
# Density = 2.584530 g / cm^3
# Si number density = 25.904263 Si / 1000 Ang^3
#
#
#
# Elastic Constant Matrix: (Units=GPa)
#
#
# Indices 1 2 3 4 5 6 
#
# 1 90.2973 17.9556 40.2554 0.0000 25.3776 0.0000
# 2 17.9556 142.6974 32.3104 0.0000 3.4305 0.0000
# 3 40.2554 32.3104 150.6824 0.0000 29.9678 0.0000
# 4 0.0000 0.0000 0.0000 36.8667 0.0000 9.0808
# 5 25.3776 3.4305 29.9678 0.0000 43.1097 0.0000
# 6 0.0000 0.0000 0.0000 9.0808 0.0000 20.6970
#
#
#
# Elastic Compliance Matrix: (Units=1/GPa)
#
#
# Indices 1 2 3 4 5 6 
#
# 1 0.014170 -0.001121 -0.002209 0.000000 -0.006716 0.000000
# 2 -0.001121 0.007467 -0.001526 0.000000 0.001126 0.000000
# 3 -0.002209 -0.001526 0.008438 0.000000 -0.004443 0.000000
# 4 0.000000 0.000000 0.000000 0.030411 0.000000 -0.013343
# 5 -0.006716 0.001126 -0.004443 0.000000 0.030150 0.000000
# 6 0.000000 0.000000 0.000000 -0.013343 0.000000 0.054170
#
#
# Mechanical properties :
#
#
# Convention : Reuss Voigt Hill
#
# Bulk Modulus (GPa) = 49.11043 62.74667 55.92855
# Shear Modulus (GPa) = 30.99693 39.67839 35.33766
#
# Velocity S-wave (km/s) = 3.46294 3.91798 3.69747
# Velocity P-wave (km/s) = 5.91514 6.68899 6.31393
#
# Compressibility (1/GPa) = 0.02036228
#
# Stress axis : x y z
#
# Youngs Moduli (GPa) = 70.57120 133.91733 118.51766
#
# Poissons Ratio (x) = 0.15016 0.26185
# Poissons Ratio (y) = 0.07913 0.18082
# Poissons Ratio (z) = 0.15592 0.20431
#
# Static dielectric constant tensor:
#      x y z
#    x 2.083050 0.000000 0.034800 
#    y 0.000000 2.096300 0.000000 
#    z 0.034800 0.000000 2.063680 
# 
# From -- ./inp_files/5717.got.cif
#   From: 2010.05.17/outbox.cif.g08.bks.cpg/sg9_3_cif.got.tgz:5717.got - 2010.06.03 20:04:27.
