data_PCOD9140577
_publ_section_title
;
Structure prediction by ZEFSAII (Michael W. Deem and Ramdas Pophale) SiO2 
 PCOD9140577
Probable space group: C C
;
_chemical_formula_sum "Si O2"
_cell_formula_units_Z 20
_cell_length_a 6.596148
_cell_length_b 15.998474
_cell_length_c 9.507225
_cell_angle_alpha 90.000000
_cell_angle_beta 134.359438
_cell_angle_gamma 90.000000
_cell_volume 717.313854
_symmetry_space_group_name_H-M "C C"
_symmetry_group_IT_number 9
_symmetry_cell_setting 'monoclinic'
loop_
_space_group_symop_operation_xyz
x,y,z
x,-y,1/2+z
1/2+x,1/2+y,z
1/2+x,1/2-y,1/2+z
loop_
_atom_site_type_symbol
_atom_site_label
_atom_site_fract_x
_atom_site_fract_y
_atom_site_fract_z
Si Si1 0.135020 0.065404 0.106330
Si Si2 0.232741 0.315264 0.536320
Si Si3 0.365132 0.578824 0.675217
Si Si4 0.242282 0.384845 0.842878
Si Si5 0.843909 0.376919 0.096391
O O1 0.474938 0.058030 0.255578
O O2 0.039602 0.149679 0.141525
O O3 0.980822 0.999674 0.140529
O O4 0.043665 0.090106 0.902046
O O5 0.165752 0.334048 0.666791
O O6 0.008897 0.362838 0.325050
O O7 0.247017 0.217181 0.514218
O O8 0.336557 0.651354 0.541369
O O9 0.052763 0.577841 0.591196
O O10 0.546814 0.426375 0.951086
#
# Coordination Sequence:
#
# PCOD9140577 Si02
#       5
#     4   4   4   4   4
#     4  11  27  49  78 115 158 212 269 328 397 475
#     4  11  24  48  76 114 160 208 267 327 403 481
#     4  11  27  50  79 113 164 212 267 328 401 481
#     4  12  25  46  78 115 154 213 267 335 383 482
#     4  11  25  49  77 117 162 211 268 330 402 483
#
# _framework density 27.881796999999999
#
# number of rings (size 3 to 8) (size 9 to 14) (size 15 to 20)
#    0.000    0.800    2.000    3.600    0.000    9.600 
#    7.200    4.000    0.000    0.000    0.000    0.000 
#    0.000    0.000    0.000    0.000    0.000    0.000 
#
# Total GULP energy -55779.478492 kJ/mol
# GULP energy per Si atom -5577.947849 kJ/mol
# Density = 2.781834 g / cm^3
# Si number density = 27.881797 Si / 1000 Ang^3
#
#
#
# Elastic Constant Matrix: (Units=GPa)
#
#
# Indices 1 2 3 4 5 6 
#
# 1 245.6907 64.5033 116.3910 0.0000 12.3983 0.0000
# 2 64.5033 60.2468 55.0488 0.0000 -42.7822 0.0000
# 3 116.3910 55.0488 223.2214 0.0000 -38.7154 0.0000
# 4 0.0000 0.0000 0.0000 25.2051 0.0000 6.0678
# 5 12.3983 -42.7822 -38.7154 0.0000 89.2709 0.0000
# 6 0.0000 0.0000 0.0000 6.0678 0.0000 31.6632
#
#
#
# Elastic Compliance Matrix: (Units=1/GPa)
#
#
# Indices 1 2 3 4 5 6 
#
# 1 0.009974 -0.014655 -0.003292 0.000000 -0.009836 0.000000
# 2 -0.014655 0.051571 -0.000473 0.000000 0.026545 0.000000
# 3 -0.003292 -0.000473 0.006870 0.000000 0.003210 0.000000
# 4 0.000000 0.000000 0.000000 0.041593 0.000000 -0.007971
# 5 -0.009836 0.026545 0.003210 0.000000 0.026682 0.000000
# 6 0.000000 0.000000 0.000000 -0.007971 0.000000 0.033110
#
#
# Mechanical properties :
#
#
# Convention : Reuss Voigt Hill
#
# Bulk Modulus (GPa) = 31.67120 111.22723 71.44922
# Shear Modulus (GPa) = 23.02408 48.77556 35.89982
#
# Velocity S-wave (km/s) = 2.87675 4.18708 3.59217
# Velocity P-wave (km/s) = 4.73476 7.95956 6.54876
#
# Compressibility (1/GPa) = 0.03157443
#
# Stress axis : x y z
#
# Youngs Moduli (GPa) = 100.26347 19.39084 145.56333
#
# Poissons Ratio (x) = 0.28417 0.47925
# Poissons Ratio (y) = 1.46936 0.06879
# Poissons Ratio (z) = 0.33011 0.00916
#
# Static dielectric constant tensor:
#      x y z
#    x 2.179430 0.000000 0.026310 
#    y 0.000000 2.283080 0.000000 
#    z 0.026310 0.000000 2.346470 
# 
# From -- ./inp_files/3877.got.cif
#   From: 2010.05.17/outbox.cif.g08.bks.cpg/sg9_2_cif.got.tgz:3877.got - 2010.06.03 20:04:27.
