data_PCOD9140914
_publ_section_title
;
Structure prediction by ZEFSAII (Michael W. Deem and Ramdas Pophale) SiO2 
 PCOD9140914
Probable space group: C C
;
_chemical_formula_sum "Si O2"
_cell_formula_units_Z 24
_cell_length_a 9.246347
_cell_length_b 21.445659
_cell_length_c 9.952397
_cell_angle_alpha 90.000000
_cell_angle_beta 29.073622
_cell_angle_gamma 90.000000
_cell_volume 958.989212
_symmetry_space_group_name_H-M "C C"
_symmetry_group_IT_number 9
_symmetry_cell_setting 'monoclinic'
loop_
_space_group_symop_operation_xyz
x,y,z
x,-y,1/2+z
1/2+x,1/2+y,z
1/2+x,1/2-y,1/2+z
loop_
_atom_site_type_symbol
_atom_site_label
_atom_site_fract_x
_atom_site_fract_y
_atom_site_fract_z
Si Si1 0.566190 0.428285 0.589880
Si Si2 0.007174 0.654455 0.604866
Si Si3 0.385165 0.284980 0.999427
Si Si4 0.791069 0.474196 0.694216
Si Si5 0.376168 0.398113 0.199225
Si Si6 0.595692 0.294200 0.206015
O O1 0.635272 0.464615 0.674496
O O2 0.666114 0.464592 0.372131
O O3 0.804779 0.372763 0.388719
O O4 0.235510 0.398678 0.861678
O O5 0.228058 0.705964 0.484558
O O6 0.773111 0.683554 0.692972
O O7 0.307129 0.346751 0.143137
O O8 0.228982 0.228043 0.201692
O O9 0.138647 0.454821 0.397057
O O10 0.682905 0.424590 0.892692
O O11 0.438726 0.356430 0.277828
O O12 0.356011 0.239240 0.411795
#
# Coordination Sequence:
#
# PCOD9140914 Si02
#       6
#     4   4   4   4   4   4
#     4  12  26  49  76 108 144 194 252 312 377 441
#     4  12  25  47  73 108 150 188 248 306 370 447
#     4  12  22  40  72 104 140 188 238 302 368 436
#     4  12  26  49  76 108 144 194 252 312 377 441
#     4  12  25  47  73 108 150 188 248 306 370 447
#     4  12  26  48  72 110 154 198 244 298 376 452
#
# _framework density 25.026350000000001
#
# number of rings (size 3 to 8) (size 9 to 14) (size 15 to 20)
#    0.000    0.000    3.333    7.000    2.333    0.000 
#    0.000    0.000    0.000    0.000    0.000    0.000 
#    0.000    0.000    0.000    0.000    0.000    0.000 
#
# Total GULP energy -67035.527172 kJ/mol
# GULP energy per Si atom -5586.293931 kJ/mol
# Density = 2.496939 g / cm^3
# Si number density = 25.026350 Si / 1000 Ang^3
#
#
#
# Elastic Constant Matrix: (Units=GPa)
#
#
# Indices 1 2 3 4 5 6 
#
# 1 28.7308 11.8370 -17.0598 -0.0008 7.3765 0.0002
# 2 11.8370 60.0344 26.5460 -0.0002 6.3225 0.0000
# 3 -17.0598 26.5460 120.2617 -0.0014 -14.5975 0.0006
# 4 -0.0008 -0.0002 -0.0014 83.4344 0.0010 10.3311
# 5 7.3765 6.3225 -14.5975 0.0010 31.7929 -0.0004
# 6 0.0002 0.0000 0.0006 10.3311 -0.0004 38.7779
#
#
#
# Elastic Compliance Matrix: (Units=1/GPa)
#
#
# Indices 1 2 3 4 5 6 
#
# 1 0.046325 -0.012606 0.008847 0.000001 -0.004179 -0.000001
# 2 -0.012606 0.022984 -0.007478 0.000000 -0.005080 0.000000
# 3 0.008847 -0.007478 0.011810 0.000000 0.004857 0.000000
# 4 0.000001 0.000000 0.000000 0.012394 0.000000 -0.003302
# 5 -0.004179 -0.005080 0.004857 0.000000 0.035664 0.000000
# 6 -0.000001 0.000000 0.000000 -0.003302 0.000000 0.026668
#
#
# Mechanical properties :
#
#
# Convention : Reuss Voigt Hill
#
# Bulk Modulus (GPa) = 17.05151 27.96370 22.50761
# Shear Modulus (GPa) = 25.26930 43.31463 34.29196
#
# Velocity S-wave (km/s) = 3.18104 4.16475 3.70568
# Velocity P-wave (km/s) = 4.50779 5.85874 5.22710
#
# Compressibility (1/GPa) = 0.05864582
#
# Stress axis : x y z
#
# Youngs Moduli (GPa) = 21.58642 43.50806 84.67083
#
# Poissons Ratio (x) = 0.54845 -0.74906
# Poissons Ratio (y) = 0.27211 0.63318
# Poissons Ratio (z) = -0.19097 0.32536
#
# Static dielectric constant tensor:
#      x y z
#    x 1.998240 0.000000 0.031810 
#    y 0.000000 2.022330 0.000000 
#    z 0.031810 0.000000 1.914130 
# 
# From -- ./inp_files/6139.got.cif
#   From: 2010.05.17/outbox.cif.g08.bks.cpg/sg9_4_cif.got.tgz:6139.got - 2010.06.03 20:04:27.
