data_PCOD9140581
_publ_section_title
;
Structure prediction by ZEFSAII (Michael W. Deem and Ramdas Pophale) SiO2 
 PCOD9140581
Probable space group: C C
;
_chemical_formula_sum "Si O2"
_cell_formula_units_Z 28
_cell_length_a 11.090603
_cell_length_b 10.807947
_cell_length_c 16.206666
_cell_angle_alpha 90.000000
_cell_angle_beta 143.816911
_cell_angle_gamma 90.000000
_cell_volume 1146.870716
_symmetry_space_group_name_H-M "C C"
_symmetry_group_IT_number 9
_symmetry_cell_setting 'monoclinic'
loop_
_space_group_symop_operation_xyz
x,y,z
x,-y,1/2+z
1/2+x,1/2+y,z
1/2+x,1/2-y,1/2+z
loop_
_atom_site_type_symbol
_atom_site_label
_atom_site_fract_x
_atom_site_fract_y
_atom_site_fract_z
Si Si1 0.179820 0.307382 0.013510
Si Si2 0.337929 0.107816 0.218145
Si Si3 0.134764 0.558762 0.784696
Si Si4 0.439607 0.987164 0.003315
Si Si5 0.607316 0.782606 0.520503
Si Si6 0.559389 0.680841 0.308698
Si Si7 0.006670 0.060742 0.581678
O O1 0.235722 0.178283 0.085700
O O2 0.072338 0.393469 0.021741
O O3 0.375056 0.376952 0.081686
O O4 0.001458 0.297909 0.846940
O O5 0.471626 0.993480 0.260040
O O6 0.171230 0.048003 0.187154
O O7 0.059249 0.508720 0.655825
O O8 0.136410 0.706446 0.793075
O O9 0.346225 0.502207 0.930485
O O10 0.441588 0.118603 0.959271
O O11 0.216731 0.931556 0.895188
O O12 0.566205 0.733361 0.406244
O O13 0.606995 0.671213 0.585304
O O14 0.830338 0.845572 0.651639
#
# Coordination Sequence:
#
# PCOD9140581 Si02
#       7
#     4   4   4   4   4   4   4
#     4  11  28  45  74 114 148 196 257 312 387 447
#     4  11  24  51  74 109 150 197 253 319 377 457
#     4  11  24  49  74 106 150 200 249 319 384 439
#     4  12  27  45  75 115 149 200 256 309 388 463
#     4  12  26  49  80 112 148 208 251 316 394 451
#     4  12  25  51  78 109 155 198 257 321 381 456
#     4  11  24  48  79 105 158 193 255 320 375 465
#
# _framework density 24.414259999999999
#
# number of rings (size 3 to 8) (size 9 to 14) (size 15 to 20)
#    0.000    0.571    2.857    4.286    4.000    3.429 
#    7.714    0.000    0.000    0.000    0.000    0.000 
#    0.000    0.000    0.000    0.000    0.000    0.000 
#
# Total GULP energy -78493.755720 kJ/mol
# GULP energy per Si atom -5606.696837 kJ/mol
# Density = 2.435869 g / cm^3
# Si number density = 24.414260 Si / 1000 Ang^3
#
#
#
# Elastic Constant Matrix: (Units=GPa)
#
#
# Indices 1 2 3 4 5 6 
#
# 1 81.3064 17.0470 39.8959 0.0000 -0.7869 0.0000
# 2 17.0470 109.8333 34.7899 0.0000 17.8091 0.0000
# 3 39.8959 34.7899 91.8941 0.0001 14.6577 0.0000
# 4 0.0000 0.0000 0.0001 33.5585 0.0000 1.4711
# 5 -0.7869 17.8091 14.6577 0.0000 38.4154 0.0000
# 6 0.0000 0.0000 0.0000 1.4711 0.0000 39.1375
#
#
#
# Elastic Compliance Matrix: (Units=1/GPa)
#
#
# Indices 1 2 3 4 5 6 
#
# 1 0.016035 -0.000758 -0.007223 0.000000 0.003436 0.000000
# 2 -0.000758 0.010847 -0.003166 0.000000 -0.003836 0.000000
# 3 -0.007223 -0.003166 0.015978 0.000000 -0.004777 0.000000
# 4 0.000000 0.000000 0.000000 0.029848 0.000000 -0.001122
# 5 0.003436 -0.003836 -0.004777 0.000000 0.029703 0.000000
# 6 0.000000 0.000000 0.000000 -0.001122 0.000000 0.025593
#
#
# Mechanical properties :
#
#
# Convention : Reuss Voigt Hill
#
# Bulk Modulus (GPa) = 48.61933 51.83327 50.22630
# Shear Modulus (GPa) = 31.81598 34.97567 33.39583
#
# Velocity S-wave (km/s) = 3.61386 3.78907 3.70250
# Velocity P-wave (km/s) = 6.11317 6.35763 6.23660
#
# Compressibility (1/GPa) = 0.02056795
#
# Stress axis : x y z
#
# Youngs Moduli (GPa) = 62.36166 92.19047 62.58492
#
# Poissons Ratio (x) = 0.06989 0.45204
# Poissons Ratio (y) = 0.04728 0.19811
# Poissons Ratio (z) = 0.45043 0.29183
#
# Static dielectric constant tensor:
#      x y z
#    x 1.950240 0.000000 0.001500 
#    y 0.000000 1.924660 0.000000 
#    z 0.001500 0.000000 1.936200 
# 
# From -- ./inp_files/30049.got.cif
#   From: 2010.05.17/outbox.cif.g08.bks.cpg/sg9_16_cif.got.tgz:30049.got - 2010.06.03 20:04:27.
