data_PCOD9140462
_publ_section_title
;
Structure prediction by ZEFSAII (Michael W. Deem and Ramdas Pophale) SiO2 
 PCOD9140462
Probable space group: C C
;
_chemical_formula_sum "Si O2"
_cell_formula_units_Z 32
_cell_length_a 24.890356
_cell_length_b 8.956005
_cell_length_c 8.901576
_cell_angle_alpha 90.000000
_cell_angle_beta 139.388327
_cell_angle_gamma 90.000000
_cell_volume 1291.653093
_symmetry_space_group_name_H-M "C C"
_symmetry_group_IT_number 9
_symmetry_cell_setting 'monoclinic'
loop_
_space_group_symop_operation_xyz
x,y,z
x,-y,1/2+z
1/2+x,1/2+y,z
1/2+x,1/2-y,1/2+z
loop_
_atom_site_type_symbol
_atom_site_label
_atom_site_fract_x
_atom_site_fract_y
_atom_site_fract_z
Si Si1 0.324700 0.789489 0.685180
Si Si2 0.374106 0.466514 0.090099
Si Si3 0.219468 0.019794 0.754368
Si Si4 0.603752 0.487814 0.747592
Si Si5 0.960458 0.512292 0.084543
Si Si6 0.054655 0.341622 0.052584
Si Si7 0.954224 0.167754 0.471297
Si Si8 0.723984 0.820506 0.238465
O O1 0.377669 0.657109 0.727063
O O2 0.249052 0.715689 0.618164
O O3 0.289616 0.876392 0.466992
O O4 0.382831 0.898939 0.907703
O O5 0.436612 0.595888 0.272531
O O6 0.394254 0.396425 0.972657
O O7 0.286594 0.548243 0.910909
O O8 0.135354 0.061492 0.662256
O O9 0.239129 0.847249 0.832481
O O10 0.189085 0.035605 0.520172
O O11 0.560231 0.332388 0.613060
O O12 0.544946 0.605921 0.705622
O O13 0.038532 0.428562 0.174014
O O14 0.983879 0.590868 0.292195
O O15 0.944593 0.656884 0.947829
O O16 0.136647 0.363553 0.125426
#
# Coordination Sequence:
#
# PCOD9140462 Si02
#       8
#     4   4   4   4   4   4   4   4
#     4  12  27  48  77 115 152 205 255 330 396 465
#     4  12  27  45  74 105 152 197 265 316 392 466
#     4  11  24  45  81 108 153 204 257 314 392 470
#     4  11  24  48  73 114 154 204 257 317 391 469
#     4  12  28  47  78 111 157 198 269 323 396 466
#     4  11  29  49  75 112 155 206 260 329 393 469
#     4  12  25  44  72 109 148 200 253 323 382 465
#     4  11  26  50  74 112 153 204 258 324 390 470
#
# _framework density 24.774455
#
# number of rings (size 3 to 8) (size 9 to 14) (size 15 to 20)
#    0.000    0.500    2.500    5.250    7.000    4.000 
#    0.000    0.000    0.000    0.000    0.000    0.000 
#    0.000    0.000    0.000    0.000    0.000    0.000 
#
# Total GULP energy -89416.592500 kJ/mol
# GULP energy per Si atom -5588.537031 kJ/mol
# Density = 2.471807 g / cm^3
# Si number density = 24.774455 Si / 1000 Ang^3
#
#
#
# Elastic Constant Matrix: (Units=GPa)
#
#
# Indices 1 2 3 4 5 6 
#
# 1 106.1693 24.8362 4.6455 0.0000 18.3502 0.0000
# 2 24.8362 108.5121 23.0148 0.0000 4.0566 0.0000
# 3 4.6455 23.0148 55.6313 0.0000 6.9015 0.0000
# 4 0.0000 0.0000 0.0000 41.4616 0.0000 -2.2435
# 5 18.3502 4.0566 6.9015 0.0000 32.3567 0.0000
# 6 0.0000 0.0000 0.0000 -2.2435 0.0000 38.9412
#
#
#
# Elastic Compliance Matrix: (Units=1/GPa)
#
#
# Indices 1 2 3 4 5 6 
#
# 1 0.011019 -0.002476 0.000864 0.000000 -0.006123 0.000000
# 2 -0.002476 0.010663 -0.004327 0.000000 0.000991 0.000000
# 3 0.000864 -0.004327 0.020222 0.000000 -0.004261 0.000000
# 4 0.000000 0.000000 0.000000 0.024194 0.000000 0.001394
# 5 -0.006123 0.000991 -0.004261 0.000000 0.035162 0.000000
# 6 0.000000 0.000000 0.000000 0.001394 0.000000 0.025760
#
#
# Mechanical properties :
#
#
# Convention : Reuss Voigt Hill
#
# Bulk Modulus (GPa) = 33.30641 41.70067 37.50354
# Shear Modulus (GPa) = 33.57772 37.07300 35.32536
#
# Velocity S-wave (km/s) = 3.68548 3.87256 3.78018
# Velocity P-wave (km/s) = 5.61991 6.07159 5.85011
#
# Compressibility (1/GPa) = 0.03002425
#
# Stress axis : x y z
#
# Youngs Moduli (GPa) = 90.75535 93.78109 49.45063
#
# Poissons Ratio (x) = 0.23223 -0.04272
# Poissons Ratio (y) = 0.22474 0.21400
# Poissons Ratio (z) = -0.07840 0.40583
#
# Static dielectric constant tensor:
#      x y z
#    x 2.001160 0.000000 0.024520 
#    y 0.000000 1.916520 0.000000 
#    z 0.024520 0.000000 2.029350 
# 
# From -- ./inp_files/12458.got.cif
#   From: 2010.05.17/outbox.cif.g08.bks.cpg/sg9_7_cif.got.tgz:12458.got - 2010.06.03 20:04:27.
