data_PCOD9140163
_publ_section_title
;
Structure prediction by ZEFSAII (Michael W. Deem and Ramdas Pophale) SiO2 
 PCOD9140163
Probable space group: C C
;
_chemical_formula_sum "Si O2"
_cell_formula_units_Z 32
_cell_length_a 8.279503
_cell_length_b 12.192631
_cell_length_c 14.187389
_cell_angle_alpha 90.000000
_cell_angle_beta 58.219221
_cell_angle_gamma 90.000000
_cell_volume 1217.470845
_symmetry_space_group_name_H-M "C C"
_symmetry_group_IT_number 9
_symmetry_cell_setting 'monoclinic'
loop_
_space_group_symop_operation_xyz
x,y,z
x,-y,1/2+z
1/2+x,1/2+y,z
1/2+x,1/2-y,1/2+z
loop_
_atom_site_type_symbol
_atom_site_label
_atom_site_fract_x
_atom_site_fract_y
_atom_site_fract_z
Si Si1 0.809710 0.530905 0.924580
Si Si2 0.075784 0.140482 0.386934
Si Si3 0.739178 0.043998 0.247949
Si Si4 0.130165 0.570101 0.075581
Si Si5 0.843183 0.849964 0.328970
Si Si6 0.161908 0.237005 0.860135
Si Si7 0.242564 0.861130 0.647472
Si Si8 0.627628 0.828549 0.058874
O O1 0.665486 0.436209 0.938771
O O2 0.776024 0.634477 0.866099
O O3 0.022433 0.488191 0.842460
O O4 0.771832 0.570082 0.042703
O O5 0.187547 0.256384 0.354073
O O6 0.132162 0.087971 0.269216
O O7 0.853309 0.155517 0.469004
O O8 0.745942 0.072452 0.136183
O O9 0.774471 0.155759 0.292699
O O10 0.858352 0.937776 0.240882
O O11 0.042359 0.447581 0.101775
O O12 0.957023 0.655176 0.121267
O O13 0.259387 0.584877 0.944945
O O14 0.032864 0.796144 0.311386
O O15 0.043657 0.275655 0.989582
O O16 0.138443 0.751433 0.644131
#
# Coordination Sequence:
#
# PCOD9140163 Si02
#       8
#     4   4   4   4   4   4   4   4
#     4  11  23  44  72 101 144 190 237 299 361 434
#     4  12  24  47  74 104 150 194 240 308 364 429
#     4  12  24  47  72 103 145 187 240 300 361 431
#     4  12  23  44  75 106 138 194 239 291 372 431
#     4  12  23  46  74 101 145 186 239 304 356 429
#     4  11  24  46  68  99 141 190 234 300 357 417
#     4  11  23  45  74 106 140 197 244 286 375 433
#     4  11  24  45  73 102 149 190 239 308 354 436
#
# _framework density 26.283996999999999
#
# number of rings (size 3 to 8) (size 9 to 14) (size 15 to 20)
#    0.000    0.500    6.250    2.250    0.000    0.000 
#   11.250    0.000    0.000    0.000    0.000    0.000 
#    0.000    0.000    0.000    0.000    0.000    0.000 
#
# Total GULP energy -89771.473103 kJ/mol
# GULP energy per Si atom -5610.717069 kJ/mol
# Density = 2.622417 g / cm^3
# Si number density = 26.283997 Si / 1000 Ang^3
#
#
#
# Elastic Constant Matrix: (Units=GPa)
#
#
# Indices 1 2 3 4 5 6 
#
# 1 105.8679 39.3361 20.2708 0.0000 20.0085 0.0000
# 2 39.3361 129.8860 16.6870 0.0000 16.0128 0.0000
# 3 20.2708 16.6870 101.1308 0.0000 22.1990 0.0000
# 4 0.0000 0.0000 0.0000 32.4015 0.0000 9.5388
# 5 20.0085 16.0128 22.1990 0.0000 49.0820 0.0000
# 6 0.0000 0.0000 0.0000 9.5388 0.0000 43.7919
#
#
#
# Elastic Compliance Matrix: (Units=1/GPa)
#
#
# Indices 1 2 3 4 5 6 
#
# 1 0.011334 -0.002900 -0.001096 0.000000 -0.003179 0.000000
# 2 -0.002900 0.008827 -0.000558 0.000000 -0.001445 0.000000
# 3 -0.001096 -0.000558 0.011171 0.000000 -0.004424 0.000000
# 4 0.000000 0.000000 0.000000 0.032977 0.000000 -0.007183
# 5 -0.003179 -0.001445 -0.004424 0.000000 0.024142 0.000000
# 6 0.000000 0.000000 0.000000 -0.007183 0.000000 0.024400
#
#
# Mechanical properties :
#
#
# Convention : Reuss Voigt Hill
#
# Bulk Modulus (GPa) = 44.99418 54.38583 49.69000
# Shear Modulus (GPa) = 38.64992 42.42779 40.53885
#
# Velocity S-wave (km/s) = 3.83884 4.02208 3.93152
# Velocity P-wave (km/s) = 6.06667 6.50431 6.28930
#
# Compressibility (1/GPa) = 0.02222510
#
# Stress axis : x y z
#
# Youngs Moduli (GPa) = 88.23254 113.28704 89.51823
#
# Poissons Ratio (x) = 0.32851 0.09807
# Poissons Ratio (y) = 0.25586 0.04995
# Poissons Ratio (z) = 0.09666 0.06322
#
# Static dielectric constant tensor:
#      x y z
#    x 2.053870 0.000000 0.014380 
#    y 0.000000 2.053830 0.000000 
#    z 0.014380 0.000000 2.023690 
# 
# From -- ./inp_files/22713.got.cif
#   From: 2010.05.17/outbox.cif.g08.bks.cpg/sg9_12_cif.got.tgz:22713.got - 2010.06.03 20:04:27.
