data_PCOD9140934
_publ_section_title
;
Structure prediction by ZEFSAII (Michael W. Deem and Ramdas Pophale) SiO2 
 PCOD9140934
Probable space group: C C
;
_chemical_formula_sum "Si O2"
_cell_formula_units_Z 24
_cell_length_a 30.536070
_cell_length_b 4.773008
_cell_length_c 16.831154
_cell_angle_alpha 90.000000
_cell_angle_beta 155.099236
_cell_angle_gamma 90.000000
_cell_volume 1032.882008
_symmetry_space_group_name_H-M "C C"
_symmetry_group_IT_number 9
_symmetry_cell_setting 'monoclinic'
loop_
_space_group_symop_operation_xyz
x,y,z
x,-y,1/2+z
1/2+x,1/2+y,z
1/2+x,1/2-y,1/2+z
loop_
_atom_site_type_symbol
_atom_site_label
_atom_site_fract_x
_atom_site_fract_y
_atom_site_fract_z
Si Si1 0.080890 0.437729 0.462370
Si Si2 0.797601 0.159423 0.867233
Si Si3 0.091443 0.909302 0.367201
Si Si4 0.903181 0.687903 0.962146
Si Si5 0.318285 0.110341 0.175150
Si Si6 0.378787 0.360235 0.675298
O O1 0.178258 0.557923 0.672360
O O2 0.044820 0.721267 0.361170
O O3 0.991592 0.285167 0.364149
O O4 0.099712 0.220847 0.418898
O O5 0.840900 0.471064 0.918710
O O6 0.838086 0.971498 0.860964
O O7 0.850556 0.080114 0.037410
O O8 0.208603 0.830064 0.537144
O O9 0.015789 0.808017 0.172155
O O10 0.894253 0.535229 0.863919
O O11 0.366764 0.375081 0.211704
O O12 0.299187 0.875097 0.076474
#
# Coordination Sequence:
#
# PCOD9140934 Si02
#       6
#     4   4   4   4   4   4
#     4  12  23  44  74 104 138 195 252 295 365 455
#     4  12  23  44  74 104 138 195 252 295 365 455
#     4  12  23  44  74 104 138 195 252 295 365 455
#     4  12  23  44  74 104 138 195 252 295 365 455
#     4  12  26  44  70 108 155 182 241 324 378 422
#     4  12  26  44  70 108 155 182 241 324 378 422
#
# _framework density 23.235956000000002
#
# number of rings (size 3 to 8) (size 9 to 14) (size 15 to 20)
#    0.000    0.000    6.667    4.000    0.000    1.333 
#    0.000    3.333    0.000    0.000    0.000    0.000 
#    0.000    0.000    0.000    0.000    0.000    0.000 
#
# Total GULP energy -66986.293233 kJ/mol
# GULP energy per Si atom -5582.191103 kJ/mol
# Density = 2.318307 g / cm^3
# Si number density = 23.235956 Si / 1000 Ang^3
#
#
#
# Elastic Constant Matrix: (Units=GPa)
#
#
# Indices 1 2 3 4 5 6 
#
# 1 77.4952 24.2027 29.0790 0.0000 -1.0707 0.0000
# 2 24.2027 137.6546 35.4259 -0.0001 0.4495 0.0000
# 3 29.0790 35.4259 156.3638 -0.0001 4.2636 0.0000
# 4 0.0000 -0.0001 -0.0001 35.7326 0.0000 -0.4152
# 5 -1.0707 0.4495 4.2636 0.0000 8.9933 0.0000
# 6 0.0000 0.0000 0.0000 -0.4152 0.0000 46.1891
#
#
#
# Elastic Compliance Matrix: (Units=1/GPa)
#
#
# Indices 1 2 3 4 5 6 
#
# 1 0.014423 -0.001948 -0.002320 0.000000 0.002915 0.000000
# 2 -0.001948 0.007979 -0.001447 0.000000 0.000055 0.000000
# 3 -0.002320 -0.001447 0.007254 0.000000 -0.003643 0.000000
# 4 0.000000 0.000000 0.000000 0.027989 0.000000 0.000252
# 5 0.002915 0.000055 -0.003643 0.000000 0.113265 0.000000
# 6 0.000000 0.000000 0.000000 0.000252 0.000000 0.021652
#
#
# Mechanical properties :
#
#
# Convention : Reuss Voigt Hill
#
# Bulk Modulus (GPa) = 54.86836 60.99209 57.93022
# Shear Modulus (GPa) = 23.80164 37.03673 30.41919
#
# Velocity S-wave (km/s) = 3.20401 3.99675 3.62213
# Velocity P-wave (km/s) = 6.11166 6.89961 6.51756
#
# Compressibility (1/GPa) = 0.01822544
#
# Stress axis : x y z
#
# Youngs Moduli (GPa) = 69.33141 125.32398 137.85440
#
# Poissons Ratio (x) = 0.24417 0.31988
# Poissons Ratio (y) = 0.13508 0.19947
# Poissons Ratio (z) = 0.16088 0.18134
#
# Static dielectric constant tensor:
#      x y z
#    x 1.964650 0.000000 -0.000080 
#    y 0.000000 1.890980 0.000000 
#    z -0.000080 0.000000 1.964980 
# 
# From -- ./inp_files/27905.got.cif
#   From: 2010.05.17/outbox.cif.g08.bks.cpg/sg9_14_cif.got.tgz:27905.got - 2010.06.03 20:04:27.
