data_PCOD9140854
_publ_section_title
;
Structure prediction by ZEFSAII (Michael W. Deem and Ramdas Pophale) SiO2 
 PCOD9140854
Probable space group: C C
;
_chemical_formula_sum "Si O2"
_cell_formula_units_Z 24
_cell_length_a 10.731217
_cell_length_b 9.668620
_cell_length_c 9.523832
_cell_angle_alpha 90.000000
_cell_angle_beta 83.711822
_cell_angle_gamma 90.000000
_cell_volume 982.210117
_symmetry_space_group_name_H-M "C C"
_symmetry_group_IT_number 9
_symmetry_cell_setting 'monoclinic'
loop_
_space_group_symop_operation_xyz
x,y,z
x,-y,1/2+z
1/2+x,1/2+y,z
1/2+x,1/2-y,1/2+z
loop_
_atom_site_type_symbol
_atom_site_label
_atom_site_fract_x
_atom_site_fract_y
_atom_site_fract_z
Si Si1 0.018840 0.432096 0.297120
Si Si2 0.492554 0.416519 0.236276
Si Si3 0.344080 0.576328 0.037098
Si Si4 0.722891 0.560844 0.884622
Si Si5 0.128793 0.228183 0.513399
Si Si6 0.139977 0.359085 0.988190
O O1 0.086932 0.314638 0.382625
O O2 0.077250 0.572687 0.357331
O O3 0.870073 0.431708 0.337809
O O4 0.053370 0.400548 0.131693
O O5 0.683596 0.419120 0.963429
O O6 0.505893 0.292920 0.123743
O O7 0.426547 0.541216 0.161835
O O8 0.635651 0.445960 0.257997
O O9 0.421526 0.616416 0.888847
O O10 0.238395 0.688983 0.077277
O O11 0.269210 0.438839 0.003007
O O12 0.173950 0.198982 0.968419
#
# Coordination Sequence:
#
# PCOD9140854 Si02
#       6
#     4   4   4   4   4   4
#     4  11  29  52  78 112 160 195 263 314 384 457
#     4  12  27  47  77 113 152 199 256 313 388 446
#     4  11  26  51  79 105 157 200 254 317 385 458
#     4  12  30  45  80 114 153 200 257 316 379 454
#     4  11  28  48  75 113 152 202 253 316 385 447
#     4  11  28  53  79 115 150 210 253 318 385 448
#
# _framework density 24.434691000000001
#
# number of rings (size 3 to 8) (size 9 to 14) (size 15 to 20)
#    0.000    0.667    1.667    3.000   14.000    0.000 
#    0.000    0.000    0.000    0.000    0.000    0.000 
#    0.000    0.000    0.000    0.000    0.000    0.000 
#
# Total GULP energy -67250.182541 kJ/mol
# GULP energy per Si atom -5604.181878 kJ/mol
# Density = 2.437908 g / cm^3
# Si number density = 24.434691 Si / 1000 Ang^3
#
#
#
# Elastic Constant Matrix: (Units=GPa)
#
#
# Indices 1 2 3 4 5 6 
#
# 1 145.3448 47.4030 34.2592 0.0000 0.0052 0.0000
# 2 47.4030 149.9846 30.2569 0.0000 3.1600 0.0000
# 3 34.2592 30.2569 110.6670 0.0000 -20.5616 0.0000
# 4 0.0000 0.0000 0.0000 26.1854 0.0000 -5.4741
# 5 0.0052 3.1600 -20.5616 0.0000 45.3539 0.0000
# 6 0.0000 0.0000 0.0000 -5.4741 0.0000 37.5762
#
#
#
# Elastic Compliance Matrix: (Units=1/GPa)
#
#
# Indices 1 2 3 4 5 6 
#
# 1 0.008056 -0.002113 -0.002063 0.000000 -0.000789 0.000000
# 2 -0.002113 0.007705 -0.001695 0.000000 -0.001305 0.000000
# 3 -0.002063 -0.001695 0.011094 0.000000 0.005148 0.000000
# 4 0.000000 0.000000 0.000000 0.039389 0.000000 0.005738
# 5 -0.000789 -0.001305 0.005148 0.000000 0.024474 0.000000
# 6 0.000000 0.000000 0.000000 0.005738 0.000000 0.027449
#
#
# Mechanical properties :
#
#
# Convention : Reuss Voigt Hill
#
# Bulk Modulus (GPa) = 66.16551 69.98161 68.07356
# Shear Modulus (GPa) = 37.05217 41.42823 39.24020
#
# Velocity S-wave (km/s) = 3.89829 4.12207 4.01174
# Velocity P-wave (km/s) = 6.88473 7.16643 7.02699
#
# Compressibility (1/GPa) = 0.01511361
#
# Stress axis : x y z
#
# Youngs Moduli (GPa) = 124.13705 129.79198 90.13498
#
# Poissons Ratio (x) = 0.27429 0.18591
# Poissons Ratio (y) = 0.26234 0.15275
# Poissons Ratio (z) = 0.25604 0.21996
#
# Static dielectric constant tensor:
#      x y z
#    x 1.911120 0.000000 -0.014270 
#    y 0.000000 1.989040 0.000000 
#    z -0.014270 0.000000 2.004290 
# 
# From -- ./inp_files/5007.got.cif
#   From: 2010.05.17/outbox.cif.g08.bks.cpg/sg9_3_cif.got.tgz:5007.got - 2010.06.03 20:04:27.
