data_PCOD9140863
_publ_section_title
;
Structure prediction by ZEFSAII (Michael W. Deem and Ramdas Pophale) SiO2 
 PCOD9140863
Probable space group: C C
;
_chemical_formula_sum "Si O2"
_cell_formula_units_Z 28
_cell_length_a 13.121741
_cell_length_b 4.807179
_cell_length_c 21.811477
_cell_angle_alpha 90.000000
_cell_angle_beta 133.886782
_cell_angle_gamma 90.000000
_cell_volume 991.580589
_symmetry_space_group_name_H-M "C C"
_symmetry_group_IT_number 9
_symmetry_cell_setting 'monoclinic'
loop_
_space_group_symop_operation_xyz
x,y,z
x,-y,1/2+z
1/2+x,1/2+y,z
1/2+x,1/2-y,1/2+z
loop_
_atom_site_type_symbol
_atom_site_label
_atom_site_fract_x
_atom_site_fract_y
_atom_site_fract_z
Si Si1 0.658470 0.202960 0.930720
Si Si2 0.179038 0.611415 0.754496
Si Si3 0.618485 0.261037 0.331340
Si Si4 0.040339 0.145576 0.550046
Si Si5 0.951293 0.365003 0.932166
Si Si6 0.796490 0.706008 0.177368
Si Si7 0.897198 0.912041 0.611169
O O1 0.538220 0.043010 0.918723
O O2 0.711224 0.955130 0.908889
O O3 0.781605 0.279053 0.029214
O O4 0.009278 0.073195 0.981680
O O5 0.168208 0.310876 0.782766
O O6 0.218434 0.625287 0.699436
O O7 0.024079 0.748227 0.696680
O O8 0.301188 0.785212 0.840217
O O9 0.619643 0.546433 0.369648
O O10 0.456328 0.162063 0.265275
O O11 0.973968 0.435641 0.500303
O O12 0.206610 0.073029 0.629852
O O13 0.972264 0.074761 0.587050
O O14 0.815672 0.884605 0.123509
#
# Coordination Sequence:
#
# PCOD9140863 Si02
#       7
#     4   4   4   4   4   4   4
#     4  12  27  52  86 120 169 226 288 360 434 518
#     4  11  28  54  83 129 171 233 293 363 440 529
#     4  12  28  52  85 122 169 227 289 357 437 523
#     4  11  28  50  85 119 169 222 288 357 434 515
#     4  12  26  55  83 120 171 225 287 363 429 518
#     4  11  26  55  81 128 174 225 287 370 442 524
#     4  11  27  52  85 124 169 226 288 360 440 523
#
# _framework density 28.237746999999999
#
# number of rings (size 3 to 8) (size 9 to 14) (size 15 to 20)
#    0.000    0.571    2.857    2.571    2.000   10.286 
#    0.000    0.000    0.000    0.000    0.000    0.000 
#    0.000    0.000    0.000    0.000    0.000    0.000 
#
# Total GULP energy -78524.327172 kJ/mol
# GULP energy per Si atom -5608.880512 kJ/mol
# Density = 2.817348 g / cm^3
# Si number density = 28.237747 Si / 1000 Ang^3
#
#
#
# Elastic Constant Matrix: (Units=GPa)
#
#
# Indices 1 2 3 4 5 6 
#
# 1 175.4553 32.8340 39.1268 -0.0002 -13.6860 0.0005
# 2 32.8340 116.9040 54.7684 -0.0007 2.3204 0.0017
# 3 39.1268 54.7684 197.2309 0.0002 18.5338 0.0001
# 4 -0.0002 -0.0007 0.0002 50.0392 0.0000 -27.3364
# 5 -13.6860 2.3204 18.5338 0.0000 58.8543 -0.0002
# 6 0.0005 0.0017 0.0001 -27.3364 -0.0002 49.4164
#
#
#
# Elastic Compliance Matrix: (Units=1/GPa)
#
#
# Indices 1 2 3 4 5 6 
#
# 1 0.006328 -0.001315 -0.001065 0.000000 0.001859 0.000000
# 2 -0.001315 0.010120 -0.002559 0.000000 0.000101 0.000000
# 3 -0.001065 -0.002559 0.006189 0.000000 -0.002096 0.000000
# 4 0.000000 0.000000 0.000000 0.028639 0.000000 0.015843
# 5 0.001859 0.000101 -0.002096 0.000000 0.018079 0.000000
# 6 0.000000 0.000000 0.000000 0.015843 0.000000 0.029000
#
#
# Mechanical properties :
#
#
# Convention : Reuss Voigt Hill
#
# Bulk Modulus (GPa) = 78.37409 82.56095 80.46752
# Shear Modulus (GPa) = 44.44964 55.85271 50.15117
#
# Velocity S-wave (km/s) = 3.97182 4.45223 4.21887
# Velocity P-wave (km/s) = 6.98922 7.46533 7.23119
#
# Compressibility (1/GPa) = 0.01275932
#
# Stress axis : x y z
#
# Youngs Moduli (GPa) = 158.02689 98.81191 161.57962
#
# Poissons Ratio (x) = 0.12997 0.17204
# Poissons Ratio (y) = 0.20787 0.41345
# Poissons Ratio (z) = 0.16826 0.25284
#
# Static dielectric constant tensor:
#      x y z
#    x 2.261310 0.000000 -0.000060 
#    y 0.000000 2.170750 0.000000 
#    z -0.000060 0.000000 2.216640 
# 
# From -- ./inp_files/35190.got.cif
#   From: 2010.05.17/outbox.cif.g08.bks.cpg/sg9_18_cif.got.tgz:35190.got - 2010.06.03 20:04:27.
