data_PCOD9140181
_publ_section_title
;
Structure prediction by ZEFSAII (Michael W. Deem and Ramdas Pophale) SiO2 
 PCOD9140181
Probable space group: C C
;
_chemical_formula_sum "Si O2"
_cell_formula_units_Z 32
_cell_length_a 11.855946
_cell_length_b 14.303836
_cell_length_c 9.086955
_cell_angle_alpha 90.000000
_cell_angle_beta 66.430220
_cell_angle_gamma 90.000000
_cell_volume 1412.454715
_symmetry_space_group_name_H-M "C C"
_symmetry_group_IT_number 9
_symmetry_cell_setting 'monoclinic'
loop_
_space_group_symop_operation_xyz
x,y,z
x,-y,1/2+z
1/2+x,1/2+y,z
1/2+x,1/2-y,1/2+z
loop_
_atom_site_type_symbol
_atom_site_label
_atom_site_fract_x
_atom_site_fract_y
_atom_site_fract_z
Si Si1 0.038340 0.355217 0.280620
Si Si2 0.388417 0.171084 0.586947
Si Si3 0.067491 0.429403 0.786795
Si Si4 0.305830 0.640956 0.678004
Si Si5 0.997242 0.275832 0.608553
Si Si6 0.519459 0.481582 0.921445
Si Si7 0.323054 0.623674 0.017253
Si Si8 0.142315 0.910144 0.113370
O O1 0.021712 0.465052 0.323941
O O2 0.179980 0.357125 0.154972
O O3 0.930579 0.319158 0.232565
O O4 0.045169 0.290841 0.420357
O O5 0.512193 0.129395 0.449765
O O6 0.342463 0.267084 0.537294
O O7 0.274319 0.102433 0.616886
O O8 0.212753 0.418528 0.674468
O O9 0.010322 0.374294 0.679563
O O10 0.357315 0.744317 0.675778
O O11 0.410795 0.590237 0.524933
O O12 0.297181 0.604127 0.854542
O O13 0.071656 0.191221 0.650245
O O14 0.563923 0.509652 0.736839
O O15 0.451003 0.577683 0.999211
O O16 0.636851 0.445433 0.949490
#
# Coordination Sequence:
#
# PCOD9140181 Si02
#       8
#     4   4   4   4   4   4   4   4
#     4  12  27  44  70 112 142 190 253 305 364 441
#     4  12  28  45  68 111 152 193 237 307 376 442
#     4  12  24  45  75 103 152 192 242 305 378 434
#     4  11  23  46  74 107 143 190 249 302 368 440
#     4  11  23  48  72 100 146 198 236 305 379 430
#     4  11  23  44  79 106 135 192 247 299 360 440
#     4  12  23  47  76 103 144 191 249 299 366 443
#     4  11  25  47  74 108 150 188 245 304 379 434
#
# _framework density 22.655591999999999
#
# number of rings (size 3 to 8) (size 9 to 14) (size 15 to 20)
#    0.000    0.500    7.500    0.750    1.750    4.000 
#    0.000    0.000    0.000    0.000    0.000    0.000 
#    0.000    0.000    0.000    0.000    0.000    0.000 
#
# Total GULP energy -89214.737508 kJ/mol
# GULP energy per Si atom -5575.921094 kJ/mol
# Density = 2.260403 g / cm^3
# Si number density = 22.655592 Si / 1000 Ang^3
#
#
#
# Elastic Constant Matrix: (Units=GPa)
#
#
# Indices 1 2 3 4 5 6 
#
# 1 103.8229 19.0227 12.6591 0.0000 17.6769 0.0000
# 2 19.0227 53.9388 20.9558 0.0000 8.7371 0.0000
# 3 12.6591 20.9558 61.0272 0.0000 3.6639 0.0000
# 4 0.0000 0.0000 0.0000 28.2711 0.0000 -1.4406
# 5 17.6769 8.7371 3.6639 0.0000 20.4287 0.0000
# 6 0.0000 0.0000 0.0000 -1.4406 0.0000 33.4986
#
#
#
# Elastic Compliance Matrix: (Units=1/GPa)
#
#
# Indices 1 2 3 4 5 6 
#
# 1 0.011706 -0.002240 -0.001120 0.000000 -0.008970 0.000000
# 2 -0.002240 0.023169 -0.007089 0.000000 -0.006699 0.000000
# 3 -0.001120 -0.007089 0.019017 0.000000 0.000591 0.000000
# 4 0.000000 0.000000 0.000000 0.035449 0.000000 0.001524
# 5 -0.008970 -0.006699 0.000591 0.000000 0.059472 0.000000
# 6 0.000000 0.000000 0.000000 0.001524 0.000000 0.029918
#
#
# Mechanical properties :
#
#
# Convention : Reuss Voigt Hill
#
# Bulk Modulus (GPa) = 30.30923 36.00713 33.15818
# Shear Modulus (GPa) = 23.73853 27.51644 25.62748
#
# Velocity S-wave (km/s) = 3.24049 3.48883 3.36695
# Velocity P-wave (km/s) = 5.23529 5.67071 5.45735
#
# Compressibility (1/GPa) = 0.03299325
#
# Stress axis : x y z
#
# Youngs Moduli (GPa) = 85.42546 43.16146 52.58362
#
# Poissons Ratio (x) = 0.09668 0.05892
# Poissons Ratio (y) = 0.19136 0.37276
# Poissons Ratio (z) = 0.09572 0.30597
#
# Static dielectric constant tensor:
#      x y z
#    x 1.871830 0.000000 -0.011030 
#    y 0.000000 1.858110 0.000000 
#    z -0.011030 0.000000 1.950730 
# 
# From -- ./inp_files/7393.got.cif
#   From: 2010.05.17/outbox.cif.g08.bks.cpg/sg9_4_cif.got.tgz:7393.got - 2010.06.03 20:04:27.
