data_PCOD9140606
_publ_section_title
;
Structure prediction by ZEFSAII (Michael W. Deem and Ramdas Pophale) SiO2 
 PCOD9140606
Probable space group: C C
;
_chemical_formula_sum "Si O2"
_cell_formula_units_Z 32
_cell_length_a 4.966722
_cell_length_b 17.609765
_cell_length_c 13.608485
_cell_angle_alpha 90.000000
_cell_angle_beta 81.702503
_cell_angle_gamma 90.000000
_cell_volume 1177.777019
_symmetry_space_group_name_H-M "C C"
_symmetry_group_IT_number 9
_symmetry_cell_setting 'monoclinic'
loop_
_space_group_symop_operation_xyz
x,y,z
x,-y,1/2+z
1/2+x,1/2+y,z
1/2+x,1/2-y,1/2+z
loop_
_atom_site_type_symbol
_atom_site_label
_atom_site_fract_x
_atom_site_fract_y
_atom_site_fract_z
Si Si1 0.588460 0.290481 0.899660
Si Si2 0.206164 0.235380 0.078084
Si Si3 0.605791 0.894826 0.838603
Si Si4 0.710795 0.896120 0.160719
Si Si5 0.343171 0.652944 0.934277
Si Si6 0.494231 0.984707 0.512455
Si Si7 0.559007 0.582631 0.173535
Si Si8 0.685645 0.560601 0.771278
O O1 0.335278 0.336859 0.870573
O O2 0.704923 0.208548 0.861184
O O3 0.837265 0.346143 0.871596
O O4 0.488767 0.262420 0.013378
O O5 0.117020 0.314178 0.129161
O O6 0.183061 0.166826 0.157003
O O7 0.020031 0.203386 0.999887
O O8 0.547375 0.969557 0.908270
O O9 0.739484 0.909897 0.722705
O O10 0.012351 0.903266 0.189076
O O11 0.497477 0.919253 0.254295
O O12 0.643806 0.958203 0.080423
O O13 0.549919 0.595585 0.872449
O O14 0.131884 0.597617 0.997960
O O15 0.194701 0.963184 0.573440
O O16 0.654829 0.529021 0.257814
#
# Coordination Sequence:
#
# PCOD9140606 Si02
#       8
#     4   4   4   4   4   4   4   4
#     4  12  27  48  74 108 156 203 268 319 408 470
#     4  12  27  46  81 113 157 211 268 330 405 479
#     4  12  28  52  78 116 158 214 262 338 396 495
#     4  11  27  47  76 110 156 203 261 327 402 476
#     4  12  26  49  78 115 156 211 269 330 406 487
#     4  11  24  50  81 112 160 210 269 329 411 481
#     4  11  27  50  77 121 157 209 272 332 405 481
#     4  11  28  48  75 111 156 205 261 331 401 481
#
# _framework density 27.169829
#
# number of rings (size 3 to 8) (size 9 to 14) (size 15 to 20)
#    0.000    0.500    5.000    0.750   10.500    4.000 
#    0.000    0.000    0.000    0.000    0.000    0.000 
#    0.000    0.000    0.000    0.000    0.000    0.000 
#
# Total GULP energy -89517.633054 kJ/mol
# GULP energy per Si atom -5594.852066 kJ/mol
# Density = 2.710799 g / cm^3
# Si number density = 27.169829 Si / 1000 Ang^3
#
#
#
# Elastic Constant Matrix: (Units=GPa)
#
#
# Indices 1 2 3 4 5 6 
#
# 1 136.7620 67.6351 61.7866 0.0000 -21.9180 0.0000
# 2 67.6351 250.4857 86.9574 0.0000 5.4714 0.0000
# 3 61.7866 86.9574 155.1023 0.0000 -21.3598 0.0000
# 4 0.0000 0.0000 0.0000 66.9870 0.0000 0.7089
# 5 -21.9180 5.4714 -21.3598 0.0000 51.1767 0.0000
# 6 0.0000 0.0000 0.0000 0.7089 0.0000 43.2257
#
#
#
# Elastic Compliance Matrix: (Units=1/GPa)
#
#
# Indices 1 2 3 4 5 6 
#
# 1 0.009892 -0.001916 -0.002392 0.000000 0.003443 0.000000
# 2 -0.001916 0.005488 -0.002660 0.000000 -0.002518 0.000000
# 3 -0.002392 -0.002660 0.009326 0.000000 0.003152 0.000000
# 4 0.000000 0.000000 0.000000 0.014931 0.000000 -0.000245
# 5 0.003443 -0.002518 0.003152 0.000000 0.022599 0.000000
# 6 0.000000 0.000000 0.000000 -0.000245 0.000000 0.023138
#
#
# Mechanical properties :
#
#
# Convention : Reuss Voigt Hill
#
# Bulk Modulus (GPa) = 92.85871 108.34536 100.60203
# Shear Modulus (GPa) = 48.59009 54.00928 51.29969
#
# Velocity S-wave (km/s) = 4.23352 4.46336 4.34996
# Velocity P-wave (km/s) = 7.62550 8.15633 7.89538
#
# Compressibility (1/GPa) = 0.01076905
#
# Stress axis : x y z
#
# Youngs Moduli (GPa) = 101.09219 182.21299 107.22583
#
# Poissons Ratio (x) = 0.34905 0.25653
# Poissons Ratio (y) = 0.19366 0.28527
# Poissons Ratio (z) = 0.24186 0.48477
#
# Static dielectric constant tensor:
#      x y z
#    x 2.207480 0.000000 0.059110 
#    y 0.000000 2.159580 0.000000 
#    z 0.059110 0.000000 2.226720 
# 
# From -- ./inp_files/28695.got.cif
#   From: 2010.05.17/outbox.cif.g08.bks.cpg/sg9_15_cif.got.tgz:28695.got - 2010.06.03 20:04:27.
