data_PCOD9140358
_publ_section_title
;
Structure prediction by ZEFSAII (Michael W. Deem and Ramdas Pophale) SiO2 
 PCOD9140358
Probable space group: C C
;
_chemical_formula_sum "Si O2"
_cell_formula_units_Z 32
_cell_length_a 9.448490
_cell_length_b 16.334837
_cell_length_c 11.045696
_cell_angle_alpha 90.000000
_cell_angle_beta 123.076580
_cell_angle_gamma 90.000000
_cell_volume 1428.512979
_symmetry_space_group_name_H-M "C C"
_symmetry_group_IT_number 9
_symmetry_cell_setting 'monoclinic'
loop_
_space_group_symop_operation_xyz
x,y,z
x,-y,1/2+z
1/2+x,1/2+y,z
1/2+x,1/2-y,1/2+z
loop_
_atom_site_type_symbol
_atom_site_label
_atom_site_fract_x
_atom_site_fract_y
_atom_site_fract_z
Si Si1 0.950810 0.858190 0.952830
Si Si2 0.663337 0.061746 0.172665
Si Si3 0.017632 0.680401 0.899580
Si Si4 0.888357 0.421438 0.758860
Si Si5 0.209982 0.922358 0.262187
Si Si6 0.073991 0.115887 0.949111
Si Si7 0.145740 0.301353 0.983713
Si Si8 0.699970 0.879647 0.248421
O O1 0.846315 0.909062 0.805151
O O2 0.804371 0.829727 0.977719
O O3 0.037986 0.776590 0.938584
O O4 0.081524 0.912456 0.090897
O O5 0.521954 0.071949 0.211431
O O6 0.663419 0.963724 0.157772
O O7 0.611733 0.122251 0.040600
O O8 0.074911 0.650126 0.794284
O O9 0.819490 0.660372 0.819057
O O10 0.846402 0.506472 0.804320
O O11 0.709820 0.398639 0.616536
O O12 0.979171 0.356553 0.887048
O O13 0.118017 0.933660 0.347489
O O14 0.095255 0.210635 0.925729
O O15 0.880714 0.104108 0.894555
O O16 0.204568 0.310015 0.149207
#
# Coordination Sequence:
#
# PCOD9140358 Si02
#       8
#     4   4   4   4   4   4   4   4
#     4  11  24  44  74 103 138 189 240 287 351 428
#     4  11  24  44  69 103 146 186 231 292 358 415
#     4  12  25  45  74 102 143 191 237 289 356 424
#     4  11  24  42  72 106 139 185 240 291 345 423
#     4  12  23  43  71 105 137 185 239 288 346 428
#     4  12  25  44  71 104 142 186 236 289 353 425
#     4  11  24  45  72 102 143 187 235 290 359 418
#     4  12  27  45  69 105 150 183 234 298 360 415
#
# _framework density 22.400915999999999
#
# number of rings (size 3 to 8) (size 9 to 14) (size 15 to 20)
#    0.000    0.500    5.000    3.000    3.500    3.000 
#    0.000    3.750    0.000    0.000    0.000    0.000 
#    0.000    0.000    0.000    0.000    0.000    0.000 
#
# Total GULP energy -89469.610366 kJ/mol
# GULP energy per Si atom -5591.850648 kJ/mol
# Density = 2.234993 g / cm^3
# Si number density = 22.400916 Si / 1000 Ang^3
#
#
#
# Elastic Constant Matrix: (Units=GPa)
#
#
# Indices 1 2 3 4 5 6 
#
# 1 48.4166 20.3433 2.6968 0.0000 -1.5974 0.0000
# 2 20.3433 96.3559 21.8372 0.0000 -7.5881 0.0000
# 3 2.6968 21.8372 98.1630 0.0000 17.7118 0.0000
# 4 0.0000 0.0000 0.0000 54.2948 0.0000 14.5102
# 5 -1.5974 -7.5881 17.7118 0.0000 40.2770 0.0000
# 6 0.0000 0.0000 0.0000 14.5102 0.0000 34.2784
#
#
#
# Elastic Compliance Matrix: (Units=1/GPa)
#
#
# Indices 1 2 3 4 5 6 
#
# 1 0.022687 -0.004928 0.000519 0.000000 -0.000257 0.000000
# 2 -0.004928 0.012445 -0.003281 0.000000 0.003592 0.000000
# 3 0.000519 -0.003281 0.011960 0.000000 -0.005857 0.000000
# 4 0.000000 0.000000 0.000000 0.020767 0.000000 -0.008791
# 5 -0.000257 0.003592 -0.005857 0.000000 0.028070 0.000000
# 6 0.000000 0.000000 0.000000 -0.008791 0.000000 0.032894
#
#
# Mechanical properties :
#
#
# Convention : Reuss Voigt Hill
#
# Bulk Modulus (GPa) = 31.53344 36.96556 34.24950
# Shear Modulus (GPa) = 32.30523 38.97392 35.63958
#
# Velocity S-wave (km/s) = 3.80167 4.17566 3.99305
# Velocity P-wave (km/s) = 5.77734 6.30760 6.04828
#
# Compressibility (1/GPa) = 0.03171236
#
# Stress axis : x y z
#
# Youngs Moduli (GPa) = 44.07775 80.35293 83.61500
#
# Poissons Ratio (x) = 0.39596 -0.04342
# Poissons Ratio (y) = 0.21721 0.27436
# Poissons Ratio (z) = -0.02289 0.26366
#
# Static dielectric constant tensor:
#      x y z
#    x 1.771770 0.000000 0.015140 
#    y 0.000000 1.773850 0.000000 
#    z 0.015140 0.000000 1.807980 
# 
# From -- ./inp_files/14809.got.cif
#   From: 2010.05.17/outbox.cif.g08.bks.cpg/sg9_8_cif.got.tgz:14809.got - 2010.06.03 20:04:27.
