data_PCOD9140590
_publ_section_title
;
Structure prediction by ZEFSAII (Michael W. Deem and Ramdas Pophale) SiO2 
 PCOD9140590
Probable space group: C C
;
_chemical_formula_sum "Si O2"
_cell_formula_units_Z 28
_cell_length_a 9.396283
_cell_length_b 10.932984
_cell_length_c 16.142083
_cell_angle_alpha 90.000000
_cell_angle_beta 137.322353
_cell_angle_gamma 90.000000
_cell_volume 1124.094056
_symmetry_space_group_name_H-M "C C"
_symmetry_group_IT_number 9
_symmetry_cell_setting 'monoclinic'
loop_
_space_group_symop_operation_xyz
x,y,z
x,-y,1/2+z
1/2+x,1/2+y,z
1/2+x,1/2-y,1/2+z
loop_
_atom_site_type_symbol
_atom_site_label
_atom_site_fract_x
_atom_site_fract_y
_atom_site_fract_z
Si Si1 0.413710 0.391243 0.489890
Si Si2 0.383469 0.144290 0.384134
Si Si3 0.087667 0.127631 0.525414
Si Si4 0.680642 0.741335 0.899606
Si Si5 0.896230 0.837116 0.662348
Si Si6 0.315208 0.448505 0.258396
Si Si7 0.357563 0.996589 0.517742
O O1 0.459577 0.251947 0.480356
O O2 0.575739 0.503593 0.575079
O O3 0.307333 0.374813 0.533610
O O4 0.330954 0.442177 0.365637
O O5 0.562512 0.146280 0.392325
O O6 0.146934 0.180558 0.257337
O O7 0.368183 0.016495 0.424357
O O8 0.266113 0.218832 0.634034
O O9 0.170836 0.078724 0.473155
O O10 0.867209 0.200437 0.425976
O O11 0.475304 0.656583 0.792033
O O12 0.807878 0.644798 0.012884
O O13 0.863234 0.938321 0.717976
O O14 0.066050 0.446676 0.142142
#
# Coordination Sequence:
#
# PCOD9140590 Si02
#       7
#     4   4   4   4   4   4   4
#     4  11  26  47  74 119 151 201 266 311 398 463
#     4  11  24  49  75 110 157 201 254 323 392 459
#     4  12  24  47  75 112 153 202 258 317 386 469
#     4  11  25  46  73 111 150 202 254 320 381 463
#     4  12  25  49  83 112 155 214 256 327 397 461
#     4  11  25  52  75 111 163 199 258 335 376 464
#     4  12  23  50  77 105 161 199 256 321 388 459
#
# _framework density 24.908947000000001
#
# number of rings (size 3 to 8) (size 9 to 14) (size 15 to 20)
#    0.000    0.571    7.143    1.714    2.000    0.000 
#   12.857    0.000    0.000    0.000    0.000    0.000 
#    0.000    0.000    0.000    0.000    0.000    0.000 
#
# Total GULP energy -77969.474438 kJ/mol
# GULP energy per Si atom -5569.248174 kJ/mol
# Density = 2.485225 g / cm^3
# Si number density = 24.908947 Si / 1000 Ang^3
#
#
#
# Elastic Constant Matrix: (Units=GPa)
#
#
# Indices 1 2 3 4 5 6 
#
# 1 135.9210 52.5302 51.7435 0.0000 27.5109 0.0000
# 2 52.5302 82.5436 7.6411 0.0000 -0.6659 0.0000
# 3 51.7435 7.6411 68.7206 0.0000 17.9614 0.0000
# 4 0.0000 0.0000 0.0000 26.6284 0.0000 18.2357
# 5 27.5109 -0.6659 17.9614 0.0000 37.1816 0.0000
# 6 0.0000 0.0000 0.0000 18.2357 0.0000 46.7883
#
#
#
# Elastic Compliance Matrix: (Units=1/GPa)
#
#
# Indices 1 2 3 4 5 6 
#
# 1 0.015936 -0.009373 -0.008963 0.000000 -0.007629 0.000000
# 2 -0.009373 0.017787 0.003644 0.000000 0.005494 0.000000
# 3 -0.008963 0.003644 0.021911 0.000000 -0.003888 0.000000
# 4 0.000000 0.000000 0.000000 0.051227 0.000000 -0.019966
# 5 -0.007629 0.005494 -0.003888 0.000000 0.034517 0.000000
# 6 0.000000 0.000000 0.000000 -0.019966 0.000000 0.029154
#
#
# Mechanical properties :
#
#
# Convention : Reuss Voigt Hill
#
# Bulk Modulus (GPa) = 38.09511 56.77942 47.43727
# Shear Modulus (GPa) = 23.96169 33.80437 28.88303
#
# Velocity S-wave (km/s) = 3.10493 3.68790 3.40890
# Velocity P-wave (km/s) = 5.30859 6.40144 5.88046
#
# Compressibility (1/GPa) = 0.02625009
#
# Stress axis : x y z
#
# Youngs Moduli (GPa) = 62.75060 56.22085 45.63868
#
# Poissons Ratio (x) = 0.52698 0.40905
# Poissons Ratio (y) = 0.58819 -0.16632
# Poissons Ratio (z) = 0.56242 -0.20488
#
# Static dielectric constant tensor:
#      x y z
#    x 1.968780 0.000000 0.039190 
#    y 0.000000 2.063650 0.000000 
#    z 0.039190 0.000000 2.058220 
# 
# From -- ./inp_files/29216.got.cif
#   From: 2010.05.17/outbox.cif.g08.bks.cpg/sg9_15_cif.got.tgz:29216.got - 2010.06.03 20:04:27.
