data_PCOD9140011
_publ_section_title
;
Structure prediction by ZEFSAII (Michael W. Deem and Ramdas Pophale) SiO2 
 PCOD9140011
Probable space group: C C
;
_chemical_formula_sum "Si O2"
_cell_formula_units_Z 32
_cell_length_a 24.808956
_cell_length_b 12.078949
_cell_length_c 14.533064
_cell_angle_alpha 90.000000
_cell_angle_beta 18.482715
_cell_angle_gamma 90.000000
_cell_volume 1380.636974
_symmetry_space_group_name_H-M "C C"
_symmetry_group_IT_number 9
_symmetry_cell_setting 'monoclinic'
loop_
_space_group_symop_operation_xyz
x,y,z
x,-y,1/2+z
1/2+x,1/2+y,z
1/2+x,1/2-y,1/2+z
loop_
_atom_site_type_symbol
_atom_site_label
_atom_site_fract_x
_atom_site_fract_y
_atom_site_fract_z
Si Si1 0.614540 0.880420 0.216140
Si Si2 0.221488 0.613446 0.008994
Si Si3 0.024392 0.166978 0.856663
Si Si4 0.133158 0.672206 0.473197
Si Si5 0.991243 0.559948 0.209955
Si Si6 0.717721 0.409894 0.864215
Si Si7 0.568703 0.256025 0.956243
Si Si8 0.620696 0.600761 0.895728
O O1 0.419788 0.922557 0.542297
O O2 0.653239 0.784379 0.225901
O O3 0.628055 0.829454 0.092491
O O4 0.721009 0.993195 0.057415
O O5 0.408142 0.664664 0.699213
O O6 0.099456 0.708396 0.250919
O O7 0.140950 0.587823 0.039734
O O8 0.143040 0.118537 0.584439
O O9 0.027630 0.100537 0.947511
O O10 0.834015 0.163870 0.125793
O O11 0.022444 0.564932 0.626663
O O12 0.078202 0.783204 0.511945
O O13 0.816536 0.583331 0.545708
O O14 0.999653 0.644669 0.113873
O O15 0.687983 0.312063 0.838443
O O16 0.613652 0.510029 0.987190
#
# Coordination Sequence:
#
# PCOD9140011 Si02
#       8
#     4   4   4   4   4   4   4   4
#     4  11  25  46  71 111 149 189 244 313 365 434
#     4  11  22  45  73 101 146 193 242 299 369 432
#     4  12  25  46  73 106 142 193 249 298 364 450
#     4  11  26  48  70 107 146 185 247 310 362 439
#     4  11  22  46  70 101 145 188 238 306 365 431
#     4  12  25  48  72 105 153 193 244 308 369 438
#     4  12  24  42  77 108 141 198 247 300 369 443
#     4  12  25  47  72 103 146 195 241 298 375 437
#
# _framework density 23.177709
#
# number of rings (size 3 to 8) (size 9 to 14) (size 15 to 20)
#    0.000    0.500    7.500    0.000    5.250    2.000 
#    4.500    0.000    0.000    0.000    0.000    0.000 
#    0.000    0.000    0.000    0.000    0.000    0.000 
#
# Total GULP energy -89520.153498 kJ/mol
# GULP energy per Si atom -5595.009594 kJ/mol
# Density = 2.312496 g / cm^3
# Si number density = 23.177709 Si / 1000 Ang^3
#
#
#
# Elastic Constant Matrix: (Units=GPa)
#
#
# Indices 1 2 3 4 5 6 
#
# 1 74.8880 40.2425 9.0544 0.0002 3.3018 -0.0002
# 2 40.2425 146.9577 28.9160 0.0003 13.4871 -0.0003
# 3 9.0544 28.9160 81.7183 0.0003 2.0491 -0.0004
# 4 0.0002 0.0003 0.0003 34.4233 -0.0001 4.5409
# 5 3.3018 13.4871 2.0491 -0.0001 29.0386 0.0003
# 6 -0.0002 -0.0003 -0.0004 4.5409 0.0003 10.4060
#
#
#
# Elastic Compliance Matrix: (Units=1/GPa)
#
#
# Indices 1 2 3 4 5 6 
#
# 1 0.015663 -0.004263 -0.000232 0.000000 0.000216 0.000000
# 2 -0.004263 0.008788 -0.002551 0.000000 -0.003417 0.000000
# 3 -0.000232 -0.002551 0.013159 0.000000 0.000283 0.000001
# 4 0.000000 0.000000 0.000000 0.030824 0.000000 -0.013451
# 5 0.000216 -0.003417 0.000283 0.000000 0.035979 -0.000001
# 6 0.000000 0.000000 0.000001 -0.013451 -0.000001 0.101968
#
#
# Mechanical properties :
#
#
# Convention : Reuss Voigt Hill
#
# Bulk Modulus (GPa) = 42.52569 51.10997 46.81783
# Shear Modulus (GPa) = 21.89974 29.79700 25.84837
#
# Velocity S-wave (km/s) = 3.07720 3.58940 3.34312
# Velocity P-wave (km/s) = 5.56893 6.26719 5.92835
#
# Compressibility (1/GPa) = 0.02351520
#
# Stress axis : x y z
#
# Youngs Moduli (GPa) = 63.84584 113.79562 75.99560
#
# Poissons Ratio (x) = 0.48512 0.01766
# Poissons Ratio (y) = 0.27218 0.19390
# Poissons Ratio (z) = 0.01483 0.29035
#
# Static dielectric constant tensor:
#      x y z
#    x 1.866720 0.000000 -0.013730 
#    y 0.000000 1.916420 0.000000 
#    z -0.013730 0.000000 1.886900 
# 
# From -- ./inp_files/22956.got.cif
#   From: 2010.05.17/outbox.cif.g08.bks.cpg/sg9_12_cif.got.tgz:22956.got - 2010.06.03 20:04:27.
