data_PCOD9140390
_publ_section_title
;
Structure prediction by ZEFSAII (Michael W. Deem and Ramdas Pophale) SiO2 
 PCOD9140390
Probable space group: C C
;
_chemical_formula_sum "Si O2"
_cell_formula_units_Z 24
_cell_length_a 10.181549
_cell_length_b 14.815962
_cell_length_c 7.995514
_cell_angle_alpha 90.000000
_cell_angle_beta 130.146133
_cell_angle_gamma 90.000000
_cell_volume 921.960279
_symmetry_space_group_name_H-M "C C"
_symmetry_group_IT_number 9
_symmetry_cell_setting 'monoclinic'
loop_
_space_group_symop_operation_xyz
x,y,z
x,-y,1/2+z
1/2+x,1/2+y,z
1/2+x,1/2-y,1/2+z
loop_
_atom_site_type_symbol
_atom_site_label
_atom_site_fract_x
_atom_site_fract_y
_atom_site_fract_z
Si Si1 0.244860 0.293009 0.255860
Si Si2 0.503055 0.378335 0.023639
Si Si3 0.493017 0.058385 0.951493
Si Si4 0.379142 0.123967 0.503220
Si Si5 0.829296 0.710660 0.967517
Si Si6 0.369656 0.449035 0.602397
O O1 0.241581 0.201051 0.359601
O O2 0.344062 0.371982 0.439243
O O3 0.310428 0.259442 0.129788
O O4 0.053932 0.329388 0.081795
O O5 0.659594 0.338307 0.259701
O O6 0.412611 0.455339 0.058180
O O7 0.384509 0.291353 0.891271
O O8 0.519643 0.424683 0.856469
O O9 0.408903 0.102682 0.720219
O O10 0.473505 0.132121 0.082235
O O11 0.382492 0.971035 0.910235
O O12 0.689518 0.041861 0.057572
#
# Coordination Sequence:
#
# PCOD9140390 Si02
#       6
#     4   4   4   4   4   4
#     4  11  25  44  71 102 140 186 241 299 364 432
#     4  12  26  46  73 107 148 194 247 304 366 438
#     4  11  24  44  72 103 144 192 244 301 365 434
#     4  11  24  44  69 101 139 187 239 299 362 435
#     4  12  26  45  73 109 146 194 248 307 365 434
#     4  11  25  49  74 104 147 199 245 300 368 443
#
# _framework density 26.031488
#
# number of rings (size 3 to 8) (size 9 to 14) (size 15 to 20)
#    0.000    0.667    0.000    8.000    0.000    8.000 
#    0.000    0.000    0.000    0.000    0.000    0.000 
#    0.000    0.000    0.000    0.000    0.000    0.000 
#
# Total GULP energy -67282.909226 kJ/mol
# GULP energy per Si atom -5606.909102 kJ/mol
# Density = 2.597224 g / cm^3
# Si number density = 26.031488 Si / 1000 Ang^3
#
#
#
# Elastic Constant Matrix: (Units=GPa)
#
#
# Indices 1 2 3 4 5 6 
#
# 1 85.5335 60.1359 27.6518 0.0000 -4.9409 0.0000
# 2 60.1359 215.8456 36.4837 0.0000 -8.4043 0.0000
# 3 27.6518 36.4837 103.0445 0.0000 -6.1636 0.0000
# 4 0.0000 0.0000 0.0000 46.2509 0.0000 -12.6273
# 5 -4.9409 -8.4043 -6.1636 0.0000 34.3731 0.0000
# 6 0.0000 0.0000 0.0000 -12.6273 0.0000 70.5724
#
#
#
# Elastic Compliance Matrix: (Units=1/GPa)
#
#
# Indices 1 2 3 4 5 6 
#
# 1 0.015260 -0.003762 -0.002716 0.000000 0.000787 0.000000
# 2 -0.003762 0.005883 -0.001031 0.000000 0.000713 0.000000
# 3 -0.002716 -0.001031 0.010877 0.000000 0.001308 0.000000
# 4 0.000000 0.000000 0.000000 0.022732 0.000000 0.004067
# 5 0.000787 0.000713 0.001308 0.000000 0.029614 0.000000
# 6 0.000000 0.000000 0.000000 0.004067 0.000000 0.014898
#
#
# Mechanical properties :
#
#
# Convention : Reuss Voigt Hill
#
# Bulk Modulus (GPa) = 58.81620 72.55181 65.68401
# Shear Modulus (GPa) = 41.68507 48.91611 45.30059
#
# Velocity S-wave (km/s) = 4.00601 4.33958 4.17612
# Velocity P-wave (km/s) = 6.63632 7.28289 6.96711
#
# Compressibility (1/GPa) = 0.01700212
#
# Stress axis : x y z
#
# Youngs Moduli (GPa) = 65.53282 169.98223 91.94073
#
# Poissons Ratio (x) = 0.63942 0.24971
# Poissons Ratio (y) = 0.24651 0.09477
# Poissons Ratio (z) = 0.17798 0.17522
#
# Static dielectric constant tensor:
#      x y z
#    x 2.171360 0.000000 0.029740 
#    y 0.000000 2.011970 0.000000 
#    z 0.029740 0.000000 2.043340 
# 
# From -- ./inp_files/7316.got.cif
#   From: 2010.05.17/outbox.cif.g08.bks.cpg/sg9_4_cif.got.tgz:7316.got - 2010.06.03 20:04:27.
