data_PCOD9140128
_publ_section_title
;
Structure prediction by ZEFSAII (Michael W. Deem and Ramdas Pophale) SiO2 
 PCOD9140128
Probable space group: C C
;
_chemical_formula_sum "Si O2"
_cell_formula_units_Z 20
_cell_length_a 5.479817
_cell_length_b 25.167285
_cell_length_c 5.212634
_cell_angle_alpha 90.000000
_cell_angle_beta 94.400292
_cell_angle_gamma 90.000000
_cell_volume 716.766371
_symmetry_space_group_name_H-M "C C"
_symmetry_group_IT_number 9
_symmetry_cell_setting 'monoclinic'
loop_
_space_group_symop_operation_xyz
x,y,z
x,-y,1/2+z
1/2+x,1/2+y,z
1/2+x,1/2-y,1/2+z
loop_
_atom_site_type_symbol
_atom_site_label
_atom_site_fract_x
_atom_site_fract_y
_atom_site_fract_z
Si Si1 0.370580 0.973876 0.260760
Si Si2 0.948860 0.077275 0.506834
Si Si3 0.664172 0.889295 0.497018
Si Si4 0.732490 0.209376 0.761404
Si Si5 0.215331 0.181663 0.485410
O O1 0.407145 0.916382 0.398648
O O2 0.093855 0.974003 0.124270
O O3 0.482952 0.010637 0.493915
O O4 0.815017 0.096854 0.752321
O O5 0.154663 0.120467 0.429178
O O6 0.773223 0.082184 0.250892
O O7 0.695812 0.825657 0.519197
O O8 0.495999 0.187166 0.592477
O O9 0.000415 0.198719 0.667469
O O10 0.692237 0.272196 0.773575
#
# Coordination Sequence:
#
# PCOD9140128 Si02
#       5
#     4   4   4   4   4
#     4  12  26  46  72 104 138 188 244 306 368 434
#     4  11  25  46  70 103 145 188 239 305 365 439
#     4  11  25  46  70 103 145 188 239 305 365 439
#     4  11  23  43  69 109 149 197 245 301 368 445
#     4  11  23  43  69 109 149 197 245 301 368 445
#
# _framework density 27.903093999999999
#
# number of rings (size 3 to 8) (size 9 to 14) (size 15 to 20)
#    0.000    0.800    2.000    4.800    0.000    8.000 
#    3.600    0.000    0.000    0.000    0.000    0.000 
#    0.000    0.000    0.000    0.000    0.000    0.000 
#
# Total GULP energy -55798.032198 kJ/mol
# GULP energy per Si atom -5579.803220 kJ/mol
# Density = 2.783959 g / cm^3
# Si number density = 27.903094 Si / 1000 Ang^3
#
#
#
# Elastic Constant Matrix: (Units=GPa)
#
#
# Indices 1 2 3 4 5 6 
#
# 1 90.6235 9.0924 52.7356 0.0000 9.8048 0.0000
# 2 9.0924 41.7290 31.9214 0.0000 1.1812 0.0000
# 3 52.7356 31.9214 197.7371 0.0000 15.6376 0.0000
# 4 0.0000 0.0000 0.0000 36.5340 0.0000 16.4013
# 5 9.8048 1.1812 15.6376 0.0000 42.0073 0.0000
# 6 0.0000 0.0000 0.0000 16.4013 0.0000 51.1977
#
#
#
# Elastic Compliance Matrix: (Units=1/GPa)
#
#
# Indices 1 2 3 4 5 6 
#
# 1 0.013199 -0.000276 -0.003330 0.000000 -0.001833 0.000000
# 2 -0.000276 0.027379 -0.004421 0.000000 0.000940 0.000000
# 3 -0.003330 -0.004421 0.006788 0.000000 -0.001625 0.000000
# 4 0.000000 0.000000 0.000000 0.031970 0.000000 -0.010242
# 5 -0.001833 0.000940 -0.001625 0.000000 0.024812 0.000000
# 6 0.000000 0.000000 0.000000 -0.010242 0.000000 0.022813
#
#
# Mechanical properties :
#
#
# Convention : Reuss Voigt Hill
#
# Bulk Modulus (GPa) = 31.93773 57.50983 44.72378
# Shear Modulus (GPa) = 32.58353 41.70382 37.14368
#
# Velocity S-wave (km/s) = 3.42093 3.87019 3.65247
# Velocity P-wave (km/s) = 5.20331 6.37389 5.81812
#
# Compressibility (1/GPa) = 0.03131093
#
# Stress axis : x y z
#
# Youngs Moduli (GPa) = 75.76456 36.52388 147.32762
#
# Poissons Ratio (x) = 0.01009 0.49067
# Poissons Ratio (y) = 0.02093 0.65128
# Poissons Ratio (z) = 0.25233 0.16146
#
# Static dielectric constant tensor:
#      x y z
#    x 2.274280 0.000000 -0.063150 
#    y 0.000000 2.479830 0.000000 
#    z -0.063150 0.000000 2.203770 
# 
# From -- ./inp_files/198.got.cif
#   From: 2010.05.17/outbox.cif.g08.bks.cpg/sg9_1_cif.got.tgz:198.got - 2010.06.03 20:04:27.
