data_PCOD9140629
_publ_section_title
;
Structure prediction by ZEFSAII (Michael W. Deem and Ramdas Pophale) SiO2 
 PCOD9140629
Probable space group: C C
;
_chemical_formula_sum "Si O2"
_cell_formula_units_Z 24
_cell_length_a 17.716740
_cell_length_b 10.004292
_cell_length_c 4.833242
_cell_angle_alpha 90.000000
_cell_angle_beta 86.384679
_cell_angle_gamma 90.000000
_cell_volume 854.955602
_symmetry_space_group_name_H-M "C C"
_symmetry_group_IT_number 9
_symmetry_cell_setting 'monoclinic'
loop_
_space_group_symop_operation_xyz
x,y,z
x,-y,1/2+z
1/2+x,1/2+y,z
1/2+x,1/2-y,1/2+z
loop_
_atom_site_type_symbol
_atom_site_label
_atom_site_fract_x
_atom_site_fract_y
_atom_site_fract_z
Si Si1 0.563660 0.081510 0.132840
Si Si2 0.321708 0.605244 0.898051
Si Si3 0.902706 0.683229 0.007216
Si Si4 0.490045 0.584297 0.178427
Si Si5 0.749340 0.326201 0.275109
Si Si6 0.650794 0.671940 0.333920
O O1 0.473773 0.100612 0.104824
O O2 0.582792 0.047432 0.442069
O O3 0.607700 0.208835 0.009356
O O4 0.471814 0.543886 0.872469
O O5 0.261132 0.692247 0.089523
O O6 0.366960 0.735631 0.768954
O O7 0.324339 0.517995 0.616691
O O8 0.831694 0.621208 0.855655
O O9 0.942398 0.791045 0.792757
O O10 0.698764 0.593683 0.561239
O O11 0.577910 0.604616 0.209137
O O12 0.704812 0.291651 0.565916
#
# Coordination Sequence:
#
# PCOD9140629 Si02
#       6
#     4   4   4   4   4   4
#     4  11  27  47  70  96 134 191 238 268 330 409
#     4  12  23  38  64 105 138 167 209 273 351 407
#     4  11  26  44  73 100 144 170 228 293 339 394
#     4  11  25  44  71 101 135 182 228 276 344 412
#     4  12  24  43  69 100 142 175 218 279 352 390
#     4  11  25  46  69  98 143 179 223 287 334 406
#
# _framework density 28.071631
#
# number of rings (size 3 to 8) (size 9 to 14) (size 15 to 20)
#    0.000    0.667    3.333    3.000    4.667    6.667 
#    0.000    5.000    0.000    0.000    0.000    0.000 
#    0.000    0.000    0.000    0.000    0.000    0.000 
#
# Total GULP energy -67145.578928 kJ/mol
# GULP energy per Si atom -5595.464911 kJ/mol
# Density = 2.800774 g / cm^3
# Si number density = 28.071631 Si / 1000 Ang^3
#
#
#
# Elastic Constant Matrix: (Units=GPa)
#
#
# Indices 1 2 3 4 5 6 
#
# 1 151.7397 4.5719 50.5415 0.0000 5.5519 0.0000
# 2 4.5719 47.5521 8.9431 0.0000 -8.5695 0.0000
# 3 50.5415 8.9431 165.8861 0.0000 0.1260 0.0000
# 4 0.0000 0.0000 0.0000 35.9086 0.0000 4.9222
# 5 5.5519 -8.5695 0.1260 0.0000 57.5111 0.0000
# 6 0.0000 0.0000 0.0000 4.9222 0.0000 37.7256
#
#
#
# Elastic Compliance Matrix: (Units=1/GPa)
#
#
# Indices 1 2 3 4 5 6 
#
# 1 0.007372 -0.000430 -0.002222 0.000000 -0.000771 0.000000
# 2 -0.000430 0.021863 -0.001050 0.000000 0.003302 0.000000
# 3 -0.002222 -0.001050 0.006762 0.000000 0.000043 0.000000
# 4 0.000000 0.000000 0.000000 0.028356 0.000000 -0.003700
# 5 -0.000771 0.003302 0.000043 0.000000 0.017954 0.000000
# 6 0.000000 0.000000 0.000000 -0.003700 0.000000 0.026990
#
#
# Mechanical properties :
#
#
# Convention : Reuss Voigt Hill
#
# Bulk Modulus (GPa) = 34.97421 54.81010 44.89215
# Shear Modulus (GPa) = 39.60970 46.30382 42.95676
#
# Velocity S-wave (km/s) = 3.76043 4.06579 3.91609
# Velocity P-wave (km/s) = 5.59825 6.45046 6.03941
#
# Compressibility (1/GPa) = 0.02859250
#
# Stress axis : x y z
#
# Youngs Moduli (GPa) = 135.65671 45.73852 147.88819
#
# Poissons Ratio (x) = 0.01965 0.32863
# Poissons Ratio (y) = 0.05829 0.15532
# Poissons Ratio (z) = 0.30145 0.04804
#
# Static dielectric constant tensor:
#      x y z
#    x 2.440370 0.000000 0.041860 
#    y 0.000000 2.215560 0.000000 
#    z 0.041860 0.000000 2.080420 
# 
# From -- ./inp_files/2375.got.cif
#   From: 2010.05.17/outbox.cif.g08.bks.cpg/sg9_2_cif.got.tgz:2375.got - 2010.06.03 20:04:27.
