data_PCOD9140965
_publ_section_title
;
Structure prediction by ZEFSAII (Michael W. Deem and Ramdas Pophale) SiO2 
 PCOD9140965
Probable space group: C C
;
_chemical_formula_sum "Si O2"
_cell_formula_units_Z 24
_cell_length_a 9.169187
_cell_length_b 17.971358
_cell_length_c 9.260455
_cell_angle_alpha 90.000000
_cell_angle_beta 46.283276
_cell_angle_gamma 90.000000
_cell_volume 1102.913463
_symmetry_space_group_name_H-M "C C"
_symmetry_group_IT_number 9
_symmetry_cell_setting 'monoclinic'
loop_
_space_group_symop_operation_xyz
x,y,z
x,-y,1/2+z
1/2+x,1/2+y,z
1/2+x,1/2-y,1/2+z
loop_
_atom_site_type_symbol
_atom_site_label
_atom_site_fract_x
_atom_site_fract_y
_atom_site_fract_z
Si Si1 0.042450 0.429514 0.391500
Si Si2 0.589004 0.427124 0.642663
Si Si3 0.521682 0.426304 0.365572
Si Si4 0.830830 0.318878 0.018186
Si Si5 0.654696 0.157453 0.076800
Si Si6 0.142013 0.411580 0.985742
O O1 0.152387 0.366557 0.411956
O O2 0.084086 0.510744 0.438918
O O3 0.805488 0.407267 0.559125
O O4 0.107113 0.426969 0.179990
O O5 0.625149 0.437886 0.447956
O O6 0.534789 0.503742 0.755880
O O7 0.375986 0.385079 0.807713
O O8 0.292366 0.405672 0.553751
O O9 0.631555 0.361654 0.202810
O O10 0.933987 0.343279 0.797710
O O11 0.997322 0.346120 0.021929
O O12 0.763546 0.234012 0.045387
#
# Coordination Sequence:
#
# PCOD9140965 Si02
#       6
#     4   4   4   4   4   4
#     4  12  25  43  72 115 142 188 249 312 360 426
#     4  12  24  42  74 110 144 184 244 313 361 423
#     4  12  25  43  72 111 143 193 239 303 371 427
#     4  12  25  47  72 100 146 201 238 292 368 450
#     4  12  27  46  73 102 147 196 245 295 371 444
#     4  12  24  43  75 108 150 186 249 305 365 432
#
# _framework density 21.760546999999999
#
# number of rings (size 3 to 8) (size 9 to 14) (size 15 to 20)
#    0.000    0.000    8.333    2.000    2.333    0.000 
#    0.000    3.333    0.000    0.000    0.000    0.000 
#    0.000    0.000    0.000    0.000    0.000    0.000 
#
# Total GULP energy -66979.148804 kJ/mol
# GULP energy per Si atom -5581.595734 kJ/mol
# Density = 2.171102 g / cm^3
# Si number density = 21.760547 Si / 1000 Ang^3
#
#
#
# Elastic Constant Matrix: (Units=GPa)
#
#
# Indices 1 2 3 4 5 6 
#
# 1 119.7421 41.8897 35.8871 0.0000 7.9958 0.0000
# 2 41.8897 68.4850 22.3959 0.0000 15.5288 0.0000
# 3 35.8871 22.3959 120.2536 0.0000 12.2801 0.0000
# 4 0.0000 0.0000 0.0000 36.9680 0.0000 -10.5995
# 5 7.9958 15.5288 12.2801 0.0000 54.5704 0.0000
# 6 0.0000 0.0000 0.0000 -10.5995 0.0000 31.7104
#
#
#
# Elastic Compliance Matrix: (Units=1/GPa)
#
#
# Indices 1 2 3 4 5 6 
#
# 1 0.011162 -0.006243 -0.002234 0.000000 0.000644 0.000000
# 2 -0.006243 0.019878 -0.001387 0.000000 -0.004430 0.000000
# 3 -0.002234 -0.001387 0.009383 0.000000 -0.001389 0.000000
# 4 0.000000 0.000000 0.000000 0.029918 0.000000 0.010000
# 5 0.000644 -0.004430 -0.001389 0.000000 0.019804 0.000000
# 6 0.000000 0.000000 0.000000 0.010000 0.000000 0.034878
#
#
# Mechanical properties :
#
#
# Convention : Reuss Voigt Hill
#
# Bulk Modulus (GPa) = 48.31953 56.53625 52.42789
# Shear Modulus (GPa) = 32.97119 38.53694 35.75407
#
# Velocity S-wave (km/s) = 3.89676 4.21284 4.05788
# Velocity P-wave (km/s) = 6.51917 7.04993 6.78974
#
# Compressibility (1/GPa) = 0.02069557
#
# Stress axis : x y z
#
# Youngs Moduli (GPa) = 89.59187 50.30676 106.57988
#
# Poissons Ratio (x) = 0.31404 0.23811
# Poissons Ratio (y) = 0.55928 0.14780
# Poissons Ratio (z) = 0.20016 0.06976
#
# Static dielectric constant tensor:
#      x y z
#    x 1.847420 0.000000 -0.051080 
#    y 0.000000 1.678150 0.000000 
#    z -0.051080 0.000000 1.840610 
# 
# From -- ./inp_files/5174.got.cif
#   From: 2010.05.17/outbox.cif.g08.bks.cpg/sg9_3_cif.got.tgz:5174.got - 2010.06.03 20:04:27.
