data_PCOD9140216
_publ_section_title
;
Structure prediction by ZEFSAII (Michael W. Deem and Ramdas Pophale) SiO2 
 PCOD9140216
Probable space group: C C
;
_chemical_formula_sum "Si O2"
_cell_formula_units_Z 28
_cell_length_a 16.997740
_cell_length_b 7.367665
_cell_length_c 23.283390
_cell_angle_alpha 90.000000
_cell_angle_beta 20.635697
_cell_angle_gamma 90.000000
_cell_volume 1027.622713
_symmetry_space_group_name_H-M "C C"
_symmetry_group_IT_number 9
_symmetry_cell_setting 'monoclinic'
loop_
_space_group_symop_operation_xyz
x,y,z
x,-y,1/2+z
1/2+x,1/2+y,z
1/2+x,1/2-y,1/2+z
loop_
_atom_site_type_symbol
_atom_site_label
_atom_site_fract_x
_atom_site_fract_y
_atom_site_fract_z
Si Si1 0.294760 0.685579 0.062590
Si Si2 0.689965 0.564487 0.161396
Si Si3 0.219190 0.040445 0.832396
Si Si4 0.111205 0.005554 0.534565
Si Si5 0.137300 0.380264 0.371073
Si Si6 0.541818 0.075794 0.802815
Si Si7 0.185610 0.573259 0.014427
O O1 0.277079 0.897890 0.063441
O O2 0.149081 0.619459 0.216336
O O3 0.545308 0.626372 0.906401
O O4 0.172913 0.602106 0.091404
O O5 0.671509 0.781865 0.172220
O O6 0.432483 0.507728 0.340623
O O7 0.905617 0.552777 0.057497
O O8 0.186636 0.822854 0.855111
O O9 0.480297 0.058097 0.639754
O O10 0.150479 0.081653 0.945140
O O11 0.163214 0.226425 0.500390
O O12 0.854591 0.996702 0.730642
O O13 0.287586 0.916622 0.456826
O O14 0.094110 0.364939 0.331667
#
# Coordination Sequence:
#
# PCOD9140216 Si02
#       7
#     4   4   4   4   4   4   4
#     4  12  24  46  72 103 149 190 241 305 360 432
#     4  12  26  42  74 106 136 198 242 290 372 432
#     4  11  23  45  75 106 148 192 239 307 366 428
#     4  11  23  45  75 106 148 192 239 307 366 428
#     4  11  24  45  74 107 148 191 243 303 369 437
#     4  12  24  46  72 103 149 190 241 305 360 432
#     4  11  24  45  74 107 148 191 243 303 369 437
#
# _framework density 27.247354000000001
#
# number of rings (size 3 to 8) (size 9 to 14) (size 15 to 20)
#    0.000    0.571    5.714    1.714    0.000    3.429 
#    0.000    7.143    0.000    0.000    0.000    0.000 
#    0.000    0.000    0.000    0.000    0.000    0.000 
#
# Total GULP energy -78238.335567 kJ/mol
# GULP energy per Si atom -5588.452541 kJ/mol
# Density = 2.718534 g / cm^3
# Si number density = 27.247354 Si / 1000 Ang^3
#
#
#
# Elastic Constant Matrix: (Units=GPa)
#
#
# Indices 1 2 3 4 5 6 
#
# 1 135.2731 30.8666 22.9247 0.0017 -12.0248 0.0013
# 2 30.8666 44.9137 14.4734 0.0113 -4.1115 -0.0012
# 3 22.9247 14.4734 209.7731 0.0210 -53.5138 0.0020
# 4 0.0017 0.0113 0.0210 47.9192 0.0091 -1.6645
# 5 -12.0248 -4.1115 -53.5138 0.0091 38.5239 -0.0010
# 6 0.0013 -0.0012 0.0020 -1.6645 -0.0010 27.9558
#
#
#
# Elastic Compliance Matrix: (Units=1/GPa)
#
#
# Indices 1 2 3 4 5 6 
#
# 1 0.008941 -0.005942 -0.000026 0.000001 0.002120 -0.000001
# 2 -0.005942 0.026724 -0.001456 -0.000005 -0.001025 0.000001
# 3 -0.000026 -0.001456 0.007479 -0.000005 0.010225 -0.000001
# 4 0.000001 -0.000005 -0.000005 0.020912 -0.000012 0.001245
# 5 0.002120 -0.001025 0.010225 -0.000012 0.040715 0.000000
# 6 -0.000001 0.000001 -0.000001 0.001245 0.000000 0.035845
#
#
# Mechanical properties :
#
#
# Convention : Reuss Voigt Hill
#
# Bulk Modulus (GPa) = 35.34161 58.49880 46.92021
# Shear Modulus (GPa) = 30.32211 44.32612 37.32412
#
# Velocity S-wave (km/s) = 3.33955 4.03774 3.70513
# Velocity P-wave (km/s) = 5.27911 6.57677 5.96334
#
# Compressibility (1/GPa) = 0.02829526
#
# Stress axis : x y z
#
# Youngs Moduli (GPa) = 111.84080 37.41953 133.70905
#
# Poissons Ratio (x) = 0.22236 0.00351
# Poissons Ratio (y) = 0.66459 0.19467
# Poissons Ratio (z) = 0.00294 0.05448
#
# Static dielectric constant tensor:
#      x y z
#    x 2.079090 0.000000 0.092360 
#    y 0.000000 2.085380 0.000010 
#    z 0.092360 0.000010 2.269730 
# 
# From -- ./inp_files/19100.got.cif
#   From: 2010.05.17/outbox.cif.g08.bks.cpg/sg9_10_cif.got.tgz:19100.got - 2010.06.03 20:04:27.
