data_PCOD9140931
_publ_section_title
;
Structure prediction by ZEFSAII (Michael W. Deem and Ramdas Pophale) SiO2 
 PCOD9140931
Probable space group: C C
;
_chemical_formula_sum "Si O2"
_cell_formula_units_Z 24
_cell_length_a 12.839065
_cell_length_b 4.910084
_cell_length_c 14.243265
_cell_angle_alpha 90.000000
_cell_angle_beta 96.932561
_cell_angle_gamma 90.000000
_cell_volume 891.343380
_symmetry_space_group_name_H-M "C C"
_symmetry_group_IT_number 9
_symmetry_cell_setting 'monoclinic'
loop_
_space_group_symop_operation_xyz
x,y,z
x,-y,1/2+z
1/2+x,1/2+y,z
1/2+x,1/2-y,1/2+z
loop_
_atom_site_type_symbol
_atom_site_label
_atom_site_fract_x
_atom_site_fract_y
_atom_site_fract_z
Si Si1 0.561670 0.313199 0.303270
Si Si2 0.398211 0.651820 0.510038
Si Si3 0.084099 0.651812 0.098241
Si Si4 0.151273 0.907496 0.507508
Si Si5 0.331038 0.092512 0.600770
Si Si6 0.920640 0.313199 0.305008
O O1 0.603265 0.185075 0.212300
O O2 0.640440 0.397679 0.393500
O O3 0.495990 0.581724 0.269329
O O4 0.486319 0.081724 0.338949
O O5 0.446557 0.892514 0.593174
O O6 0.535754 0.607496 0.515104
O O7 0.370667 0.361099 0.551341
O O8 0.379045 0.685076 0.395979
O O9 0.111644 0.361089 0.056939
O O10 0.196851 0.831356 0.078668
O O11 0.285460 0.831367 0.529609
O O12 0.341869 0.102322 0.714779
#
# Coordination Sequence:
#
# PCOD9140931 Si02
#       6
#     4   4   4   4   4   4
#     4  12  23  41  71 103 133 185 241 286 346 429
#     4  12  23  43  74 100 137 187 240 283 351 430
#     4  12  23  43  74 100 137 187 240 283 351 430
#     4  12  26  45  67 106 146 178 230 304 356 410
#     4  12  26  45  67 106 146 178 230 304 356 410
#     4  12  23  41  71 103 133 185 241 286 346 429
#
# _framework density 26.925647000000001
#
# number of rings (size 3 to 8) (size 9 to 14) (size 15 to 20)
#    0.000    0.000    6.667    4.000    0.000    1.333 
#    0.000    3.333    0.000    0.000    0.000    0.000 
#    0.000    0.000    0.000    0.000    0.000    0.000 
#
# Total GULP energy -67186.260136 kJ/mol
# GULP energy per Si atom -5598.855011 kJ/mol
# Density = 2.686436 g / cm^3
# Si number density = 26.925647 Si / 1000 Ang^3
#
#
#
# Elastic Constant Matrix: (Units=GPa)
#
#
# Indices 1 2 3 4 5 6 
#
# 1 189.5186 13.8704 80.7464 0.0000 20.8832 0.0000
# 2 13.8704 159.6714 76.3813 0.0000 3.7118 0.0000
# 3 80.7464 76.3813 250.7748 0.0000 2.3124 0.0000
# 4 0.0000 0.0000 0.0000 40.2610 0.0000 -2.9336
# 5 20.8832 3.7118 2.3124 0.0000 45.0283 0.0000
# 6 0.0000 0.0000 0.0000 -2.9336 0.0000 65.0394
#
#
#
# Elastic Compliance Matrix: (Units=1/GPa)
#
#
# Indices 1 2 3 4 5 6 
#
# 1 0.006517 0.000577 -0.002247 0.000000 -0.002955 0.000000
# 2 0.000577 0.007393 -0.002431 0.000000 -0.000752 0.000000
# 3 -0.002247 -0.002431 0.005443 0.000000 0.000963 0.000000
# 4 0.000000 0.000000 0.000000 0.024920 0.000000 0.001124
# 5 -0.002955 -0.000752 0.000963 0.000000 0.023591 0.000000
# 6 0.000000 0.000000 0.000000 0.001124 0.000000 0.015426
#
#
# Mechanical properties :
#
#
# Convention : Reuss Voigt Hill
#
# Bulk Modulus (GPa) = 89.66912 104.66234 97.16573
# Shear Modulus (GPa) = 52.51653 58.66351 55.59002
#
# Velocity S-wave (km/s) = 4.42116 4.67274 4.54869
# Velocity P-wave (km/s) = 7.70954 8.25033 7.98451
#
# Compressibility (1/GPa) = 0.01115211
#
# Stress axis : x y z
#
# Youngs Moduli (GPa) = 153.43862 135.26334 183.73312
#
# Poissons Ratio (x) = -0.07811 0.41287
# Poissons Ratio (y) = -0.08861 0.44661
# Poissons Ratio (z) = 0.34480 0.32879
#
# Static dielectric constant tensor:
#      x y z
#    x 2.540970 0.000000 -0.014320 
#    y 0.000000 2.201340 0.000000 
#    z -0.014320 0.000000 1.923470 
# 
# From -- ./inp_files/25217.got.cif
#   From: 2010.05.17/outbox.cif.g08.bks.cpg/sg9_13_cif.got.tgz:25217.got - 2010.06.03 20:04:27.
