data_PCOD9140500
_publ_section_title
;
Structure prediction by ZEFSAII (Michael W. Deem and Ramdas Pophale) SiO2 
 PCOD9140500
Probable space group: C C
;
_chemical_formula_sum "Si O2"
_cell_formula_units_Z 32
_cell_length_a 7.110723
_cell_length_b 14.326070
_cell_length_c 12.494417
_cell_angle_alpha 90.000000
_cell_angle_beta 84.090306
_cell_angle_gamma 90.000000
_cell_volume 1266.025853
_symmetry_space_group_name_H-M "C C"
_symmetry_group_IT_number 9
_symmetry_cell_setting 'monoclinic'
loop_
_space_group_symop_operation_xyz
x,y,z
x,-y,1/2+z
1/2+x,1/2+y,z
1/2+x,1/2-y,1/2+z
loop_
_atom_site_type_symbol
_atom_site_label
_atom_site_fract_x
_atom_site_fract_y
_atom_site_fract_z
Si Si1 0.458950 0.671527 0.251150
Si Si2 0.009340 0.637222 0.981686
Si Si3 0.941440 0.481930 0.296271
Si Si4 0.455118 0.668119 0.576863
Si Si5 0.769615 0.016747 0.125279
Si Si6 0.594116 0.844578 0.908088
Si Si7 0.359402 0.856922 0.124063
Si Si8 0.314889 0.270220 0.314490
O O1 0.417183 0.588956 0.170013
O O2 0.309015 0.654069 0.355707
O O3 0.401661 0.768632 0.197017
O O4 0.669029 0.688428 0.282397
O O5 0.889675 0.574782 0.906648
O O6 0.177967 0.668301 0.894230
O O7 0.905892 0.731254 0.026665
O O8 0.113584 0.577544 0.068113
O O9 0.146573 0.468172 0.226537
O O10 0.978053 0.584152 0.339296
O O11 0.816894 0.444302 0.204885
O O12 0.380113 0.564271 0.555907
O O13 0.681698 0.663384 0.559681
O O14 0.400127 0.686252 0.702916
O O15 0.494035 0.750044 0.879168
O O16 0.535979 0.866438 0.032894
#
# Coordination Sequence:
#
# PCOD9140500 Si02
#       8
#     4   4   4   4   4   4   4   4
#     4  11  24  46  76 108 146 194 253 310 383 458
#     4  12  24  48  72 105 151 195 246 314 381 451
#     4  11  25  46  71 102 146 191 251 311 373 452
#     4  12  25  46  75 105 155 196 247 315 383 459
#     4  11  24  47  73 107 145 197 254 315 374 464
#     4  11  25  47  74 103 150 193 245 324 373 455
#     4  12  23  48  69 106 148 195 247 310 381 448
#     4  12  24  46  72 108 147 195 245 309 384 451
#
# _framework density 25.275943999999999
#
# number of rings (size 3 to 8) (size 9 to 14) (size 15 to 20)
#    0.000    0.500    6.250    1.500    1.750    4.000 
#    2.250    0.000    0.000    0.000    0.000    0.000 
#    0.000    0.000    0.000    0.000    0.000    0.000 
#
# Total GULP energy -89374.435657 kJ/mol
# GULP energy per Si atom -5585.902229 kJ/mol
# Density = 2.521842 g / cm^3
# Si number density = 25.275944 Si / 1000 Ang^3
#
#
#
# Elastic Constant Matrix: (Units=GPa)
#
#
# Indices 1 2 3 4 5 6 
#
# 1 66.5964 27.6940 6.5046 0.0000 10.7435 0.0000
# 2 27.6940 67.4818 38.2984 0.0000 2.3877 0.0000
# 3 6.5046 38.2984 117.6969 0.0000 -2.1652 0.0000
# 4 0.0000 0.0000 0.0000 47.3822 0.0000 13.0937
# 5 10.7435 2.3877 -2.1652 0.0000 35.7457 0.0000
# 6 0.0000 0.0000 0.0000 13.0937 0.0000 22.8735
#
#
#
# Elastic Compliance Matrix: (Units=1/GPa)
#
#
# Indices 1 2 3 4 5 6 
#
# 1 0.019288 -0.008679 0.001664 0.000000 -0.005116 0.000000
# 2 -0.008679 0.022170 -0.006721 0.000000 0.000720 0.000000
# 3 0.001664 -0.006721 0.010602 0.000000 0.000591 0.000000
# 4 0.000000 0.000000 0.000000 0.025071 0.000000 -0.014352
# 5 -0.005116 0.000720 0.000591 0.000000 0.029501 0.000000
# 6 0.000000 0.000000 0.000000 -0.014352 0.000000 0.051934
#
#
# Mechanical properties :
#
#
# Convention : Reuss Voigt Hill
#
# Bulk Modulus (GPa) = 40.67059 44.08548 42.37803
# Shear Modulus (GPa) = 25.74223 33.15215 29.44719
#
# Velocity S-wave (km/s) = 3.19477 3.62554 3.41695
# Velocity P-wave (km/s) = 5.45292 5.91655 5.68946
#
# Compressibility (1/GPa) = 0.02458779
#
# Stress axis : x y z
#
# Youngs Moduli (GPa) = 51.84621 45.10696 94.31897
#
# Poissons Ratio (x) = 0.39148 -0.15695
# Poissons Ratio (y) = 0.44997 0.63392
# Poissons Ratio (z) = -0.08627 0.30317
#
# Static dielectric constant tensor:
#      x y z
#    x 2.007300 0.000000 0.087390 
#    y 0.000000 2.107440 0.000000 
#    z 0.087390 0.000000 1.988610 
# 
# From -- ./inp_files/14570.got.cif
#   From: 2010.05.17/outbox.cif.g08.bks.cpg/sg9_8_cif.got.tgz:14570.got - 2010.06.03 20:04:27.
