data_PCOD9140788
_publ_section_title
;
Structure prediction by ZEFSAII (Michael W. Deem and Ramdas Pophale) SiO2 
 PCOD9140788
Probable space group: C C
;
_chemical_formula_sum "Si O2"
_cell_formula_units_Z 24
_cell_length_a 27.776561
_cell_length_b 5.328679
_cell_length_c 16.326199
_cell_angle_alpha 90.000000
_cell_angle_beta 20.657972
_cell_angle_gamma 90.000000
_cell_volume 852.506369
_symmetry_space_group_name_H-M "C C"
_symmetry_group_IT_number 9
_symmetry_cell_setting 'monoclinic'
loop_
_space_group_symop_operation_xyz
x,y,z
x,-y,1/2+z
1/2+x,1/2+y,z
1/2+x,1/2-y,1/2+z
loop_
_atom_site_type_symbol
_atom_site_label
_atom_site_fract_x
_atom_site_fract_y
_atom_site_fract_z
Si Si1 0.423170 0.554165 0.960210
Si Si2 0.234221 0.819240 0.685895
Si Si3 0.629521 0.951601 0.620546
Si Si4 0.349439 0.182350 0.837479
Si Si5 0.642657 0.696455 0.940703
Si Si6 0.964508 0.330934 0.528114
O O1 0.433178 0.436643 0.035673
O O2 0.566246 0.674232 0.704242
O O3 0.285479 0.713572 0.172436
O O4 0.371819 0.335056 0.982012
O O5 0.279023 0.953180 0.528346
O O6 0.096662 0.688995 0.873929
O O7 0.182028 0.907779 0.858724
O O8 0.763822 0.063781 0.452929
O O9 0.630050 0.129846 0.540385
O O10 0.511749 0.012715 0.874565
O O11 0.504723 0.259988 0.608839
O O12 0.353693 0.984193 0.755862
#
# Coordination Sequence:
#
# PCOD9140788 Si02
#       6
#     4   4   4   4   4   4
#     4  12  25  48  80 118 169 219 283 348 421 504
#     4  11  27  49  80 121 168 218 285 349 416 506
#     4  11  27  49  80 118 170 221 279 349 421 508
#     4  11  25  53  81 120 167 223 284 353 416 501
#     4  12  26  49  81 120 166 221 284 345 421 505
#     4  11  26  52  76 123 164 220 285 348 419 502
#
# _framework density 28.152283000000001
#
# number of rings (size 3 to 8) (size 9 to 14) (size 15 to 20)
#    0.000    0.667    1.667    5.000    4.667    5.333 
#    6.000    0.000    0.000    0.000    0.000    0.000 
#    0.000    0.000    0.000    0.000    0.000    0.000 
#
# Total GULP energy -66917.873214 kJ/mol
# GULP energy per Si atom -5576.489435 kJ/mol
# Density = 2.808821 g / cm^3
# Si number density = 28.152283 Si / 1000 Ang^3
#
#
#
# Elastic Constant Matrix: (Units=GPa)
#
#
# Indices 1 2 3 4 5 6 
#
# 1 141.5787 53.9390 83.7464 -0.0003 0.6181 0.0003
# 2 53.9390 71.8846 52.9604 -0.0039 3.9239 -0.0006
# 3 83.7464 52.9604 203.9729 -0.0011 -11.8144 -0.0002
# 4 -0.0003 -0.0039 -0.0011 55.3967 -0.0003 9.4513
# 5 0.6181 3.9239 -11.8144 -0.0003 89.7356 0.0003
# 6 0.0003 -0.0006 -0.0002 9.4513 0.0003 33.3297
#
#
#
# Elastic Compliance Matrix: (Units=1/GPa)
#
#
# Indices 1 2 3 4 5 6 
#
# 1 0.011194 -0.006175 -0.003004 0.000000 -0.000203 0.000000
# 2 -0.006175 0.020772 -0.002931 0.000001 -0.001252 0.000000
# 3 -0.003004 -0.002931 0.006959 0.000000 0.001065 0.000000
# 4 0.000000 0.000001 0.000000 0.018969 0.000000 -0.005379
# 5 -0.000203 -0.001252 0.001065 0.000000 0.011340 0.000000
# 6 0.000000 0.000000 0.000000 -0.005379 0.000000 0.031529
#
#
# Mechanical properties :
#
#
# Convention : Reuss Voigt Hill
#
# Bulk Modulus (GPa) = 68.00464 88.74753 78.37609
# Shear Modulus (GPa) = 38.49603 50.81174 44.65388
#
# Velocity S-wave (km/s) = 3.70188 4.25301 3.98698
# Velocity P-wave (km/s) = 6.51769 7.46391 7.00679
#
# Compressibility (1/GPa) = 0.01470488
#
# Stress axis : x y z
#
# Youngs Moduli (GPa) = 89.33593 48.14208 143.70445
#
# Poissons Ratio (x) = 0.29727 0.43174
# Poissons Ratio (y) = 0.55163 0.42114
# Poissons Ratio (z) = 0.26840 0.14108
#
# Static dielectric constant tensor:
#      x y z
#    x 2.192620 0.000000 0.047670 
#    y 0.000000 2.664780 0.000000 
#    z 0.047670 0.000000 2.165830 
# 
# From -- ./inp_files/31754.got.cif
#   From: 2010.05.17/outbox.cif.g08.bks.cpg/sg9_16_cif.got.tgz:31754.got - 2010.06.03 20:04:27.
