data_PCOD9140960
_publ_section_title
;
Structure prediction by ZEFSAII (Michael W. Deem and Ramdas Pophale) SiO2 
 PCOD9140960
Probable space group: C C
;
_chemical_formula_sum "Si O2"
_cell_formula_units_Z 32
_cell_length_a 29.502741
_cell_length_b 5.623141
_cell_length_c 9.521838
_cell_angle_alpha 90.000000
_cell_angle_beta 117.647557
_cell_angle_gamma 90.000000
_cell_volume 1399.287600
_symmetry_space_group_name_H-M "C C"
_symmetry_group_IT_number 9
_symmetry_cell_setting 'monoclinic'
loop_
_space_group_symop_operation_xyz
x,y,z
x,-y,1/2+z
1/2+x,1/2+y,z
1/2+x,1/2-y,1/2+z
loop_
_atom_site_type_symbol
_atom_site_label
_atom_site_fract_x
_atom_site_fract_y
_atom_site_fract_z
Si Si1 0.362670 0.247876 0.770840
Si Si2 0.895478 0.747876 0.481816
Si Si3 0.196341 0.461036 0.261585
Si Si4 0.591890 0.915018 0.731673
Si Si5 0.241710 0.268725 0.580352
Si Si6 0.016438 0.231275 0.172308
Si Si7 0.166258 0.084984 0.020988
Si Si8 0.561807 0.461035 0.991076
O O1 0.379074 0.252064 0.626327
O O2 0.379074 0.500000 0.876328
O O3 0.301117 0.234041 0.681485
O O4 0.379074 1.000000 0.876328
O O5 0.957031 0.734042 0.571174
O O6 0.136296 0.448495 0.210913
O O7 0.230303 0.467254 0.448429
O O8 0.214943 0.669467 0.188267
O O9 0.203523 0.229801 0.175842
O O10 0.554626 0.770201 0.576819
O O11 0.554265 0.060292 0.777203
O O12 0.629074 0.750001 0.876330
O O13 0.203883 0.060292 0.475457
O O14 0.027846 0.032747 0.304232
O O15 0.043205 0.169465 0.064394
O O16 0.121853 0.948497 0.041748
#
# Coordination Sequence:
#
# PCOD9140960 Si02
#       8
#     4   4   4   4   4   4   4   4
#     4  12  30  56  84 118 157 208 280 345 402 472
#     4  12  30  56  84 118 157 208 280 345 402 472
#     4  12  24  44  67 109 148 191 241 296 376 464
#     4  12  24  41  68 107 152 191 243 296 371 468
#     4  12  28  43  78 102 150 200 245 316 388 452
#     4  12  28  43  78 102 150 200 245 316 388 452
#     4  12  24  41  68 107 152 191 243 296 371 468
#     4  12  24  44  67 109 148 191 241 296 376 464
#
# _framework density 22.868780999999998
#
# number of rings (size 3 to 8) (size 9 to 14) (size 15 to 20)
#    0.000    0.000    5.000    4.500    7.000    0.000 
#    0.000    0.000    0.000    0.000    0.000    0.000 
#    0.000    0.000    0.000    0.000    0.000    0.000 
#
# Total GULP energy -89207.289596 kJ/mol
# GULP energy per Si atom -5575.455600 kJ/mol
# Density = 2.281673 g / cm^3
# Si number density = 22.868781 Si / 1000 Ang^3
#
#
#
# Elastic Constant Matrix: (Units=GPa)
#
#
# Indices 1 2 3 4 5 6 
#
# 1 168.7545 38.8540 80.6643 0.0000 32.0118 0.0000
# 2 38.8540 100.0426 61.0829 0.0000 3.1125 0.0000
# 3 80.6643 61.0829 144.6074 0.0000 -6.2946 0.0000
# 4 0.0000 0.0000 0.0000 47.1295 0.0000 2.5046
# 5 32.0118 3.1125 -6.2946 0.0000 43.9786 0.0000
# 6 0.0000 0.0000 0.0000 2.5046 0.0000 20.2169
#
#
#
# Elastic Compliance Matrix: (Units=1/GPa)
#
#
# Indices 1 2 3 4 5 6 
#
# 1 0.010539 -0.000013 -0.006246 0.000000 -0.008564 0.000000
# 2 -0.000013 0.013609 -0.005819 0.000000 -0.001787 0.000000
# 3 -0.006246 -0.005819 0.013155 0.000000 0.006841 0.000000
# 4 0.000000 0.000000 0.000000 0.021359 0.000000 -0.002646
# 5 -0.008564 -0.001787 0.006841 0.000000 0.030078 0.000000
# 6 0.000000 0.000000 0.000000 -0.002646 0.000000 0.049791
#
#
# Mechanical properties :
#
#
# Convention : Reuss Voigt Hill
#
# Bulk Modulus (GPa) = 76.06235 86.06743 81.06489
# Shear Modulus (GPa) = 29.92741 37.78523 33.85632
#
# Velocity S-wave (km/s) = 3.62146 4.06921 3.85185
# Velocity P-wave (km/s) = 7.12876 7.73272 7.43688
#
# Compressibility (1/GPa) = 0.01314711
#
# Stress axis : x y z
#
# Youngs Moduli (GPa) = 94.88550 73.47869 76.01456
#
# Poissons Ratio (x) = 0.00095 0.47480
# Poissons Ratio (y) = 0.00122 0.44235
# Poissons Ratio (z) = 0.59267 0.42759
#
# Static dielectric constant tensor:
#      x y z
#    x 1.865240 0.000000 -0.124600 
#    y 0.000000 2.252880 0.000000 
#    z -0.124600 0.000000 2.004210 
# 
# From -- ./inp_files/12596.got.cif
#   From: 2010.05.17/outbox.cif.g08.bks.cpg/sg9_7_cif.got.tgz:12596.got - 2010.06.03 20:04:27.
