data_PCOD9140023
_publ_section_title
;
Structure prediction by ZEFSAII (Michael W. Deem and Ramdas Pophale) SiO2 
 PCOD9140023
Probable space group: C C
;
_chemical_formula_sum "Si O2"
_cell_formula_units_Z 28
_cell_length_a 15.912491
_cell_length_b 10.381547
_cell_length_c 9.537202
_cell_angle_alpha 90.000000
_cell_angle_beta 125.745307
_cell_angle_gamma 90.000000
_cell_volume 1278.718500
_symmetry_space_group_name_H-M "C C"
_symmetry_group_IT_number 9
_symmetry_cell_setting 'monoclinic'
loop_
_space_group_symop_operation_xyz
x,y,z
x,-y,1/2+z
1/2+x,1/2+y,z
1/2+x,1/2-y,1/2+z
loop_
_atom_site_type_symbol
_atom_site_label
_atom_site_fract_x
_atom_site_fract_y
_atom_site_fract_z
Si Si1 0.079460 0.229589 0.337760
Si Si2 0.360353 0.013490 0.733722
Si Si3 0.184234 0.414914 0.669674
Si Si4 0.408673 0.695618 0.378523
Si Si5 0.226487 0.981976 0.850664
Si Si6 0.051973 0.654796 0.521811
Si Si7 0.079541 0.221376 0.768491
O O1 0.132153 0.335127 0.490524
O O2 0.166241 0.136347 0.360293
O O3 0.027092 0.294356 0.151907
O O4 0.994989 0.154533 0.348604
O O5 0.376212 0.161280 0.795662
O O6 0.330352 0.999474 0.543139
O O7 0.262652 0.962723 0.727671
O O8 0.460640 0.933624 0.872486
O O9 0.306248 0.389200 0.787016
O O10 0.151954 0.562859 0.630524
O O11 0.131650 0.350867 0.755756
O O12 0.469492 0.704279 0.584428
O O13 0.154153 0.106221 0.793951
O O14 0.069260 0.765328 0.424334
#
# Coordination Sequence:
#
# PCOD9140023 Si02
#       7
#     4   4   4   4   4   4   4
#     4  11  24  44  66  97 132 172 217 270 324 392
#     4  12  22  40  71  96 122 172 226 260 312 396
#     4  11  23  43  68  94 132 173 214 270 327 389
#     4  11  22  46  67  92 132 180 212 254 344 389
#     4  12  24  44  66  96 132 170 216 270 326 386
#     4  12  25  41  70 102 130 161 228 278 315 382
#     4  11  24  44  66  97 132 172 217 270 324 392
#
# _framework density 21.896923000000001
#
# number of rings (size 3 to 8) (size 9 to 14) (size 15 to 20)
#    0.000    0.571    5.714    4.286    0.000    0.000 
#    5.143    0.000    0.000    0.000    0.000    0.000 
#    0.000    0.000    0.000    0.000    0.000    0.000 
#
# Total GULP energy -78389.702546 kJ/mol
# GULP energy per Si atom -5599.264468 kJ/mol
# Density = 2.184708 g / cm^3
# Si number density = 21.896923 Si / 1000 Ang^3
#
#
#
# Elastic Constant Matrix: (Units=GPa)
#
#
# Indices 1 2 3 4 5 6 
#
# 1 82.4807 2.6806 5.1014 0.0000 7.7058 0.0000
# 2 2.6806 26.5826 4.5124 0.0000 8.1744 0.0000
# 3 5.1014 4.5124 86.7775 0.0000 9.0519 0.0000
# 4 0.0000 0.0000 0.0000 20.1950 0.0000 6.7204
# 5 7.7058 8.1744 9.0519 0.0000 42.2970 0.0000
# 6 0.0000 0.0000 0.0000 6.7204 0.0000 34.2166
#
#
#
# Elastic Compliance Matrix: (Units=1/GPa)
#
#
# Indices 1 2 3 4 5 6 
#
# 1 0.012363 -0.000535 -0.000486 0.000000 -0.002045 0.000000
# 2 -0.000535 0.040163 -0.001286 0.000000 -0.007389 0.000000
# 3 -0.000486 -0.001286 0.011849 0.000000 -0.002199 0.000000
# 4 0.000000 0.000000 0.000000 0.052980 0.000000 -0.010406
# 5 -0.002045 -0.007389 -0.002199 0.000000 0.025913 0.000000
# 6 0.000000 0.000000 0.000000 -0.010406 0.000000 0.031269
#
#
# Mechanical properties :
#
#
# Convention : Reuss Voigt Hill
#
# Bulk Modulus (GPa) = 16.73367 24.49216 20.61292
# Shear Modulus (GPa) = 25.11664 31.57815 28.34739
#
# Velocity S-wave (km/s) = 3.39047 3.80165 3.60194
# Velocity P-wave (km/s) = 4.79434 5.52083 5.17036
#
# Compressibility (1/GPa) = 0.05975975
#
# Stress axis : x y z
#
# Youngs Moduli (GPa) = 80.88964 24.89842 84.39886
#
# Poissons Ratio (x) = 0.01333 0.04099
# Poissons Ratio (y) = 0.04331 0.10856
# Poissons Ratio (z) = 0.03928 0.03203
#
# Static dielectric constant tensor:
#      x y z
#    x 1.793830 0.000000 0.001500 
#    y 0.000000 1.782220 0.000000 
#    z 0.001500 0.000000 1.787190 
# 
# From -- ./inp_files/8893.got.cif
#   From: 2010.05.17/outbox.cif.g08.bks.cpg/sg9_5_cif.got.tgz:8893.got - 2010.06.03 20:04:27.
