data_PCOD9140089
_publ_section_title
;
Structure prediction by ZEFSAII (Michael W. Deem and Ramdas Pophale) SiO2 
 PCOD9140089
Probable space group: C C
;
_chemical_formula_sum "Si O2"
_cell_formula_units_Z 32
_cell_length_a 22.635367
_cell_length_b 5.133516
_cell_length_c 11.727651
_cell_angle_alpha 90.000000
_cell_angle_beta 68.818289
_cell_angle_gamma 90.000000
_cell_volume 1270.673609
_symmetry_space_group_name_H-M "C C"
_symmetry_group_IT_number 9
_symmetry_cell_setting 'monoclinic'
loop_
_space_group_symop_operation_xyz
x,y,z
x,-y,1/2+z
1/2+x,1/2+y,z
1/2+x,1/2-y,1/2+z
loop_
_atom_site_type_symbol
_atom_site_label
_atom_site_fract_x
_atom_site_fract_y
_atom_site_fract_z
Si Si1 0.913730 0.289022 0.507930
Si Si2 0.135435 0.891382 0.063204
Si Si3 0.597207 0.017118 0.246189
Si Si4 0.491197 0.735588 0.950930
Si Si5 0.183566 0.120699 0.277117
Si Si6 0.361118 0.529560 0.344042
Si Si7 0.321054 0.954131 0.760835
Si Si8 0.006436 0.847009 0.680743
O O1 0.940772 0.557569 0.436339
O O2 0.859873 0.157983 0.468512
O O3 0.881822 0.367510 0.646911
O O4 0.964109 0.054317 0.483380
O O5 0.133105 0.590088 0.104079
O O6 0.163767 0.007458 0.164176
O O7 0.060446 0.950659 0.107302
O O8 0.164156 0.969030 0.921096
O O9 0.556503 0.241854 0.337427
O O10 0.648810 0.899619 0.294483
O O11 0.542360 0.813688 0.252791
O O12 0.499785 0.832342 0.074170
O O13 0.258508 0.103516 0.233433
O O14 0.326684 0.253328 0.360076
O O15 0.437577 0.542776 0.262678
O O16 0.328209 0.743583 0.286090
#
# Coordination Sequence:
#
# PCOD9140089 Si02
#       8
#     4   4   4   4   4   4   4   4
#     4  12  25  44  71 108 150 196 244 313 383 464
#     4  11  26  49  79 109 155 203 268 330 396 467
#     4  11  25  43  74 110 150 200 255 326 394 468
#     4  12  24  41  74 108 155 185 250 314 399 460
#     4  11  29  50  76 112 153 218 268 324 389 478
#     4  12  26  45  75 108 148 193 252 314 388 457
#     4  12  28  49  73 107 149 207 253 313 377 467
#     4  11  23  41  72 108 146 190 246 326 390 461
#
# _framework density 25.183492000000001
#
# number of rings (size 3 to 8) (size 9 to 14) (size 15 to 20)
#    0.000    0.500    3.750    3.000   10.500    2.000 
#    0.000    0.000    0.000    0.000    0.000    0.000 
#    0.000    0.000    0.000    0.000    0.000    0.000 
#
# Total GULP energy -89278.145176 kJ/mol
# GULP energy per Si atom -5579.884074 kJ/mol
# Density = 2.512617 g / cm^3
# Si number density = 25.183492 Si / 1000 Ang^3
#
#
#
# Elastic Constant Matrix: (Units=GPa)
#
#
# Indices 1 2 3 4 5 6 
#
# 1 145.8662 41.0960 14.6032 0.0000 19.5533 0.0000
# 2 41.0960 76.4237 18.9497 0.0000 -7.2976 0.0000
# 3 14.6032 18.9497 86.8503 0.0000 8.3460 0.0000
# 4 0.0000 0.0000 0.0000 26.0917 0.0000 10.8218
# 5 19.5533 -7.2976 8.3460 0.0000 26.7846 0.0000
# 6 0.0000 0.0000 0.0000 10.8218 0.0000 26.3104
#
#
#
# Elastic Compliance Matrix: (Units=1/GPa)
#
#
# Indices 1 2 3 4 5 6 
#
# 1 0.009770 -0.006262 0.000590 0.000000 -0.009022 0.000000
# 2 -0.006262 0.018487 -0.004025 0.000000 0.010862 0.000000
# 3 0.000590 -0.004025 0.012824 0.000000 -0.005523 0.000000
# 4 0.000000 0.000000 0.000000 0.046209 0.000000 -0.019007
# 5 -0.009022 0.010862 -0.005523 0.000000 0.048602 0.000000
# 6 0.000000 0.000000 0.000000 -0.019007 0.000000 0.045825
#
#
# Mechanical properties :
#
#
# Convention : Reuss Voigt Hill
#
# Bulk Modulus (GPa) = 46.10572 50.93755 48.52163
# Shear Modulus (GPa) = 23.99932 31.47009 27.73470
#
# Velocity S-wave (km/s) = 3.09038 3.53885 3.32219
# Velocity P-wave (km/s) = 5.57509 6.08016 5.83310
#
# Compressibility (1/GPa) = 0.02168928
#
# Stress axis : x y z
#
# Youngs Moduli (GPa) = 102.35328 54.09140 77.98068
#
# Poissons Ratio (x) = 0.33870 -0.04605
# Poissons Ratio (y) = 0.64090 0.31384
# Poissons Ratio (z) = -0.06044 0.21770
#
# Static dielectric constant tensor:
#      x y z
#    x 1.969890 0.000000 0.078330 
#    y 0.000000 2.191200 0.000000 
#    z 0.078330 0.000000 2.117400 
# 
# From -- ./inp_files/19854.got.cif
#   From: 2010.05.17/outbox.cif.g08.bks.cpg/sg9_10_cif.got.tgz:19854.got - 2010.06.03 20:04:27.
