data_PCOD9140752
_publ_section_title
;
Structure prediction by ZEFSAII (Michael W. Deem and Ramdas Pophale) SiO2 
 PCOD9140752
Probable space group: C C
;
_chemical_formula_sum "Si O2"
_cell_formula_units_Z 32
_cell_length_a 5.568774
_cell_length_b 28.047144
_cell_length_c 9.551981
_cell_angle_alpha 90.000000
_cell_angle_beta 54.318530
_cell_angle_gamma 90.000000
_cell_volume 1211.834412
_symmetry_space_group_name_H-M "C C"
_symmetry_group_IT_number 9
_symmetry_cell_setting 'monoclinic'
loop_
_space_group_symop_operation_xyz
x,y,z
x,-y,1/2+z
1/2+x,1/2+y,z
1/2+x,1/2-y,1/2+z
loop_
_atom_site_type_symbol
_atom_site_label
_atom_site_fract_x
_atom_site_fract_y
_atom_site_fract_z
Si Si1 0.303450 0.551116 0.880380
Si Si2 0.652423 0.808321 0.590298
Si Si3 0.377212 0.681923 0.524626
Si Si4 0.474409 0.515784 0.528951
Si Si5 0.075700 0.147046 0.725272
Si Si6 0.043615 0.238691 0.200098
Si Si7 0.169413 0.409637 0.971677
Si Si8 0.973760 0.413464 0.744537
O O1 0.371222 0.517168 0.724504
O O2 0.344157 0.602747 0.794569
O O3 0.527265 0.533729 0.929274
O O4 0.023789 0.559801 0.078682
O O5 0.922438 0.822516 0.397150
O O6 0.383801 0.781078 0.603538
O O7 0.499117 0.857365 0.696197
O O8 0.822100 0.779812 0.655557
O O9 0.595853 0.679450 0.580522
O O10 0.074458 0.703831 0.691256
O O11 0.409541 0.717498 0.386358
O O12 0.393450 0.629416 0.455738
O O13 0.208580 0.539764 0.530045
O O14 0.737744 0.552667 0.406637
O O15 0.371402 0.116071 0.623588
O O16 0.211026 0.412561 0.791924
#
# Coordination Sequence:
#
# PCOD9140752 Si02
#       8
#     4   4   4   4   4   4   4   4
#     4  11  26  47  73 111 148 200 265 326 404 484
#     4  11  27  49  76 117 157 208 267 324 408 475
#     4  12  27  47  75 109 156 205 262 329 404 474
#     4  12  26  48  73 113 150 204 262 339 395 491
#     4  11  26  48  75 109 156 205 257 328 407 484
#     4  12  28  47  78 115 156 210 268 335 391 492
#     4  12  23  47  77 102 155 201 252 325 407 472
#     4  11  25  49  75 108 154 207 257 330 408 480
#
# _framework density 26.406251000000001
#
# number of rings (size 3 to 8) (size 9 to 14) (size 15 to 20)
#    0.000    0.500    3.750    3.000    7.000    1.000 
#    2.250    0.000    0.000    0.000    0.000    0.000 
#    0.000    0.000    0.000    0.000    0.000    0.000 
#
# Total GULP energy -89167.555740 kJ/mol
# GULP energy per Si atom -5572.972234 kJ/mol
# Density = 2.634615 g / cm^3
# Si number density = 26.406251 Si / 1000 Ang^3
#
#
#
# Elastic Constant Matrix: (Units=GPa)
#
#
# Indices 1 2 3 4 5 6 
#
# 1 89.4380 16.5852 44.7341 0.0000 -0.8670 0.0000
# 2 16.5852 103.6927 8.4438 0.0000 20.4035 0.0000
# 3 44.7341 8.4438 151.9583 0.0000 34.3332 0.0000
# 4 0.0000 0.0000 0.0000 30.1283 0.0000 5.5576
# 5 -0.8670 20.4035 34.3332 0.0000 42.5723 0.0000
# 6 0.0000 0.0000 0.0000 5.5576 0.0000 41.0109
#
#
#
# Elastic Compliance Matrix: (Units=1/GPa)
#
#
# Indices 1 2 3 4 5 6 
#
# 1 0.014586 -0.003112 -0.005533 0.000000 0.006251 0.000000
# 2 -0.003112 0.011371 0.001871 0.000000 -0.007022 0.000000
# 3 -0.005533 0.001871 0.010191 0.000000 -0.009228 0.000000
# 4 0.000000 0.000000 0.000000 0.034042 0.000000 -0.004613
# 5 0.006251 -0.007022 -0.009228 0.000000 0.034424 0.000000
# 6 0.000000 0.000000 0.000000 -0.004613 0.000000 0.025009
#
#
# Mechanical properties :
#
#
# Convention : Reuss Voigt Hill
#
# Bulk Modulus (GPa) = 44.25145 53.84613 49.04879
# Shear Modulus (GPa) = 33.17714 41.09737 37.13725
#
# Velocity S-wave (km/s) = 3.54844 3.94934 3.75424
# Velocity P-wave (km/s) = 5.79507 6.42122 6.11616
#
# Compressibility (1/GPa) = 0.02259813
#
# Stress axis : x y z
#
# Youngs Moduli (GPa) = 68.55717 87.94246 98.12898
#
# Poissons Ratio (x) = 0.27372 0.54299
# Poissons Ratio (y) = 0.21338 -0.18360
# Poissons Ratio (z) = 0.37936 -0.16454
#
# Static dielectric constant tensor:
#      x y z
#    x 2.321490 0.000000 -0.174020 
#    y 0.000000 2.098230 0.000000 
#    z -0.174020 0.000000 2.191840 
# 
# From -- ./inp_files/4462.got.cif
#   From: 2010.05.17/outbox.cif.g08.bks.cpg/sg9_3_cif.got.tgz:4462.got - 2010.06.03 20:04:27.
