data_PCOD9140979
_publ_section_title
;
Structure prediction by ZEFSAII (Michael W. Deem and Ramdas Pophale) SiO2 
 PCOD9140979
Probable space group: C C
;
_chemical_formula_sum "Si O2"
_cell_formula_units_Z 24
_cell_length_a 23.564359
_cell_length_b 5.336551
_cell_length_c 10.498641
_cell_angle_alpha 90.000000
_cell_angle_beta 45.728219
_cell_angle_gamma 90.000000
_cell_volume 945.332563
_symmetry_space_group_name_H-M "C C"
_symmetry_group_IT_number 9
_symmetry_cell_setting 'monoclinic'
loop_
_space_group_symop_operation_xyz
x,y,z
x,-y,1/2+z
1/2+x,1/2+y,z
1/2+x,1/2-y,1/2+z
loop_
_atom_site_type_symbol
_atom_site_label
_atom_site_fract_x
_atom_site_fract_y
_atom_site_fract_z
Si Si1 0.509100 0.574382 0.876400
Si Si2 0.868174 0.733483 0.010467
Si Si3 0.218666 0.545378 0.865504
Si Si4 0.162625 0.047315 0.049293
Si Si5 0.919096 0.548450 0.669585
Si Si6 0.562594 0.761508 0.547571
O O1 0.594261 0.440361 0.763996
O O2 0.531174 0.802194 0.744631
O O3 0.447101 0.400652 0.899684
O O4 0.465970 0.698234 0.062333
O O5 0.793558 0.908567 0.159206
O O6 0.871763 0.533518 0.119252
O O7 0.868602 0.597595 0.874594
O O8 0.214954 0.289459 0.948877
O O9 0.137767 0.560173 0.909979
O O10 0.210063 0.786011 0.973548
O O11 0.105502 0.003239 0.014010
O O12 0.986033 0.335935 0.588636
#
# Coordination Sequence:
#
# PCOD9140979 Si02
#       6
#     4   4   4   4   4   4
#     4   9  23  40  74 104 147 198 264 307 389 455
#     4  12  26  43  75 113 157 203 260 326 393 471
#     4   9  21  42  73 101 146 192 260 311 388 442
#     4   8  19  42  72  99 141 193 255 308 374 452
#     4  12  24  45  74 118 154 209 261 323 393 474
#     4   8  21  42  72 101 145 201 254 311 373 466
#
# _framework density 25.387891
#
# number of rings (size 3 to 8) (size 9 to 14) (size 15 to 20)
#    2.000    0.000    1.667    1.000    7.000    0.000 
#    0.000    6.667    0.000    0.000    0.000    0.000 
#    0.000    0.000    0.000    0.000    0.000    0.000 
#
# Total GULP energy -66935.035677 kJ/mol
# GULP energy per Si atom -5577.919640 kJ/mol
# Density = 2.533011 g / cm^3
# Si number density = 25.387891 Si / 1000 Ang^3
#
#
#
# Elastic Constant Matrix: (Units=GPa)
#
#
# Indices 1 2 3 4 5 6 
#
# 1 68.2280 22.7695 43.6361 0.0000 17.7640 0.0001
# 2 22.7695 147.3337 53.5963 0.0000 -6.5064 0.0004
# 3 43.6361 53.5963 148.3318 0.0001 -6.2664 0.0000
# 4 0.0000 0.0000 0.0001 38.3789 0.0000 -6.7544
# 5 17.7640 -6.5064 -6.2664 0.0000 31.3705 -0.0001
# 6 0.0001 0.0004 0.0000 -6.7544 -0.0001 24.5914
#
#
#
# Elastic Compliance Matrix: (Units=1/GPa)
#
#
# Indices 1 2 3 4 5 6 
#
# 1 0.023643 -0.001796 -0.006946 0.000000 -0.015148 0.000000
# 2 -0.001796 0.007986 -0.002264 0.000000 0.002221 0.000000
# 3 -0.006946 -0.002264 0.009832 0.000000 0.005428 0.000000
# 4 0.000000 0.000000 0.000000 0.027379 0.000000 0.007520
# 5 -0.015148 0.002221 0.005428 0.000000 0.042000 0.000000
# 6 0.000000 0.000000 0.000000 0.007520 0.000000 0.042730
#
#
# Mechanical properties :
#
#
# Convention : Reuss Voigt Hill
#
# Bulk Modulus (GPa) = 51.41409 67.09972 59.25690
# Shear Modulus (GPa) = 27.46271 35.12759 31.29515
#
# Velocity S-wave (km/s) = 3.29253 3.72376 3.51476
# Velocity P-wave (km/s) = 5.89489 6.70639 6.31369
#
# Compressibility (1/GPa) = 0.01944992
#
# Stress axis : x y z
#
# Youngs Moduli (GPa) = 42.29665 125.21331 101.70621
#
# Poissons Ratio (x) = 0.22487 0.70647
# Poissons Ratio (y) = 0.07596 0.23022
# Poissons Ratio (z) = 0.29380 0.28342
#
# Static dielectric constant tensor:
#      x y z
#    x 2.114270 0.000000 0.051460 
#    y 0.000000 2.037310 0.000000 
#    z 0.051460 0.000000 2.111180 
# 
# From -- ./inp_files/21326.got.cif
#   From: 2010.05.17/outbox.cif.g08.bks.cpg/sg9_11_cif.got.tgz:21326.got - 2010.06.03 20:04:27.
