data_PCOD9140333
_publ_section_title
;
Structure prediction by ZEFSAII (Michael W. Deem and Ramdas Pophale) SiO2 
 PCOD9140333
Probable space group: C C
;
_chemical_formula_sum "Si O2"
_cell_formula_units_Z 24
_cell_length_a 9.342928
_cell_length_b 11.310691
_cell_length_c 11.545227
_cell_angle_alpha 90.000000
_cell_angle_beta 129.734407
_cell_angle_gamma 90.000000
_cell_volume 938.231250
_symmetry_space_group_name_H-M "C C"
_symmetry_group_IT_number 9
_symmetry_cell_setting 'monoclinic'
loop_
_space_group_symop_operation_xyz
x,y,z
x,-y,1/2+z
1/2+x,1/2+y,z
1/2+x,1/2-y,1/2+z
loop_
_atom_site_type_symbol
_atom_site_label
_atom_site_fract_x
_atom_site_fract_y
_atom_site_fract_z
Si Si1 0.819190 0.314818 0.213170
Si Si2 0.551513 0.970354 0.767508
Si Si3 0.950471 0.920351 0.026978
Si Si4 0.972238 0.715262 0.429301
Si Si5 0.058490 0.836645 0.703756
Si Si6 0.284296 0.177767 0.971584
O O1 0.631297 0.365564 0.059423
O O2 0.884814 0.191504 0.196140
O O3 0.789732 0.318906 0.335729
O O4 0.986850 0.400529 0.267116
O O5 0.509847 0.892347 0.860799
O O6 0.420525 0.918153 0.598730
O O7 0.771862 0.962686 0.861811
O O8 0.026410 0.031642 0.138390
O O9 0.870701 0.805333 0.053895
O O10 0.063450 0.744314 0.598956
O O11 0.761317 0.688209 0.358273
O O12 0.072362 0.822670 0.408231
#
# Coordination Sequence:
#
# PCOD9140333 Si02
#       6
#     4   4   4   4   4   4
#     4  12  28  48  83 118 153 208 274 331 395 485
#     4  11  25  50  76 111 154 212 259 327 400 469
#     4  11  25  50  73 113 156 204 259 326 398 469
#     4  11  23  51  74 108 159 202 256 327 405 467
#     4  12  27  49  77 120 153 206 270 332 402 478
#     4  11  26  52  77 112 159 210 264 325 410 476
#
# _framework density 25.580045999999999
#
# number of rings (size 3 to 8) (size 9 to 14) (size 15 to 20)
#    0.000    0.667    3.333    3.000    9.333    0.000 
#    6.000    0.000    0.000    0.000    0.000    0.000 
#    0.000    0.000    0.000    0.000    0.000    0.000 
#
# Total GULP energy -67053.558309 kJ/mol
# GULP energy per Si atom -5587.796526 kJ/mol
# Density = 2.552182 g / cm^3
# Si number density = 25.580046 Si / 1000 Ang^3
#
#
#
# Elastic Constant Matrix: (Units=GPa)
#
#
# Indices 1 2 3 4 5 6 
#
# 1 155.8359 36.8776 36.3323 0.0000 10.4860 0.0000
# 2 36.8776 52.1618 23.4865 0.0000 17.7954 0.0000
# 3 36.3323 23.4865 46.7325 0.0000 9.0040 0.0000
# 4 0.0000 0.0000 0.0000 17.3862 0.0000 5.3970
# 5 10.4860 17.7954 9.0040 0.0000 56.0288 0.0000
# 6 0.0000 0.0000 0.0000 5.3970 0.0000 37.5691
#
#
#
# Elastic Compliance Matrix: (Units=1/GPa)
#
#
# Indices 1 2 3 4 5 6 
#
# 1 0.008413 -0.004027 -0.004602 0.000000 0.000444 0.000000
# 2 -0.004027 0.028871 -0.010069 0.000000 -0.006798 0.000000
# 3 -0.004602 -0.010069 0.030190 0.000000 -0.000792 0.000000
# 4 0.000000 0.000000 0.000000 0.060202 0.000000 -0.008648
# 5 0.000444 -0.006798 -0.000792 0.000000 0.020051 0.000000
# 6 0.000000 0.000000 0.000000 -0.008648 0.000000 0.027860
#
#
# Mechanical properties :
#
#
# Convention : Reuss Voigt Hill
#
# Bulk Modulus (GPa) = 33.24860 49.79146 41.52003
# Shear Modulus (GPa) = 22.42052 32.73240 27.57646
#
# Velocity S-wave (km/s) = 2.96376 3.58104 3.28692
# Velocity P-wave (km/s) = 4.97372 6.05026 5.53821
#
# Compressibility (1/GPa) = 0.03007646
#
# Stress axis : x y z
#
# Youngs Moduli (GPa) = 118.86124 34.63651 33.12392
#
# Poissons Ratio (x) = 0.13949 0.15245
# Poissons Ratio (y) = 0.47868 0.33353
# Poissons Ratio (z) = 0.54705 0.34876
#
# Static dielectric constant tensor:
#      x y z
#    x 2.075850 0.000000 0.029820 
#    y 0.000000 2.038490 0.000000 
#    z 0.029820 0.000000 2.016630 
# 
# From -- ./inp_files/14276.got.cif
#   From: 2010.05.17/outbox.cif.g08.bks.cpg/sg9_8_cif.got.tgz:14276.got - 2010.06.03 20:04:27.
