data_PCOD9140892
_publ_section_title
;
Structure prediction by ZEFSAII (Michael W. Deem and Ramdas Pophale) SiO2 
 PCOD9140892
Probable space group: C C
;
_chemical_formula_sum "Si O2"
_cell_formula_units_Z 20
_cell_length_a 17.212945
_cell_length_b 5.166044
_cell_length_c 9.808635
_cell_angle_alpha 90.000000
_cell_angle_beta 123.368022
_cell_angle_gamma 90.000000
_cell_volume 728.431847
_symmetry_space_group_name_H-M "C C"
_symmetry_group_IT_number 9
_symmetry_cell_setting 'monoclinic'
loop_
_space_group_symop_operation_xyz
x,y,z
x,-y,1/2+z
1/2+x,1/2+y,z
1/2+x,1/2-y,1/2+z
loop_
_atom_site_type_symbol
_atom_site_label
_atom_site_fract_x
_atom_site_fract_y
_atom_site_fract_z
Si Si1 0.978550 0.328961 0.988790
Si Si2 0.171222 0.014617 0.404898
Si Si3 0.180484 0.522765 0.592162
Si Si4 0.826743 0.310618 0.388512
Si Si5 0.964676 0.015599 0.711110
O O1 0.902923 0.541168 0.872250
O O2 0.970014 0.085469 0.876167
O O3 0.083741 0.429811 0.078017
O O4 0.953323 0.255401 0.120251
O O5 0.201452 0.791250 0.538412
O O6 0.248655 0.010239 0.364871
O O7 0.069448 0.921414 0.259737
O O8 0.161907 0.291982 0.465906
O O9 0.266807 0.412740 0.759557
O O10 0.885127 0.187174 0.567532
#
# Coordination Sequence:
#
# PCOD9140892 Si02
#       5
#     4   4   4   4   4
#     4  11  29  52  86 121 167 223 276 348 418 500
#     4  11  29  50  78 117 165 219 271 339 412 493
#     4  11  29  51  79 116 167 216 275 337 416 488
#     4  12  28  47  84 123 160 217 281 349 409 499
#     4  11  29  50  83 117 169 217 273 343 415 498
#
# _framework density 27.456244000000002
#
# number of rings (size 3 to 8) (size 9 to 14) (size 15 to 20)
#    0.000    0.800    0.000    2.400   28.000    0.000 
#    0.000    0.000    0.000    0.000    0.000    0.000 
#    0.000    0.000    0.000    0.000    0.000    0.000 
#
# Total GULP energy -56093.653891 kJ/mol
# GULP energy per Si atom -5609.365389 kJ/mol
# Density = 2.739375 g / cm^3
# Si number density = 27.456244 Si / 1000 Ang^3
#
#
#
# Elastic Constant Matrix: (Units=GPa)
#
#
# Indices 1 2 3 4 5 6 
#
# 1 132.5625 41.9218 49.3848 0.0000 30.3366 0.0000
# 2 41.9218 129.5390 34.8604 0.0000 -14.6703 0.0000
# 3 49.3848 34.8604 174.5060 0.0000 17.7388 0.0000
# 4 0.0000 0.0000 0.0000 39.3121 0.0000 6.5918
# 5 30.3366 -14.6703 17.7388 0.0000 53.1099 0.0000
# 6 0.0000 0.0000 0.0000 6.5918 0.0000 49.2282
#
#
#
# Elastic Compliance Matrix: (Units=1/GPa)
#
#
# Indices 1 2 3 4 5 6 
#
# 1 0.010919 -0.003860 -0.001632 0.000000 -0.006758 0.000000
# 2 -0.003860 0.009977 -0.001454 0.000000 0.005446 0.000000
# 3 -0.001632 -0.001454 0.006655 0.000000 -0.001692 0.000000
# 4 0.000000 0.000000 0.000000 0.026022 0.000000 -0.003484
# 5 -0.006758 0.005446 -0.001692 0.000000 0.024759 0.000000
# 6 0.000000 0.000000 0.000000 -0.003484 0.000000 0.020780
#
#
# Mechanical properties :
#
#
# Convention : Reuss Voigt Hill
#
# Bulk Modulus (GPa) = 73.21511 76.54906 74.88209
# Shear Modulus (GPa) = 42.53289 49.02606 45.77948
#
# Velocity S-wave (km/s) = 3.94015 4.23023 4.08776
# Velocity P-wave (km/s) = 6.88649 7.19727 7.04359
#
# Compressibility (1/GPa) = 0.01365838
#
# Stress axis : x y z
#
# Youngs Moduli (GPa) = 91.58590 100.23082 150.26582
#
# Poissons Ratio (x) = 0.38686 0.24523
# Poissons Ratio (y) = 0.35349 0.21855
# Poissons Ratio (z) = 0.14947 0.14578
#
# Static dielectric constant tensor:
#      x y z
#    x 2.097980 0.000000 -0.064730 
#    y 0.000000 2.111530 0.000000 
#    z -0.064730 0.000000 2.162390 
# 
# From -- ./inp_files/18768.got.cif
#   From: 2010.05.17/outbox.cif.g08.bks.cpg/sg9_10_cif.got.tgz:18768.got - 2010.06.03 20:04:27.
