data_PCOD9140117
_publ_section_title
;
Structure prediction by ZEFSAII (Michael W. Deem and Ramdas Pophale) SiO2 
 PCOD9140117
Probable space group: C C
;
_chemical_formula_sum "Si O2"
_cell_formula_units_Z 32
_cell_length_a 8.022900
_cell_length_b 13.652483
_cell_length_c 12.778305
_cell_angle_alpha 90.000000
_cell_angle_beta 64.750780
_cell_angle_gamma 90.000000
_cell_volume 1265.919517
_symmetry_space_group_name_H-M "C C"
_symmetry_group_IT_number 9
_symmetry_cell_setting 'monoclinic'
loop_
_space_group_symop_operation_xyz
x,y,z
x,-y,1/2+z
1/2+x,1/2+y,z
1/2+x,1/2-y,1/2+z
loop_
_atom_site_type_symbol
_atom_site_label
_atom_site_fract_x
_atom_site_fract_y
_atom_site_fract_z
Si Si1 0.992340 0.056914 0.300340
Si Si2 0.323006 0.182919 0.521427
Si Si3 0.347908 0.960928 0.849078
Si Si4 0.900202 0.795481 0.132352
Si Si5 0.920922 0.167734 0.852141
Si Si6 0.776689 0.749214 0.848699
Si Si7 0.545420 0.113762 0.663380
Si Si8 0.755183 0.377708 0.546522
O O1 0.833578 0.138748 0.345685
O O2 0.153265 0.061157 0.345095
O O3 0.098913 0.077543 0.162474
O O4 0.915028 0.948178 0.335384
O O5 0.410003 0.134435 0.393790
O O6 0.334296 0.296917 0.484949
O O7 0.437095 0.137741 0.585812
O O8 0.106098 0.162275 0.581709
O O9 0.480362 0.010271 0.728155
O O10 0.328678 0.038245 0.950204
O O11 0.834421 0.789138 0.269882
O O12 0.763083 0.869018 0.108640
O O13 0.889193 0.687883 0.083312
O O14 0.132595 0.205658 0.803616
O O15 0.965255 0.695594 0.765055
O O16 0.698804 0.705006 0.977351
#
# Coordination Sequence:
#
# PCOD9140117 Si02
#       8
#     4   4   4   4   4   4   4   4
#     4  12  24  47  83 116 164 217 268 349 411 491
#     4  12  27  49  78 115 165 208 266 351 408 491
#     4  11  24  45  79 114 158 213 271 336 409 493
#     4  12  25  47  80 112 162 218 264 338 417 487
#     4  12  27  48  77 121 161 211 281 338 412 510
#     4  11  24  47  76 114 162 216 268 337 410 487
#     4  11  24  49  78 112 163 215 274 331 416 496
#     4  11  23  42  79 112 151 212 264 328 415 481
#
# _framework density 25.278068999999999
#
# number of rings (size 3 to 8) (size 9 to 14) (size 15 to 20)
#    0.000    0.500    5.000    3.750    3.500    1.000 
#    0.000    1.250    5.500    0.000    0.000    0.000 
#    0.000    0.000    0.000    0.000    0.000    0.000 
#
# Total GULP energy -89449.698394 kJ/mol
# GULP energy per Si atom -5590.606150 kJ/mol
# Density = 2.522054 g / cm^3
# Si number density = 25.278069 Si / 1000 Ang^3
#
#
#
# Elastic Constant Matrix: (Units=GPa)
#
#
# Indices 1 2 3 4 5 6 
#
# 1 146.0279 33.1314 36.0330 0.0000 7.3030 0.0000
# 2 33.1314 134.5807 39.6642 0.0000 8.6974 0.0000
# 3 36.0330 39.6642 109.8544 0.0000 30.5947 0.0000
# 4 0.0000 0.0000 0.0000 40.8733 0.0000 -0.6413
# 5 7.3030 8.6974 30.5947 0.0000 40.8290 0.0000
# 6 0.0000 0.0000 0.0000 -0.6413 0.0000 30.2254
#
#
#
# Elastic Compliance Matrix: (Units=1/GPa)
#
#
# Indices 1 2 3 4 5 6 
#
# 1 0.007653 -0.001270 -0.002206 0.000000 0.000555 0.000000
# 2 -0.001270 0.008538 -0.002809 0.000000 0.000513 0.000000
# 3 -0.002206 -0.002809 0.013351 0.000000 -0.009011 0.000000
# 4 0.000000 0.000000 0.000000 0.024474 0.000000 0.000519
# 5 0.000555 0.000513 -0.009011 0.000000 0.031036 0.000000
# 6 0.000000 0.000000 0.000000 0.000519 0.000000 0.033096
#
#
# Mechanical properties :
#
#
# Convention : Reuss Voigt Hill
#
# Bulk Modulus (GPa) = 58.92454 67.56892 63.24673
# Shear Modulus (GPa) = 36.66385 41.16113 38.91249
#
# Velocity S-wave (km/s) = 3.81257 4.03964 3.92775
# Velocity P-wave (km/s) = 6.53774 6.96753 6.75606
#
# Compressibility (1/GPa) = 0.01697086
#
# Stress axis : x y z
#
# Youngs Moduli (GPa) = 130.67258 117.12608 74.90340
#
# Poissons Ratio (x) = 0.14870 0.16526
# Poissons Ratio (y) = 0.16590 0.21042
# Poissons Ratio (z) = 0.28830 0.32904
#
# Static dielectric constant tensor:
#      x y z
#    x 2.004300 0.000000 -0.021960 
#    y 0.000000 2.115110 0.000000 
#    z -0.021960 0.000000 2.066150 
# 
# From -- ./inp_files/14600.got.cif
#   From: 2010.05.17/outbox.cif.g08.bks.cpg/sg9_8_cif.got.tgz:14600.got - 2010.06.03 20:04:27.
