data_PCOD9140022
_publ_section_title
;
Structure prediction by ZEFSAII (Michael W. Deem and Ramdas Pophale) SiO2 
 PCOD9140022
Probable space group: C C
;
_chemical_formula_sum "Si O2"
_cell_formula_units_Z 32
_cell_length_a 15.938647
_cell_length_b 8.512581
_cell_length_c 13.856269
_cell_angle_alpha 90.000000
_cell_angle_beta 54.770043
_cell_angle_gamma 90.000000
_cell_volume 1535.669716
_symmetry_space_group_name_H-M "C C"
_symmetry_group_IT_number 9
_symmetry_cell_setting 'monoclinic'
loop_
_space_group_symop_operation_xyz
x,y,z
x,-y,1/2+z
1/2+x,1/2+y,z
1/2+x,1/2-y,1/2+z
loop_
_atom_site_type_symbol
_atom_site_label
_atom_site_fract_x
_atom_site_fract_y
_atom_site_fract_z
Si Si1 0.058080 0.527130 0.326870
Si Si2 0.355732 0.423691 0.452128
Si Si3 0.972411 0.238643 0.719177
Si Si4 0.580710 0.359311 0.384869
Si Si5 0.634364 0.466172 0.561118
Si Si6 0.218600 0.681376 0.612542
Si Si7 0.763334 0.636119 0.613666
Si Si8 0.403664 0.114059 0.067777
O O1 0.075764 0.668605 0.391840
O O2 0.155645 0.432005 0.224794
O O3 0.013719 0.629293 0.266423
O O4 0.980841 0.402665 0.426671
O O5 0.374994 0.339903 0.337031
O O6 0.470292 0.429447 0.424012
O O7 0.289043 0.580634 0.492159
O O8 0.290895 0.309826 0.564640
O O9 0.954146 0.320855 0.629946
O O10 0.049427 0.093161 0.649525
O O11 0.617944 0.433192 0.459830
O O12 0.665642 0.387214 0.246281
O O13 0.639296 0.299236 0.612891
O O14 0.740285 0.545509 0.528273
O O15 0.303678 0.781125 0.613107
O O16 0.858375 0.560883 0.606176
#
# Coordination Sequence:
#
# PCOD9140022 Si02
#       8
#     4   4   4   4   4   4   4   4
#     4  11  24  48  68  98 142 178 230 285 341 410
#     4  11  22  46  68  97 142 181 225 285 344 409
#     4  11  24  46  74  97 141 185 222 290 345 408
#     4  11  23  43  72  94 141 179 223 288 337 408
#     4  11  25  43  68 104 131 182 226 283 346 403
#     4  11  26  42  69 103 140 178 233 283 340 414
#     4  11  22  46  66 101 137 179 233 277 349 404
#     4  11  26  42  69 104 132 186 228 283 342 412
#
# _framework density 20.837814999999999
#
# number of rings (size 3 to 8) (size 9 to 14) (size 15 to 20)
#    0.000    1.000    6.250    0.750    5.250    3.000 
#    2.250    0.000    0.000    0.000    0.000    0.000 
#    0.000    0.000    0.000    0.000    0.000    0.000 
#
# Total GULP energy -89243.501177 kJ/mol
# GULP energy per Si atom -5577.718824 kJ/mol
# Density = 2.079039 g / cm^3
# Si number density = 20.837815 Si / 1000 Ang^3
#
#
#
# Elastic Constant Matrix: (Units=GPa)
#
#
# Indices 1 2 3 4 5 6 
#
# 1 81.0391 46.0617 66.4576 0.0000 12.8257 0.0000
# 2 46.0617 84.1649 40.7088 0.0000 11.9298 0.0000
# 3 66.4576 40.7088 117.2735 0.0000 6.8186 0.0000
# 4 0.0000 0.0000 0.0000 47.4297 0.0000 -11.3569
# 5 12.8257 11.9298 6.8186 0.0000 26.0801 0.0000
# 6 0.0000 0.0000 0.0000 -11.3569 0.0000 8.5633
#
#
#
# Elastic Compliance Matrix: (Units=1/GPa)
#
#
# Indices 1 2 3 4 5 6 
#
# 1 0.029037 -0.008586 -0.013071 0.000000 -0.006935 0.000000
# 2 -0.008586 0.017582 -0.001031 0.000000 -0.003551 0.000000
# 3 -0.013071 -0.001031 0.016136 0.000000 0.002681 0.000000
# 4 0.000000 0.000000 0.000000 0.030895 0.000000 0.040974
# 5 -0.006935 -0.003551 0.002681 0.000000 0.042677 0.000000
# 6 0.000000 0.000000 0.000000 0.040974 0.000000 0.171118
#
#
# Mechanical properties :
#
#
# Convention : Reuss Voigt Hill
#
# Bulk Modulus (GPa) = 57.54156 65.43706 61.48931
# Shear Modulus (GPa) = 13.94251 25.03123 19.48687
#
# Velocity S-wave (km/s) = 2.58950 3.46965 3.06137
# Velocity P-wave (km/s) = 6.05100 6.89366 6.48603
#
# Compressibility (1/GPa) = 0.01737874
#
# Stress axis : x y z
#
# Youngs Moduli (GPa) = 34.43926 56.87476 61.97153
#
# Poissons Ratio (x) = 0.48833 0.81004
# Poissons Ratio (y) = 0.29569 0.06391
# Poissons Ratio (z) = 0.45016 0.05866
#
# Static dielectric constant tensor:
#      x y z
#    x 1.768690 0.000000 -0.026570 
#    y 0.000000 1.802110 0.000000 
#    z -0.026570 0.000000 1.759850 
# 
# From -- ./inp_files/26672.got.cif
#   From: 2010.05.17/outbox.cif.g08.bks.cpg/sg9_14_cif.got.tgz:26672.got - 2010.06.03 20:04:27.
