data_PCOD9140545
_publ_section_title
;
Structure prediction by ZEFSAII (Michael W. Deem and Ramdas Pophale) SiO2 
 PCOD9140545
Probable space group: C C
;
_chemical_formula_sum "Si O2"
_cell_formula_units_Z 28
_cell_length_a 10.743364
_cell_length_b 9.424108
_cell_length_c 22.082920
_cell_angle_alpha 90.000000
_cell_angle_beta 151.927394
_cell_angle_gamma 90.000000
_cell_volume 1052.155190
_symmetry_space_group_name_H-M "C C"
_symmetry_group_IT_number 9
_symmetry_cell_setting 'monoclinic'
loop_
_space_group_symop_operation_xyz
x,y,z
x,-y,1/2+z
1/2+x,1/2+y,z
1/2+x,1/2-y,1/2+z
loop_
_atom_site_type_symbol
_atom_site_label
_atom_site_fract_x
_atom_site_fract_y
_atom_site_fract_z
Si Si1 0.955120 0.836316 0.903190
Si Si2 0.839370 0.624333 0.675371
Si Si3 0.379337 0.270976 0.054737
Si Si4 0.409171 0.796755 0.710163
Si Si5 0.631091 0.953603 0.464507
Si Si6 0.581514 0.393907 0.758156
Si Si7 0.935053 0.074974 0.809903
O O1 0.725625 0.771390 0.846533
O O2 0.070238 0.703651 0.914961
O O3 0.820079 0.964457 0.808951
O O4 0.183695 0.888919 0.045080
O O5 0.666189 0.722627 0.646965
O O6 0.867878 0.461824 0.707533
O O7 0.093515 0.723779 0.771003
O O8 0.354508 0.253039 0.117323
O O9 0.288289 0.428758 0.995567
O O10 0.184565 0.151670 0.947142
O O11 0.279162 0.696947 0.705726
O O12 0.352187 0.034393 0.352639
O O13 0.826231 0.925913 0.605835
O O14 0.533730 0.470258 0.800524
#
# Coordination Sequence:
#
# PCOD9140545 Si02
#       7
#     4   4   4   4   4   4   4
#     4  11  24  48  73 110 152 200 266 332 396 482
#     4  11  26  48  74 112 155 212 266 329 404 487
#     4  12  25  48  78 112 164 207 269 333 400 485
#     4  12  25  50  76 111 156 207 269 331 399 480
#     4  11  24  49  77 112 159 211 264 334 402 482
#     4  11  24  47  77 113 156 207 267 329 404 473
#     4  12  24  46  77 108 152 210 257 338 397 475
#
# _framework density 26.612044999999998
#
# number of rings (size 3 to 8) (size 9 to 14) (size 15 to 20)
#    0.000    0.571    5.714    1.714    2.000    3.429 
#    5.143    0.000    0.000    0.000    0.000    0.000 
#    0.000    0.000    0.000    0.000    0.000    0.000 
#
# Total GULP energy -78297.705003 kJ/mol
# GULP energy per Si atom -5592.693214 kJ/mol
# Density = 2.655147 g / cm^3
# Si number density = 26.612045 Si / 1000 Ang^3
#
#
#
# Elastic Constant Matrix: (Units=GPa)
#
#
# Indices 1 2 3 4 5 6 
#
# 1 73.3963 42.3223 34.2271 0.0008 -15.4276 -0.0002
# 2 42.3223 208.7904 35.2486 0.0000 -4.6808 0.0003
# 3 34.2271 35.2486 97.0091 0.0026 -15.0639 0.0004
# 4 0.0008 0.0000 0.0026 48.0612 0.0007 -2.6353
# 5 -15.4276 -4.6808 -15.0639 0.0007 36.9672 -0.0002
# 6 -0.0002 0.0003 0.0004 -2.6353 -0.0002 46.3807
#
#
#
# Elastic Compliance Matrix: (Units=1/GPa)
#
#
# Indices 1 2 3 4 5 6 
#
# 1 0.018609 -0.002860 -0.004672 0.000000 0.005500 0.000000
# 2 -0.002860 0.005542 -0.001154 0.000000 -0.000962 0.000000
# 3 -0.004672 -0.001154 0.012865 -0.000001 0.003146 0.000000
# 4 0.000000 0.000000 -0.000001 0.020872 -0.000001 0.001186
# 5 0.005500 -0.000962 0.003146 -0.000001 0.030507 0.000000
# 6 0.000000 0.000000 0.000000 0.001186 0.000000 0.021628
#
#
# Mechanical properties :
#
#
# Convention : Reuss Voigt Hill
#
# Bulk Modulus (GPa) = 50.90891 66.97687 58.94289
# Shear Modulus (GPa) = 37.32923 44.10833 40.71878
#
# Velocity S-wave (km/s) = 3.74935 4.07560 3.91588
# Velocity P-wave (km/s) = 6.15752 6.88258 6.53012
#
# Compressibility (1/GPa) = 0.01964293
#
# Stress axis : x y z
#
# Youngs Moduli (GPa) = 53.73815 180.42408 77.73152
#
# Poissons Ratio (x) = 0.51600 0.36319
# Poissons Ratio (y) = 0.15369 0.08972
# Poissons Ratio (z) = 0.25109 0.20825
#
# Static dielectric constant tensor:
#      x y z
#    x 2.108330 0.000000 -0.023480 
#    y 0.000000 2.086730 0.000000 
#    z -0.023480 0.000000 2.119660 
# 
# From -- ./inp_files/35345.got.cif
#   From: 2010.05.17/outbox.cif.g08.bks.cpg/sg9_18_cif.got.tgz:35345.got - 2010.06.03 20:04:27.
