data_PCOD9140615
_publ_section_title
;
Structure prediction by ZEFSAII (Michael W. Deem and Ramdas Pophale) SiO2 
 PCOD9140615
Probable space group: C C
;
_chemical_formula_sum "Si O2"
_cell_formula_units_Z 24
_cell_length_a 5.181925
_cell_length_b 13.630322
_cell_length_c 12.688535
_cell_angle_alpha 90.000000
_cell_angle_beta 87.981505
_cell_angle_gamma 90.000000
_cell_volume 895.651714
_symmetry_space_group_name_H-M "C C"
_symmetry_group_IT_number 9
_symmetry_cell_setting 'monoclinic'
loop_
_space_group_symop_operation_xyz
x,y,z
x,-y,1/2+z
1/2+x,1/2+y,z
1/2+x,1/2-y,1/2+z
loop_
_atom_site_type_symbol
_atom_site_label
_atom_site_fract_x
_atom_site_fract_y
_atom_site_fract_z
Si Si1 0.682870 0.493615 0.480600
Si Si2 0.740033 0.350282 0.147681
Si Si3 0.481808 0.440651 0.777246
Si Si4 0.500914 0.177354 0.245320
Si Si5 0.598775 0.097174 0.838595
Si Si6 0.944731 0.778262 0.462311
O O1 0.680932 0.547222 0.591584
O O2 0.519625 0.562966 0.404309
O O3 0.580858 0.381995 0.485214
O O4 0.956089 0.481726 0.415798
O O5 0.509114 0.273857 0.173532
O O6 0.901132 0.371873 0.250960
O O7 0.913750 0.291015 0.061599
O O8 0.748896 0.389219 0.738709
O O9 0.356847 0.551110 0.782105
O O10 0.256171 0.384855 0.719533
O O11 0.551553 0.216429 0.362899
O O12 0.674245 0.185779 0.913783
#
# Coordination Sequence:
#
# PCOD9140615 Si02
#       6
#     4   4   4   4   4   4
#     4  11  25  52  84 121 172 225 290 361 430 536
#     4  12  27  50  86 126 174 238 290 358 468 512
#     4  11  24  51  85 109 174 211 286 365 425 500
#     4  12  25  51  82 122 162 231 283 365 423 534
#     4  11  25  53  80 127 173 232 288 369 434 534
#     4  11  26  53  79 121 177 217 295 364 430 538
#
# _framework density 26.796130000000002
#
# number of rings (size 3 to 8) (size 9 to 14) (size 15 to 20)
#    0.000    0.667    5.000    1.000    0.000    2.667 
#   27.000    0.000    0.000    0.000    0.000    0.000 
#    0.000    0.000    0.000    0.000    0.000    0.000 
#
# Total GULP energy -67150.896435 kJ/mol
# GULP energy per Si atom -5595.908036 kJ/mol
# Density = 2.673514 g / cm^3
# Si number density = 26.796130 Si / 1000 Ang^3
#
#
#
# Elastic Constant Matrix: (Units=GPa)
#
#
# Indices 1 2 3 4 5 6 
#
# 1 140.9354 31.0845 4.9876 0.0000 -1.7095 0.0000
# 2 31.0845 137.0043 10.2759 0.0000 -9.1499 0.0000
# 3 4.9876 10.2759 59.4078 0.0000 -12.7290 0.0000
# 4 0.0000 0.0000 0.0000 45.8734 0.0000 -3.8040
# 5 -1.7095 -9.1499 -12.7290 0.0000 36.2732 0.0000
# 6 0.0000 0.0000 0.0000 -3.8040 0.0000 43.6706
#
#
#
# Elastic Compliance Matrix: (Units=1/GPa)
#
#
# Indices 1 2 3 4 5 6 
#
# 1 0.007477 -0.001682 -0.000381 0.000000 -0.000205 0.000000
# 2 -0.001682 0.007853 -0.000876 0.000000 0.001594 0.000000
# 3 -0.000381 -0.000876 0.018344 0.000000 0.006199 0.000000
# 4 0.000000 0.000000 0.000000 0.021958 0.000000 0.001913
# 5 -0.000205 0.001594 0.006199 0.000000 0.030136 0.000000
# 6 0.000000 0.000000 0.000000 0.001913 0.000000 0.023065
#
#
# Mechanical properties :
#
#
# Convention : Reuss Voigt Hill
#
# Bulk Modulus (GPa) = 35.97343 47.78261 41.87802
# Shear Modulus (GPa) = 40.33038 44.56341 42.44689
#
# Velocity S-wave (km/s) = 3.88375 4.08248 3.98435
# Velocity P-wave (km/s) = 5.79356 6.33189 6.06870
#
# Compressibility (1/GPa) = 0.02779830
#
# Stress axis : x y z
#
# Youngs Moduli (GPa) = 133.73737 127.34416 54.51259
#
# Poissons Ratio (x) = 0.21415 0.02076
# Poissons Ratio (y) = 0.22490 0.04773
# Poissons Ratio (z) = 0.05094 0.11149
#
# Static dielectric constant tensor:
#      x y z
#    x 2.147290 0.000000 -0.070330 
#    y 0.000000 2.199860 0.000000 
#    z -0.070330 0.000000 2.074600 
# 
# From -- ./inp_files/12917.got.cif
#   From: 2010.05.17/outbox.cif.g08.bks.cpg/sg9_7_cif.got.tgz:12917.got - 2010.06.03 20:04:27.
