data_PCOD9140107
_publ_section_title
;
Structure prediction by ZEFSAII (Michael W. Deem and Ramdas Pophale) SiO2 
 PCOD9140107
Probable space group: C C
;
_chemical_formula_sum "Si O2"
_cell_formula_units_Z 32
_cell_length_a 26.961834
_cell_length_b 7.340665
_cell_length_c 7.727163
_cell_angle_alpha 90.000000
_cell_angle_beta 119.891732
_cell_angle_gamma 90.000000
_cell_volume 1325.892501
_symmetry_space_group_name_H-M "C C"
_symmetry_group_IT_number 9
_symmetry_cell_setting 'monoclinic'
loop_
_space_group_symop_operation_xyz
x,y,z
x,-y,1/2+z
1/2+x,1/2+y,z
1/2+x,1/2-y,1/2+z
loop_
_atom_site_type_symbol
_atom_site_label
_atom_site_fract_x
_atom_site_fract_y
_atom_site_fract_z
Si Si1 0.029190 0.631927 0.005050
Si Si2 0.652585 0.230363 0.295957
Si Si3 0.278868 0.734678 0.448287
Si Si4 0.859949 0.091777 0.089063
Si Si5 0.771200 0.348198 0.037899
Si Si6 0.023505 0.755175 0.601912
Si Si7 0.950239 0.094523 0.492404
Si Si8 0.646725 0.363118 0.679317
O O1 0.097152 0.614245 0.154041
O O2 0.004752 0.431101 0.979633
O O3 0.019394 0.722714 0.801460
O O4 0.000957 0.760466 0.102752
O O5 0.715303 0.154416 0.367971
O O6 0.649189 0.285756 0.490684
O O7 0.646979 0.416987 0.176716
O O8 0.324832 0.587085 0.591145
O O9 0.285027 0.773140 0.253262
O O10 0.280795 0.934385 0.539435
O O11 0.810682 0.238911 0.970123
O O12 0.903918 0.194501 0.292104
O O13 0.906104 0.003144 0.042804
O O14 0.704823 0.313335 0.879859
O O15 0.088666 0.802766 0.669546
O O16 0.984540 0.922315 0.475369
#
# Coordination Sequence:
#
# PCOD9140107 Si02
#       8
#     4   4   4   4   4   4   4   4
#     4  12  27  46  73 106 140 188 238 294 359 419
#     4  11  23  42  72 104 146 184 233 296 360 417
#     4  11  25  45  72 105 143 185 237 293 353 421
#     4  12  28  48  74 103 143 192 236 290 348 426
#     4  11  25  45  72 106 141 187 236 293 355 417
#     4  12  27  46  73 105 142 186 239 295 354 426
#     4  12  28  50  72 103 145 188 240 290 350 420
#     4  11  23  42  72 104 146 184 233 297 357 420
#
# _framework density 24.134688000000001
#
# number of rings (size 3 to 8) (size 9 to 14) (size 15 to 20)
#    0.000    0.500    3.750    5.250    8.750    2.000 
#    0.000    0.000    0.000    0.000    0.000    0.000 
#    0.000    0.000    0.000    0.000    0.000    0.000 
#
# Total GULP energy -89466.867671 kJ/mol
# GULP energy per Si atom -5591.679229 kJ/mol
# Density = 2.407976 g / cm^3
# Si number density = 24.134688 Si / 1000 Ang^3
#
#
#
# Elastic Constant Matrix: (Units=GPa)
#
#
# Indices 1 2 3 4 5 6 
#
# 1 156.7126 44.4613 25.9643 0.0000 27.6441 0.0000
# 2 44.4613 105.9796 7.5771 0.0000 23.8818 0.0000
# 3 25.9643 7.5771 64.8534 0.0000 1.0641 0.0000
# 4 0.0000 0.0000 0.0000 21.8401 0.0000 0.6260
# 5 27.6441 23.8818 1.0641 0.0000 40.4912 0.0000
# 6 0.0000 0.0000 0.0000 0.6260 0.0000 12.5855
#
#
#
# Elastic Compliance Matrix: (Units=1/GPa)
#
#
# Indices 1 2 3 4 5 6 
#
# 1 0.008271 -0.002309 -0.002972 0.000000 -0.004206 0.000000
# 2 -0.002309 0.011616 -0.000346 0.000000 -0.005265 0.000000
# 3 -0.002972 -0.000346 0.016620 0.000000 0.001797 0.000000
# 4 0.000000 0.000000 0.000000 0.045853 0.000000 -0.002281
# 5 -0.004206 -0.005265 0.001797 0.000000 0.030627 0.000000
# 6 0.000000 0.000000 0.000000 -0.002281 0.000000 0.079570
#
#
# Mechanical properties :
#
#
# Convention : Reuss Voigt Hill
#
# Bulk Modulus (GPa) = 39.60222 53.72786 46.66504
# Shear Modulus (GPa) = 23.55942 31.61956 27.58949
#
# Velocity S-wave (km/s) = 3.12775 3.62350 3.38471
# Velocity P-wave (km/s) = 5.43031 6.31002 5.88662
#
# Compressibility (1/GPa) = 0.02525111
#
# Stress axis : x y z
#
# Youngs Moduli (GPa) = 120.90735 86.08890 60.16710
#
# Poissons Ratio (x) = 0.19882 0.17884
# Poissons Ratio (y) = 0.27923 0.02083
# Poissons Ratio (z) = 0.35939 0.02980
#
# Static dielectric constant tensor:
#      x y z
#    x 1.933100 0.000000 -0.103090 
#    y 0.000000 1.907500 0.000000 
#    z -0.103090 0.000000 1.978440 
# 
# From -- ./inp_files/12076.got.cif
#   From: 2010.05.17/outbox.cif.g08.bks.cpg/sg9_7_cif.got.tgz:12076.got - 2010.06.03 20:04:27.
