data_PCOD9140156
_publ_section_title
;
Structure prediction by ZEFSAII (Michael W. Deem and Ramdas Pophale) SiO2 
 PCOD9140156
Probable space group: C C
;
_chemical_formula_sum "Si O2"
_cell_formula_units_Z 32
_cell_length_a 16.259966
_cell_length_b 9.441445
_cell_length_c 12.418299
_cell_angle_alpha 90.000000
_cell_angle_beta 123.287860
_cell_angle_gamma 90.000000
_cell_volume 1593.627577
_symmetry_space_group_name_H-M "C C"
_symmetry_group_IT_number 9
_symmetry_cell_setting 'monoclinic'
loop_
_space_group_symop_operation_xyz
x,y,z
x,-y,1/2+z
1/2+x,1/2+y,z
1/2+x,1/2-y,1/2+z
loop_
_atom_site_type_symbol
_atom_site_label
_atom_site_fract_x
_atom_site_fract_y
_atom_site_fract_z
Si Si1 0.996900 0.742368 0.864380
Si Si2 0.576708 0.129416 0.711405
Si Si3 0.141936 0.210069 0.652116
Si Si4 0.135745 0.888454 0.611508
Si Si5 0.435138 0.453163 0.347204
Si Si6 0.763549 0.932560 0.865178
Si Si7 0.959177 0.377944 0.552885
Si Si8 0.313320 0.248403 0.105938
O O1 0.932853 0.670095 0.913080
O O2 0.014134 0.648365 0.773983
O O3 0.954777 0.895683 0.804093
O O4 0.102378 0.763207 0.001869
O O5 0.604350 0.278986 0.680877
O O6 0.677324 0.047226 0.806762
O O7 0.512521 0.028715 0.587836
O O8 0.226656 0.313865 0.752916
O O9 0.043978 0.262507 0.646279
O O10 0.160713 0.044099 0.675553
O O11 0.225892 0.823639 0.609251
O O12 0.040113 0.904719 0.467206
O O13 0.363107 0.495351 0.394344
O O14 0.382507 0.337009 0.236310
O O15 0.775002 0.858159 0.988206
O O16 0.874268 0.364431 0.578666
#
# Coordination Sequence:
#
# PCOD9140156 Si02
#       8
#     4   4   4   4   4   4   4   4
#     4   9  21  40  67  93 133 175 220 267 342 391
#     4  11  24  40  72 100 132 176 225 287 329 408
#     4   8  21  43  67  93 135 173 221 272 343 396
#     4  11  25  44  69 104 135 177 229 282 334 403
#     4  11  25  45  68  99 139 181 221 280 344 405
#     4  11  23  44  69  98 135 179 224 280 340 405
#     4   9  22  44  62  95 134 174 222 268 343 395
#     4  12  25  42  70 100 135 181 232 274 345 401
#
# _framework density 20.079974
#
# number of rings (size 3 to 8) (size 9 to 14) (size 15 to 20)
#    0.750    1.000    2.500    0.000   10.500    2.000 
#    2.250    2.500    0.000    0.000    0.000    0.000 
#    0.000    0.000    0.000    0.000    0.000    0.000 
#
# Total GULP energy -89253.795871 kJ/mol
# GULP energy per Si atom -5578.362242 kJ/mol
# Density = 2.003427 g / cm^3
# Si number density = 20.079974 Si / 1000 Ang^3
#
#
#
# Elastic Constant Matrix: (Units=GPa)
#
#
# Indices 1 2 3 4 5 6 
#
# 1 94.7268 23.5766 24.0093 0.0000 -2.0915 0.0000
# 2 23.5766 73.5067 12.7123 0.0000 -6.2239 0.0000
# 3 24.0093 12.7123 25.4682 0.0000 4.0939 0.0000
# 4 0.0000 0.0000 0.0000 18.9868 0.0000 -9.9916
# 5 -2.0915 -6.2239 4.0939 0.0000 24.4516 0.0000
# 6 0.0000 0.0000 0.0000 -9.9916 0.0000 19.8242
#
#
#
# Elastic Compliance Matrix: (Units=1/GPa)
#
#
# Indices 1 2 3 4 5 6 
#
# 1 0.014452 -0.002141 -0.013017 0.000000 0.002871 0.000000
# 2 -0.002141 0.015872 -0.006704 0.000000 0.004979 0.000000
# 3 -0.013017 -0.006704 0.056866 0.000000 -0.012341 0.000000
# 4 0.000000 0.000000 0.000000 0.071680 0.000000 0.036127
# 5 0.002871 0.004979 -0.012341 0.000000 0.044476 0.000000
# 6 0.000000 0.000000 0.000000 0.036127 0.000000 0.068652
#
#
# Mechanical properties :
#
#
# Convention : Reuss Voigt Hill
#
# Bulk Modulus (GPa) = 23.00680 34.92200 28.96440
# Shear Modulus (GPa) = 15.14178 21.54608 18.34393
#
# Velocity S-wave (km/s) = 2.74902 3.27924 3.02577
# Velocity P-wave (km/s) = 4.64312 5.63623 5.16361
#
# Compressibility (1/GPa) = 0.04346541
#
# Stress axis : x y z
#
# Youngs Moduli (GPa) = 69.19335 63.00383 17.58512
#
# Poissons Ratio (x) = 0.13490 0.22891
# Poissons Ratio (y) = 0.14816 0.11790
# Poissons Ratio (z) = 0.90069 0.42240
#
# Static dielectric constant tensor:
#      x y z
#    x 1.712160 0.000000 0.014880 
#    y 0.000000 1.708530 0.000000 
#    z 0.014880 0.000000 1.711000 
# 
# From -- ./inp_files/17981.got.cif
#   From: 2010.05.17/outbox.cif.g08.bks.cpg/sg9_9_cif.got.tgz:17981.got - 2010.06.03 20:04:27.
