data_PCOD9140882
_publ_section_title
;
Structure prediction by ZEFSAII (Michael W. Deem and Ramdas Pophale) SiO2 
 PCOD9140882
Probable space group: C C
;
_chemical_formula_sum "Si O2"
_cell_formula_units_Z 32
_cell_length_a 26.531086
_cell_length_b 9.121161
_cell_length_c 8.162434
_cell_angle_alpha 90.000000
_cell_angle_beta 141.184999
_cell_angle_gamma 90.000000
_cell_volume 1238.110045
_symmetry_space_group_name_H-M "C C"
_symmetry_group_IT_number 9
_symmetry_cell_setting 'monoclinic'
loop_
_space_group_symop_operation_xyz
x,y,z
x,-y,1/2+z
1/2+x,1/2+y,z
1/2+x,1/2-y,1/2+z
loop_
_atom_site_type_symbol
_atom_site_label
_atom_site_fract_x
_atom_site_fract_y
_atom_site_fract_z
Si Si1 0.797860 0.457201 0.368480
Si Si2 0.009770 0.880435 0.735992
Si Si3 0.643098 0.638005 0.065264
Si Si4 0.376366 0.180102 0.758070
Si Si5 0.335697 0.437690 0.411380
Si Si6 0.749107 0.825165 0.888619
Si Si7 0.103507 0.321172 0.270890
Si Si8 0.543550 0.849767 0.606869
O O1 0.720200 0.560011 0.182699
O O2 0.872528 0.556437 0.606824
O O3 0.818496 0.374349 0.254649
O O4 0.779451 0.340069 0.463052
O O5 0.030835 0.791234 0.625737
O O6 0.920403 0.941991 0.530434
O O7 0.016752 0.750671 0.887010
O O8 0.076075 0.009376 0.920653
O O9 0.652028 0.735383 0.252204
O O10 0.614892 0.757355 0.864320
O O11 0.347185 0.325740 0.592444
O O12 0.469038 0.172546 0.044499
O O13 0.309067 0.588971 0.420234
O O14 0.265974 0.390857 0.108850
O O15 0.662409 0.832392 0.579856
O O16 0.070077 0.482815 0.146380
#
# Coordination Sequence:
#
# PCOD9140882 Si02
#       8
#     4   4   4   4   4   4   4   4
#     4  12  27  48  79 115 157 210 272 337 403 483
#     4  11  27  50  79 116 159 216 271 332 415 486
#     4  12  28  50  81 115 165 217 276 336 411 492
#     4  11  28  50  80 115 157 210 273 334 411 480
#     4  11  29  49  81 116 160 211 269 333 405 486
#     4  12  28  48  77 114 162 208 270 330 400 483
#     4  12  28  49  81 114 167 213 274 340 409 484
#     4  11  29  48  80 119 161 219 271 336 414 492
#
# _framework density 25.845845000000001
#
# number of rings (size 3 to 8) (size 9 to 14) (size 15 to 20)
#    0.000    0.500    1.250    3.750   21.000    0.000 
#    0.000    0.000    0.000    0.000    0.000    0.000 
#    0.000    0.000    0.000    0.000    0.000    0.000 
#
# Total GULP energy -89666.968618 kJ/mol
# GULP energy per Si atom -5604.185539 kJ/mol
# Density = 2.578702 g / cm^3
# Si number density = 25.845845 Si / 1000 Ang^3
#
#
#
# Elastic Constant Matrix: (Units=GPa)
#
#
# Indices 1 2 3 4 5 6 
#
# 1 108.3128 35.6434 21.9881 0.0000 13.2434 0.0000
# 2 35.6434 167.3339 32.6716 0.0000 3.1129 0.0000
# 3 21.9881 32.6716 61.6801 0.0000 5.4057 0.0000
# 4 0.0000 0.0000 0.0000 33.3873 0.0000 0.4939
# 5 13.2434 3.1129 5.4057 0.0000 40.3528 0.0000
# 6 0.0000 0.0000 0.0000 0.4939 0.0000 47.5815
#
#
#
# Elastic Compliance Matrix: (Units=1/GPa)
#
#
# Indices 1 2 3 4 5 6 
#
# 1 0.010701 -0.001707 -0.002646 0.000000 -0.003026 0.000000
# 2 -0.001707 0.006938 -0.003105 0.000000 0.000441 0.000000
# 3 -0.002646 -0.003105 0.018926 0.000000 -0.001427 0.000000
# 4 0.000000 0.000000 0.000000 0.029956 0.000000 -0.000311
# 5 -0.003026 0.000441 -0.001427 0.000000 0.025932 0.000000
# 6 0.000000 0.000000 0.000000 -0.000311 0.000000 0.021020
#
#
# Mechanical properties :
#
#
# Convention : Reuss Voigt Hill
#
# Bulk Modulus (GPa) = 46.18971 57.54812 51.86891
# Shear Modulus (GPa) = 36.87221 40.73257 38.80239
#
# Velocity S-wave (km/s) = 3.78116 3.97417 3.87887
# Velocity P-wave (km/s) = 6.08054 6.58581 6.33821
#
# Compressibility (1/GPa) = 0.02164985
#
# Stress axis : x y z
#
# Youngs Moduli (GPa) = 93.44759 144.14095 52.83821
#
# Poissons Ratio (x) = 0.24599 0.13979
# Poissons Ratio (y) = 0.15948 0.16407
# Poissons Ratio (z) = 0.24723 0.44757
#
# Static dielectric constant tensor:
#      x y z
#    x 2.126580 0.000000 0.020560 
#    y 0.000000 3.502860 0.000000 
#    z 0.020560 0.000000 2.049510 
# 
# From -- ./inp_files/12445.got.cif
#   From: 2010.05.17/outbox.cif.g08.bks.cpg/sg9_7_cif.got.tgz:12445.got - 2010.06.03 20:04:27.
