data_PCOD9140889
_publ_section_title
;
Structure prediction by ZEFSAII (Michael W. Deem and Ramdas Pophale) SiO2 
 PCOD9140889
Probable space group: C C
;
_chemical_formula_sum "Si O2"
_cell_formula_units_Z 20
_cell_length_a 11.532650
_cell_length_b 10.459633
_cell_length_c 5.814798
_cell_angle_alpha 90.000000
_cell_angle_beta 97.081961
_cell_angle_gamma 90.000000
_cell_volume 696.072008
_symmetry_space_group_name_H-M "C C"
_symmetry_group_IT_number 9
_symmetry_cell_setting 'monoclinic'
loop_
_space_group_symop_operation_xyz
x,y,z
x,-y,1/2+z
1/2+x,1/2+y,z
1/2+x,1/2-y,1/2+z
loop_
_atom_site_type_symbol
_atom_site_label
_atom_site_fract_x
_atom_site_fract_y
_atom_site_fract_z
Si Si1 0.986970 0.227998 0.350100
Si Si2 0.812687 0.062899 0.551007
Si Si3 0.340239 0.116809 0.453567
Si Si4 0.079385 0.339493 0.779024
Si Si5 0.665575 0.613481 0.075545
O O1 0.911113 0.167723 0.530562
O O2 0.071394 0.328107 0.501567
O O3 0.053210 0.118692 0.219012
O O4 0.891960 0.300727 0.171999
O O5 0.678927 0.097070 0.458721
O O6 0.831196 0.019372 0.817144
O O7 0.458969 0.095763 0.336453
O O8 0.255345 0.190570 0.259982
O O9 0.251392 0.003254 0.517705
O O10 0.115363 0.191868 0.850969
#
# Coordination Sequence:
#
# PCOD9140889 Si02
#       5
#     4   4   4   4   4
#     4  11  28  53  80 117 166 216 283 355 424 521
#     4  12  32  52  82 116 170 220 276 352 442 510
#     4  11  28  47  84 120 161 214 282 352 433 517
#     4  11  28  53  80 117 166 216 283 355 424 521
#     4  11  28  47  84 120 161 214 282 352 433 517
#
# _framework density 28.732658000000001
#
# number of rings (size 3 to 8) (size 9 to 14) (size 15 to 20)
#    0.000    0.800    0.000    2.400   28.000    0.000 
#    0.000    0.000    0.000    0.000    0.000    0.000 
#    0.000    0.000    0.000    0.000    0.000    0.000 
#
# Total GULP energy -55797.533054 kJ/mol
# GULP energy per Si atom -5579.753305 kJ/mol
# Density = 2.866726 g / cm^3
# Si number density = 28.732658 Si / 1000 Ang^3
#
#
#
# Elastic Constant Matrix: (Units=GPa)
#
#
# Indices 1 2 3 4 5 6 
#
# 1 195.1037 86.0539 51.7775 0.0000 3.6748 0.0000
# 2 86.0539 110.7356 46.1101 0.0000 -8.8972 0.0000
# 3 51.7775 46.1101 131.5915 0.0000 22.8767 0.0000
# 4 0.0000 0.0000 0.0000 41.5344 0.0000 -5.1138
# 5 3.6748 -8.8972 22.8767 0.0000 82.1697 0.0000
# 6 0.0000 0.0000 0.0000 -5.1138 0.0000 58.6522
#
#
#
# Elastic Compliance Matrix: (Units=1/GPa)
#
#
# Indices 1 2 3 4 5 6 
#
# 1 0.007978 -0.005858 -0.000961 0.000000 -0.000724 0.000000
# 2 -0.005858 0.015300 -0.003562 0.000000 0.002910 0.000000
# 3 -0.000961 -0.003562 0.009757 0.000000 -0.003059 0.000000
# 4 0.000000 0.000000 0.000000 0.024338 0.000000 0.002122
# 5 -0.000724 0.002910 -0.003059 0.000000 0.013369 0.000000
# 6 0.000000 0.000000 0.000000 0.002122 0.000000 0.017235
#
#
# Mechanical properties :
#
#
# Convention : Reuss Voigt Hill
#
# Bulk Modulus (GPa) = 81.47523 89.47930 85.47727
# Shear Modulus (GPa) = 44.31508 53.37054 48.84281
#
# Velocity S-wave (km/s) = 3.93150 4.31453 4.12746
# Velocity P-wave (km/s) = 7.00192 7.48531 7.24765
#
# Compressibility (1/GPa) = 0.01227367
#
# Stress axis : x y z
#
# Youngs Moduli (GPa) = 125.34975 65.36078 102.48730
#
# Poissons Ratio (x) = 0.38286 0.09845
# Poissons Ratio (y) = 0.73426 0.36508
# Poissons Ratio (z) = 0.12042 0.23283
#
# Static dielectric constant tensor:
#      x y z
#    x 2.185420 0.000000 -0.078270 
#    y 0.000000 2.468070 0.000000 
#    z -0.078270 0.000000 2.282930 
# 
# From -- ./inp_files/1489.got.cif
#   From: 2010.05.17/outbox.cif.g08.bks.cpg/sg9_1_cif.got.tgz:1489.got - 2010.06.03 20:04:27.
