data_PCOD9140248
_publ_section_title
;
Structure prediction by ZEFSAII (Michael W. Deem and Ramdas Pophale) SiO2 
 PCOD9140248
Probable space group: C C
;
_chemical_formula_sum "Si O2"
_cell_formula_units_Z 32
_cell_length_a 11.689866
_cell_length_b 8.762804
_cell_length_c 14.539621
_cell_angle_alpha 90.000000
_cell_angle_beta 68.943363
_cell_angle_gamma 90.000000
_cell_volume 1389.928364
_symmetry_space_group_name_H-M "C C"
_symmetry_group_IT_number 9
_symmetry_cell_setting 'monoclinic'
loop_
_space_group_symop_operation_xyz
x,y,z
x,-y,1/2+z
1/2+x,1/2+y,z
1/2+x,1/2-y,1/2+z
loop_
_atom_site_type_symbol
_atom_site_label
_atom_site_fract_x
_atom_site_fract_y
_atom_site_fract_z
Si Si1 0.027070 0.438211 0.319030
Si Si2 0.771293 0.454828 0.960793
Si Si3 0.826252 0.648412 0.125255
Si Si4 0.190926 0.950624 0.296056
Si Si5 0.783408 0.055464 0.539147
Si Si6 0.264065 0.619775 0.207727
Si Si7 0.105047 0.343569 0.497605
Si Si8 0.443460 0.610355 0.315585
O O1 0.131432 0.539092 0.243195
O O2 0.084217 0.368433 0.395876
O O3 0.910660 0.540953 0.382258
O O4 0.981027 0.285165 0.281282
O O5 0.697674 0.553392 0.904855
O O6 0.697974 0.296427 0.986424
O O7 0.784629 0.531631 0.056729
O O8 0.781874 0.582953 0.234154
O O9 0.764188 0.805378 0.113673
O O10 0.971377 0.677439 0.079965
O O11 0.236246 0.793846 0.239556
O O12 0.059959 0.002226 0.294884
O O13 0.876507 0.109713 0.433780
O O14 0.827232 0.917227 0.592185
O O15 0.664928 0.995300 0.521220
O O16 0.349629 0.556782 0.264581
#
# Coordination Sequence:
#
# PCOD9140248 Si02
#       8
#     4   4   4   4   4   4   4   4
#     4  11  23  46  74 101 145 185 237 301 357 426
#     4  11  23  46  74 100 142 185 239 295 360 424
#     4  11  26  48  68 107 146 186 237 306 353 430
#     4  12  26  46  76 103 143 194 241 293 364 433
#     4  12  25  45  74 104 144 188 240 296 359 427
#     4  12  28  45  71 112 142 195 243 298 365 430
#     4  11  24  45  73 104 142 187 236 292 367 423
#     4  12  25  51  70 105 148 192 243 301 363 427
#
# _framework density 23.022770000000001
#
# number of rings (size 3 to 8) (size 9 to 14) (size 15 to 20)
#    0.000    0.500    6.250    1.500    3.500    4.000 
#    0.000    1.250    0.000    0.000    0.000    0.000 
#    0.000    0.000    0.000    0.000    0.000    0.000 
#
# Total GULP energy -89533.141499 kJ/mol
# GULP energy per Si atom -5595.821344 kJ/mol
# Density = 2.297037 g / cm^3
# Si number density = 23.022770 Si / 1000 Ang^3
#
#
#
# Elastic Constant Matrix: (Units=GPa)
#
#
# Indices 1 2 3 4 5 6 
#
# 1 118.7379 54.3244 17.9935 0.0000 -5.0994 0.0000
# 2 54.3244 78.3607 6.8043 0.0000 -7.4965 0.0000
# 3 17.9935 6.8043 51.8782 0.0000 11.4008 0.0000
# 4 0.0000 0.0000 0.0000 20.3301 0.0000 6.8660
# 5 -5.0994 -7.4965 11.4008 0.0000 25.2873 0.0000
# 6 0.0000 0.0000 0.0000 6.8660 0.0000 41.9720
#
#
#
# Elastic Compliance Matrix: (Units=1/GPa)
#
#
# Indices 1 2 3 4 5 6 
#
# 1 0.012950 -0.008478 -0.003775 0.000000 0.001800 0.000000
# 2 -0.008478 0.019078 -0.000476 0.000000 0.004161 0.000000
# 3 -0.003775 -0.000476 0.023139 0.000000 -0.011335 0.000000
# 4 0.000000 0.000000 0.000000 0.052065 0.000000 -0.008517
# 5 0.001800 0.004161 -0.011335 0.000000 0.046252 0.000000
# 6 0.000000 0.000000 0.000000 -0.008517 0.000000 0.025219
#
#
# Mechanical properties :
#
#
# Convention : Reuss Voigt Hill
#
# Bulk Modulus (GPa) = 33.66056 45.24681 39.45368
# Shear Modulus (GPa) = 23.35753 28.84152 26.09953
#
# Velocity S-wave (km/s) = 3.18864 3.54325 3.37061
# Velocity P-wave (km/s) = 5.31120 6.03616 5.68525
#
# Compressibility (1/GPa) = 0.02970836
#
# Stress axis : x y z
#
# Youngs Moduli (GPa) = 77.21996 52.41595 43.21755
#
# Poissons Ratio (x) = 0.44437 0.16316
# Poissons Ratio (y) = 0.65465 0.02058
# Poissons Ratio (z) = 0.29153 0.02496
#
# Static dielectric constant tensor:
#      x y z
#    x 1.869700 0.000000 -0.005960 
#    y 0.000000 1.872790 0.000000 
#    z -0.005960 0.000000 1.867250 
# 
# From -- ./inp_files/24210.got.cif
#   From: 2010.05.17/outbox.cif.g08.bks.cpg/sg9_13_cif.got.tgz:24210.got - 2010.06.03 20:04:27.
