data_PCOD9140313
_publ_section_title
;
Structure prediction by ZEFSAII (Michael W. Deem and Ramdas Pophale) SiO2 
 PCOD9140313
Probable space group: C C
;
_chemical_formula_sum "Si O2"
_cell_formula_units_Z 32
_cell_length_a 20.957386
_cell_length_b 14.060047
_cell_length_c 8.337828
_cell_angle_alpha 90.000000
_cell_angle_beta 30.341118
_cell_angle_gamma 90.000000
_cell_volume 1241.065449
_symmetry_space_group_name_H-M "C C"
_symmetry_group_IT_number 9
_symmetry_cell_setting 'monoclinic'
loop_
_space_group_symop_operation_xyz
x,y,z
x,-y,1/2+z
1/2+x,1/2+y,z
1/2+x,1/2-y,1/2+z
loop_
_atom_site_type_symbol
_atom_site_label
_atom_site_fract_x
_atom_site_fract_y
_atom_site_fract_z
Si Si1 0.284710 0.134260 0.584170
Si Si2 0.239627 0.397465 0.219247
Si Si3 0.653738 0.178830 0.312418
Si Si4 0.781416 0.682885 0.242644
Si Si5 0.588012 0.946639 0.243257
Si Si6 0.427660 0.876661 0.109700
Si Si7 0.094405 0.032124 0.570445
Si Si8 0.907133 0.053845 0.718937
O O1 0.182875 0.218775 0.817914
O O2 0.345083 0.163767 0.279440
O O3 0.468601 0.986835 0.032687
O O4 0.372580 0.139936 0.552239
O O5 0.135378 0.397218 0.302588
O O6 0.355776 0.449014 0.878962
O O7 0.268601 0.294902 0.229912
O O8 0.191793 0.475254 0.453521
O O9 0.581246 0.120548 0.606221
O O10 0.555984 0.180104 0.376382
O O11 0.787955 0.124512 0.995748
O O12 0.836727 0.646428 0.954046
O O13 0.657928 0.616162 0.534342
O O14 0.206285 0.963640 0.265535
O O15 0.014963 0.085201 0.607669
O O16 0.990380 0.965640 0.881893
#
# Coordination Sequence:
#
# PCOD9140313 Si02
#       8
#     4   4   4   4   4   4   4   4
#     4  12  30  54  84 123 171 228 289 348 437 508
#     4  11  25  48  82 123 165 215 285 351 424 505
#     4  11  27  49  82 126 158 221 289 351 430 498
#     4  12  30  51  82 124 173 224 278 349 434 514
#     4  11  23  48  81 121 165 214 280 353 425 499
#     4  12  28  50  83 122 173 218 282 357 423 507
#     4  12  27  52  79 115 167 223 280 344 429 510
#     4  11  24  46  83 114 162 217 281 351 418 507
#
# _framework density 25.784296999999999
#
# number of rings (size 3 to 8) (size 9 to 14) (size 15 to 20)
#    0.000    0.500    3.750    3.750    5.250    4.000 
#    0.000    1.250    0.000    0.000    0.000    0.000 
#    0.000    0.000    0.000    0.000    0.000    0.000 
#
# Total GULP energy -89444.724472 kJ/mol
# GULP energy per Si atom -5590.295279 kJ/mol
# Density = 2.572561 g / cm^3
# Si number density = 25.784297 Si / 1000 Ang^3
#
#
#
# Elastic Constant Matrix: (Units=GPa)
#
#
# Indices 1 2 3 4 5 6 
#
# 1 232.6591 50.8664 39.5891 0.0000 27.8830 0.0000
# 2 50.8664 162.5089 45.2519 0.0000 1.9711 0.0000
# 3 39.5891 45.2519 158.9643 0.0000 13.0192 0.0000
# 4 0.0000 0.0000 0.0000 40.7278 0.0000 7.1415
# 5 27.8830 1.9711 13.0192 0.0000 42.3941 0.0000
# 6 0.0000 0.0000 0.0000 7.1415 0.0000 34.0032
#
#
#
# Elastic Compliance Matrix: (Units=1/GPa)
#
#
# Indices 1 2 3 4 5 6 
#
# 1 0.005074 -0.001379 -0.000619 0.000000 -0.003083 0.000000
# 2 -0.001379 0.007061 -0.001758 0.000000 0.001118 0.000000
# 3 -0.000619 -0.001758 0.007083 0.000000 -0.001687 0.000000
# 4 0.000000 0.000000 0.000000 0.025492 0.000000 -0.005354
# 5 -0.003083 0.001118 -0.001687 0.000000 0.026082 0.000000
# 6 0.000000 0.000000 0.000000 -0.005354 0.000000 0.030534
#
#
# Mechanical properties :
#
#
# Convention : Reuss Voigt Hill
#
# Bulk Modulus (GPa) = 85.41512 91.72744 88.57128
# Shear Modulus (GPa) = 44.34966 51.32002 47.83484
#
# Velocity S-wave (km/s) = 4.15182 4.46618 4.31187
# Velocity P-wave (km/s) = 7.49548 7.88973 7.69513
#
# Compressibility (1/GPa) = 0.01170753
#
# Stress axis : x y z
#
# Youngs Moduli (GPa) = 197.06963 141.62150 141.17332
#
# Poissons Ratio (x) = 0.19524 0.08735
# Poissons Ratio (y) = 0.27168 0.24823
# Poissons Ratio (z) = 0.12194 0.24902
#
# Static dielectric constant tensor:
#      x y z
#    x 2.155050 0.000000 -0.001770 
#    y 0.000000 2.012390 0.000000 
#    z -0.001770 0.000000 2.105660 
# 
# From -- ./inp_files/9412.got.cif
#   From: 2010.05.17/outbox.cif.g08.bks.cpg/sg9_5_cif.got.tgz:9412.got - 2010.06.03 20:04:27.
