data_PCOD9140607
_publ_section_title
;
Structure prediction by ZEFSAII (Michael W. Deem and Ramdas Pophale) SiO2 
 PCOD9140607
Probable space group: C C
;
_chemical_formula_sum "Si O2"
_cell_formula_units_Z 28
_cell_length_a 20.580353
_cell_length_b 8.100092
_cell_length_c 9.346872
_cell_angle_alpha 90.000000
_cell_angle_beta 129.432074
_cell_angle_gamma 90.000000
_cell_volume 1203.480440
_symmetry_space_group_name_H-M "C C"
_symmetry_group_IT_number 9
_symmetry_cell_setting 'monoclinic'
loop_
_space_group_symop_operation_xyz
x,y,z
x,-y,1/2+z
1/2+x,1/2+y,z
1/2+x,1/2-y,1/2+z
loop_
_atom_site_type_symbol
_atom_site_label
_atom_site_fract_x
_atom_site_fract_y
_atom_site_fract_z
Si Si1 0.128480 0.096781 0.615550
Si Si2 0.739159 0.880098 0.448962
Si Si3 0.879663 0.129685 0.556288
Si Si4 0.803507 0.388787 0.225615
Si Si5 0.131613 0.542492 0.078224
Si Si6 0.459988 0.123744 0.392270
Si Si7 0.023618 0.890162 0.684459
O O1 0.216509 0.043322 0.668406
O O2 0.138155 0.287502 0.679470
O O3 0.058474 0.111317 0.393367
O O4 0.095450 0.973007 0.687805
O O5 0.781490 0.706149 0.547334
O O6 0.674411 0.914656 0.487653
O O7 0.811194 0.018696 0.541758
O O8 0.686707 0.901057 0.230945
O O9 0.835294 0.249058 0.380577
O O10 0.933499 0.238219 0.741162
O O11 0.942682 0.007215 0.564319
O O12 0.877311 0.518527 0.309452
O O13 0.035802 0.486055 0.937389
O O14 0.496242 0.215498 0.582484
#
# Coordination Sequence:
#
# PCOD9140607 Si02
#       7
#     4   4   4   4   4   4   4
#     4  11  26  50  74 106 149 194 246 297 369 443
#     4  11  24  51  72 101 150 196 241 298 370 438
#     4  12  26  47  71 110 145 194 242 304 370 433
#     4  11  27  47  73 111 146 188 251 308 364 443
#     4  11  26  47  76 106 146 194 241 299 367 442
#     4  12  28  44  76 109 143 192 245 310 365 433
#     4  12  27  50  72 105 151 198 242 304 367 438
#
# _framework density 23.265853
#
# number of rings (size 3 to 8) (size 9 to 14) (size 15 to 20)
#    0.000    0.571    4.286    3.429   10.000    1.143 
#    2.571    0.000    0.000    0.000    0.000    0.000 
#    0.000    0.000    0.000    0.000    0.000    0.000 
#
# Total GULP energy -78481.015420 kJ/mol
# GULP energy per Si atom -5605.786816 kJ/mol
# Density = 2.321290 g / cm^3
# Si number density = 23.265853 Si / 1000 Ang^3
#
#
#
# Elastic Constant Matrix: (Units=GPa)
#
#
# Indices 1 2 3 4 5 6 
#
# 1 95.8964 50.2793 -3.0753 0.0000 34.4829 0.0000
# 2 50.2793 91.4315 5.2504 0.0000 12.0669 0.0000
# 3 -3.0753 5.2504 69.9072 0.0000 9.6484 0.0000
# 4 0.0000 0.0000 0.0000 41.2116 0.0000 12.4258
# 5 34.4829 12.0669 9.6484 0.0000 36.6249 0.0000
# 6 0.0000 0.0000 0.0000 12.4258 0.0000 48.0899
#
#
#
# Elastic Compliance Matrix: (Units=1/GPa)
#
#
# Indices 1 2 3 4 5 6 
#
# 1 0.022952 -0.010319 0.004460 0.000000 -0.019385 0.000000
# 2 -0.010319 0.016082 -0.002357 0.000000 0.005038 0.000000
# 3 0.004460 -0.002357 0.015722 0.000000 -0.007564 0.000000
# 4 0.000000 0.000000 0.000000 0.026315 0.000000 -0.006800
# 5 -0.019385 0.005038 -0.007564 0.000000 0.045888 0.000000
# 6 0.000000 0.000000 0.000000 -0.006800 0.000000 0.022551
#
#
# Mechanical properties :
#
#
# Convention : Reuss Voigt Hill
#
# Bulk Modulus (GPa) = 26.09372 40.23824 33.16598
# Shear Modulus (GPa) = 27.97716 38.83733 33.40724
#
# Velocity S-wave (km/s) = 3.47147 4.09012 3.79343
# Velocity P-wave (km/s) = 5.22570 6.29587 5.78558
#
# Compressibility (1/GPa) = 0.03832340
#
# Stress axis : x y z
#
# Youngs Moduli (GPa) = 43.56948 62.18016 63.60539
#
# Poissons Ratio (x) = 0.64166 -0.28369
# Poissons Ratio (y) = 0.44961 0.14993
# Poissons Ratio (z) = -0.19432 0.14657
#
# Static dielectric constant tensor:
#      x y z
#    x 1.834360 0.000000 0.004020 
#    y 0.000000 1.896400 0.000000 
#    z 0.004020 0.000000 1.873940 
# 
# From -- ./inp_files/11381.got.cif
#   From: 2010.05.17/outbox.cif.g08.bks.cpg/sg9_6_cif.got.tgz:11381.got - 2010.06.03 20:04:27.
