data_PCOD9140982
_publ_section_title
;
Structure prediction by ZEFSAII (Michael W. Deem and Ramdas Pophale) SiO2 
 PCOD9140982
Probable space group: C C
;
_chemical_formula_sum "Si O2"
_cell_formula_units_Z 32
_cell_length_a 18.758901
_cell_length_b 8.742990
_cell_length_c 21.679408
_cell_angle_alpha 90.000000
_cell_angle_beta 21.367235
_cell_angle_gamma 90.000000
_cell_volume 1295.468222
_symmetry_space_group_name_H-M "C C"
_symmetry_group_IT_number 9
_symmetry_cell_setting 'monoclinic'
loop_
_space_group_symop_operation_xyz
x,y,z
x,-y,1/2+z
1/2+x,1/2+y,z
1/2+x,1/2-y,1/2+z
loop_
_atom_site_type_symbol
_atom_site_label
_atom_site_fract_x
_atom_site_fract_y
_atom_site_fract_z
Si Si1 0.088870 0.976052 0.276030
Si Si2 0.578303 0.486954 0.067768
Si Si3 0.707638 0.804293 0.603049
Si Si4 0.445330 0.164548 0.204339
Si Si5 0.163224 0.185846 0.120077
Si Si6 0.890513 0.537178 0.626000
Si Si7 0.760255 0.114853 0.243377
Si Si8 0.571672 0.952474 0.281376
O O1 0.207120 0.857817 0.136798
O O2 0.235457 0.051106 0.206994
O O3 0.909635 0.890141 0.451690
O O4 0.015903 0.095987 0.284299
O O5 0.431421 0.347530 0.204324
O O6 0.619726 0.614478 0.087570
O O7 0.471431 0.571251 0.098587
O O8 0.771661 0.406557 0.885254
O O9 0.645113 0.831277 0.583286
O O10 0.529707 0.884585 0.784018
O O11 0.439591 0.061276 0.147217
O O12 0.141798 0.354765 0.165125
O O13 0.382759 0.132713 0.958308
O O14 0.778066 0.701339 0.722122
O O15 0.089227 0.575996 0.429703
O O16 0.711478 0.007084 0.224006
#
# Coordination Sequence:
#
# PCOD9140982 Si02
#       8
#     4   4   4   4   4   4   4   4
#     4  12  24  45  78 107 144 193 252 307 377 449
#     4  12  28  48  77 110 153 201 249 314 386 453
#     4  12  24  45  78 107 144 193 252 307 377 449
#     4  12  27  48  75 111 153 197 252 312 381 458
#     4  12  27  49  74 111 149 195 254 313 374 455
#     4  12  27  48  75 111 153 197 252 312 381 458
#     4  12  28  48  77 110 153 201 249 314 386 453
#     4  12  27  49  74 111 149 195 254 313 374 455
#
# _framework density 24.701492999999999
#
# number of rings (size 3 to 8) (size 9 to 14) (size 15 to 20)
#    0.000    0.000    5.000    4.500    7.000    2.000 
#    0.000    0.000    0.000    0.000    0.000    0.000 
#    0.000    0.000    0.000    0.000    0.000    0.000 
#
# Total GULP energy -89315.222899 kJ/mol
# GULP energy per Si atom -5582.201431 kJ/mol
# Density = 2.464527 g / cm^3
# Si number density = 24.701493 Si / 1000 Ang^3
#
#
#
# Elastic Constant Matrix: (Units=GPa)
#
#
# Indices 1 2 3 4 5 6 
#
# 1 178.3102 51.8917 49.2687 0.0014 -6.0200 -0.0020
# 2 51.8917 105.8570 18.1933 -0.0097 10.5456 0.0033
# 3 49.2687 18.1933 93.6138 -0.0171 12.4243 0.0063
# 4 0.0014 -0.0097 -0.0171 41.9479 0.0026 9.0916
# 5 -6.0200 10.5456 12.4243 0.0026 38.4864 -0.0005
# 6 -0.0020 0.0033 0.0063 9.0916 -0.0005 42.2527
#
#
#
# Elastic Compliance Matrix: (Units=1/GPa)
#
#
# Indices 1 2 3 4 5 6 
#
# 1 0.007820 -0.003508 -0.003891 -0.000003 0.003440 0.000002
# 2 -0.003508 0.011521 0.000103 0.000003 -0.003739 -0.000002
# 3 -0.003891 0.000103 0.013367 0.000007 -0.004952 -0.000004
# 4 -0.000003 0.000003 0.000007 0.025005 -0.000005 -0.005380
# 5 0.003440 -0.003739 -0.004952 -0.000005 0.029144 0.000003
# 6 0.000002 -0.000002 -0.000004 -0.005380 0.000003 0.024825
#
#
# Mechanical properties :
#
#
# Convention : Reuss Voigt Hill
#
# Bulk Modulus (GPa) = 55.19365 68.49870 61.84618
# Shear Modulus (GPa) = 37.78954 41.76588 39.77771
#
# Velocity S-wave (km/s) = 3.91557 4.11642 4.01725
# Velocity P-wave (km/s) = 6.54485 7.09817 6.82712
#
# Compressibility (1/GPa) = 0.01811803
#
# Stress axis : x y z
#
# Youngs Moduli (GPa) = 127.87519 86.79923 74.81115
#
# Poissons Ratio (x) = 0.30445 0.29106
# Poissons Ratio (y) = 0.44853 -0.00772
# Poissons Ratio (z) = 0.49752 -0.00896
#
# Static dielectric constant tensor:
#      x y z
#    x 1.995710 0.000000 0.006200 
#    y 0.000000 2.104950 0.000000 
#    z 0.006200 0.000000 1.991970 
# 
# From -- ./inp_files/35978.got.cif
#   From: 2010.05.17/outbox.cif.g08.bks.cpg/sg9_18_cif.got.tgz:35978.got - 2010.06.03 20:04:27.
