data_PCOD9140877
_publ_section_title
;
Structure prediction by ZEFSAII (Michael W. Deem and Ramdas Pophale) SiO2 
 PCOD9140877
Probable space group: C C
;
_chemical_formula_sum "Si O2"
_cell_formula_units_Z 28
_cell_length_a 11.688261
_cell_length_b 16.656425
_cell_length_c 6.990779
_cell_angle_alpha 90.000000
_cell_angle_beta 51.238893
_cell_angle_gamma 90.000000
_cell_volume 1061.255525
_symmetry_space_group_name_H-M "C C"
_symmetry_group_IT_number 9
_symmetry_cell_setting 'monoclinic'
loop_
_space_group_symop_operation_xyz
x,y,z
x,-y,1/2+z
1/2+x,1/2+y,z
1/2+x,1/2-y,1/2+z
loop_
_atom_site_type_symbol
_atom_site_label
_atom_site_fract_x
_atom_site_fract_y
_atom_site_fract_z
Si Si1 0.217540 0.801229 0.769290
Si Si2 0.996617 0.855745 0.517663
Si Si3 0.270754 0.506012 0.297597
Si Si4 0.960645 0.682634 0.701197
Si Si5 0.549969 0.978208 0.273779
Si Si6 0.401983 0.339347 0.189415
Si Si7 0.797859 0.591959 0.549785
O O1 0.313778 0.810969 0.480284
O O2 0.260185 0.713452 0.799742
O O3 0.267365 0.865361 0.879191
O O4 0.044809 0.808623 0.931787
O O5 0.865200 0.912469 0.727580
O O6 0.022529 0.769989 0.588977
O O7 0.941796 0.830585 0.366751
O O8 0.145998 0.905840 0.326324
O O9 0.083919 0.490698 0.485298
O O10 0.227076 0.489055 0.592213
O O11 0.377325 0.430799 0.166931
O O12 0.916779 0.643527 0.544205
O O13 0.056782 0.617023 0.715481
O O14 0.381226 0.007890 0.444689
#
# Coordination Sequence:
#
# PCOD9140877 Si02
#       7
#     4   4   4   4   4   4   4
#     4  11  28  46  77 112 158 200 261 329 402 476
#     4  11  28  49  79 114 160 210 267 333 404 476
#     4  12  27  47  78 111 154 208 271 328 401 473
#     4  12  28  47  81 117 155 208 269 329 399 482
#     4  12  27  48  78 110 155 203 269 323 398 478
#     4  11  27  49  74 112 159 207 261 335 403 477
#     4  11  27  50  77 112 159 206 258 329 401 478
#
# _framework density 26.383844
#
# number of rings (size 3 to 8) (size 9 to 14) (size 15 to 20)
#    0.000    0.571    4.286    0.857   12.000    1.143 
#    0.000    0.000    0.000    0.000    0.000    0.000 
#    0.000    0.000    0.000    0.000    0.000    0.000 
#
# Total GULP energy -78281.739482 kJ/mol
# GULP energy per Si atom -5591.552820 kJ/mol
# Density = 2.632379 g / cm^3
# Si number density = 26.383844 Si / 1000 Ang^3
#
#
#
# Elastic Constant Matrix: (Units=GPa)
#
#
# Indices 1 2 3 4 5 6 
#
# 1 115.6880 56.1867 23.7580 0.0000 9.3433 0.0000
# 2 56.1867 142.7330 42.9581 0.0000 -25.5460 0.0000
# 3 23.7580 42.9581 139.5567 0.0000 -14.6295 0.0000
# 4 0.0000 0.0000 0.0000 34.8776 0.0000 -0.7932
# 5 9.3433 -25.5460 -14.6295 0.0000 59.1165 0.0000
# 6 0.0000 0.0000 0.0000 -0.7932 0.0000 44.5732
#
#
#
# Elastic Compliance Matrix: (Units=1/GPa)
#
#
# Indices 1 2 3 4 5 6 
#
# 1 0.011631 -0.005079 -0.000862 0.000000 -0.004246 0.000000
# 2 -0.005079 0.010427 -0.001836 0.000000 0.004854 0.000000
# 3 -0.000862 -0.001836 0.008016 0.000000 0.001327 0.000000
# 4 0.000000 0.000000 0.000000 0.028683 0.000000 0.000510
# 5 -0.004246 0.004854 0.001327 0.000000 0.020013 0.000000
# 6 0.000000 0.000000 0.000000 0.000510 0.000000 0.022444
#
#
# Mechanical properties :
#
#
# Convention : Reuss Voigt Hill
#
# Bulk Modulus (GPa) = 68.86895 71.53148 70.20021
# Shear Modulus (GPa) = 41.11584 46.05180 43.58382
#
# Velocity S-wave (km/s) = 3.95190 4.18240 4.06878
# Velocity P-wave (km/s) = 6.85440 7.10591 6.98129
#
# Compressibility (1/GPa) = 0.01452033
#
# Stress axis : x y z
#
# Youngs Moduli (GPa) = 85.98022 95.90658 124.74306
#
# Poissons Ratio (x) = 0.48711 0.10749
# Poissons Ratio (y) = 0.43669 0.22904
# Poissons Ratio (z) = 0.07409 0.17609
#
# Static dielectric constant tensor:
#      x y z
#    x 2.209290 0.000000 0.274170 
#    y 0.000000 1.995650 0.000000 
#    z 0.274170 0.000000 2.298730 
# 
# From -- ./inp_files/9751.got.cif
#   From: 2010.05.17/outbox.cif.g08.bks.cpg/sg9_5_cif.got.tgz:9751.got - 2010.06.03 20:04:27.
