data_PCOD9140992
_publ_section_title
;
Structure prediction by ZEFSAII (Michael W. Deem and Ramdas Pophale) SiO2 
 PCOD9140992
Probable space group: C C
;
_chemical_formula_sum "Si O2"
_cell_formula_units_Z 24
_cell_length_a 7.130653
_cell_length_b 17.555091
_cell_length_c 9.185289
_cell_angle_alpha 90.000000
_cell_angle_beta 124.598840
_cell_angle_gamma 90.000000
_cell_volume 946.461754
_symmetry_space_group_name_H-M "C C"
_symmetry_group_IT_number 9
_symmetry_cell_setting 'monoclinic'
loop_
_space_group_symop_operation_xyz
x,y,z
x,-y,1/2+z
1/2+x,1/2+y,z
1/2+x,1/2-y,1/2+z
loop_
_atom_site_type_symbol
_atom_site_label
_atom_site_fract_x
_atom_site_fract_y
_atom_site_fract_z
Si Si1 0.688830 0.869661 0.824940
Si Si2 0.092806 0.045363 0.488967
Si Si3 0.326709 0.853983 0.869717
Si Si4 0.572881 0.404722 0.303840
Si Si5 0.894133 0.813375 0.472781
Si Si6 0.447781 0.783621 0.467174
O O1 0.873983 0.804052 0.948039
O O2 0.525429 0.821430 0.650535
O O3 0.838505 0.935021 0.816409
O O4 0.523154 0.901363 0.875467
O O5 0.256309 0.108033 0.489793
O O6 0.047854 0.949948 0.141443
O O7 0.176586 0.965914 0.462219
O O8 0.445221 0.772233 0.943728
O O9 0.233967 0.834940 0.331381
O O10 0.096186 0.841292 0.670799
O O11 0.382317 0.366338 0.324185
O O12 0.655859 0.800729 0.450282
#
# Coordination Sequence:
#
# PCOD9140992 Si02
#       6
#     4   4   4   4   4   4
#     4  12  24  46  79 111 146 192 251 307 364 442
#     4  12  29  50  73 108 152 195 249 306 375 440
#     4  12  25  45  77 111 148 192 245 305 370 436
#     4  12  29  50  73 108 152 195 249 306 375 440
#     4  12  25  45  77 111 148 192 245 305 370 436
#     4  12  24  46  79 111 146 192 251 307 364 442
#
# _framework density 25.357599
#
# number of rings (size 3 to 8) (size 9 to 14) (size 15 to 20)
#    0.000    0.000    6.667    2.000    4.667    1.333 
#    0.000    0.000    0.000    0.000    0.000    0.000 
#    0.000    0.000    0.000    0.000    0.000    0.000 
#
# Total GULP energy -67091.288061 kJ/mol
# GULP energy per Si atom -5590.940672 kJ/mol
# Density = 2.529988 g / cm^3
# Si number density = 25.357599 Si / 1000 Ang^3
#
#
#
# Elastic Constant Matrix: (Units=GPa)
#
#
# Indices 1 2 3 4 5 6 
#
# 1 192.6815 17.0147 17.3402 0.0000 -23.8044 0.0000
# 2 17.0147 70.2446 10.7835 0.0000 -12.9749 0.0000
# 3 17.3402 10.7835 85.3831 0.0000 -13.4485 0.0000
# 4 0.0000 0.0000 0.0000 27.2544 0.0000 -7.8446
# 5 -23.8044 -12.9749 -13.4485 0.0000 39.5932 0.0000
# 6 0.0000 0.0000 0.0000 -7.8446 0.0000 35.4126
#
#
#
# Elastic Compliance Matrix: (Units=1/GPa)
#
#
# Indices 1 2 3 4 5 6 
#
# 1 0.005675 -0.000735 -0.000592 0.000000 0.002970 0.000000
# 2 -0.000735 0.015365 -0.001128 0.000000 0.004210 0.000000
# 3 -0.000592 -0.001128 0.012531 0.000000 0.003531 0.000000
# 4 0.000000 0.000000 0.000000 0.039190 0.000000 0.008681
# 5 0.002970 0.004210 0.003531 0.000000 0.029621 0.000000
# 6 0.000000 0.000000 0.000000 0.008681 0.000000 0.030162
#
#
# Mechanical properties :
#
#
# Convention : Reuss Voigt Hill
#
# Bulk Modulus (GPa) = 34.89148 48.73178 41.81163
# Shear Modulus (GPa) = 34.01191 40.66344 37.33768
#
# Velocity S-wave (km/s) = 3.66634 4.00884 3.84141
# Velocity P-wave (km/s) = 5.63137 6.37866 6.01663
#
# Compressibility (1/GPa) = 0.02866029
#
# Stress axis : x y z
#
# Youngs Moduli (GPa) = 176.21090 65.08369 79.80387
#
# Poissons Ratio (x) = 0.04785 0.04723
# Poissons Ratio (y) = 0.12954 0.09003
# Poissons Ratio (z) = 0.10430 0.07342
#
# Static dielectric constant tensor:
#      x y z
#    x 1.995810 0.000000 -0.010370 
#    y 0.000000 1.968470 0.000000 
#    z -0.010370 0.000000 2.137770 
# 
# From -- ./inp_files/17079.got.cif
#   From: 2010.05.17/outbox.cif.g08.bks.cpg/sg9_9_cif.got.tgz:17079.got - 2010.06.03 20:04:27.
