data_PCOD9140625
_publ_section_title
;
Structure prediction by ZEFSAII (Michael W. Deem and Ramdas Pophale) SiO2 
 PCOD9140625
Probable space group: C C
;
_chemical_formula_sum "Si O2"
_cell_formula_units_Z 24
_cell_length_a 4.788759
_cell_length_b 13.399559
_cell_length_c 13.732405
_cell_angle_alpha 90.000000
_cell_angle_beta 82.281959
_cell_angle_gamma 90.000000
_cell_volume 873.188225
_symmetry_space_group_name_H-M "C C"
_symmetry_group_IT_number 9
_symmetry_cell_setting 'monoclinic'
loop_
_space_group_symop_operation_xyz
x,y,z
x,-y,1/2+z
1/2+x,1/2+y,z
1/2+x,1/2-y,1/2+z
loop_
_atom_site_type_symbol
_atom_site_label
_atom_site_fract_x
_atom_site_fract_y
_atom_site_fract_z
Si Si1 0.154430 0.886640 0.487170
Si Si2 0.902098 0.059300 0.428979
Si Si3 0.994026 0.498669 0.625352
Si Si4 0.656321 0.176041 0.263978
Si Si5 0.627460 0.252682 0.004266
Si Si6 0.212088 0.699487 0.706080
O O1 0.441227 0.827804 0.455233
O O2 0.432173 0.719070 0.606799
O O3 0.215423 0.959564 0.578627
O O4 0.071125 0.958182 0.402156
O O5 0.696738 0.025031 0.525439
O O6 0.720467 0.109602 0.354738
O O7 0.126421 0.142798 0.450038
O O8 0.065163 0.402875 0.686260
O O9 0.056665 0.593944 0.692130
O O10 0.422680 0.264154 0.282815
O O11 0.953473 0.225065 0.223637
O O12 0.920047 0.199087 0.013074
#
# Coordination Sequence:
#
# PCOD9140625 Si02
#       6
#     4   4   4   4   4   4
#     4  12  24  44  76 109 143 198 247 308 372 456
#     4  11  28  46  76 110 153 200 252 311 378 454
#     4  11  27  47  78 110 150 201 250 309 385 442
#     4  12  28  47  73 110 152 195 260 311 373 446
#     4  11  25  43  75 103 145 195 250 301 384 441
#     4  11  26  45  70 106 147 195 247 312 370 451
#
# _framework density 27.485479999999999
#
# number of rings (size 3 to 8) (size 9 to 14) (size 15 to 20)
#    0.000    0.667    3.333    2.000   11.667    2.667 
#    0.000    0.000    0.000    0.000    0.000    0.000 
#    0.000    0.000    0.000    0.000    0.000    0.000 
#
# Total GULP energy -67183.494076 kJ/mol
# GULP energy per Si atom -5598.624506 kJ/mol
# Density = 2.742292 g / cm^3
# Si number density = 27.485480 Si / 1000 Ang^3
#
#
#
# Elastic Constant Matrix: (Units=GPa)
#
#
# Indices 1 2 3 4 5 6 
#
# 1 175.5328 39.6023 48.4422 0.0000 34.0266 0.0000
# 2 39.6023 155.4714 64.0579 0.0000 28.0027 0.0000
# 3 48.4422 64.0579 86.8230 0.0000 18.6831 0.0000
# 4 0.0000 0.0000 0.0000 50.2684 0.0000 15.8255
# 5 34.0266 28.0027 18.6831 0.0000 38.1771 0.0000
# 6 0.0000 0.0000 0.0000 15.8255 0.0000 57.9364
#
#
#
# Elastic Compliance Matrix: (Units=1/GPa)
#
#
# Indices 1 2 3 4 5 6 
#
# 1 0.007585 0.000442 -0.003391 0.000000 -0.005425 0.000000
# 2 0.000442 0.009802 -0.006535 0.000000 -0.004386 0.000000
# 3 -0.003391 -0.006535 0.018497 0.000000 -0.001237 0.000000
# 4 0.000000 0.000000 0.000000 0.021765 0.000000 -0.005945
# 5 -0.005425 -0.004386 -0.001237 0.000000 0.034851 0.000000
# 6 0.000000 0.000000 0.000000 -0.005945 0.000000 0.018884
#
#
# Mechanical properties :
#
#
# Convention : Reuss Voigt Hill
#
# Bulk Modulus (GPa) = 59.11224 80.22579 69.66902
# Shear Modulus (GPa) = 36.76777 46.99136 41.87957
#
# Velocity S-wave (km/s) = 3.66145 4.13931 3.90769
# Velocity P-wave (km/s) = 6.27920 7.21783 6.76481
#
# Compressibility (1/GPa) = 0.01691697
#
# Stress axis : x y z
#
# Youngs Moduli (GPa) = 131.84778 102.02197 54.06313
#
# Poissons Ratio (x) = -0.04511 0.18330
# Poissons Ratio (y) = -0.05830 0.35329
# Poissons Ratio (z) = 0.44704 0.66669
#
# Static dielectric constant tensor:
#      x y z
#    x 2.118630 0.000000 -0.003270 
#    y 0.000000 2.144120 0.000000 
#    z -0.003270 0.000000 2.330590 
# 
# From -- ./inp_files/21764.got.cif
#   From: 2010.05.17/outbox.cif.g08.bks.cpg/sg9_11_cif.got.tgz:21764.got - 2010.06.03 20:04:27.
