data_PCOD9140312
_publ_section_title
;
Structure prediction by ZEFSAII (Michael W. Deem and Ramdas Pophale) SiO2 
 PCOD9140312
Probable space group: C C
;
_chemical_formula_sum "Si O2"
_cell_formula_units_Z 28
_cell_length_a 11.889511
_cell_length_b 8.434398
_cell_length_c 10.469879
_cell_angle_alpha 90.000000
_cell_angle_beta 82.659195
_cell_angle_gamma 90.000000
_cell_volume 1041.323020
_symmetry_space_group_name_H-M "C C"
_symmetry_group_IT_number 9
_symmetry_cell_setting 'monoclinic'
loop_
_space_group_symop_operation_xyz
x,y,z
x,-y,1/2+z
1/2+x,1/2+y,z
1/2+x,1/2-y,1/2+z
loop_
_atom_site_type_symbol
_atom_site_label
_atom_site_fract_x
_atom_site_fract_y
_atom_site_fract_z
Si Si1 0.715120 0.952672 0.383110
Si Si2 0.649102 0.699447 0.598855
Si Si3 0.433551 0.731987 0.811170
Si Si4 0.018686 0.689718 0.741892
Si Si5 0.511553 0.441727 0.537105
Si Si6 0.836695 0.486924 0.681563
Si Si7 0.839185 0.793853 0.981661
O O1 0.691571 0.847725 0.512653
O O2 0.837916 0.902877 0.311159
O O3 0.622725 0.901492 0.292093
O O4 0.730012 0.132971 0.426706
O O5 0.534177 0.734728 0.693335
O O6 0.613391 0.564717 0.501158
O O7 0.741765 0.619450 0.676844
O O8 0.360011 0.892550 0.810451
O O9 0.492892 0.690318 0.934142
O O10 0.038162 0.855624 0.666938
O O11 0.955695 0.577310 0.649312
O O12 0.928057 0.728052 0.865724
O O13 0.401181 0.555256 0.539454
O O14 0.816203 0.344867 0.585147
#
# Coordination Sequence:
#
# PCOD9140312 Si02
#       7
#     4   4   4   4   4   4   4
#     4  11  26  52  88 113 168 222 270 338 432 475
#     4  12  26  51  81 118 162 216 276 340 416 493
#     4  11  26  49  77 118 163 210 272 342 401 490
#     4  12  27  50  82 126 166 219 279 338 412 509
#     4  11  23  48  80 112 174 213 263 341 411 481
#     4  12  28  46  82 115 165 214 284 332 415 480
#     4  11  26  52  78 120 172 208 282 349 403 496
#
# _framework density 26.888870000000001
#
# number of rings (size 3 to 8) (size 9 to 14) (size 15 to 20)
#    0.000    0.571    2.857    4.286    6.000    2.286 
#    7.714    1.429    0.000    0.000    0.000    0.000 
#    0.000    0.000    0.000    0.000    0.000    0.000 
#
# Total GULP energy -78452.900368 kJ/mol
# GULP energy per Si atom -5603.778598 kJ/mol
# Density = 2.682767 g / cm^3
# Si number density = 26.888870 Si / 1000 Ang^3
#
#
#
# Elastic Constant Matrix: (Units=GPa)
#
#
# Indices 1 2 3 4 5 6 
#
# 1 183.0721 64.9499 55.2490 0.0000 23.4220 0.0000
# 2 64.9499 124.3883 53.5792 0.0000 15.6030 0.0000
# 3 55.2490 53.5792 112.8681 0.0000 -3.3759 0.0000
# 4 0.0000 0.0000 0.0000 52.2810 0.0000 18.1033
# 5 23.4220 15.6030 -3.3759 0.0000 40.0416 0.0000
# 6 0.0000 0.0000 0.0000 18.1033 0.0000 67.0814
#
#
#
# Elastic Compliance Matrix: (Units=1/GPa)
#
#
# Indices 1 2 3 4 5 6 
#
# 1 0.007589 -0.002315 -0.002729 0.000000 -0.003767 0.000000
# 2 -0.002315 0.011630 -0.004494 0.000000 -0.003557 0.000000
# 3 -0.002729 -0.004494 0.012461 0.000000 0.004398 0.000000
# 4 0.000000 0.000000 0.000000 0.021099 0.000000 -0.005694
# 5 -0.003767 -0.003557 0.004398 0.000000 0.028934 0.000000
# 6 0.000000 0.000000 0.000000 -0.005694 0.000000 0.016444
#
#
# Mechanical properties :
#
#
# Convention : Reuss Voigt Hill
#
# Bulk Modulus (GPa) = 79.33744 85.32053 82.32899
# Shear Modulus (GPa) = 41.17485 48.31749 44.74617
#
# Velocity S-wave (km/s) = 3.91742 4.24362 4.08378
# Velocity P-wave (km/s) = 7.07328 7.47066 7.27469
#
# Compressibility (1/GPa) = 0.01260439
#
# Stress axis : x y z
#
# Youngs Moduli (GPa) = 131.76977 85.98493 80.25348
#
# Poissons Ratio (x) = 0.19903 0.21899
# Poissons Ratio (y) = 0.30501 0.36067
# Poissons Ratio (z) = 0.35956 0.38643
#
# Static dielectric constant tensor:
#      x y z
#    x 2.084770 0.000000 0.039940 
#    y 0.000000 2.172260 0.000000 
#    z 0.039940 0.000000 2.147010 
# 
# From -- ./inp_files/15942.got.cif
#   From: 2010.05.17/outbox.cif.g08.bks.cpg/sg9_8_cif.got.tgz:15942.got - 2010.06.03 20:04:27.
