data_PCOD9140468
_publ_section_title
;
Structure prediction by ZEFSAII (Michael W. Deem and Ramdas Pophale) SiO2 
 PCOD9140468
Probable space group: C C
;
_chemical_formula_sum "Si O2"
_cell_formula_units_Z 28
_cell_length_a 7.835975
_cell_length_b 11.646065
_cell_length_c 12.255393
_cell_angle_alpha 90.000000
_cell_angle_beta 103.286527
_cell_angle_gamma 90.000000
_cell_volume 1088.469576
_symmetry_space_group_name_H-M "C C"
_symmetry_group_IT_number 9
_symmetry_cell_setting 'monoclinic'
loop_
_space_group_symop_operation_xyz
x,y,z
x,-y,1/2+z
1/2+x,1/2+y,z
1/2+x,1/2-y,1/2+z
loop_
_atom_site_type_symbol
_atom_site_label
_atom_site_fract_x
_atom_site_fract_y
_atom_site_fract_z
Si Si1 0.010110 0.244226 0.715860
Si Si2 0.195122 0.260325 0.958662
Si Si3 0.069364 0.860566 0.668334
Si Si4 0.280740 0.493277 0.503395
Si Si5 0.684623 0.857057 0.279670
Si Si6 0.795780 0.428953 0.181731
Si Si7 0.905076 0.436835 0.523112
O O1 0.059140 0.288907 0.843503
O O2 0.177571 0.179955 0.689834
O O3 0.843350 0.161533 0.716912
O O4 0.959413 0.345936 0.626417
O O5 0.318327 0.372515 0.987985
O O6 0.303304 0.149662 0.929733
O O7 0.110116 0.211329 0.059817
O O8 0.893094 0.927786 0.611463
O O9 0.093513 0.768730 0.767433
O O10 0.204267 0.960637 0.720646
O O11 0.279663 0.414925 0.395484
O O12 0.077633 0.493811 0.505498
O O13 0.505437 0.926196 0.228518
O O14 0.779337 0.465523 0.051627
#
# Coordination Sequence:
#
# PCOD9140468 Si02
#       7
#     4   4   4   4   4   4   4
#     4  12  24  48  74 106 149 189 250 309 363 448
#     4  11  24  46  69 107 149 184 255 313 358 454
#     4  11  25  47  72 111 148 191 254 309 366 454
#     4  12  26  45  80 107 149 209 241 310 388 425
#     4  12  25  48  74 110 148 196 251 308 371 443
#     4  11  25  44  70 101 144 193 235 303 376 423
#     4  11  25  46  71 106 149 190 246 306 364 449
#
# _framework density 25.724191999999999
#
# number of rings (size 3 to 8) (size 9 to 14) (size 15 to 20)
#    0.000    0.571    4.286    4.286    2.000    0.000 
#    5.143    1.429    0.000    0.000    0.000    0.000 
#    0.000    0.000    0.000    0.000    0.000    0.000 
#
# Total GULP energy -78159.143232 kJ/mol
# GULP energy per Si atom -5582.795945 kJ/mol
# Density = 2.566564 g / cm^3
# Si number density = 25.724192 Si / 1000 Ang^3
#
#
#
# Elastic Constant Matrix: (Units=GPa)
#
#
# Indices 1 2 3 4 5 6 
#
# 1 84.8298 21.4823 6.9154 0.0000 3.7259 0.0000
# 2 21.4823 101.4376 11.8284 0.0000 0.3074 0.0000
# 3 6.9154 11.8284 66.8281 0.0000 11.5784 0.0000
# 4 0.0000 0.0000 0.0000 34.4209 0.0000 2.6265
# 5 3.7259 0.3074 11.5784 0.0000 35.1288 0.0000
# 6 0.0000 0.0000 0.0000 2.6265 0.0000 48.3144
#
#
#
# Elastic Compliance Matrix: (Units=1/GPa)
#
#
# Indices 1 2 3 4 5 6 
#
# 1 0.012542 -0.002577 -0.000652 0.000000 -0.001093 0.000000
# 2 -0.002577 0.010605 -0.001741 0.000000 0.000754 0.000000
# 3 -0.000652 -0.001741 0.016253 0.000000 -0.005272 0.000000
# 4 0.000000 0.000000 0.000000 0.029173 0.000000 -0.001586
# 5 -0.001093 0.000754 -0.005272 0.000000 0.030314 0.000000
# 6 0.000000 0.000000 0.000000 -0.001586 0.000000 0.020784
#
#
# Mechanical properties :
#
#
# Convention : Reuss Voigt Hill
#
# Bulk Modulus (GPa) = 33.94533 37.06087 35.50310
# Shear Modulus (GPa) = 35.86010 37.76412 36.81211
#
# Velocity S-wave (km/s) = 3.73771 3.83566 3.78700
# Velocity P-wave (km/s) = 5.64374 5.83563 5.74049
#
# Compressibility (1/GPa) = 0.02945913
#
# Stress axis : x y z
#
# Youngs Moduli (GPa) = 79.73197 94.29775 61.52740
#
# Poissons Ratio (x) = 0.24298 0.04014
# Poissons Ratio (y) = 0.20545 0.10712
# Poissons Ratio (z) = 0.05202 0.16418
#
# Static dielectric constant tensor:
#      x y z
#    x 2.068110 0.000000 -0.023460 
#    y 0.000000 2.053400 0.000000 
#    z -0.023460 0.000000 2.132530 
# 
# From -- ./inp_files/22775.got.cif
#   From: 2010.05.17/outbox.cif.g08.bks.cpg/sg9_12_cif.got.tgz:22775.got - 2010.06.03 20:04:27.
