data_PCOD9140469
_publ_section_title
;
Structure prediction by ZEFSAII (Michael W. Deem and Ramdas Pophale) SiO2 
 PCOD9140469
Probable space group: C C
;
_chemical_formula_sum "Si O2"
_cell_formula_units_Z 28
_cell_length_a 12.252256
_cell_length_b 17.189135
_cell_length_c 9.401739
_cell_angle_alpha 90.000000
_cell_angle_beta 36.066034
_cell_angle_gamma 90.000000
_cell_volume 1165.695302
_symmetry_space_group_name_H-M "C C"
_symmetry_group_IT_number 9
_symmetry_cell_setting 'monoclinic'
loop_
_space_group_symop_operation_xyz
x,y,z
x,-y,1/2+z
1/2+x,1/2+y,z
1/2+x,1/2-y,1/2+z
loop_
_atom_site_type_symbol
_atom_site_label
_atom_site_fract_x
_atom_site_fract_y
_atom_site_fract_z
Si Si1 0.014900 0.344432 0.150360
Si Si2 0.024642 0.859243 0.310220
Si Si3 0.280985 0.367530 0.125309
Si Si4 0.173779 0.302333 0.525554
Si Si5 0.083251 0.835880 0.568779
Si Si6 0.573210 0.985664 0.888738
Si Si7 0.872061 0.571709 0.326683
O O1 0.104580 0.354453 0.209539
O O2 0.794877 0.353503 0.381854
O O3 0.062204 0.256196 0.060154
O O4 0.094629 0.406196 0.954282
O O5 0.032130 0.872245 0.470680
O O6 0.817877 0.851768 0.468863
O O7 0.121099 0.777457 0.159359
O O8 0.160003 0.921494 0.094448
O O9 0.270269 0.307191 0.267708
O O10 0.248083 0.455996 0.213364
O O11 0.453699 0.356929 0.838375
O O12 0.977996 0.345719 0.709793
O O13 0.498355 0.971659 0.810324
O O14 0.405439 0.029720 0.144708
#
# Coordination Sequence:
#
# PCOD9140469 Si02
#       7
#     4   4   4   4   4   4   4
#     4  12  24  46  76 107 149 189 258 304 377 439
#     4  12  24  44  73 107 145 184 248 305 372 440
#     4  11  28  47  74 109 150 198 245 315 375 452
#     4  11  26  43  71 106 144 187 241 306 371 430
#     4  12  26  43  80 114 140 201 249 316 368 448
#     4  11  24  49  72  99 148 199 237 301 378 441
#     4  11  24  46  70 100 142 194 234 303 369 442
#
# _framework density 24.019998999999999
#
# number of rings (size 3 to 8) (size 9 to 14) (size 15 to 20)
#    0.000    0.571    5.714    1.714    4.000    2.286 
#    2.571    2.857    0.000    0.000    0.000    0.000 
#    0.000    0.000    0.000    0.000    0.000    0.000 
#
# Total GULP energy -78366.247141 kJ/mol
# GULP energy per Si atom -5597.589081 kJ/mol
# Density = 2.396533 g / cm^3
# Si number density = 24.019999 Si / 1000 Ang^3
#
#
#
# Elastic Constant Matrix: (Units=GPa)
#
#
# Indices 1 2 3 4 5 6 
#
# 1 106.5277 -20.3194 55.5384 -0.0020 -7.5661 0.0007
# 2 -20.3194 58.7549 46.3056 0.0008 -5.8684 -0.0006
# 3 55.5384 46.3056 145.7190 -0.0042 10.0866 0.0021
# 4 -0.0020 0.0008 -0.0042 26.1955 -0.0003 8.7866
# 5 -7.5661 -5.8684 10.0866 -0.0003 42.6934 0.0024
# 6 0.0007 -0.0006 0.0021 8.7866 0.0024 13.8030
#
#
#
# Elastic Compliance Matrix: (Units=1/GPa)
#
#
# Indices 1 2 3 4 5 6 
#
# 1 0.023037 0.022136 -0.016579 -0.000002 0.011042 0.000002
# 2 0.022136 0.045034 -0.023837 -0.000005 0.015745 0.000005
# 3 -0.016579 -0.023837 0.021538 0.000004 -0.011303 -0.000004
# 4 -0.000002 -0.000005 0.000004 0.048538 0.000000 -0.030898
# 5 0.011042 0.015745 -0.011303 0.000000 0.030214 -0.000004
# 6 0.000002 0.000005 -0.000004 -0.030898 -0.000004 0.092117
#
#
# Mechanical properties :
#
#
# Convention : Reuss Voigt Hill
#
# Bulk Modulus (GPa) = 18.85040 52.67231 35.76136
# Shear Modulus (GPa) = 15.88705 31.83687 23.86196
#
# Velocity S-wave (km/s) = 2.57458 3.64460 3.15528
# Velocity P-wave (km/s) = 4.08690 6.29976 5.30988
#
# Compressibility (1/GPa) = 0.05304926
#
# Stress axis : x y z
#
# Youngs Moduli (GPa) = 43.40851 22.20546 46.42884
#
# Poissons Ratio (x) = -0.49153 0.76972
# Poissons Ratio (y) = -0.96087 1.10673
# Poissons Ratio (z) = 0.71965 0.52931
#
# Static dielectric constant tensor:
#      x y z
#    x 1.872000 0.000000 0.011470 
#    y 0.000000 2.040820 0.000000 
#    z 0.011470 0.000000 1.889890 
# 
# From -- ./inp_files/8246.got.cif
#   From: 2010.05.17/outbox.cif.g08.bks.cpg/sg9_5_cif.got.tgz:8246.got - 2010.06.03 20:04:27.
