data_PCOD9140646
_publ_section_title
;
Structure prediction by ZEFSAII (Michael W. Deem and Ramdas Pophale) SiO2 
 PCOD9140646
Probable space group: C C
;
_chemical_formula_sum "Si O2"
_cell_formula_units_Z 32
_cell_length_a 7.605859
_cell_length_b 6.692344
_cell_length_c 28.982848
_cell_angle_alpha 90.000000
_cell_angle_beta 114.325393
_cell_angle_gamma 90.000000
_cell_volume 1344.284571
_symmetry_space_group_name_H-M "C C"
_symmetry_group_IT_number 9
_symmetry_cell_setting 'monoclinic'
loop_
_space_group_symop_operation_xyz
x,y,z
x,-y,1/2+z
1/2+x,1/2+y,z
1/2+x,1/2-y,1/2+z
loop_
_atom_site_type_symbol
_atom_site_label
_atom_site_fract_x
_atom_site_fract_y
_atom_site_fract_z
Si Si1 0.130620 0.109446 0.641040
Si Si2 0.980967 0.650251 0.794660
Si Si3 0.187721 0.263741 0.925530
Si Si4 0.380589 0.456350 0.860586
Si Si5 0.908196 0.166229 0.056888
Si Si6 0.545678 0.949894 0.154956
Si Si7 0.509813 0.023846 0.491745
Si Si8 0.126450 0.119307 0.227779
O O1 0.344492 0.018568 0.660524
O O2 0.130161 0.345382 0.645948
O O3 0.040545 0.023459 0.678587
O O4 0.016842 0.035791 0.583834
O O5 0.184318 0.536988 0.816768
O O6 0.989294 0.810560 0.754166
O O7 0.957203 0.770522 0.839479
O O8 0.808210 0.495792 0.768373
O O9 0.324715 0.385690 0.905877
O O10 0.074042 0.408075 0.947708
O O11 0.319146 0.109905 0.968505
O O12 0.036924 0.132056 0.880086
O O13 0.975904 0.317222 0.104254
O O14 0.972073 0.276416 0.017275
O O15 0.685068 0.107165 0.030793
O O16 0.673099 0.819901 0.203673
#
# Coordination Sequence:
#
# PCOD9140646 Si02
#       8
#     4   4   4   4   4   4   4   4
#     4  11  25  45  72 100 154 189 237 289 350 412
#     4  12  26  45  76 104 142 182 242 291 348 435
#     4  12  26  48  72 104 140 182 230 297 368 422
#     4  12  26  48  72 104 140 182 230 297 368 422
#     4  11  26  43  70 111 142 192 238 291 348 415
#     4  11  25  45  72 100 154 189 237 289 350 412
#     4  12  26  45  76 104 142 182 242 291 348 435
#     4  11  26  47  70 111 142 192 238 291 348 415
#
# _framework density 23.804483000000001
#
# number of rings (size 3 to 8) (size 9 to 14) (size 15 to 20)
#    0.000    0.500    1.250    6.000    7.000    5.000 
#    0.000    0.000    0.000    0.000    0.000    0.000 
#    0.000    0.000    0.000    0.000    0.000    0.000 
#
# Total GULP energy -89673.462239 kJ/mol
# GULP energy per Si atom -5604.591390 kJ/mol
# Density = 2.375030 g / cm^3
# Si number density = 23.804483 Si / 1000 Ang^3
#
#
#
# Elastic Constant Matrix: (Units=GPa)
#
#
# Indices 1 2 3 4 5 6 
#
# 1 68.8650 15.4587 -1.9345 0.0000 2.0097 0.0000
# 2 15.4587 80.8774 14.9799 0.0000 8.4608 0.0000
# 3 -1.9345 14.9799 52.7475 0.0000 3.9183 0.0000
# 4 0.0000 0.0000 0.0000 41.8744 0.0000 -2.9691
# 5 2.0097 8.4608 3.9183 0.0000 41.5530 0.0000
# 6 0.0000 0.0000 0.0000 -2.9691 0.0000 34.9369
#
#
#
# Elastic Compliance Matrix: (Units=1/GPa)
#
#
# Indices 1 2 3 4 5 6 
#
# 1 0.015281 -0.003170 0.001478 0.000000 -0.000233 0.000000
# 2 -0.003170 0.013935 -0.003902 0.000000 -0.002316 0.000000
# 3 0.001478 -0.003902 0.020208 0.000000 -0.001183 0.000000
# 4 0.000000 0.000000 0.000000 0.024026 0.000000 0.002042
# 5 -0.000233 -0.002316 -0.001183 0.000000 0.024660 0.000000
# 6 0.000000 0.000000 0.000000 0.002042 0.000000 0.028797
#
#
# Mechanical properties :
#
#
# Convention : Reuss Voigt Hill
#
# Bulk Modulus (GPa) = 26.15263 28.83310 27.49287
# Shear Modulus (GPa) = 33.14758 35.27190 34.20974
#
# Velocity S-wave (km/s) = 3.73566 3.85351 3.79504
# Velocity P-wave (km/s) = 5.44217 5.65138 5.54776
#
# Compressibility (1/GPa) = 0.03823707
#
# Stress axis : x y z
#
# Youngs Moduli (GPa) = 65.44025 71.76016 49.48443
#
# Poissons Ratio (x) = 0.22749 -0.07314
# Poissons Ratio (y) = 0.20746 0.19307
# Poissons Ratio (z) = -0.09672 0.27999
#
# Static dielectric constant tensor:
#      x y z
#    x 1.891760 0.000000 -0.015350 
#    y 0.000000 1.880120 0.000000 
#    z -0.015350 0.000000 1.911640 
# 
# From -- ./inp_files/37125.got.cif
#   From: 2010.05.17/outbox.cif.g08.bks.cpg/sg9_19_cif.got.tgz:37125.got - 2010.06.03 20:04:27.
