data_PCOD9140101
_publ_section_title
;
Structure prediction by ZEFSAII (Michael W. Deem and Ramdas Pophale) SiO2 
 PCOD9140101
Probable space group: C C
;
_chemical_formula_sum "Si O2"
_cell_formula_units_Z 32
_cell_length_a 14.426850
_cell_length_b 11.203289
_cell_length_c 17.518561
_cell_angle_alpha 90.000000
_cell_angle_beta 151.271636
_cell_angle_gamma 90.000000
_cell_volume 1360.978793
_symmetry_space_group_name_H-M "C C"
_symmetry_group_IT_number 9
_symmetry_cell_setting 'monoclinic'
loop_
_space_group_symop_operation_xyz
x,y,z
x,-y,1/2+z
1/2+x,1/2+y,z
1/2+x,1/2-y,1/2+z
loop_
_atom_site_type_symbol
_atom_site_label
_atom_site_fract_x
_atom_site_fract_y
_atom_site_fract_z
Si Si1 0.207130 0.844291 0.057080
Si Si2 0.485322 0.607036 0.544777
Si Si3 0.535793 0.134979 0.624727
Si Si4 0.704255 0.534499 0.838687
Si Si5 0.026782 0.195275 0.262462
Si Si6 0.351032 0.896443 0.692781
Si Si7 0.201483 0.757491 0.443109
Si Si8 0.926097 0.141755 0.951248
O O1 0.039400 0.854078 0.998460
O O2 0.320074 0.721460 0.149524
O O3 0.339320 0.961837 0.168976
O O4 0.147726 0.835583 0.925693
O O5 0.678945 0.588993 0.735961
O O6 0.342667 0.693333 0.485790
O O7 0.381055 0.479538 0.463397
O O8 0.548553 0.190704 0.720337
O O9 0.763145 0.136696 0.767793
O O10 0.424137 0.235365 0.495767
O O11 0.414202 0.015206 0.517940
O O12 0.564701 0.419751 0.739120
O O13 0.619220 0.629783 0.836596
O O14 0.324939 0.822507 0.596528
O O15 0.546460 0.836499 0.865517
O O16 0.149509 0.872588 0.589976
#
# Coordination Sequence:
#
# PCOD9140101 Si02
#       8
#     4   4   4   4   4   4   4   4
#     4  11  27  45  69 107 145 182 247 309 358 436
#     4  11  27  46  69 104 150 191 243 298 374 448
#     4  12  22  42  76 104 146 190 247 308 365 435
#     4  12  25  44  70 108 139 196 249 290 369 451
#     4  12  22  44  73 101 142 186 242 304 359 432
#     4  11  25  46  67 102 145 183 249 297 366 440
#     4  12  25  45  70  97 145 197 232 299 370 438
#     4  11  23  42  70 107 138 189 245 309 363 426
#
# _framework density 23.51249
#
# number of rings (size 3 to 8) (size 9 to 14) (size 15 to 20)
#    0.000    0.500    6.250    0.750    5.250    1.000 
#    2.250    0.000    0.000    0.000    0.000    0.000 
#    0.000    0.000    0.000    0.000    0.000    0.000 
#
# Total GULP energy -89188.158158 kJ/mol
# GULP energy per Si atom -5574.259885 kJ/mol
# Density = 2.345897 g / cm^3
# Si number density = 23.512490 Si / 1000 Ang^3
#
#
#
# Elastic Constant Matrix: (Units=GPa)
#
#
# Indices 1 2 3 4 5 6 
#
# 1 55.7461 25.2503 1.1493 -0.0010 11.3737 -0.0004
# 2 25.2503 57.1738 2.7523 -0.0006 9.8922 0.0000
# 3 1.1493 2.7523 75.9371 -0.0015 4.3817 0.0002
# 4 -0.0010 -0.0006 -0.0015 31.2125 -0.0002 2.1610
# 5 11.3737 9.8922 4.3817 -0.0002 26.9280 0.0003
# 6 -0.0004 0.0000 0.0002 2.1610 0.0003 41.4013
#
#
#
# Elastic Compliance Matrix: (Units=1/GPa)
#
#
# Indices 1 2 3 4 5 6 
#
# 1 0.023457 -0.009240 0.000359 0.000001 -0.006572 0.000000
# 2 -0.009240 0.022323 -0.000425 0.000000 -0.004229 0.000000
# 3 0.000359 -0.000425 0.013303 0.000001 -0.002160 0.000000
# 4 0.000001 0.000000 0.000001 0.032155 0.000000 -0.001678
# 5 -0.006572 -0.004229 -0.002160 0.000000 0.041817 0.000000
# 6 0.000000 0.000000 0.000000 -0.001678 0.000000 0.024241
#
#
# Mechanical properties :
#
#
# Convention : Reuss Voigt Hill
#
# Bulk Modulus (GPa) = 24.70856 27.46232 26.08544
# Shear Modulus (GPa) = 26.39923 30.55538 28.47730
#
# Velocity S-wave (km/s) = 3.35442 3.60882 3.48394
# Velocity P-wave (km/s) = 5.05315 5.39166 5.22515
#
# Compressibility (1/GPa) = 0.04047181
#
# Stress axis : x y z
#
# Youngs Moduli (GPa) = 42.63099 44.79610 75.16866
#
# Poissons Ratio (x) = 0.41391 -0.02699
# Poissons Ratio (y) = 0.39391 0.03197
# Poissons Ratio (z) = -0.01531 0.01905
#
# Static dielectric constant tensor:
#      x y z
#    x 1.951810 0.000000 0.041940 
#    y 0.000000 1.913910 0.000000 
#    z 0.041940 0.000000 2.096640 
# 
# From -- ./inp_files/30719.got.cif
#   From: 2010.05.17/outbox.cif.g08.bks.cpg/sg9_16_cif.got.tgz:30719.got - 2010.06.03 20:04:27.
