data_PCOD9140242
_publ_section_title
;
Structure prediction by ZEFSAII (Michael W. Deem and Ramdas Pophale) SiO2 
 PCOD9140242
Probable space group: C C
;
_chemical_formula_sum "Si O2"
_cell_formula_units_Z 32
_cell_length_a 8.715098
_cell_length_b 17.192973
_cell_length_c 14.103328
_cell_angle_alpha 90.000000
_cell_angle_beta 39.036221
_cell_angle_gamma 90.000000
_cell_volume 1330.930841
_symmetry_space_group_name_H-M "C C"
_symmetry_group_IT_number 9
_symmetry_cell_setting 'monoclinic'
loop_
_space_group_symop_operation_xyz
x,y,z
x,-y,1/2+z
1/2+x,1/2+y,z
1/2+x,1/2-y,1/2+z
loop_
_atom_site_type_symbol
_atom_site_label
_atom_site_fract_x
_atom_site_fract_y
_atom_site_fract_z
Si Si1 0.170330 0.477322 0.811380
Si Si2 0.169482 0.990895 0.140569
Si Si3 0.564388 0.196625 0.357471
Si Si4 0.874276 0.701330 0.850806
Si Si5 0.181083 0.697861 0.077866
Si Si6 0.370426 0.530226 0.004245
Si Si7 0.262012 0.832501 0.627046
Si Si8 0.393615 0.944795 0.208622
O O1 0.386906 0.525766 0.756379
O O2 0.170033 0.386135 0.835969
O O3 0.263677 0.479929 0.659908
O O4 0.887044 0.498714 0.959274
O O5 0.168309 0.079151 0.181139
O O6 0.274759 0.928014 0.163366
O O7 0.672234 0.256978 0.382135
O O8 0.281970 0.217652 0.500754
O O9 0.616243 0.204381 0.220392
O O10 0.943205 0.624630 0.757445
O O11 0.083990 0.765239 0.748200
O O12 0.805143 0.682363 0.992933
O O13 0.355886 0.621752 0.988946
O O14 0.984794 0.675495 0.092641
O O15 0.149796 0.485453 0.057478
O O16 0.656248 0.507723 0.863645
#
# Coordination Sequence:
#
# PCOD9140242 Si02
#       8
#     4   4   4   4   4   4   4   4
#     4  11  25  45  72 107 144 197 245 309 378 455
#     4  12  26  46  74 108 152 193 253 312 378 453
#     4  11  24  44  75 103 147 193 256 307 382 453
#     4  12  26  46  78 106 149 204 258 309 386 459
#     4  11  24  46  69 106 146 195 247 321 371 451
#     4  11  23  46  72 101 148 190 250 307 379 449
#     4  12  26  49  73 109 155 198 253 323 379 456
#     4  12  26  46  73 108 145 200 248 314 379 450
#
# _framework density 24.043323000000001
#
# number of rings (size 3 to 8) (size 9 to 14) (size 15 to 20)
#    0.000    0.500    3.750    4.500    3.500    1.000 
#    9.000    0.000    0.000    0.000    0.000    0.000 
#    0.000    0.000    0.000    0.000    0.000    0.000 
#
# Total GULP energy -89185.255961 kJ/mol
# GULP energy per Si atom -5574.078498 kJ/mol
# Density = 2.398860 g / cm^3
# Si number density = 24.043323 Si / 1000 Ang^3
#
#
#
# Elastic Constant Matrix: (Units=GPa)
#
#
# Indices 1 2 3 4 5 6 
#
# 1 102.3318 7.0785 10.8928 -0.0017 7.4297 -0.0002
# 2 7.0785 37.5235 -1.0200 -0.0002 -3.3276 -0.0004
# 3 10.8928 -1.0200 106.7547 -0.0005 5.9008 0.0008
# 4 -0.0017 -0.0002 -0.0005 37.9371 0.0004 1.0628
# 5 7.4297 -3.3276 5.9008 0.0004 37.8063 -0.0005
# 6 -0.0002 -0.0004 0.0008 1.0628 -0.0005 27.3838
#
#
#
# Elastic Compliance Matrix: (Units=1/GPa)
#
#
# Indices 1 2 3 4 5 6 
#
# 1 0.010168 -0.002124 -0.000945 0.000000 -0.002038 0.000000
# 2 -0.002124 0.027305 0.000325 0.000000 0.002770 0.000000
# 3 -0.000945 0.000325 0.009537 0.000000 -0.001274 0.000000
# 4 0.000000 0.000000 0.000000 0.026388 0.000000 -0.001024
# 5 -0.002038 0.002770 -0.001274 0.000000 0.027294 0.000001
# 6 0.000000 0.000000 0.000000 -0.001024 0.000001 0.036558
#
#
# Mechanical properties :
#
#
# Convention : Reuss Voigt Hill
#
# Bulk Modulus (GPa) = 24.08477 31.16808 27.62642
# Shear Modulus (GPa) = 31.93260 35.93599 33.93429
#
# Velocity S-wave (km/s) = 3.64830 3.87024 3.76091
# Velocity P-wave (km/s) = 5.27122 5.74136 5.51130
#
# Compressibility (1/GPa) = 0.04152002
#
# Stress axis : x y z
#
# Youngs Moduli (GPa) = 98.35128 36.62304 104.85209
#
# Poissons Ratio (x) = 0.07780 0.09910
# Poissons Ratio (y) = 0.20894 -0.03403
# Poissons Ratio (z) = 0.09296 -0.01189
#
# Static dielectric constant tensor:
#      x y z
#    x 2.166490 0.000000 -0.060480 
#    y 0.000000 1.894820 0.000000 
#    z -0.060480 0.000000 2.036520 
# 
# From -- ./inp_files/23666.got.cif
#   From: 2010.05.17/outbox.cif.g08.bks.cpg/sg9_12_cif.got.tgz:23666.got - 2010.06.03 20:04:27.
