data_PCOD9140339
_publ_section_title
;
Structure prediction by ZEFSAII (Michael W. Deem and Ramdas Pophale) SiO2 
 PCOD9140339
Probable space group: C C
;
_chemical_formula_sum "Si O2"
_cell_formula_units_Z 24
_cell_length_a 9.323671
_cell_length_b 23.971254
_cell_length_c 9.346301
_cell_angle_alpha 90.000000
_cell_angle_beta 149.351898
_cell_angle_gamma 90.000000
_cell_volume 1064.845260
_symmetry_space_group_name_H-M "C C"
_symmetry_group_IT_number 9
_symmetry_cell_setting 'monoclinic'
loop_
_space_group_symop_operation_xyz
x,y,z
x,-y,1/2+z
1/2+x,1/2+y,z
1/2+x,1/2-y,1/2+z
loop_
_atom_site_type_symbol
_atom_site_label
_atom_site_fract_x
_atom_site_fract_y
_atom_site_fract_z
Si Si1 0.778910 0.214655 0.450920
Si Si2 0.805220 0.865335 0.729878
Si Si3 0.432686 0.596398 0.027604
Si Si4 0.554186 0.885678 0.948052
Si Si5 0.772797 0.434165 0.260144
Si Si6 0.067459 0.508462 0.280626
O O1 0.832549 0.192203 0.336745
O O2 0.625255 0.165264 0.405136
O O3 0.072722 0.232544 0.771060
O O4 0.933706 0.874192 0.683133
O O5 0.477212 0.880320 0.437012
O O6 0.961782 0.911699 0.963673
O O7 0.729627 0.602249 0.204185
O O8 0.206148 0.624043 0.728576
O O9 0.319021 0.532756 0.948102
O O10 0.666269 0.942070 0.969613
O O11 0.866629 0.469853 0.204555
O O12 0.875998 0.467229 0.488701
#
# Coordination Sequence:
#
# PCOD9140339 Si02
#       6
#     4   4   4   4   4   4
#     4  12  27  50  75 105 132 183 248 308 363 406
#     4  11  25  46  69  99 142 183 237 290 340 426
#     4  11  26  46  68 108 146 193 227 277 363 431
#     4  12  26  44  73 102 146 186 236 296 346 420
#     4  11  24  39  66 102 144 186 230 271 344 424
#     4  11  24  41  67 106 148 189 222 278 344 435
#
# _framework density 22.538487
#
# number of rings (size 3 to 8) (size 9 to 14) (size 15 to 20)
#    0.000    0.667    3.333    4.000    4.667    2.667 
#    0.000    5.000    0.000    0.000    0.000    0.000 
#    0.000    0.000    0.000    0.000    0.000    0.000 
#
# Total GULP energy -67182.659276 kJ/mol
# GULP energy per Si atom -5598.554940 kJ/mol
# Density = 2.248719 g / cm^3
# Si number density = 22.538487 Si / 1000 Ang^3
#
#
#
# Elastic Constant Matrix: (Units=GPa)
#
#
# Indices 1 2 3 4 5 6 
#
# 1 68.3580 29.6262 21.9435 0.0000 -9.4932 0.0000
# 2 29.6262 67.6597 5.1894 0.0000 3.6861 0.0000
# 3 21.9435 5.1894 87.4073 0.0000 -1.2161 0.0000
# 4 0.0000 0.0000 0.0000 32.6429 0.0000 -10.4161
# 5 -9.4932 3.6861 -1.2161 0.0000 27.7154 0.0000
# 6 0.0000 0.0000 0.0000 -10.4161 0.0000 17.3722
#
#
#
# Elastic Compliance Matrix: (Units=1/GPa)
#
#
# Indices 1 2 3 4 5 6 
#
# 1 0.021404 -0.009469 -0.004695 0.000000 0.008385 0.000000
# 2 -0.009469 0.019150 0.001160 0.000000 -0.005739 0.000000
# 3 -0.004695 0.001160 0.012534 0.000000 -0.001212 0.000000
# 4 0.000000 0.000000 0.000000 0.037882 0.000000 0.022714
# 5 0.008385 -0.005739 -0.001212 0.000000 0.039663 0.000000
# 6 0.000000 0.000000 0.000000 0.022714 0.000000 0.071182
#
#
# Mechanical properties :
#
#
# Convention : Reuss Voigt Hill
#
# Bulk Modulus (GPa) = 36.92636 37.43812 37.18224
# Shear Modulus (GPa) = 21.11058 26.65715 23.88387
#
# Velocity S-wave (km/s) = 3.06379 3.44283 3.25882
# Velocity P-wave (km/s) = 5.37912 5.69657 5.54012
#
# Compressibility (1/GPa) = 0.02708092
#
# Stress axis : x y z
#
# Youngs Moduli (GPa) = 46.71992 52.22012 79.78606
#
# Poissons Ratio (x) = 0.49447 0.37457
# Poissons Ratio (y) = 0.44239 -0.09258
# Poissons Ratio (z) = 0.21933 -0.06060
#
# Static dielectric constant tensor:
#      x y z
#    x 1.857310 0.000000 0.006830 
#    y 0.000000 1.834640 0.000000 
#    z 0.006830 0.000000 1.829880 
# 
# From -- ./inp_files/6421.got.cif
#   From: 2010.05.17/outbox.cif.g08.bks.cpg/sg9_4_cif.got.tgz:6421.got - 2010.06.03 20:04:27.
