data_PCOD9140027
_publ_section_title
;
Structure prediction by ZEFSAII (Michael W. Deem and Ramdas Pophale) SiO2 
 PCOD9140027
Probable space group: C C
;
_chemical_formula_sum "Si O2"
_cell_formula_units_Z 32
_cell_length_a 26.190534
_cell_length_b 11.817608
_cell_length_c 14.246911
_cell_angle_alpha 90.000000
_cell_angle_beta 20.065940
_cell_angle_gamma 90.000000
_cell_volume 1512.923993
_symmetry_space_group_name_H-M "C C"
_symmetry_group_IT_number 9
_symmetry_cell_setting 'monoclinic'
loop_
_space_group_symop_operation_xyz
x,y,z
x,-y,1/2+z
1/2+x,1/2+y,z
1/2+x,1/2-y,1/2+z
loop_
_atom_site_type_symbol
_atom_site_label
_atom_site_fract_x
_atom_site_fract_y
_atom_site_fract_z
Si Si1 0.332150 0.127619 0.686800
Si Si2 0.157712 0.230967 0.447217
Si Si3 0.701654 0.859811 0.848415
Si Si4 0.334104 0.564043 0.725003
Si Si5 0.587699 0.697334 0.776792
Si Si6 0.349501 0.337098 0.396066
Si Si7 0.152242 0.047003 0.174035
Si Si8 0.370600 0.071632 0.972200
O O1 0.227779 0.227927 0.826994
O O2 0.470611 0.200461 0.490755
O O3 0.374900 0.044130 0.526981
O O4 0.251325 0.058444 0.909201
O O5 0.213404 0.355435 0.380791
O O6 0.098540 0.180168 0.646749
O O7 0.016494 0.209074 0.623449
O O8 0.299160 0.164298 0.164559
O O9 0.774776 0.880913 0.620577
O O10 0.792919 0.939454 0.761473
O O11 0.531253 0.894206 0.155732
O O12 0.329115 0.575606 0.846110
O O13 0.498903 0.613238 0.417759
O O14 0.747013 0.734841 0.539520
O O15 0.576174 0.571940 0.835371
O O16 0.258563 0.072235 0.077421
#
# Coordination Sequence:
#
# PCOD9140027 Si02
#       8
#     4   4   4   4   4   4   4   4
#     4  12  25  47  74 104 148 188 240 302 358 433
#     4  11  22  46  70  98 144 189 237 295 358 427
#     4  12  26  47  71 107 145 192 241 302 361 429
#     4  11  25  45  73 106 148 189 245 301 360 435
#     4  11  23  44  70 100 142 190 238 296 354 433
#     4  11  23  46  74 105 142 198 242 291 373 430
#     4  12  24  43  71 105 141 189 241 298 363 425
#     4  12  26  44  71 107 142 187 246 297 357 434
#
# _framework density 21.151095999999999
#
# number of rings (size 3 to 8) (size 9 to 14) (size 15 to 20)
#    0.000    0.500    5.000    3.750    1.750    0.000 
#    2.250    0.000    0.000    0.000    0.000    0.000 
#    0.000    0.000    0.000    0.000    0.000    0.000 
#
# Total GULP energy -89225.185333 kJ/mol
# GULP energy per Si atom -5576.574083 kJ/mol
# Density = 2.110295 g / cm^3
# Si number density = 21.151096 Si / 1000 Ang^3
#
#
#
# Elastic Constant Matrix: (Units=GPa)
#
#
# Indices 1 2 3 4 5 6 
#
# 1 90.6833 31.7395 39.4037 0.0000 -9.5658 0.0000
# 2 31.7395 84.2116 29.3883 0.0000 -3.1179 0.0000
# 3 39.4037 29.3883 127.6747 0.0000 -13.8498 0.0000
# 4 0.0000 0.0000 0.0000 33.3575 0.0000 -0.7817
# 5 -9.5658 -3.1179 -13.8498 0.0000 39.1496 0.0000
# 6 0.0000 0.0000 0.0000 -0.7817 0.0000 5.6622
#
#
#
# Elastic Compliance Matrix: (Units=1/GPa)
#
#
# Indices 1 2 3 4 5 6 
#
# 1 0.014057 -0.004117 -0.003176 0.000000 0.001983 0.000000
# 2 -0.004117 0.014118 -0.002045 0.000000 -0.000605 0.000000
# 3 -0.003176 -0.002045 0.009548 0.000000 0.002439 0.000000
# 4 0.000000 0.000000 0.000000 0.030076 0.000000 0.004152
# 5 0.001983 -0.000605 0.002439 0.000000 0.026842 0.000000
# 6 0.000000 0.000000 0.000000 0.004152 0.000000 0.177182
#
#
# Mechanical properties :
#
#
# Convention : Reuss Voigt Hill
#
# Bulk Modulus (GPa) = 52.49728 55.95918 54.22823
# Shear Modulus (GPa) = 16.84378 29.10309 22.97344
#
# Velocity S-wave (km/s) = 2.82504 3.71342 3.29927
# Velocity P-wave (km/s) = 5.95946 6.70077 6.34095
#
# Compressibility (1/GPa) = 0.01904861
#
# Stress axis : x y z
#
# Youngs Moduli (GPa) = 71.13727 70.83386 104.73670
#
# Poissons Ratio (x) = 0.29159 0.33262
# Poissons Ratio (y) = 0.29284 0.21416
# Poissons Ratio (z) = 0.22591 0.14484
#
# Static dielectric constant tensor:
#      x y z
#    x 1.806110 0.000000 -0.011540 
#    y 0.000000 1.807050 0.000000 
#    z -0.011540 0.000000 1.855750 
# 
# From -- ./inp_files/28097.got.cif
#   From: 2010.05.17/outbox.cif.g08.bks.cpg/sg9_15_cif.got.tgz:28097.got - 2010.06.03 20:04:27.
