data_PCOD9140902
_publ_section_title
;
Structure prediction by ZEFSAII (Michael W. Deem and Ramdas Pophale) SiO2 
 PCOD9140902
Probable space group: C C
;
_chemical_formula_sum "Si O2"
_cell_formula_units_Z 32
_cell_length_a 21.934056
_cell_length_b 7.631681
_cell_length_c 12.238191
_cell_angle_alpha 90.000000
_cell_angle_beta 37.517621
_cell_angle_gamma 90.000000
_cell_volume 1247.606191
_symmetry_space_group_name_H-M "C C"
_symmetry_group_IT_number 9
_symmetry_cell_setting 'monoclinic'
loop_
_space_group_symop_operation_xyz
x,y,z
x,-y,1/2+z
1/2+x,1/2+y,z
1/2+x,1/2-y,1/2+z
loop_
_atom_site_type_symbol
_atom_site_label
_atom_site_fract_x
_atom_site_fract_y
_atom_site_fract_z
Si Si1 0.843550 0.368040 0.462370
Si Si2 0.127983 0.835822 0.704351
Si Si3 0.819681 0.231954 0.726683
Si Si4 0.630306 0.032646 0.266463
Si Si5 0.698475 0.477541 0.313556
Si Si6 0.281838 0.624958 0.210204
Si Si7 0.510639 0.664784 0.823576
Si Si8 0.486350 0.105702 0.145967
O O1 0.798077 0.535308 0.593069
O O2 0.081844 0.711300 0.295527
O O3 0.935354 0.428794 0.263199
O O4 0.856793 0.240390 0.546529
O O5 0.248526 0.824391 0.522861
O O6 0.100563 0.632402 0.733488
O O7 0.122780 0.925390 0.837046
O O8 0.061066 0.974153 0.735968
O O9 0.731920 0.377175 0.853587
O O10 0.907967 0.299058 0.676517
O O11 0.777689 0.038451 0.800281
O O12 0.582534 0.958753 0.445782
O O13 0.743565 0.066326 0.142979
O O14 0.702804 0.281260 0.350813
O O15 0.400935 0.660335 0.034511
O O16 0.504357 0.762710 0.718080
#
# Coordination Sequence:
#
# PCOD9140902 Si02
#       8
#     4   4   4   4   4   4   4   4
#     4   8  18  42  66  92 129 182 210 279 333 381
#     4   9  20  44  68  93 134 181 219 274 337 399
#     4   9  21  41  70  95 132 178 224 265 343 399
#     4  12  24  46  69 100 136 180 231 275 339 408
#     4   8  17  40  68  90 125 177 217 266 331 383
#     4  12  20  43  73  92 133 187 220 273 347 393
#     4  12  25  42  70 100 141 179 223 280 340 409
#     4  12  23  40  68 104 136 176 226 284 334 396
#
# _framework density 25.64912
#
# number of rings (size 3 to 8) (size 9 to 14) (size 15 to 20)
#    1.500    0.000    5.000    2.250    0.000    1.000 
#    0.000   10.000    0.000    0.000    0.000    0.000 
#    0.000    0.000    0.000    0.000    0.000    0.000 
#
# Total GULP energy -89246.010532 kJ/mol
# GULP energy per Si atom -5577.875658 kJ/mol
# Density = 2.559074 g / cm^3
# Si number density = 25.649120 Si / 1000 Ang^3
#
#
#
# Elastic Constant Matrix: (Units=GPa)
#
#
# Indices 1 2 3 4 5 6 
#
# 1 104.6596 8.3538 -0.6411 -0.0003 -9.6565 0.0000
# 2 8.3538 147.4104 5.4134 -0.0014 -9.3370 0.0006
# 3 -0.6411 5.4134 42.4264 -0.0009 -6.2384 0.0005
# 4 -0.0003 -0.0014 -0.0009 20.8968 0.0003 -10.7371
# 5 -9.6565 -9.3370 -6.2384 0.0003 26.8456 0.0000
# 6 0.0000 0.0006 0.0005 -10.7371 0.0000 39.9771
#
#
#
# Elastic Compliance Matrix: (Units=1/GPa)
#
#
# Indices 1 2 3 4 5 6 
#
# 1 0.009921 -0.000360 0.000727 0.000000 0.003612 0.000000
# 2 -0.000360 0.006962 -0.000576 0.000000 0.002158 0.000000
# 3 0.000727 -0.000576 0.024501 0.000001 0.005755 0.000000
# 4 0.000000 0.000000 0.000001 0.055515 0.000000 0.014910
# 5 0.003612 0.002158 0.005755 0.000000 0.040637 0.000000
# 6 0.000000 0.000000 0.000000 0.014910 0.000000 0.029019
#
#
# Mechanical properties :
#
#
# Convention : Reuss Voigt Hill
#
# Bulk Modulus (GPa) = 24.41100 35.63872 30.02486
# Shear Modulus (GPa) = 27.68094 36.30194 31.99144
#
# Velocity S-wave (km/s) = 3.28871 3.76617 3.53551
# Velocity P-wave (km/s) = 4.89477 5.73035 5.32896
#
# Compressibility (1/GPa) = 0.04096514
#
# Stress axis : x y z
#
# Youngs Moduli (GPa) = 100.79333 143.63601 40.81484
#
# Poissons Ratio (x) = 0.05173 -0.02967
# Poissons Ratio (y) = 0.03630 0.02353
# Poissons Ratio (z) = -0.07328 0.08280
#
# Static dielectric constant tensor:
#      x y z
#    x 2.011580 0.000000 0.034340 
#    y 0.000000 2.064480 0.000000 
#    z 0.034340 0.000000 2.061900 
# 
# From -- ./inp_files/27221.got.cif
#   From: 2010.05.17/outbox.cif.g08.bks.cpg/sg9_14_cif.got.tgz:27221.got - 2010.06.03 20:04:27.
