data_PCOD9140924
_publ_section_title
;
Structure prediction by ZEFSAII (Michael W. Deem and Ramdas Pophale) SiO2 
 PCOD9140924
Probable space group: C C
;
_chemical_formula_sum "Si O2"
_cell_formula_units_Z 24
_cell_length_a 23.631965
_cell_length_b 7.851371
_cell_length_c 13.038060
_cell_angle_alpha 90.000000
_cell_angle_beta 22.996666
_cell_angle_gamma 90.000000
_cell_volume 945.097863
_symmetry_space_group_name_H-M "C C"
_symmetry_group_IT_number 9
_symmetry_cell_setting 'monoclinic'
loop_
_space_group_symop_operation_xyz
x,y,z
x,-y,1/2+z
1/2+x,1/2+y,z
1/2+x,1/2-y,1/2+z
loop_
_atom_site_type_symbol
_atom_site_label
_atom_site_fract_x
_atom_site_fract_y
_atom_site_fract_z
Si Si1 0.033100 0.503084 0.959670
Si Si2 0.306914 0.501828 0.916281
Si Si3 0.961775 0.032724 0.948432
Si Si4 0.765346 0.617112 0.016546
Si Si5 0.360134 0.820893 0.571233
Si Si6 0.036005 0.768272 0.142288
O O1 0.170963 0.394037 0.690749
O O2 0.046387 0.610963 0.044530
O O3 0.892068 0.393513 0.222714
O O4 0.974395 0.607046 0.959998
O O5 0.341302 0.476742 0.739127
O O6 0.247787 0.320450 0.055401
O O7 0.450769 0.590908 0.717369
O O8 0.120625 0.983461 0.728503
O O9 0.919159 0.868831 0.949636
O O10 0.963381 0.201385 0.875244
O O11 0.830245 0.570030 0.019408
O O12 0.202996 0.811433 0.884805
#
# Coordination Sequence:
#
# PCOD9140924 Si02
#       6
#     4   4   4   4   4   4
#     4  12  27  46  75 111 149 189 250 308 366 441
#     4  12  24  47  72 111 142 192 248 303 370 435
#     4  12  25  46  78 105 149 199 246 303 371 437
#     4  12  26  45  74 111 144 195 245 310 370 436
#     4  12  22  46  75 103 148 189 248 308 359 434
#     4  12  24  48  76 103 150 198 239 310 366 435
#
# _framework density 25.394197999999999
#
# number of rings (size 3 to 8) (size 9 to 14) (size 15 to 20)
#    0.000    0.000   10.000    0.000    0.000    6.667 
#    0.000    0.000    0.000    0.000    0.000    0.000 
#    0.000    0.000    0.000    0.000    0.000    0.000 
#
# Total GULP energy -66935.056281 kJ/mol
# GULP energy per Si atom -5577.921357 kJ/mol
# Density = 2.533640 g / cm^3
# Si number density = 25.394198 Si / 1000 Ang^3
#
#
#
# Elastic Constant Matrix: (Units=GPa)
#
#
# Indices 1 2 3 4 5 6 
#
# 1 146.5485 24.7264 60.8092 0.0000 -3.2204 0.0000
# 2 24.7264 47.4452 14.4219 0.0000 -8.2017 0.0000
# 3 60.8092 14.4219 161.3531 0.0000 11.0742 0.0000
# 4 0.0000 0.0000 0.0000 18.4898 0.0000 5.7167
# 5 -3.2204 -8.2017 11.0742 0.0000 59.6894 0.0000
# 6 0.0000 0.0000 0.0000 5.7167 0.0000 29.9867
#
#
#
# Elastic Compliance Matrix: (Units=1/GPa)
#
#
# Indices 1 2 3 4 5 6 
#
# 1 0.008669 -0.003516 -0.002990 0.000000 0.000539 0.000000
# 2 -0.003516 0.023786 -0.001025 0.000000 0.003269 0.000000
# 3 -0.002990 -0.001025 0.007533 0.000000 -0.001700 0.000000
# 4 0.000000 0.000000 0.000000 0.057471 0.000000 -0.010956
# 5 0.000539 0.003269 -0.001700 0.000000 0.017547 0.000000
# 6 0.000000 0.000000 0.000000 -0.010956 0.000000 0.035437
#
#
# Mechanical properties :
#
#
# Convention : Reuss Voigt Hill
#
# Bulk Modulus (GPa) = 40.11939 61.69577 50.90758
# Shear Modulus (GPa) = 28.76627 38.65913 33.71270
#
# Velocity S-wave (km/s) = 3.36934 3.90598 3.64754
# Velocity P-wave (km/s) = 5.56503 6.68507 6.15060
#
# Compressibility (1/GPa) = 0.02492561
#
# Stress axis : x y z
#
# Youngs Moduli (GPa) = 115.34739 42.04136 132.75389
#
# Poissons Ratio (x) = 0.14782 0.39694
# Poissons Ratio (y) = 0.40557 0.13611
# Poissons Ratio (z) = 0.34489 0.04310
#
# Static dielectric constant tensor:
#      x y z
#    x 1.983190 0.000000 0.021620 
#    y 0.000000 2.247490 0.000000 
#    z 0.021620 0.000000 2.081630 
# 
# From -- ./inp_files/27962.got.cif
#   From: 2010.05.17/outbox.cif.g08.bks.cpg/sg9_14_cif.got.tgz:27962.got - 2010.06.03 20:04:27.
