data_PCOD9140199
_publ_section_title
;
Structure prediction by ZEFSAII (Michael W. Deem and Ramdas Pophale) SiO2 
 PCOD9140199
Probable space group: C C
;
_chemical_formula_sum "Si O2"
_cell_formula_units_Z 32
_cell_length_a 14.586483
_cell_length_b 7.706648
_cell_length_c 13.582475
_cell_angle_alpha 90.000000
_cell_angle_beta 60.468967
_cell_angle_gamma 90.000000
_cell_volume 1328.491056
_symmetry_space_group_name_H-M "C C"
_symmetry_group_IT_number 9
_symmetry_cell_setting 'monoclinic'
loop_
_space_group_symop_operation_xyz
x,y,z
x,-y,1/2+z
1/2+x,1/2+y,z
1/2+x,1/2-y,1/2+z
loop_
_atom_site_type_symbol
_atom_site_label
_atom_site_fract_x
_atom_site_fract_y
_atom_site_fract_z
Si Si1 0.902780 0.063243 0.326490
Si Si2 0.797266 0.383875 0.038162
Si Si3 0.606527 0.150042 0.055316
Si Si4 0.924336 0.355873 0.787459
Si Si5 0.524799 0.645799 0.434170
Si Si6 0.738409 0.502349 0.759651
Si Si7 0.957046 0.168941 0.080545
Si Si8 0.680499 0.186779 0.428059
O O1 0.913490 0.108444 0.206590
O O2 0.791132 0.143124 0.420977
O O3 0.985607 0.175183 0.345238
O O4 0.917354 0.851982 0.316580
O O5 0.709738 0.255115 0.037014
O O6 0.732673 0.509474 0.144587
O O7 0.879158 0.309482 0.075621
O O8 0.873537 0.445231 0.911051
O O9 0.541647 0.097031 0.188042
O O10 0.519422 0.255862 0.039893
O O11 0.635320 0.008084 0.956850
O O12 0.845520 0.424944 0.745621
O O13 0.647927 0.611209 0.357526
O O14 0.457968 0.475152 0.495500
O O15 0.708208 0.696222 0.817566
O O16 0.080632 0.215002 0.028259
#
# Coordination Sequence:
#
# PCOD9140199 Si02
#       8
#     4   4   4   4   4   4   4   4
#     4  12  23  48  73 107 150 195 243 313 372 443
#     4  12  24  47  74 103 151 193 243 309 376 432
#     4  12  25  47  74 110 146 198 251 305 371 454
#     4  12  25  47  76 104 148 196 252 298 383 439
#     4  11  23  45  71 103 142 194 246 302 372 436
#     4  11  25  45  71 104 145 196 244 312 367 450
#     4  11  24  44  69 105 146 192 238 308 367 445
#     4  11  25  47  68 106 150 190 249 301 374 439
#
# _framework density 24.087478000000001
#
# number of rings (size 3 to 8) (size 9 to 14) (size 15 to 20)
#    0.000    0.500    6.250    1.500    1.750    0.000 
#    9.000    0.000    0.000    0.000    0.000    0.000 
#    0.000    0.000    0.000    0.000    0.000    0.000 
#
# Total GULP energy -89106.812606 kJ/mol
# GULP energy per Si atom -5569.175788 kJ/mol
# Density = 2.403265 g / cm^3
# Si number density = 24.087478 Si / 1000 Ang^3
#
#
#
# Elastic Constant Matrix: (Units=GPa)
#
#
# Indices 1 2 3 4 5 6 
#
# 1 72.2862 16.6204 20.1676 0.0000 -9.1808 0.0000
# 2 16.6204 56.3583 31.4794 0.0000 7.9077 0.0000
# 3 20.1676 31.4794 106.5086 0.0000 0.0717 0.0000
# 4 0.0000 0.0000 0.0000 14.3900 0.0000 -9.8260
# 5 -9.1808 7.9077 0.0717 0.0000 35.8439 0.0000
# 6 0.0000 0.0000 0.0000 -9.8260 0.0000 22.3686
#
#
#
# Elastic Compliance Matrix: (Units=1/GPa)
#
#
# Indices 1 2 3 4 5 6 
#
# 1 0.015985 -0.004473 -0.001708 0.000000 0.005085 0.000000
# 2 -0.004473 0.023318 -0.006040 0.000000 -0.006278 0.000000
# 3 -0.001708 -0.006040 0.011497 0.000000 0.000872 0.000000
# 4 0.000000 0.000000 0.000000 0.099268 0.000000 0.043606
# 5 0.005085 -0.006278 0.000872 0.000000 0.030584 0.000000
# 6 0.000000 0.000000 0.000000 0.043606 0.000000 0.063861
#
#
# Mechanical properties :
#
#
# Convention : Reuss Voigt Hill
#
# Bulk Modulus (GPa) = 37.94239 41.29866 39.62052
# Shear Modulus (GPa) = 18.00233 25.64622 21.82427
#
# Velocity S-wave (km/s) = 2.73678 3.26653 3.01332
# Velocity P-wave (km/s) = 5.07668 5.60442 5.34706
#
# Compressibility (1/GPa) = 0.02635575
#
# Stress axis : x y z
#
# Youngs Moduli (GPa) = 62.55970 42.88602 86.97890
#
# Poissons Ratio (x) = 0.19184 0.14856
# Poissons Ratio (y) = 0.27985 0.52539
# Poissons Ratio (z) = 0.10685 0.25905
#
# Static dielectric constant tensor:
#      x y z
#    x 1.940600 0.000000 -0.020340 
#    y 0.000000 2.042290 0.000000 
#    z -0.020340 0.000000 1.964450 
# 
# From -- ./inp_files/17895.got.cif
#   From: 2010.05.17/outbox.cif.g08.bks.cpg/sg9_9_cif.got.tgz:17895.got - 2010.06.03 20:04:27.
