data_PCOD9140169
_publ_section_title
;
Structure prediction by ZEFSAII (Michael W. Deem and Ramdas Pophale) SiO2 
 PCOD9140169
Probable space group: C C
;
_chemical_formula_sum "Si O2"
_cell_formula_units_Z 24
_cell_length_a 14.543279
_cell_length_b 4.981797
_cell_length_c 19.650344
_cell_angle_alpha 90.000000
_cell_angle_beta 139.163676
_cell_angle_gamma 90.000000
_cell_volume 930.958057
_symmetry_space_group_name_H-M "C C"
_symmetry_group_IT_number 9
_symmetry_cell_setting 'monoclinic'
loop_
_space_group_symop_operation_xyz
x,y,z
x,-y,1/2+z
1/2+x,1/2+y,z
1/2+x,1/2-y,1/2+z
loop_
_atom_site_type_symbol
_atom_site_label
_atom_site_fract_x
_atom_site_fract_y
_atom_site_fract_z
Si Si1 0.952930 0.985827 0.422800
Si Si2 0.167215 0.689783 0.745606
Si Si3 0.564458 0.001546 0.319795
Si Si4 0.884972 0.971481 0.739668
Si Si5 0.225913 0.668475 0.532578
Si Si6 0.004953 0.216821 0.602109
O O1 0.891441 0.135656 0.320494
O O2 0.108110 0.884866 0.487651
O O3 0.833481 0.750599 0.351247
O O4 0.962850 0.123349 0.501930
O O5 0.150644 0.478166 0.799535
O O6 0.097228 0.488249 0.650777
O O7 0.090377 0.968166 0.684017
O O8 0.485780 0.731055 0.258246
O O9 0.456663 0.236719 0.275822
O O10 0.662051 0.977735 0.439256
O O11 0.756163 0.003724 0.617422
O O12 0.368136 0.772688 0.574433
#
# Coordination Sequence:
#
# PCOD9140169 Si02
#       6
#     4   4   4   4   4   4
#     4  11  28  48  77 117 151 199 262 323 381 463
#     4  12  25  49  74 112 153 197 256 318 383 460
#     4  11  23  44  74 107 143 198 247 308 376 453
#     4  11  25  45  73 106 149 192 252 310 379 451
#     4  11  24  48  78 110 151 205 254 314 388 460
#     4  12  27  48  78 110 155 207 255 313 393 463
#
# _framework density 25.779892
#
# number of rings (size 3 to 8) (size 9 to 14) (size 15 to 20)
#    0.000    0.667    5.000    1.000    0.000   14.667 
#    0.000    0.000    0.000    0.000    0.000    0.000 
#    0.000    0.000    0.000    0.000    0.000    0.000 
#
# Total GULP energy -66879.018132 kJ/mol
# GULP energy per Si atom -5573.251511 kJ/mol
# Density = 2.572122 g / cm^3
# Si number density = 25.779892 Si / 1000 Ang^3
#
#
#
# Elastic Constant Matrix: (Units=GPa)
#
#
# Indices 1 2 3 4 5 6 
#
# 1 145.3418 33.9619 55.0862 -0.0001 -12.5909 -0.0004
# 2 33.9619 141.5394 29.5430 0.0001 14.8558 -0.0006
# 3 55.0862 29.5430 158.2926 -0.0001 -24.9447 -0.0001
# 4 -0.0001 0.0001 -0.0001 26.6620 0.0000 -1.8282
# 5 -12.5909 14.8558 -24.9447 0.0000 65.1741 0.0000
# 6 -0.0004 -0.0006 -0.0001 -1.8282 0.0000 16.4998
#
#
#
# Elastic Compliance Matrix: (Units=1/GPa)
#
#
# Indices 1 2 3 4 5 6 
#
# 1 0.008255 -0.001585 -0.002414 0.000000 0.001032 0.000000
# 2 -0.001585 0.008008 -0.001361 0.000000 -0.002652 0.000000
# 3 -0.002414 -0.001361 0.007861 0.000000 0.002853 0.000000
# 4 0.000000 0.000000 0.000000 0.037794 0.000000 0.004188
# 5 0.001032 -0.002652 0.002853 0.000000 0.017239 0.000000
# 6 0.000000 0.000000 0.000000 0.004188 0.000000 0.061071
#
#
# Mechanical properties :
#
#
# Convention : Reuss Voigt Hill
#
# Bulk Modulus (GPa) = 74.60776 75.81733 75.21254
# Shear Modulus (GPa) = 32.17153 43.43936 37.80545
#
# Velocity S-wave (km/s) = 3.53644 4.10934 3.83361
# Velocity P-wave (km/s) = 6.75857 7.21033 6.98810
#
# Compressibility (1/GPa) = 0.01340343
#
# Stress axis : x y z
#
# Youngs Moduli (GPa) = 121.13553 124.87524 127.20827
#
# Poissons Ratio (x) = 0.19795 0.30712
# Poissons Ratio (y) = 0.19202 0.17312
# Poissons Ratio (z) = 0.29246 0.16994
#
# Static dielectric constant tensor:
#      x y z
#    x 2.344570 0.000000 0.107130 
#    y 0.000000 1.987480 0.000000 
#    z 0.107130 0.000000 2.027360 
# 
# From -- ./inp_files/17417.got.cif
#   From: 2010.05.17/outbox.cif.g08.bks.cpg/sg9_9_cif.got.tgz:17417.got - 2010.06.03 20:04:27.
