data_PCOD9140941
_publ_section_title
;
Structure prediction by ZEFSAII (Michael W. Deem and Ramdas Pophale) SiO2 
 PCOD9140941
Probable space group: C C
;
_chemical_formula_sum "Si O2"
_cell_formula_units_Z 32
_cell_length_a 29.523024
_cell_length_b 9.017322
_cell_length_c 8.173066
_cell_angle_alpha 90.000000
_cell_angle_beta 140.469936
_cell_angle_gamma 90.000000
_cell_volume 1384.873941
_symmetry_space_group_name_H-M "C C"
_symmetry_group_IT_number 9
_symmetry_cell_setting 'monoclinic'
loop_
_space_group_symop_operation_xyz
x,y,z
x,-y,1/2+z
1/2+x,1/2+y,z
1/2+x,1/2-y,1/2+z
loop_
_atom_site_type_symbol
_atom_site_label
_atom_site_fract_x
_atom_site_fract_y
_atom_site_fract_z
Si Si1 0.188330 0.318364 0.470930
Si Si2 0.345098 0.592489 0.466584
Si Si3 0.471749 0.919412 0.323957
Si Si4 0.124601 0.427624 0.628670
Si Si5 0.186562 0.178087 0.961525
Si Si6 0.623467 0.577327 0.122321
Si Si7 0.977774 0.736055 0.199478
Si Si8 0.342827 0.269850 0.327153
O O1 0.270418 0.354925 0.681979
O O2 0.160634 0.372544 0.566601
O O3 0.140198 0.400817 0.201569
O O4 0.169767 0.148432 0.397264
O O5 0.409380 0.661906 0.542126
O O6 0.345915 0.413592 0.455866
O O7 0.347914 0.658738 0.659154
O O8 0.543178 0.887171 0.421376
O O9 0.478090 0.847182 0.523112
O O10 0.471315 0.099702 0.312562
O O11 0.405535 0.842579 0.049973
O O12 0.166041 0.349930 0.892041
O O13 0.132152 0.095341 0.685943
O O14 0.167065 0.119454 0.083614
O O15 0.268923 0.179284 0.140631
O O16 0.545385 0.651551 0.901781
#
# Coordination Sequence:
#
# PCOD9140941 Si02
#       8
#     4   4   4   4   4   4   4   4
#     4  12  24  45  77 106 144 191 244 303 363 442
#     4  12  27  48  73 113 145 200 244 303 370 435
#     4  12  27  48  75 112 147 198 242 304 369 442
#     4  12  23  46  76 106 144 188 246 297 368 435
#     4  12  27  49  73 108 147 193 245 304 366 428
#     4  12  29  47  75 107 147 196 244 309 361 437
#     4  12  28  49  75 110 152 194 247 302 371 441
#     4  12  29  48  78 108 154 194 246 304 368 444
#
# _framework density 23.106795000000002
#
# number of rings (size 3 to 8) (size 9 to 14) (size 15 to 20)
#    0.000    0.000    5.000    3.750    8.750    1.000 
#    0.000    0.000    0.000    0.000    0.000    0.000 
#    0.000    0.000    0.000    0.000    0.000    0.000 
#
# Total GULP energy -89472.001700 kJ/mol
# GULP energy per Si atom -5592.000106 kJ/mol
# Density = 2.305420 g / cm^3
# Si number density = 23.106795 Si / 1000 Ang^3
#
#
#
# Elastic Constant Matrix: (Units=GPa)
#
#
# Indices 1 2 3 4 5 6 
#
# 1 216.3436 11.5961 75.4911 0.0000 3.0060 0.0000
# 2 11.5961 118.3189 44.5257 0.0000 19.7642 0.0000
# 3 75.4911 44.5257 130.7087 0.0000 40.6080 0.0000
# 4 0.0000 0.0000 0.0000 53.4051 0.0000 -5.2883
# 5 3.0060 19.7642 40.6080 0.0000 58.1327 0.0000
# 6 0.0000 0.0000 0.0000 -5.2883 0.0000 38.4540
#
#
#
# Elastic Compliance Matrix: (Units=1/GPa)
#
#
# Indices 1 2 3 4 5 6 
#
# 1 0.006162 0.000690 -0.004626 0.000000 0.002678 0.000000
# 2 0.000690 0.009845 -0.003450 0.000000 -0.000973 0.000000
# 3 -0.004626 -0.003450 0.014124 0.000000 -0.008454 0.000000
# 4 0.000000 0.000000 0.000000 0.018983 0.000000 0.002611
# 5 0.002678 -0.000973 -0.008454 0.000000 0.023300 0.000000
# 6 0.000000 0.000000 0.000000 0.002611 0.000000 0.026364
#
#
# Mechanical properties :
#
#
# Convention : Reuss Voigt Hill
#
# Bulk Modulus (GPa) = 65.10858 80.95522 73.03190
# Shear Modulus (GPa) = 42.13355 52.24893 47.19124
#
# Velocity S-wave (km/s) = 4.27479 4.76036 4.52410
# Velocity P-wave (km/s) = 7.25283 8.08245 7.67885
#
# Compressibility (1/GPa) = 0.01535896
#
# Stress axis : x y z
#
# Youngs Moduli (GPa) = 162.27632 101.57609 70.80159
#
# Poissons Ratio (x) = -0.07004 0.32753
# Poissons Ratio (y) = -0.11189 0.24423
# Poissons Ratio (z) = 0.75070 0.35039
#
# Static dielectric constant tensor:
#      x y z
#    x 1.688730 0.000000 -0.066300 
#    y 0.000000 1.825500 0.000000 
#    z -0.066300 0.000000 1.864620 
# 
# From -- ./inp_files/12439.got.cif
#   From: 2010.05.17/outbox.cif.g08.bks.cpg/sg9_7_cif.got.tgz:12439.got - 2010.06.03 20:04:27.
