data_PCOD9140014
_publ_section_title
;
Structure prediction by ZEFSAII (Michael W. Deem and Ramdas Pophale) SiO2 
 PCOD9140014
Probable space group: C C
;
_chemical_formula_sum "Si O2"
_cell_formula_units_Z 32
_cell_length_a 14.103732
_cell_length_b 11.189232
_cell_length_c 16.000781
_cell_angle_alpha 90.000000
_cell_angle_beta 29.962065
_cell_angle_gamma 90.000000
_cell_volume 1261.092933
_symmetry_space_group_name_H-M "C C"
_symmetry_group_IT_number 9
_symmetry_cell_setting 'monoclinic'
loop_
_space_group_symop_operation_xyz
x,y,z
x,-y,1/2+z
1/2+x,1/2+y,z
1/2+x,1/2-y,1/2+z
loop_
_atom_site_type_symbol
_atom_site_label
_atom_site_fract_x
_atom_site_fract_y
_atom_site_fract_z
Si Si1 0.227600 0.500628 0.911510
Si Si2 0.806336 0.782747 0.611430
Si Si3 0.963311 0.001577 0.404573
Si Si4 0.802925 0.394391 0.718374
Si Si5 0.942502 0.564029 0.412138
Si Si6 0.002446 0.274571 0.126432
Si Si7 0.239879 0.944907 0.423805
Si Si8 0.756005 0.885931 0.221389
O O1 0.350751 0.511257 0.902547
O O2 0.328770 0.541870 0.748267
O O3 0.152772 0.364440 0.967917
O O4 0.027363 0.576727 0.061459
O O5 0.831345 0.653371 0.555711
O O6 0.614208 0.854339 0.745682
O O7 0.849098 0.762530 0.675061
O O8 0.958347 0.871703 0.452437
O O9 0.854511 0.087045 0.556286
O O10 0.174831 0.055761 0.239256
O O11 0.708453 0.471701 0.866552
O O12 0.771293 0.252233 0.735873
O O13 0.805711 0.533215 0.443062
O O14 0.047979 0.446534 0.367312
O O15 0.912755 0.356220 0.265602
O O16 0.097866 0.149794 0.073544
#
# Coordination Sequence:
#
# PCOD9140014 Si02
#       8
#     4   4   4   4   4   4   4   4
#     4  11  26  48  73 111 150 201 254 312 382 457
#     4  11  22  45  74 102 149 192 250 313 363 444
#     4  11  26  48  73 111 150 201 254 312 382 457
#     4  11  24  47  73 109 156 196 247 319 386 454
#     4  11  26  47  72 112 147 196 252 312 376 450
#     4  11  22  45  74 102 149 192 250 313 363 444
#     4  11  26  47  72 112 147 196 252 312 376 450
#     4  11  24  47  73 109 156 196 247 319 386 454
#
# _framework density 25.374815000000002
#
# number of rings (size 3 to 8) (size 9 to 14) (size 15 to 20)
#    0.000    1.000    2.500    4.500    7.000    0.000 
#    4.500    5.000    0.000    0.000    0.000    0.000 
#    0.000    0.000    0.000    0.000    0.000    0.000 
#
# Total GULP energy -89487.092794 kJ/mol
# GULP energy per Si atom -5592.943300 kJ/mol
# Density = 2.531706 g / cm^3
# Si number density = 25.374815 Si / 1000 Ang^3
#
#
#
# Elastic Constant Matrix: (Units=GPa)
#
#
# Indices 1 2 3 4 5 6 
#
# 1 132.6673 11.9528 31.4367 0.0001 -13.0494 0.0000
# 2 11.9528 132.1258 29.2538 0.0012 -22.4521 0.0005
# 3 31.4367 29.2538 90.6569 -0.0002 -1.7786 0.0001
# 4 0.0001 0.0012 -0.0002 42.1319 0.0004 -19.5385
# 5 -13.0494 -22.4521 -1.7786 0.0004 31.0712 0.0002
# 6 0.0000 0.0005 0.0001 -19.5385 0.0002 66.5715
#
#
#
# Elastic Compliance Matrix: (Units=1/GPa)
#
#
# Indices 1 2 3 4 5 6 
#
# 1 0.008596 0.000557 -0.003085 0.000000 0.003836 0.000000
# 2 0.000557 0.009359 -0.003079 0.000000 0.006821 0.000000
# 3 -0.003085 -0.003079 0.013040 0.000000 -0.002775 0.000000
# 4 0.000000 0.000000 0.000000 0.027474 -0.000001 0.008064
# 5 0.003836 0.006821 -0.002775 -0.000001 0.038565 0.000000
# 6 0.000000 0.000000 0.000000 0.008064 0.000000 0.017388
#
#
# Mechanical properties :
#
#
# Convention : Reuss Voigt Hill
#
# Bulk Modulus (GPa) = 50.55683 55.63741 53.09712
# Shear Modulus (GPa) = 37.81283 46.80872 42.31077
#
# Velocity S-wave (km/s) = 3.86446 4.29965 4.08785
# Velocity P-wave (km/s) = 6.31501 6.82811 6.57657
#
# Compressibility (1/GPa) = 0.01977972
#
# Stress axis : x y z
#
# Youngs Moduli (GPa) = 116.33483 106.84950 76.68848
#
# Poissons Ratio (x) = -0.05956 0.23661
# Poissons Ratio (y) = -0.06484 0.23616
# Poissons Ratio (z) = 0.35893 0.32904
#
# Static dielectric constant tensor:
#      x y z
#    x 1.970750 0.000000 -0.007620 
#    y 0.000000 1.897180 0.000000 
#    z -0.007620 0.000000 2.206320 
# 
# From -- ./inp_files/30711.got.cif
#   From: 2010.05.17/outbox.cif.g08.bks.cpg/sg9_16_cif.got.tgz:30711.got - 2010.06.03 20:04:27.
