data_PCOD9140782
_publ_section_title
;
Structure prediction by ZEFSAII (Michael W. Deem and Ramdas Pophale) SiO2 
 PCOD9140782
Probable space group: C C
;
_chemical_formula_sum "Si O2"
_cell_formula_units_Z 32
_cell_length_a 24.810149
_cell_length_b 5.783711
_cell_length_c 12.664661
_cell_angle_alpha 90.000000
_cell_angle_beta 136.580938
_cell_angle_gamma 90.000000
_cell_volume 1249.091694
_symmetry_space_group_name_H-M "C C"
_symmetry_group_IT_number 9
_symmetry_cell_setting 'monoclinic'
loop_
_space_group_symop_operation_xyz
x,y,z
x,-y,1/2+z
1/2+x,1/2+y,z
1/2+x,1/2-y,1/2+z
loop_
_atom_site_type_symbol
_atom_site_label
_atom_site_fract_x
_atom_site_fract_y
_atom_site_fract_z
Si Si1 0.012450 0.588001 0.213820
Si Si2 0.151367 0.898046 0.482659
Si Si3 0.946287 0.520378 0.350163
Si Si4 0.870585 0.188616 0.484662
Si Si5 0.227296 0.426672 0.268126
Si Si6 0.000629 0.139469 0.092402
Si Si7 0.596255 0.295827 0.092418
Si Si8 0.789885 0.451550 0.026842
O O1 0.083537 0.764810 0.322292
O O2 0.976341 0.601579 0.277728
O O3 0.931102 0.618800 0.029451
O O4 0.040606 0.341210 0.216212
O O5 0.187070 0.719911 0.618993
O O6 0.217642 0.983678 0.497805
O O7 0.118666 0.101069 0.510815
O O8 0.947930 0.749043 0.424237
O O9 0.863827 0.397347 0.208158
O O10 0.017143 0.350634 0.479183
O O11 0.800312 0.068604 0.323745
O O12 0.821614 0.322867 0.506541
O O13 0.939739 0.991386 0.585089
O O14 0.164684 0.615766 0.220608
O O15 0.263944 0.251829 0.408577
O O16 0.069838 0.009718 0.127677
#
# Coordination Sequence:
#
# PCOD9140782 Si02
#       8
#     4   4   4   4   4   4   4   4
#     4  11  26  50  79 117 158 219 283 348 424 517
#     4  12  28  53  82 120 168 225 283 351 441 516
#     4  11  25  52  78 118 167 221 285 352 420 520
#     4  11  26  47  79 115 159 217 272 341 426 496
#     4  12  27  53  78 125 168 211 287 355 418 514
#     4  12  26  48  84 121 163 221 292 352 425 522
#     4  12  27  49  82 119 166 220 285 358 436 510
#     4  11  29  52  80 121 173 224 283 357 432 511
#
# _framework density 25.618614999999998
#
# number of rings (size 3 to 8) (size 9 to 14) (size 15 to 20)
#    0.000    0.500    2.500    3.750    3.500   10.000 
#    4.500    1.250    0.000    1.500    0.000    0.000 
#    0.000    0.000    0.000    0.000    0.000    0.000 
#
# Total GULP energy -89381.100536 kJ/mol
# GULP energy per Si atom -5586.318783 kJ/mol
# Density = 2.556031 g / cm^3
# Si number density = 25.618615 Si / 1000 Ang^3
#
#
#
# Elastic Constant Matrix: (Units=GPa)
#
#
# Indices 1 2 3 4 5 6 
#
# 1 201.7871 92.3626 67.4134 0.0000 34.2610 0.0000
# 2 92.3626 94.6009 26.8658 0.0000 -8.5063 0.0000
# 3 67.4134 26.8658 110.9762 0.0000 16.7542 0.0000
# 4 0.0000 0.0000 0.0000 83.2429 0.0000 -6.0942
# 5 34.2610 -8.5063 16.7542 0.0000 34.1442 0.0000
# 6 0.0000 0.0000 0.0000 -6.0942 0.0000 62.4676
#
#
#
# Elastic Compliance Matrix: (Units=1/GPa)
#
#
# Indices 1 2 3 4 5 6 
#
# 1 0.018418 -0.018974 -0.003338 0.000000 -0.021570 0.000000
# 2 -0.018974 0.031579 -0.000196 0.000000 0.027002 0.000000
# 3 -0.003338 -0.000196 0.011435 0.000000 -0.002310 0.000000
# 4 0.000000 0.000000 0.000000 0.012099 0.000000 0.001180
# 5 -0.021570 0.027002 -0.002310 0.000000 0.058791 0.000000
# 6 0.000000 0.000000 0.000000 0.001180 0.000000 0.016123
#
#
# Mechanical properties :
#
#
# Convention : Reuss Voigt Hill
#
# Bulk Modulus (GPa) = 60.91458 86.73864 73.82661
# Shear Modulus (GPa) = 25.13406 50.68577 37.90991
#
# Velocity S-wave (km/s) = 3.13563 4.45283 3.85096
# Velocity P-wave (km/s) = 6.07772 7.76969 6.97520
#
# Compressibility (1/GPa) = 0.01641643
#
# Stress axis : x y z
#
# Youngs Moduli (GPa) = 54.29496 31.66681 87.45062
#
# Poissons Ratio (x) = 0.60083 0.29195
# Poissons Ratio (y) = 1.03017 0.01711
# Poissons Ratio (z) = 0.18126 0.00620
#
# Static dielectric constant tensor:
#      x y z
#    x 2.009950 0.000000 -0.132710 
#    y 0.000000 2.088060 0.000000 
#    z -0.132710 0.000000 2.229500 
# 
# From -- ./inp_files/27895.got.cif
#   From: 2010.05.17/outbox.cif.g08.bks.cpg/sg9_14_cif.got.tgz:27895.got - 2010.06.03 20:04:27.
