data_PCOD9140421
_publ_section_title
;
Structure prediction by ZEFSAII (Michael W. Deem and Ramdas Pophale) SiO2 
 PCOD9140421
Probable space group: C C
;
_chemical_formula_sum "Si O2"
_cell_formula_units_Z 28
_cell_length_a 15.381966
_cell_length_b 5.215172
_cell_length_c 16.730154
_cell_angle_alpha 90.000000
_cell_angle_beta 128.346750
_cell_angle_gamma 90.000000
_cell_volume 1052.558516
_symmetry_space_group_name_H-M "C C"
_symmetry_group_IT_number 9
_symmetry_cell_setting 'monoclinic'
loop_
_space_group_symop_operation_xyz
x,y,z
x,-y,1/2+z
1/2+x,1/2+y,z
1/2+x,1/2-y,1/2+z
loop_
_atom_site_type_symbol
_atom_site_label
_atom_site_fract_x
_atom_site_fract_y
_atom_site_fract_z
Si Si1 0.389980 0.842568 0.467520
Si Si2 0.734082 0.105358 0.069608
Si Si3 0.044267 0.391477 0.708782
Si Si4 0.744624 0.173897 0.894251
Si Si5 0.165571 0.997041 0.168931
Si Si6 0.891040 0.801444 0.255580
Si Si7 0.037833 0.711235 0.475375
O O1 0.302734 0.067060 0.402592
O O2 0.480068 0.933231 0.452890
O O3 0.451893 0.897805 0.586660
O O4 0.326958 0.572276 0.432675
O O5 0.687934 0.276768 0.114986
O O6 0.852379 0.019536 0.171740
O O7 0.727927 0.221485 0.979051
O O8 0.660794 0.848567 0.015213
O O9 0.135370 0.609157 0.780567
O O10 0.120696 0.156484 0.720108
O O11 0.974866 0.365782 0.750630
O O12 0.278057 0.167679 0.223830
O O13 0.062257 0.158210 0.074119
O O14 0.964194 0.875198 0.373562
#
# Coordination Sequence:
#
# PCOD9140421 Si02
#       7
#     4   4   4   4   4   4   4
#     4  12  27  49  75 113 153 202 262 324 385 473
#     4  11  24  45  69 107 150 190 258 314 379 475
#     4  12  25  50  78 110 156 211 257 328 405 460
#     4  12  28  47  77 114 152 201 266 320 386 480
#     4  11  26  48  73 112 156 198 269 326 384 495
#     4  11  25  47  73 107 149 204 257 322 401 468
#     4  11  25  46  73 103 152 202 249 322 402 451
#
# _framework density 26.601848
#
# number of rings (size 3 to 8) (size 9 to 14) (size 15 to 20)
#    0.000    0.571    4.286    2.571    4.000    3.429 
#    5.143    0.000    0.000    0.000    0.000    0.000 
#    0.000    0.000    0.000    0.000    0.000    0.000 
#
# Total GULP energy -78301.994989 kJ/mol
# GULP energy per Si atom -5592.999642 kJ/mol
# Density = 2.654130 g / cm^3
# Si number density = 26.601848 Si / 1000 Ang^3
#
#
#
# Elastic Constant Matrix: (Units=GPa)
#
#
# Indices 1 2 3 4 5 6 
#
# 1 93.4675 16.3955 24.2652 0.0001 4.0169 0.0001
# 2 16.3955 90.4380 20.9015 0.0002 22.9917 0.0006
# 3 24.2652 20.9015 180.5093 0.0000 18.5143 0.0000
# 4 0.0001 0.0002 0.0000 40.9624 0.0000 12.0522
# 5 4.0169 22.9917 18.5143 0.0000 37.9769 0.0000
# 6 0.0001 0.0006 0.0000 12.0522 0.0000 6.8805
#
#
#
# Elastic Compliance Matrix: (Units=1/GPa)
#
#
# Indices 1 2 3 4 5 6 
#
# 1 0.011361 -0.001900 -0.001371 0.000000 0.000617 0.000000
# 2 -0.001900 0.013481 -0.000515 0.000001 -0.007709 -0.000002
# 3 -0.001371 -0.000515 0.006039 0.000000 -0.002487 0.000000
# 4 0.000000 0.000001 0.000000 0.050374 0.000000 -0.088237
# 5 0.000617 -0.007709 -0.002487 0.000000 0.032147 0.000001
# 6 0.000000 -0.000002 0.000000 -0.088237 0.000001 0.299897
#
#
# Mechanical properties :
#
#
# Convention : Reuss Voigt Hill
#
# Bulk Modulus (GPa) = 42.89867 54.17101 48.53484
# Shear Modulus (GPa) = 11.66483 37.35414 24.50948
#
# Velocity S-wave (km/s) = 2.09630 3.75132 3.03866
# Velocity P-wave (km/s) = 4.69260 6.25868 5.53135
#
# Compressibility (1/GPa) = 0.02331074
#
# Stress axis : x y z
#
# Youngs Moduli (GPa) = 88.01691 74.18053 165.59428
#
# Poissons Ratio (x) = 0.14092 0.22695
# Poissons Ratio (y) = 0.16721 0.08525
# Poissons Ratio (z) = 0.12063 0.03819
#
# Static dielectric constant tensor:
#      x y z
#    x 2.166170 0.000000 0.014980 
#    y 0.000000 2.151960 0.000000 
#    z 0.014980 0.000000 2.141590 
# 
# From -- ./inp_files/30887.got.cif
#   From: 2010.05.17/outbox.cif.g08.bks.cpg/sg9_16_cif.got.tgz:30887.got - 2010.06.03 20:04:27.
