data_PCOD9140746
_publ_section_title
;
Structure prediction by ZEFSAII (Michael W. Deem and Ramdas Pophale) SiO2 
 PCOD9140746
Probable space group: C C
;
_chemical_formula_sum "Si O2"
_cell_formula_units_Z 32
_cell_length_a 14.343797
_cell_length_b 18.116199
_cell_length_c 8.812293
_cell_angle_alpha 90.000000
_cell_angle_beta 40.243100
_cell_angle_gamma 90.000000
_cell_volume 1479.361161
_symmetry_space_group_name_H-M "C C"
_symmetry_group_IT_number 9
_symmetry_cell_setting 'monoclinic'
loop_
_space_group_symop_operation_xyz
x,y,z
x,-y,1/2+z
1/2+x,1/2+y,z
1/2+x,1/2-y,1/2+z
loop_
_atom_site_type_symbol
_atom_site_label
_atom_site_fract_x
_atom_site_fract_y
_atom_site_fract_z
Si Si1 0.742050 0.914334 0.812940
Si Si2 0.496322 0.704218 0.026273
Si Si3 0.258306 0.426771 0.445290
Si Si4 0.799582 0.678004 0.264930
Si Si5 0.068138 0.286038 0.623668
Si Si6 0.078784 0.064927 0.473956
Si Si7 0.439694 0.150895 0.770837
Si Si8 0.156530 0.087895 0.023784
O O1 0.875849 0.857964 0.646087
O O2 0.718563 0.934383 0.668640
O O3 0.759781 0.992201 0.872691
O O4 0.602801 0.874736 0.053197
O O5 0.425503 0.771476 0.204289
O O6 0.608263 0.662498 0.998009
O O7 0.562019 0.742508 0.792955
O O8 0.145244 0.365787 0.529132
O O9 0.424726 0.402387 0.215693
O O10 0.674339 0.737340 0.388189
O O11 0.706559 0.604759 0.408249
O O12 0.906477 0.704937 0.262864
O O13 0.894209 0.662244 0.000118
O O14 0.096013 0.078828 0.271569
O O15 0.098074 0.979660 0.495632
O O16 0.328746 0.093131 0.832229
#
# Coordination Sequence:
#
# PCOD9140746 Si02
#       8
#     4   4   4   4   4   4   4   4
#     4  12  27  46  74 109 151 194 247 308 372 444
#     4  12  26  49  73 106 148 197 246 305 376 449
#     4  12  27  47  74 111 148 197 246 306 378 442
#     4  11  28  46  75 105 144 190 250 306 366 445
#     4  12  28  47  77 108 149 196 250 312 370 450
#     4  11  25  49  73 111 147 198 249 310 377 445
#     4  11  28  45  72 106 147 197 246 305 373 443
#     4  11  27  45  76 106 150 197 248 310 376 450
#
# _framework density 21.630959000000001
#
# number of rings (size 3 to 8) (size 9 to 14) (size 15 to 20)
#    0.000    0.500    2.500    3.750   14.000    1.000 
#    0.000    0.000    0.000    0.000    0.000    0.000 
#    0.000    0.000    0.000    0.000    0.000    0.000 
#
# Total GULP energy -89452.539818 kJ/mol
# GULP energy per Si atom -5590.783739 kJ/mol
# Density = 2.158173 g / cm^3
# Si number density = 21.630959 Si / 1000 Ang^3
#
#
#
# Elastic Constant Matrix: (Units=GPa)
#
#
# Indices 1 2 3 4 5 6 
#
# 1 69.1726 23.3302 26.5689 0.0000 -12.4031 -0.0004
# 2 23.3302 107.9843 33.1359 0.0000 -9.2856 -0.0004
# 3 26.5689 33.1359 64.4621 0.0001 -15.8234 0.0001
# 4 0.0000 0.0000 0.0001 34.0171 -0.0001 -6.8943
# 5 -12.4031 -9.2856 -15.8234 -0.0001 25.8824 0.0000
# 6 -0.0004 -0.0004 0.0001 -6.8943 0.0000 28.1562
#
#
#
# Elastic Compliance Matrix: (Units=1/GPa)
#
#
# Indices 1 2 3 4 5 6 
#
# 1 0.017958 -0.001850 -0.005296 0.000000 0.004704 0.000000
# 2 -0.001850 0.011193 -0.004968 0.000000 0.000091 0.000000
# 3 -0.005296 -0.004968 0.022577 0.000000 0.009482 0.000000
# 4 0.000000 0.000000 0.000000 0.030932 0.000000 0.007574
# 5 0.004704 0.000091 0.009482 0.000000 0.046721 0.000000
# 6 0.000000 0.000000 0.000000 0.007574 0.000000 0.037371
#
#
# Mechanical properties :
#
#
# Convention : Reuss Voigt Hill
#
# Bulk Modulus (GPa) = 36.36468 45.29876 40.83172
# Shear Modulus (GPa) = 24.98158 28.18341 26.58249
#
# Velocity S-wave (km/s) = 3.40207 3.61351 3.50938
# Velocity P-wave (km/s) = 5.68155 6.19654 5.94462
#
# Compressibility (1/GPa) = 0.02749921
#
# Stress axis : x y z
#
# Youngs Moduli (GPa) = 55.68456 89.34279 44.29214
#
# Poissons Ratio (x) = 0.16531 0.23456
# Poissons Ratio (y) = 0.10303 0.22006
# Poissons Ratio (z) = 0.29490 0.44390
#
# Static dielectric constant tensor:
#      x y z
#    x 1.816000 0.000000 -0.020950 
#    y 0.000000 1.765950 0.000000 
#    z -0.020950 0.000000 1.777620 
# 
# From -- ./inp_files/9945.got.cif
#   From: 2010.05.17/outbox.cif.g08.bks.cpg/sg9_5_cif.got.tgz:9945.got - 2010.06.03 20:04:27.
