data_PCOD9140256
_publ_section_title
;
Structure prediction by ZEFSAII (Michael W. Deem and Ramdas Pophale) SiO2 
 PCOD9140256
Probable space group: C C
;
_chemical_formula_sum "Si O2"
_cell_formula_units_Z 32
_cell_length_a 13.061859
_cell_length_b 13.991628
_cell_length_c 8.696544
_cell_angle_alpha 90.000000
_cell_angle_beta 62.463402
_cell_angle_gamma 90.000000
_cell_volume 1409.302887
_symmetry_space_group_name_H-M "C C"
_symmetry_group_IT_number 9
_symmetry_cell_setting 'monoclinic'
loop_
_space_group_symop_operation_xyz
x,y,z
x,-y,1/2+z
1/2+x,1/2+y,z
1/2+x,1/2-y,1/2+z
loop_
_atom_site_type_symbol
_atom_site_label
_atom_site_fract_x
_atom_site_fract_y
_atom_site_fract_z
Si Si1 0.285130 0.448518 0.532950
Si Si2 0.470329 0.877483 0.044868
Si Si3 0.525774 0.538017 0.280503
Si Si4 0.692251 0.841612 0.088088
Si Si5 0.877499 0.185506 0.227242
Si Si6 0.647779 0.606080 0.497887
Si Si7 0.911803 0.573842 0.241963
Si Si8 0.611372 0.813102 0.474083
O O1 0.409518 0.474327 0.373507
O O2 0.226336 0.549804 0.607441
O O3 0.307714 0.388642 0.670408
O O4 0.204085 0.386845 0.478776
O O5 0.594104 0.850197 0.027686
O O6 0.396704 0.781770 0.120392
O O7 0.422814 0.965280 0.178434
O O8 0.469507 0.909926 0.869070
O O9 0.492815 0.627990 0.196125
O O10 0.561456 0.574986 0.422166
O O11 0.626229 0.471159 0.145245
O O12 0.645256 0.793115 0.274340
O O13 0.804625 0.795580 0.932369
O O14 0.779029 0.602681 0.349756
O O15 0.616985 0.714242 0.563039
O O16 0.986353 0.638909 0.074922
#
# Coordination Sequence:
#
# PCOD9140256 Si02
#       8
#     4   4   4   4   4   4   4   4
#     4  11  23  46  75 105 142 190 244 303 359 440
#     4  12  26  46  72 106 149 192 245 305 364 440
#     4  11  25  47  73 107 147 187 245 299 368 430
#     4  11  24  44  73 108 143 189 244 309 362 430
#     4  11  25  45  75 107 143 195 243 300 369 435
#     4  12  28  47  73 105 150 198 238 307 362 445
#     4  12  28  47  71 107 151 197 244 306 375 434
#     4  12  27  44  76 111 145 192 249 303 373 442
#
# _framework density 22.70626
#
# number of rings (size 3 to 8) (size 9 to 14) (size 15 to 20)
#    0.000    0.500    2.500    5.250    5.250    4.000 
#    0.000    0.000    0.000    0.000    0.000    0.000 
#    0.000    0.000    0.000    0.000    0.000    0.000 
#
# Total GULP energy -89642.577686 kJ/mol
# GULP energy per Si atom -5602.661105 kJ/mol
# Density = 2.265458 g / cm^3
# Si number density = 22.706260 Si / 1000 Ang^3
#
#
#
# Elastic Constant Matrix: (Units=GPa)
#
#
# Indices 1 2 3 4 5 6 
#
# 1 55.6786 -11.2425 1.8186 0.0000 -14.1846 0.0000
# 2 -11.2425 55.1760 15.9596 0.0000 -10.5706 0.0000
# 3 1.8186 15.9596 76.4994 0.0000 -1.5170 0.0000
# 4 0.0000 0.0000 0.0000 15.5145 0.0000 -1.1564
# 5 -14.1846 -10.5706 -1.5170 0.0000 41.9438 0.0000
# 6 0.0000 0.0000 0.0000 -1.1564 0.0000 23.5581
#
#
#
# Elastic Compliance Matrix: (Units=1/GPa)
#
#
# Indices 1 2 3 4 5 6 
#
# 1 0.021623 0.006610 -0.001716 0.000000 0.008916 0.000000
# 2 0.006610 0.022289 -0.004655 0.000000 0.007684 0.000000
# 3 -0.001716 -0.004655 0.014059 0.000000 -0.001245 0.000000
# 4 0.000000 0.000000 0.000000 0.064693 0.000000 0.003176
# 5 0.008916 0.007684 -0.001245 0.000000 0.028748 0.000000
# 6 0.000000 0.000000 0.000000 0.003176 0.000000 0.042604
#
#
# Mechanical properties :
#
#
# Convention : Reuss Voigt Hill
#
# Bulk Modulus (GPa) = 17.10881 22.26949 19.68915
# Shear Modulus (GPa) = 23.47189 28.25784 25.86486
#
# Velocity S-wave (km/s) = 3.21864 3.53157 3.37873
# Velocity P-wave (km/s) = 4.62213 5.14376 4.88990
#
# Compressibility (1/GPa) = 0.05844941
#
# Stress axis : x y z
#
# Youngs Moduli (GPa) = 46.24810 44.86461 71.12775
#
# Poissons Ratio (x) = -0.29657 0.12208
# Poissons Ratio (y) = -0.30571 0.33109
# Poissons Ratio (z) = 0.07938 0.20884
#
# Static dielectric constant tensor:
#      x y z
#    x 1.829690 0.000000 -0.008250 
#    y 0.000000 1.808670 0.000000 
#    z -0.008250 0.000000 1.849910 
# 
# From -- ./inp_files/7562.got.cif
#   From: 2010.05.17/outbox.cif.g08.bks.cpg/sg9_4_cif.got.tgz:7562.got - 2010.06.03 20:04:27.
