data_PCOD9140403
_publ_section_title
;
Structure prediction by ZEFSAII (Michael W. Deem and Ramdas Pophale) SiO2 
 PCOD9140403
Probable space group: C C
;
_chemical_formula_sum "Si O2"
_cell_formula_units_Z 32
_cell_length_a 6.852911
_cell_length_b 19.994452
_cell_length_c 10.354913
_cell_angle_alpha 90.000000
_cell_angle_beta 113.044849
_cell_angle_gamma 90.000000
_cell_volume 1305.607623
_symmetry_space_group_name_H-M "C C"
_symmetry_group_IT_number 9
_symmetry_cell_setting 'monoclinic'
loop_
_space_group_symop_operation_xyz
x,y,z
x,-y,1/2+z
1/2+x,1/2+y,z
1/2+x,1/2-y,1/2+z
loop_
_atom_site_type_symbol
_atom_site_label
_atom_site_fract_x
_atom_site_fract_y
_atom_site_fract_z
Si Si1 0.574710 0.757914 0.938910
Si Si2 0.226665 0.466240 0.236451
Si Si3 0.281442 0.926676 0.153593
Si Si4 0.858636 0.642532 0.113324
Si Si5 0.250870 0.135120 0.377429
Si Si6 0.794132 0.890601 0.652584
Si Si7 0.433436 0.665926 0.661557
Si Si8 0.048296 0.044193 0.016764
O O1 0.367322 0.794848 0.942313
O O2 0.495112 0.722272 0.785564
O O3 0.690282 0.701036 0.051386
O O4 0.771448 0.810976 0.005300
O O5 0.199127 0.534276 0.149398
O O6 0.315172 0.398275 0.194862
O O7 0.406274 0.492173 0.378986
O O8 0.015457 0.444629 0.257028
O O9 0.157468 0.862075 0.169121
O O10 0.305150 0.916521 0.004480
O O11 0.132518 0.990542 0.140106
O O12 0.856924 0.621883 0.263868
O O13 0.749339 0.581261 0.009541
O O14 0.092418 0.656181 0.122784
O O15 0.997871 0.132954 0.289243
O O16 0.899373 0.899595 0.540553
#
# Coordination Sequence:
#
# PCOD9140403 Si02
#       8
#     4   4   4   4   4   4   4   4
#     4  12  26  53  73  99 158 197 255 311 360 451
#     4  12  24  44  76 109 147 189 243 318 385 448
#     4  12  26  46  76 110 146 191 251 312 382 446
#     4  11  25  48  73 107 150 199 238 307 378 445
#     4  11  26  47  74 109 144 196 249 309 370 446
#     4  11  25  45  76 110 147 192 240 307 392 443
#     4  12  28  51  73 108 148 207 253 311 376 447
#     4  11  24  44  73 112 148 183 243 313 379 450
#
# _framework density 24.509661999999999
#
# number of rings (size 3 to 8) (size 9 to 14) (size 15 to 20)
#    0.000    0.500    7.500    0.000    3.500    1.000 
#   11.250    0.000    0.000    0.000    0.000    0.000 
#    0.000    0.000    0.000    0.000    0.000    0.000 
#
# Total GULP energy -89232.946319 kJ/mol
# GULP energy per Si atom -5577.059145 kJ/mol
# Density = 2.445388 g / cm^3
# Si number density = 24.509662 Si / 1000 Ang^3
#
#
#
# Elastic Constant Matrix: (Units=GPa)
#
#
# Indices 1 2 3 4 5 6 
#
# 1 144.5559 47.7838 30.7834 0.0000 28.5558 0.0000
# 2 47.7838 92.4655 17.0131 0.0000 14.6112 0.0000
# 3 30.7834 17.0131 70.7787 0.0000 26.6511 0.0000
# 4 0.0000 0.0000 0.0000 30.0382 0.0000 5.9716
# 5 28.5558 14.6112 26.6511 0.0000 35.3500 0.0000
# 6 0.0000 0.0000 0.0000 5.9716 0.0000 48.0495
#
#
#
# Elastic Compliance Matrix: (Units=1/GPa)
#
#
# Indices 1 2 3 4 5 6 
#
# 1 0.009470 -0.003854 -0.001273 0.000000 -0.005097 0.000000
# 2 -0.003854 0.013235 -0.000862 0.000000 -0.001707 0.000000
# 3 -0.001273 -0.000862 0.020064 0.000000 -0.013742 0.000000
# 4 0.000000 0.000000 0.000000 0.034134 0.000000 -0.004242
# 5 -0.005097 -0.001707 -0.013742 0.000000 0.043472 0.000000
# 6 0.000000 0.000000 0.000000 -0.004242 0.000000 0.021339
#
#
# Mechanical properties :
#
#
# Convention : Reuss Voigt Hill
#
# Bulk Modulus (GPa) = 32.47849 55.44009 43.95929
# Shear Modulus (GPa) = 30.49612 36.83552 33.66582
#
# Velocity S-wave (km/s) = 3.53122 3.88093 3.71020
# Velocity P-wave (km/s) = 5.46864 6.53842 6.02731
#
# Compressibility (1/GPa) = 0.03078961
#
# Stress axis : x y z
#
# Youngs Moduli (GPa) = 105.60049 75.55775 49.84100
#
# Poissons Ratio (x) = 0.29120 0.06345
# Poissons Ratio (y) = 0.40699 0.04298
# Poissons Ratio (z) = 0.13443 0.06516
#
# Static dielectric constant tensor:
#      x y z
#    x 1.959380 0.000000 -0.008860 
#    y 0.000000 2.004550 0.000000 
#    z -0.008860 0.000000 2.011670 
# 
# From -- ./inp_files/13817.got.cif
#   From: 2010.05.17/outbox.cif.g08.bks.cpg/sg9_7_cif.got.tgz:13817.got - 2010.06.03 20:04:27.
