data_PCOD9140053
_publ_section_title
;
Structure prediction by ZEFSAII (Michael W. Deem and Ramdas Pophale) SiO2 
 PCOD9140053
Probable space group: C C
;
_chemical_formula_sum "Si O2"
_cell_formula_units_Z 24
_cell_length_a 16.621207
_cell_length_b 5.239030
_cell_length_c 10.563665
_cell_angle_alpha 90.000000
_cell_angle_beta 88.888448
_cell_angle_gamma 90.000000
_cell_volume 919.700306
_symmetry_space_group_name_H-M "C C"
_symmetry_group_IT_number 9
_symmetry_cell_setting 'monoclinic'
loop_
_space_group_symop_operation_xyz
x,y,z
x,-y,1/2+z
1/2+x,1/2+y,z
1/2+x,1/2-y,1/2+z
loop_
_atom_site_type_symbol
_atom_site_label
_atom_site_fract_x
_atom_site_fract_y
_atom_site_fract_z
Si Si1 0.336190 0.878302 0.746660
Si Si2 0.751459 0.054262 0.560058
Si Si3 0.682462 0.582552 0.889593
Si Si4 0.916990 0.975455 0.430856
Si Si5 0.970671 0.505012 0.059002
Si Si6 0.125303 0.794545 0.140012
O O1 0.275798 0.802280 0.636845
O O2 0.385554 0.629759 0.796737
O O3 0.405314 0.033888 0.672847
O O4 0.274399 0.993758 0.851605
O O5 0.695505 0.132038 0.444160
O O6 0.834324 0.943150 0.510865
O O7 0.704644 0.875801 0.656008
O O8 0.624495 0.550379 0.770355
O O9 0.643237 0.437222 0.008877
O O10 0.977165 0.760149 0.483473
O O11 0.943774 0.264504 0.462932
O O12 0.050124 0.611305 0.122335
#
# Coordination Sequence:
#
# PCOD9140053 Si02
#       6
#     4   4   4   4   4   4
#     4  11  22  47  75 107 146 205 254 317 382 465
#     4  11  24  46  77 111 148 201 264 320 385 470
#     4  12  25  49  79 113 154 207 267 323 392 476
#     4  11  24  47  70 107 145 201 252 313 380 465
#     4  11  29  45  72 108 156 197 256 319 391 460
#     4  12  28  46  77 114 155 207 257 328 396 464
#
# _framework density 26.095459000000002
#
# number of rings (size 3 to 8) (size 9 to 14) (size 15 to 20)
#    0.000    0.667    3.333    4.000    4.667    4.000 
#    0.000    0.000    0.000    0.000    0.000    0.000 
#    0.000    0.000    0.000    0.000    0.000    0.000 
#
# Total GULP energy -67113.791867 kJ/mol
# GULP energy per Si atom -5592.815989 kJ/mol
# Density = 2.603606 g / cm^3
# Si number density = 26.095459 Si / 1000 Ang^3
#
#
#
# Elastic Constant Matrix: (Units=GPa)
#
#
# Indices 1 2 3 4 5 6 
#
# 1 68.3748 21.3713 15.6735 0.0000 5.8119 0.0000
# 2 21.3713 84.9329 27.0319 0.0000 -4.7113 0.0000
# 3 15.6735 27.0319 146.5836 0.0000 4.8314 0.0000
# 4 0.0000 0.0000 0.0000 33.9330 0.0000 4.0447
# 5 5.8119 -4.7113 4.8314 0.0000 25.3471 0.0000
# 6 0.0000 0.0000 0.0000 4.0447 0.0000 39.6699
#
#
#
# Elastic Compliance Matrix: (Units=1/GPa)
#
#
# Indices 1 2 3 4 5 6 
#
# 1 0.016481 -0.004117 -0.000859 0.000000 -0.004381 0.000000
# 2 -0.004117 0.013735 -0.002222 0.000000 0.003920 0.000000
# 3 -0.000859 -0.002222 0.007377 0.000000 -0.001622 0.000000
# 4 0.000000 0.000000 0.000000 0.029832 0.000000 -0.003042
# 5 -0.004381 0.003920 -0.001622 0.000000 0.041495 0.000000
# 6 0.000000 0.000000 0.000000 -0.003042 0.000000 0.025518
#
#
# Mechanical properties :
#
#
# Convention : Reuss Voigt Hill
#
# Bulk Modulus (GPa) = 43.10692 47.56053 45.33372
# Shear Modulus (GPa) = 31.93559 35.51098 33.72329
#
# Velocity S-wave (km/s) = 3.50208 3.69292 3.59876
# Velocity P-wave (km/s) = 5.73651 6.03728 5.88881
#
# Compressibility (1/GPa) = 0.02319813
#
# Stress axis : x y z
#
# Youngs Moduli (GPa) = 60.67524 72.80935 135.55528
#
# Poissons Ratio (x) = 0.29974 0.11640
# Poissons Ratio (y) = 0.24979 0.30118
# Poissons Ratio (z) = 0.05210 0.16177
#
# Static dielectric constant tensor:
#      x y z
#    x 2.031010 0.000000 0.012690 
#    y 0.000000 2.108550 0.000000 
#    z 0.012690 0.000000 2.103400 
# 
# From -- ./inp_files/10258.got.cif
#   From: 2010.05.17/outbox.cif.g08.bks.cpg/sg9_6_cif.got.tgz:10258.got - 2010.06.03 20:04:27.
