data_PCOD9140003
_publ_section_title
;
Structure prediction by ZEFSAII (Michael W. Deem and Ramdas Pophale) SiO2 
 PCOD9140003
Probable space group: C C
;
_chemical_formula_sum "Si O2"
_cell_formula_units_Z 28
_cell_length_a 20.664445
_cell_length_b 11.327007
_cell_length_c 13.208142
_cell_angle_alpha 90.000000
_cell_angle_beta 24.939319
_cell_angle_gamma 90.000000
_cell_volume 1303.590428
_symmetry_space_group_name_H-M "C C"
_symmetry_group_IT_number 9
_symmetry_cell_setting 'monoclinic'
loop_
_space_group_symop_operation_xyz
x,y,z
x,-y,1/2+z
1/2+x,1/2+y,z
1/2+x,1/2-y,1/2+z
loop_
_atom_site_type_symbol
_atom_site_label
_atom_site_fract_x
_atom_site_fract_y
_atom_site_fract_z
Si Si1 0.412350 0.574956 0.483760
Si Si2 0.164330 0.118414 0.963585
Si Si3 0.132857 0.312850 0.462151
Si Si4 0.836175 0.482748 0.886535
Si Si5 0.797828 0.188030 0.153846
Si Si6 0.642784 0.751940 0.664812
Si Si7 0.654252 0.578414 0.316202
O O1 0.261378 0.652678 0.699733
O O2 0.348689 0.445075 0.595058
O O3 0.526157 0.603409 0.414137
O O4 0.510569 0.596266 0.244590
O O5 0.199103 0.252296 0.882344
O O6 0.301239 0.064084 0.838642
O O7 0.149052 0.045550 0.881855
O O8 0.196962 0.315707 0.485604
O O9 0.115894 0.175010 0.457571
O O10 0.989263 0.402760 0.661449
O O11 0.700904 0.383564 0.078572
O O12 0.808629 0.561707 0.027036
O O13 0.710479 0.197225 0.171446
O O14 0.958891 0.258330 0.920720
#
# Coordination Sequence:
#
# PCOD9140003 Si02
#       7
#     4   4   4   4   4   4   4
#     4  11  27  44  65 106 139 187 233 288 363 421
#     4  11  23  44  70  97 142 179 232 299 350 418
#     4  12  25  42  71 102 139 184 239 288 357 430
#     4  11  23  43  66 103 134 184 232 293 357 408
#     4  12  24  46  74 103 136 187 239 288 355 423
#     4  12  22  44  74  98 130 185 240 284 351 424
#     4  11  22  45  68  95 140 178 229 294 355 412
#
# _framework density 21.479139
#
# number of rings (size 3 to 8) (size 9 to 14) (size 15 to 20)
#    0.000    0.571    7.143    0.857    4.000    1.143 
#    7.714    0.000    0.000    0.000    0.000    0.000 
#    0.000    0.000    0.000    0.000    0.000    0.000 
#
# Total GULP energy -78133.218870 kJ/mol
# GULP energy per Si atom -5580.944205 kJ/mol
# Density = 2.143025 g / cm^3
# Si number density = 21.479139 Si / 1000 Ang^3
#
#
#
# Elastic Constant Matrix: (Units=GPa)
#
#
# Indices 1 2 3 4 5 6 
#
# 1 65.6145 -8.1700 21.2627 0.0000 6.0412 0.0000
# 2 -8.1700 45.5853 26.4614 0.0000 1.1056 0.0000
# 3 21.2627 26.4614 89.1947 0.0000 5.7140 0.0000
# 4 0.0000 0.0000 0.0000 36.3676 0.0000 -8.9615
# 5 6.0412 1.1056 5.7140 0.0000 27.5831 0.0000
# 6 0.0000 0.0000 0.0000 -8.9615 0.0000 -34.6547
#
#
#
# Elastic Compliance Matrix: (Units=1/GPa)
#
#
# Indices 1 2 3 4 5 6 
#
# 1 0.018429 0.007024 -0.006284 0.000000 -0.003016 0.000000
# 2 0.007024 0.029186 -0.010296 0.000000 -0.000575 0.000000
# 3 -0.006284 -0.010296 0.015860 0.000000 -0.001496 0.000000
# 4 0.000000 0.000000 0.000000 0.025850 0.000000 -0.006685
# 5 -0.003016 -0.000575 -0.001496 0.000000 0.037248 0.000000
# 6 0.000000 0.000000 0.000000 -0.006685 0.000000 -0.027128
#
#
# Mechanical properties :
#
#
# Convention : Reuss Voigt Hill
#
# Bulk Modulus (GPa) = 22.54144 31.05586 26.79865
# Shear Modulus (GPa) = 37.49658 16.58189 27.03923
#
# Velocity S-wave (km/s) = 4.18272 2.78150 3.55189
# Velocity P-wave (km/s) = 5.81757 4.98053 5.41525
#
# Compressibility (1/GPa) = 0.04436274
#
# Stress axis : x y z
#
# Youngs Moduli (GPa) = 54.26215 34.26248 63.05238
#
# Poissons Ratio (x) = -0.24065 0.39620
# Poissons Ratio (y) = -0.38112 0.64920
# Poissons Ratio (z) = 0.34097 0.35277
#
# Static dielectric constant tensor:
#      x y z
#    x 1.744410 0.000000 -0.015250 
#    y 0.000000 1.858380 0.000000 
#    z -0.015250 0.000000 1.834670 
# 
# From -- ./inp_files/12180.got.cif
#   From: 2010.05.17/outbox.cif.g08.bks.cpg/sg9_7_cif.got.tgz:12180.got - 2010.06.03 20:04:27.
