data_PCOD9140893
_publ_section_title
;
Structure prediction by ZEFSAII (Michael W. Deem and Ramdas Pophale) SiO2 
 PCOD9140893
Probable space group: C C
;
_chemical_formula_sum "Si O2"
_cell_formula_units_Z 28
_cell_length_a 5.108914
_cell_length_b 12.855317
_cell_length_c 18.513094
_cell_angle_alpha 90.000000
_cell_angle_beta 73.980638
_cell_angle_gamma 90.000000
_cell_volume 1168.664672
_symmetry_space_group_name_H-M "C C"
_symmetry_group_IT_number 9
_symmetry_cell_setting 'monoclinic'
loop_
_space_group_symop_operation_xyz
x,y,z
x,-y,1/2+z
1/2+x,1/2+y,z
1/2+x,1/2-y,1/2+z
loop_
_atom_site_type_symbol
_atom_site_label
_atom_site_fract_x
_atom_site_fract_y
_atom_site_fract_z
Si Si1 0.310710 0.160520 0.753520
Si Si2 0.111666 0.338533 0.875151
Si Si3 0.322308 0.515294 0.753520
Si Si4 0.849677 0.750000 0.003520
Si Si5 0.128069 0.432890 0.515396
Si Si6 0.651822 0.567110 0.491643
Si Si7 0.354928 0.661467 0.131889
O O1 0.183069 0.237139 0.823424
O O2 0.592776 0.102963 0.753520
O O3 0.322878 0.237139 0.683616
O O4 0.098736 0.070567 0.753520
O O5 0.234996 0.438309 0.825082
O O6 0.802802 0.375569 0.913710
O O7 0.228243 0.309476 0.944561
O O8 0.378120 0.438309 0.681958
O O9 0.990125 0.838875 0.041550
O O10 0.610325 0.690525 0.062479
O O11 0.066185 0.661126 0.965490
O O12 0.423516 0.484453 0.486233
O O13 0.123180 0.375569 0.593330
O O14 0.888943 0.515546 0.520806
#
# Coordination Sequence:
#
# PCOD9140893 Si02
#       7
#     4   4   4   4   4   4   4
#     4  11  30  53  80 107 153 211 253 323 369 451
#     4  11  29  51  78 116 152 201 265 307 389 466
#     4  11  30  49  80 105 153 205 263 313 383 453
#     4  12  28  48  80 118 156 200 252 328 382 470
#     4  12  28  46  75 117 155 197 247 317 390 456
#     4  12  28  46  75 117 155 197 247 317 390 456
#     4  11  29  51  78 116 152 201 265 307 389 466
#
# _framework density 23.958969
#
# number of rings (size 3 to 8) (size 9 to 14) (size 15 to 20)
#    0.000    0.571    2.857    0.857   12.000    4.571 
#    0.000    0.000    0.000    0.000    0.000    0.000 
#    0.000    0.000    0.000    0.000    0.000    0.000 
#
# Total GULP energy -78332.623351 kJ/mol
# GULP energy per Si atom -5595.187382 kJ/mol
# Density = 2.390444 g / cm^3
# Si number density = 23.958969 Si / 1000 Ang^3
#
#
#
# Elastic Constant Matrix: (Units=GPa)
#
#
# Indices 1 2 3 4 5 6 
#
# 1 134.8473 47.3574 37.4081 0.0000 -2.0349 0.0000
# 2 47.3574 147.7305 53.9277 0.0000 0.1915 0.0000
# 3 37.4081 53.9277 95.6921 0.0000 0.8948 0.0000
# 4 0.0000 0.0000 0.0000 20.0037 0.0000 -1.0064
# 5 -2.0349 0.1915 0.8948 0.0000 13.8728 0.0000
# 6 0.0000 0.0000 0.0000 -1.0064 0.0000 54.5553
#
#
#
# Elastic Compliance Matrix: (Units=1/GPa)
#
#
# Indices 1 2 3 4 5 6 
#
# 1 0.008776 -0.001961 -0.002339 0.000000 0.001465 0.000000
# 2 -0.001961 0.008961 -0.004282 0.000000 -0.000135 0.000000
# 3 -0.002339 -0.004282 0.013789 0.000000 -0.001173 0.000000
# 4 0.000000 0.000000 0.000000 0.050037 0.000000 0.000923
# 5 0.001465 -0.000135 -0.001173 0.000000 0.072376 0.000000
# 6 0.000000 0.000000 0.000000 0.000923 0.000000 0.018347
#
#
# Mechanical properties :
#
#
# Convention : Reuss Voigt Hill
#
# Bulk Modulus (GPa) = 69.63446 72.85068 71.24257
# Shear Modulus (GPa) = 25.74170 33.65814 29.69992
#
# Velocity S-wave (km/s) = 3.28137 3.75216 3.52464
# Velocity P-wave (km/s) = 6.59422 7.01741 6.80910
#
# Compressibility (1/GPa) = 0.01436071
#
# Stress axis : x y z
#
# Youngs Moduli (GPa) = 113.95328 111.59332 72.52298
#
# Poissons Ratio (x) = 0.21886 0.16963
# Poissons Ratio (y) = 0.22349 0.31055
# Poissons Ratio (z) = 0.26654 0.47786
#
# Static dielectric constant tensor:
#      x y z
#    x 1.935310 0.000000 0.001310 
#    y 0.000000 1.994850 0.000000 
#    z 0.001310 0.000000 1.980350 
# 
# From -- ./inp_files/28470.got.cif
#   From: 2010.05.17/outbox.cif.g08.bks.cpg/sg9_15_cif.got.tgz:28470.got - 2010.06.03 20:04:27.
