data_PCOD9140161
_publ_section_title
;
Structure prediction by ZEFSAII (Michael W. Deem and Ramdas Pophale) SiO2 
 PCOD9140161
Probable space group: C C
;
_chemical_formula_sum "Si O2"
_cell_formula_units_Z 32
_cell_length_a 14.251271
_cell_length_b 11.383815
_cell_length_c 11.276998
_cell_angle_alpha 90.000000
_cell_angle_beta 50.148463
_cell_angle_gamma 90.000000
_cell_volume 1404.528904
_symmetry_space_group_name_H-M "C C"
_symmetry_group_IT_number 9
_symmetry_cell_setting 'monoclinic'
loop_
_space_group_symop_operation_xyz
x,y,z
x,-y,1/2+z
1/2+x,1/2+y,z
1/2+x,1/2-y,1/2+z
loop_
_atom_site_type_symbol
_atom_site_label
_atom_site_fract_x
_atom_site_fract_y
_atom_site_fract_z
Si Si1 0.346880 0.361772 0.269160
Si Si2 0.439123 0.422401 0.789754
Si Si3 0.556777 0.323166 0.928513
Si Si4 0.686580 0.513639 0.959024
Si Si5 0.660758 0.903539 0.224107
Si Si6 0.287871 0.193521 0.507324
Si Si7 0.222316 0.719849 0.422579
Si Si8 0.575463 0.835116 0.819790
O O1 0.366850 0.455910 0.356477
O O2 0.277208 0.421477 0.216188
O O3 0.275926 0.258700 0.390161
O O4 0.473723 0.315793 0.113115
O O5 0.478937 0.372827 0.882008
O O6 0.556196 0.451080 0.618043
O O7 0.352424 0.336191 0.788153
O O8 0.588006 0.192759 0.860171
O O9 0.657174 0.425433 0.873971
O O10 0.757811 0.441292 0.001820
O O11 0.741328 0.641111 0.891818
O O12 0.596820 0.029823 0.258849
O O13 0.693990 0.831916 0.077210
O O14 0.432617 0.201772 0.422658
O O15 0.179448 0.251608 0.673512
O O16 0.115793 0.674092 0.423972
#
# Coordination Sequence:
#
# PCOD9140161 Si02
#       8
#     4   4   4   4   4   4   4   4
#     4  11  24  45  76 104 148 206 248 314 384 458
#     4  11  23  44  71 106 152 194 255 305 385 445
#     4  11  24  44  74 109 153 196 255 317 384 455
#     4  11  27  45  74 110 152 202 250 318 378 461
#     4  12  25  48  74 110 148 200 260 315 374 458
#     4  12  29  53  75 117 156 203 258 315 395 457
#     4  12  27  45  75 115 151 209 258 314 384 456
#     4  12  31  50  81 111 162 202 258 324 382 458
#
# _framework density 22.783439999999999
#
# number of rings (size 3 to 8) (size 9 to 14) (size 15 to 20)
#    0.000    0.500    5.000    2.250    7.000    0.000 
#    2.250    0.000    0.000    0.000    0.000    0.000 
#    0.000    0.000    0.000    0.000    0.000    0.000 
#
# Total GULP energy -89310.485443 kJ/mol
# GULP energy per Si atom -5581.905340 kJ/mol
# Density = 2.273158 g / cm^3
# Si number density = 22.783440 Si / 1000 Ang^3
#
#
#
# Elastic Constant Matrix: (Units=GPa)
#
#
# Indices 1 2 3 4 5 6 
#
# 1 131.4517 41.8581 27.4989 0.0000 -11.6117 0.0000
# 2 41.8581 147.0765 27.2513 0.0000 -12.6096 0.0000
# 3 27.4989 27.2513 54.4021 0.0000 -16.7445 0.0000
# 4 0.0000 0.0000 0.0000 35.7481 0.0000 -1.6320
# 5 -11.6117 -12.6096 -16.7445 0.0000 28.4083 0.0000
# 6 0.0000 0.0000 0.0000 -1.6320 0.0000 40.2900
#
#
#
# Elastic Compliance Matrix: (Units=1/GPa)
#
#
# Indices 1 2 3 4 5 6 
#
# 1 0.008975 -0.001861 -0.003334 0.000000 0.000877 0.000000
# 2 -0.001861 0.007924 -0.002663 0.000000 0.001187 0.000000
# 3 -0.003334 -0.002663 0.025187 0.000000 0.012301 0.000000
# 4 0.000000 0.000000 0.000000 0.028025 0.000000 0.001135
# 5 0.000877 0.001187 0.012301 0.000000 0.043337 0.000000
# 6 0.000000 0.000000 0.000000 0.001135 0.000000 0.024866
#
#
# Mechanical properties :
#
#
# Convention : Reuss Voigt Hill
#
# Bulk Modulus (GPa) = 37.92401 58.46077 48.19239
# Shear Modulus (GPa) = 30.70842 36.64407 33.67625
#
# Velocity S-wave (km/s) = 3.67528 4.01479 3.84878
# Velocity P-wave (km/s) = 5.88997 6.87069 6.39915
#
# Compressibility (1/GPa) = 0.02636852
#
# Stress axis : x y z
#
# Youngs Moduli (GPa) = 111.42001 126.19690 39.70260
#
# Poissons Ratio (x) = 0.23489 0.13238
# Poissons Ratio (y) = 0.20739 0.10574
# Poissons Ratio (z) = 0.37151 0.33610
#
# Static dielectric constant tensor:
#      x y z
#    x 1.880060 0.000000 -0.044850 
#    y 0.000000 1.972750 0.000000 
#    z -0.044850 0.000000 1.871730 
# 
# From -- ./inp_files/18274.got.cif
#   From: 2010.05.17/outbox.cif.g08.bks.cpg/sg9_10_cif.got.tgz:18274.got - 2010.06.03 20:04:27.
