data_PCOD9140149
_publ_section_title
;
Structure prediction by ZEFSAII (Michael W. Deem and Ramdas Pophale) SiO2 
 PCOD9140149
Probable space group: C C
;
_chemical_formula_sum "Si O2"
_cell_formula_units_Z 28
_cell_length_a 8.955121
_cell_length_b 29.572806
_cell_length_c 8.686974
_cell_angle_alpha 90.000000
_cell_angle_beta 148.550728
_cell_angle_gamma 90.000000
_cell_volume 1200.299226
_symmetry_space_group_name_H-M "C C"
_symmetry_group_IT_number 9
_symmetry_cell_setting 'monoclinic'
loop_
_space_group_symop_operation_xyz
x,y,z
x,-y,1/2+z
1/2+x,1/2+y,z
1/2+x,1/2-y,1/2+z
loop_
_atom_site_type_symbol
_atom_site_label
_atom_site_fract_x
_atom_site_fract_y
_atom_site_fract_z
Si Si1 0.161560 0.631509 0.435240
Si Si2 0.665779 0.500525 0.275068
Si Si3 0.198604 0.839581 0.928803
Si Si4 0.544414 0.220104 0.514972
Si Si5 0.134290 0.906669 0.585228
Si Si6 0.138666 0.633565 0.053559
Si Si7 0.291731 0.466615 0.728745
O O1 0.036704 0.679191 0.387500
O O2 0.193419 0.638548 0.282278
O O3 0.925367 0.592207 0.244559
O O4 0.406832 0.617185 0.772651
O O5 0.565315 0.544336 0.089032
O O6 0.519138 0.511054 0.309396
O O7 0.002647 0.492076 0.536189
O O8 0.490024 0.458348 0.052359
O O9 0.206196 0.877667 0.801730
O O10 0.864817 0.834312 0.665961
O O11 0.379094 0.798547 0.018897
O O12 0.337373 0.855519 0.210823
O O13 0.371311 0.265103 0.319217
O O14 0.196934 0.580660 0.071304
#
# Coordination Sequence:
#
# PCOD9140149 Si02
#       7
#     4   4   4   4   4   4   4
#     4  11  25  42  72 101 135 183 224 279 349 429
#     4  12  27  44  66  99 139 190 244 305 358 402
#     4  11  23  44  73  96 132 183 229 281 342 416
#     4  11  23  44  72 104 135 170 224 281 348 432
#     4  11  23  44  68  93 133 189 240 277 338 424
#     4  12  25  45  67 101 141 181 236 286 346 414
#     4  12  28  43  68  98 145 188 241 309 353 407
#
# _framework density 23.327514999999998
#
# number of rings (size 3 to 8) (size 9 to 14) (size 15 to 20)
#    0.000    0.571    1.429    7.714    8.000    0.000 
#    0.000    4.286    0.000    0.000    0.000    0.000 
#    0.000    0.000    0.000    0.000    0.000    0.000 
#
# Total GULP energy -78156.833238 kJ/mol
# GULP energy per Si atom -5582.630946 kJ/mol
# Density = 2.327442 g / cm^3
# Si number density = 23.327515 Si / 1000 Ang^3
#
#
#
# Elastic Constant Matrix: (Units=GPa)
#
#
# Indices 1 2 3 4 5 6 
#
# 1 129.6105 33.5224 32.0156 0.0000 5.5835 0.0000
# 2 33.5224 56.3902 16.2670 0.0000 -9.8038 0.0000
# 3 32.0156 16.2670 107.0634 0.0000 13.7378 0.0000
# 4 0.0000 0.0000 0.0000 24.1517 0.0000 5.5794
# 5 5.5835 -9.8038 13.7378 0.0000 38.6207 0.0000
# 6 0.0000 0.0000 0.0000 5.5794 0.0000 28.0791
#
#
#
# Elastic Compliance Matrix: (Units=1/GPa)
#
#
# Indices 1 2 3 4 5 6 
#
# 1 0.009706 -0.005646 -0.001761 0.000000 -0.002210 0.000000
# 2 -0.005646 0.023252 -0.002836 0.000000 0.007727 0.000000
# 3 -0.001761 -0.002836 0.010853 0.000000 -0.004326 0.000000
# 4 0.000000 0.000000 0.000000 0.043397 0.000000 -0.008623
# 5 -0.002210 0.007727 -0.004326 0.000000 0.029713 0.000000
# 6 0.000000 0.000000 0.000000 -0.008623 0.000000 0.037327
#
#
# Mechanical properties :
#
#
# Convention : Reuss Voigt Hill
#
# Bulk Modulus (GPa) = 42.87388 50.74156 46.80772
# Shear Modulus (GPa) = 27.39606 32.25423 29.82515
#
# Velocity S-wave (km/s) = 3.43068 3.72246 3.57955
# Velocity P-wave (km/s) = 5.84053 6.34623 6.09862
#
# Compressibility (1/GPa) = 0.02332422
#
# Stress axis : x y z
#
# Youngs Moduli (GPa) = 103.02978 43.00773 92.14214
#
# Poissons Ratio (x) = 0.24283 0.16226
# Poissons Ratio (y) = 0.58172 0.26131
# Poissons Ratio (z) = 0.18143 0.12197
#
# Static dielectric constant tensor:
#      x y z
#    x 1.935880 0.000000 -0.015580 
#    y 0.000000 1.889230 0.000000 
#    z -0.015580 0.000000 1.890600 
# 
# From -- ./inp_files/6548.got.cif
#   From: 2010.05.17/outbox.cif.g08.bks.cpg/sg9_4_cif.got.tgz:6548.got - 2010.06.03 20:04:27.
