data_PCOD9140501
_publ_section_title
;
Structure prediction by ZEFSAII (Michael W. Deem and Ramdas Pophale) SiO2 
 PCOD9140501
Probable space group: C C
;
_chemical_formula_sum "Si O2"
_cell_formula_units_Z 28
_cell_length_a 7.440544
_cell_length_b 6.949584
_cell_length_c 21.125908
_cell_angle_alpha 90.000000
_cell_angle_beta 95.477123
_cell_angle_gamma 90.000000
_cell_volume 1087.405491
_symmetry_space_group_name_H-M "C C"
_symmetry_group_IT_number 9
_symmetry_cell_setting 'monoclinic'
loop_
_space_group_symop_operation_xyz
x,y,z
x,-y,1/2+z
1/2+x,1/2+y,z
1/2+x,1/2-y,1/2+z
loop_
_atom_site_type_symbol
_atom_site_label
_atom_site_fract_x
_atom_site_fract_y
_atom_site_fract_z
Si Si1 0.199560 0.159220 0.420020
Si Si2 0.600526 0.762544 0.941325
Si Si3 0.555109 0.058572 0.825463
Si Si4 0.740363 0.251650 0.242949
Si Si5 0.622371 0.318288 0.054723
Si Si6 0.056831 0.608934 0.577652
Si Si7 0.028013 0.927740 0.658635
O O1 0.385105 0.273133 0.437473
O O2 0.135271 0.235999 0.350305
O O3 0.079016 0.197706 0.478590
O O4 0.206980 0.927046 0.423541
O O5 0.596908 0.931296 0.889425
O O6 0.643689 0.823685 0.014134
O O7 0.358434 0.122505 0.796090
O O8 0.636910 0.922113 0.774121
O O9 0.622985 0.408152 0.202170
O O10 0.872311 0.154266 0.196876
O O11 0.836485 0.369906 0.067321
O O12 0.504708 0.473562 0.088753
O O13 0.590961 0.114415 0.085098
O O14 0.130830 0.734659 0.638425
#
# Coordination Sequence:
#
# PCOD9140501 Si02
#       7
#     4   4   4   4   4   4   4
#     4  11  24  46  76 111 148 190 247 321 383 438
#     4  11  24  46  76 111 148 190 247 321 383 438
#     4  12  28  52  72 114 146 208 250 310 364 464
#     4  12  32  48  80 100 166 206 252 296 372 450
#     4  11  25  48  78 114 149 191 248 322 384 439
#     4  11  25  48  78 114 149 191 248 322 384 439
#     4  12  28  56  72 118 148 208 252 310 366 464
#
# _framework density 25.749365000000001
#
# number of rings (size 3 to 8) (size 9 to 14) (size 15 to 20)
#    0.000    0.571    4.286    1.714    8.000    3.429 
#    0.000    0.000    0.000    0.000    0.000    0.000 
#    0.000    0.000    0.000    0.000    0.000    0.000 
#
# Total GULP energy -78344.632978 kJ/mol
# GULP energy per Si atom -5596.045213 kJ/mol
# Density = 2.569076 g / cm^3
# Si number density = 25.749365 Si / 1000 Ang^3
#
#
#
# Elastic Constant Matrix: (Units=GPa)
#
#
# Indices 1 2 3 4 5 6 
#
# 1 68.5857 46.1200 32.4939 0.0000 -3.4914 0.0000
# 2 46.1200 171.5852 46.7772 0.0000 -13.4843 0.0000
# 3 32.4939 46.7772 98.3334 0.0000 -14.6979 0.0000
# 4 0.0000 0.0000 0.0000 73.3727 0.0000 -6.1687
# 5 -3.4914 -13.4843 -14.6979 0.0000 42.3607 0.0000
# 6 0.0000 0.0000 0.0000 -6.1687 0.0000 49.7291
#
#
#
# Elastic Compliance Matrix: (Units=1/GPa)
#
#
# Indices 1 2 3 4 5 6 
#
# 1 0.019467 -0.004054 -0.004701 0.000000 -0.001317 0.000000
# 2 -0.004054 0.007588 -0.002066 0.000000 0.001364 0.000000
# 3 -0.004701 -0.002066 0.013236 0.000000 0.003547 0.000000
# 4 0.000000 0.000000 0.000000 0.013773 0.000000 0.001708
# 5 -0.001317 0.001364 0.003547 0.000000 0.025163 0.000000
# 6 0.000000 0.000000 0.000000 0.001708 0.000000 0.020321
#
#
# Mechanical properties :
#
#
# Convention : Reuss Voigt Hill
#
# Bulk Modulus (GPa) = 53.62433 65.47627 59.55030
# Shear Modulus (GPa) = 39.24443 47.30004 43.27223
#
# Velocity S-wave (km/s) = 3.90820 4.29060 4.10386
# Velocity P-wave (km/s) = 6.42153 7.07313 6.75519
#
# Compressibility (1/GPa) = 0.01864825
#
# Stress axis : x y z
#
# Youngs Moduli (GPa) = 51.36968 131.78290 75.55194
#
# Poissons Ratio (x) = 0.53430 0.35516
# Poissons Ratio (y) = 0.20827 0.15609
# Poissons Ratio (z) = 0.24148 0.27227
#
# Static dielectric constant tensor:
#      x y z
#    x 2.065920 0.000000 0.019480 
#    y 0.000000 2.007400 0.000000 
#    z 0.019480 0.000000 2.075800 
# 
# From -- ./inp_files/34862.got.cif
#   From: 2010.05.17/outbox.cif.g08.bks.cpg/sg9_18_cif.got.tgz:34862.got - 2010.06.03 20:04:27.
