data_PCOD9140886
_publ_section_title
;
Structure prediction by ZEFSAII (Michael W. Deem and Ramdas Pophale) SiO2 
 PCOD9140886
Probable space group: C C
;
_chemical_formula_sum "Si O2"
_cell_formula_units_Z 24
_cell_length_a 7.306734
_cell_length_b 7.046036
_cell_length_c 17.778958
_cell_angle_alpha 90.000000
_cell_angle_beta 106.221195
_cell_angle_gamma 90.000000
_cell_volume 878.884540
_symmetry_space_group_name_H-M "C C"
_symmetry_group_IT_number 9
_symmetry_cell_setting 'monoclinic'
loop_
_space_group_symop_operation_xyz
x,y,z
x,-y,1/2+z
1/2+x,1/2+y,z
1/2+x,1/2-y,1/2+z
loop_
_atom_site_type_symbol
_atom_site_label
_atom_site_fract_x
_atom_site_fract_y
_atom_site_fract_z
Si Si1 0.662380 0.264406 0.711350
Si Si2 0.143409 0.149106 0.038519
Si Si3 0.732862 0.178094 0.181958
Si Si4 0.552483 0.086258 0.010830
Si Si5 0.553087 0.734241 0.807263
Si Si6 0.441393 0.408135 0.904600
O O1 0.664634 0.364639 0.630342
O O2 0.694551 0.041383 0.697605
O O3 0.842264 0.324463 0.782280
O O4 0.537004 0.545338 0.854653
O O5 0.106315 0.367456 0.012990
O O6 0.972192 0.024732 0.985437
O O7 0.339680 0.090179 0.021625
O O8 0.603244 0.295870 0.224890
O O9 0.726057 0.139153 0.357271
O O10 0.681673 0.192213 0.088377
O O11 0.543503 0.208421 0.933887
O O12 0.952486 0.777154 0.720339
#
# Coordination Sequence:
#
# PCOD9140886 Si02
#       6
#     4   4   4   4   4   4
#     4  11  27  52  85 120 162 220 284 344 411 497
#     4  11  27  53  85 121 164 220 283 344 411 501
#     4  11  27  52  85 120 162 220 284 344 411 497
#     4  11  27  53  85 121 164 220 283 344 411 501
#     4  12  26  56  80 128 170 224 272 354 424 492
#     4  12  28  54  82 126 174 220 274 350 428 494
#
# _framework density 27.307341000000001
#
# number of rings (size 3 to 8) (size 9 to 14) (size 15 to 20)
#    0.000    0.667    5.000    0.000    9.333    1.333 
#   12.000    0.000    0.000    0.000    0.000    0.000 
#    0.000    0.000    0.000    0.000    0.000    0.000 
#
# Total GULP energy -67442.847003 kJ/mol
# GULP energy per Si atom -5620.237250 kJ/mol
# Density = 2.724519 g / cm^3
# Si number density = 27.307341 Si / 1000 Ang^3
#
#
#
# Elastic Constant Matrix: (Units=GPa)
#
#
# Indices 1 2 3 4 5 6 
#
# 1 188.1594 60.8250 32.0872 0.0000 18.1972 0.0000
# 2 60.8250 125.1760 46.2785 0.0000 7.8510 0.0000
# 3 32.0872 46.2785 110.7978 0.0000 29.3095 0.0000
# 4 0.0000 0.0000 0.0000 57.5721 0.0000 -0.1640
# 5 18.1972 7.8510 29.3095 0.0000 53.6088 0.0000
# 6 0.0000 0.0000 0.0000 -0.1640 0.0000 53.0514
#
#
#
# Elastic Compliance Matrix: (Units=1/GPa)
#
#
# Indices 1 2 3 4 5 6 
#
# 1 0.006467 -0.002966 -0.000197 0.000000 -0.001653 0.000000
# 2 -0.002966 0.010846 -0.004112 0.000000 0.001667 0.000000
# 3 -0.000197 -0.004112 0.012419 0.000000 -0.006121 0.000000
# 4 0.000000 0.000000 0.000000 0.017370 0.000000 0.000054
# 5 -0.001653 0.001667 -0.006121 0.000000 0.022317 0.000000
# 6 0.000000 0.000000 0.000000 0.000054 0.000000 0.018850
#
#
# Mechanical properties :
#
#
# Convention : Reuss Voigt Hill
#
# Bulk Modulus (GPa) = 65.86549 78.05718 71.96134
# Shear Modulus (GPa) = 46.34850 51.84260 49.09555
#
# Velocity S-wave (km/s) = 4.12429 4.36189 4.24475
# Velocity P-wave (km/s) = 6.84486 7.34948 7.10165
#
# Compressibility (1/GPa) = 0.01518246
#
# Stress axis : x y z
#
# Youngs Moduli (GPa) = 154.63476 92.20275 80.52122
#
# Poissons Ratio (x) = 0.27347 0.01583
# Poissons Ratio (y) = 0.45864 0.33110
# Poissons Ratio (z) = 0.03041 0.37914
#
# Static dielectric constant tensor:
#      x y z
#    x 2.070820 0.000000 0.002550 
#    y 0.000000 2.140430 0.000000 
#    z 0.002550 0.000000 2.171650 
# 
# From -- ./inp_files/22405.got.cif
#   From: 2010.05.17/outbox.cif.g08.bks.cpg/sg9_12_cif.got.tgz:22405.got - 2010.06.03 20:04:27.
