data_PCOD9140720
_publ_section_title
;
Structure prediction by ZEFSAII (Michael W. Deem and Ramdas Pophale) SiO2 
 PCOD9140720
Probable space group: C C
;
_chemical_formula_sum "Si O2"
_cell_formula_units_Z 24
_cell_length_a 11.728517
_cell_length_b 9.593236
_cell_length_c 12.118514
_cell_angle_alpha 90.000000
_cell_angle_beta 46.503337
_cell_angle_gamma 90.000000
_cell_volume 989.108213
_symmetry_space_group_name_H-M "C C"
_symmetry_group_IT_number 9
_symmetry_cell_setting 'monoclinic'
loop_
_space_group_symop_operation_xyz
x,y,z
x,-y,1/2+z
1/2+x,1/2+y,z
1/2+x,1/2-y,1/2+z
loop_
_atom_site_type_symbol
_atom_site_label
_atom_site_fract_x
_atom_site_fract_y
_atom_site_fract_z
Si Si1 0.244480 0.801905 0.297100
Si Si2 0.983722 0.882255 0.293726
Si Si3 0.371068 0.911697 0.417391
Si Si4 0.029053 0.422894 0.984969
Si Si5 0.611502 0.680184 0.256347
Si Si6 0.135652 0.720876 0.990471
O O1 0.101945 0.832753 0.310457
O O2 0.256237 0.911026 0.389974
O O3 0.406665 0.821385 0.125521
O O4 0.198893 0.648438 0.368291
O O5 0.807277 0.826154 0.417989
O O6 0.004600 0.048066 0.295477
O O7 0.053116 0.821551 0.133173
O O8 0.515752 0.815816 0.284720
O O9 0.271002 0.840440 0.581999
O O10 0.451171 0.045587 0.417383
O O11 0.044752 0.573269 0.033056
O O12 0.642802 0.705683 0.365279
#
# Coordination Sequence:
#
# PCOD9140720 Si02
#       6
#     4   4   4   4   4   4
#     4  12  26  46  75 110 149 197 249 311 372 448
#     4  12  27  45  78 110 149 200 246 314 374 453
#     4  11  25  48  72 107 149 193 251 310 367 452
#     4  11  26  50  76 111 151 202 248 316 376 443
#     4  11  25  48  76 104 147 202 244 308 377 437
#     4  11  27  51  75 112 153 196 256 309 378 451
#
# _framework density 24.264282000000001
#
# number of rings (size 3 to 8) (size 9 to 14) (size 15 to 20)
#    0.000    0.667    1.667    5.000    4.667    0.000 
#   12.000    0.000    0.000    0.000    0.000    0.000 
#    0.000    0.000    0.000    0.000    0.000    0.000 
#
# Total GULP energy -67166.311113 kJ/mol
# GULP energy per Si atom -5597.192593 kJ/mol
# Density = 2.420906 g / cm^3
# Si number density = 24.264282 Si / 1000 Ang^3
#
#
#
# Elastic Constant Matrix: (Units=GPa)
#
#
# Indices 1 2 3 4 5 6 
#
# 1 133.2018 41.4043 24.0472 0.0000 16.8733 0.0000
# 2 41.4043 104.0302 53.3027 0.0000 -7.1836 0.0000
# 3 24.0472 53.3027 67.0556 0.0000 -3.6128 0.0000
# 4 0.0000 0.0000 0.0000 25.8907 0.0000 5.9793
# 5 16.8733 -7.1836 -3.6128 0.0000 41.5560 0.0000
# 6 0.0000 0.0000 0.0000 5.9793 0.0000 31.4653
#
#
#
# Elastic Compliance Matrix: (Units=1/GPa)
#
#
# Indices 1 2 3 4 5 6 
#
# 1 0.009342 -0.003691 -0.000658 0.000000 -0.004488 0.000000
# 2 -0.003691 0.017795 -0.012635 0.000000 0.003476 0.000000
# 3 -0.000658 -0.012635 0.025207 0.000000 0.000275 0.000000
# 4 0.000000 0.000000 0.000000 0.040397 0.000000 -0.007677
# 5 -0.004488 0.003476 0.000275 0.000000 0.026511 0.000000
# 6 0.000000 0.000000 0.000000 -0.007677 0.000000 0.033240
#
#
# Mechanical properties :
#
#
# Convention : Reuss Voigt Hill
#
# Bulk Modulus (GPa) = 54.41535 60.19954 57.30744
# Shear Modulus (GPa) = 25.96251 32.15130 29.05690
#
# Velocity S-wave (km/s) = 3.27462 3.64407 3.46427
# Velocity P-wave (km/s) = 6.06402 6.52453 6.29848
#
# Compressibility (1/GPa) = 0.01837717
#
# Stress axis : x y z
#
# Youngs Moduli (GPa) = 107.04268 56.19449 39.67134
#
# Poissons Ratio (x) = 0.20741 0.02611
# Poissons Ratio (y) = 0.39508 0.50123
# Poissons Ratio (z) = 0.07045 0.71000
#
# Static dielectric constant tensor:
#      x y z
#    x 1.982360 0.000000 0.027710 
#    y 0.000000 2.014720 0.000000 
#    z 0.027710 0.000000 1.925240 
# 
# From -- ./inp_files/15888.got.cif
#   From: 2010.05.17/outbox.cif.g08.bks.cpg/sg9_8_cif.got.tgz:15888.got - 2010.06.03 20:04:27.
