data_PCOD9140376
_publ_section_title
;
Structure prediction by ZEFSAII (Michael W. Deem and Ramdas Pophale) SiO2 
 PCOD9140376
Probable space group: C C
;
_chemical_formula_sum "Si O2"
_cell_formula_units_Z 28
_cell_length_a 10.507028
_cell_length_b 12.585256
_cell_length_c 7.777113
_cell_angle_alpha 90.000000
_cell_angle_beta 83.840075
_cell_angle_gamma 90.000000
_cell_volume 1022.458248
_symmetry_space_group_name_H-M "C C"
_symmetry_group_IT_number 9
_symmetry_cell_setting 'monoclinic'
loop_
_space_group_symop_operation_xyz
x,y,z
x,-y,1/2+z
1/2+x,1/2+y,z
1/2+x,1/2-y,1/2+z
loop_
_atom_site_type_symbol
_atom_site_label
_atom_site_fract_x
_atom_site_fract_y
_atom_site_fract_z
Si Si1 0.981100 0.885032 0.055470
Si Si2 0.775134 0.643877 0.925134
Si Si3 0.632218 0.869200 0.898802
Si Si4 0.898025 0.095336 0.207031
Si Si5 0.849265 0.413909 0.028992
Si Si6 0.297602 0.299322 0.372542
Si Si7 0.549740 0.820620 0.544589
O O1 0.866796 0.851131 0.201713
O O2 0.981833 0.006937 0.099630
O O3 0.984806 0.866275 0.850621
O O4 0.083584 0.800104 0.100078
O O5 0.675118 0.746198 0.949753
O O6 0.771111 0.522416 0.999188
O O7 0.808323 0.625286 0.721937
O O8 0.907738 0.677624 0.997040
O O9 0.771068 0.925763 0.847859
O O10 0.507622 0.916479 0.014481
O O11 0.577466 0.880678 0.713464
O O12 0.852087 0.163450 0.051276
O O13 0.818673 0.326870 0.884469
O O14 0.153701 0.341819 0.386214
#
# Coordination Sequence:
#
# PCOD9140376 Si02
#       7
#     4   4   4   4   4   4   4
#     4  12  23  44  73 107 145 195 251 327 392 470
#     4  12  27  49  77 117 150 208 274 322 412 489
#     4  11  25  49  74 109 152 198 256 331 388 482
#     4  11  24  43  71 108 144 189 262 313 395 479
#     4  12  26  49  75 109 158 204 256 330 404 477
#     4  11  25  48  70 107 153 197 255 323 390 485
#     4  11  24  48  72 105 150 195 262 322 391 480
#
# _framework density 27.384985
#
# number of rings (size 3 to 8) (size 9 to 14) (size 15 to 20)
#    0.000    0.571    7.143    0.857    4.000    0.000 
#    5.143    0.000    0.000    0.000    0.000    0.000 
#    0.000    0.000    0.000    0.000    0.000    0.000 
#
# Total GULP energy -78006.005100 kJ/mol
# GULP energy per Si atom -5571.857507 kJ/mol
# Density = 2.732266 g / cm^3
# Si number density = 27.384985 Si / 1000 Ang^3
#
#
#
# Elastic Constant Matrix: (Units=GPa)
#
#
# Indices 1 2 3 4 5 6 
#
# 1 120.5658 9.6378 35.2192 0.0000 -2.5665 0.0000
# 2 9.6378 116.8882 23.1384 0.0000 2.9236 0.0000
# 3 35.2192 23.1384 129.2824 0.0000 10.8676 0.0000
# 4 0.0000 0.0000 0.0000 34.3299 0.0000 8.6136
# 5 -2.5665 2.9236 10.8676 0.0000 40.2186 0.0000
# 6 0.0000 0.0000 0.0000 8.6136 0.0000 12.6042
#
#
#
# Elastic Compliance Matrix: (Units=1/GPa)
#
#
# Indices 1 2 3 4 5 6 
#
# 1 0.009084 -0.000280 -0.002532 0.000000 0.001284 0.000000
# 2 -0.000280 0.008880 -0.001491 0.000000 -0.000260 0.000000
# 3 -0.002532 -0.001491 0.008898 0.000000 -0.002458 0.000000
# 4 0.000000 0.000000 0.000000 0.035157 0.000000 -0.024026
# 5 0.001284 -0.000260 -0.002458 0.000000 0.025629 0.000000
# 6 0.000000 0.000000 0.000000 -0.024026 0.000000 0.095758
#
#
# Mechanical properties :
#
#
# Convention : Reuss Voigt Hill
#
# Bulk Modulus (GPa) = 54.77907 55.85857 55.31882
# Shear Modulus (GPa) = 25.23999 37.34660 31.29329
#
# Velocity S-wave (km/s) = 3.03920 3.69692 3.38408
# Velocity P-wave (km/s) = 5.68880 6.21810 5.95933
#
# Compressibility (1/GPa) = 0.01825515
#
# Stress axis : x y z
#
# Youngs Moduli (GPa) = 110.08715 112.61320 112.37993
#
# Poissons Ratio (x) = 0.03151 0.28460
# Poissons Ratio (y) = 0.03080 0.16758
# Poissons Ratio (z) = 0.27879 0.16793
#
# Static dielectric constant tensor:
#      x y z
#    x 2.267680 0.000000 -0.060880 
#    y 0.000000 2.380750 0.000000 
#    z -0.060880 0.000000 2.062370 
# 
# From -- ./inp_files/7237.got.cif
#   From: 2010.05.17/outbox.cif.g08.bks.cpg/sg9_4_cif.got.tgz:7237.got - 2010.06.03 20:04:27.
