data_PCOD9140322
_publ_section_title
;
Structure prediction by ZEFSAII (Michael W. Deem and Ramdas Pophale) SiO2 
 PCOD9140322
Probable space group: C C
;
_chemical_formula_sum "Si O2"
_cell_formula_units_Z 20
_cell_length_a 7.251789
_cell_length_b 14.364271
_cell_length_c 7.369134
_cell_angle_alpha 90.000000
_cell_angle_beta 108.001607
_cell_angle_gamma 90.000000
_cell_volume 730.041537
_symmetry_space_group_name_H-M "C C"
_symmetry_group_IT_number 9
_symmetry_cell_setting 'monoclinic'
loop_
_space_group_symop_operation_xyz
x,y,z
x,-y,1/2+z
1/2+x,1/2+y,z
1/2+x,1/2-y,1/2+z
loop_
_atom_site_type_symbol
_atom_site_label
_atom_site_fract_x
_atom_site_fract_y
_atom_site_fract_z
Si Si1 0.525700 0.624618 0.470970
Si Si2 0.383113 0.228691 0.466282
Si Si3 0.071796 0.620666 0.225958
Si Si4 0.493543 0.416270 0.366046
Si Si5 0.052332 0.419386 0.296459
O O1 0.656845 0.705303 0.425409
O O2 0.295820 0.636550 0.357476
O O3 0.578718 0.518011 0.430392
O O4 0.568354 0.621545 0.698949
O O5 0.442854 0.198582 0.281882
O O6 0.474454 0.332572 0.506643
O O7 0.467048 0.155611 0.634948
O O8 0.978341 0.524727 0.271872
O O9 0.058731 0.612795 0.006056
O O10 0.265364 0.436656 0.276201
#
# Coordination Sequence:
#
# PCOD9140322 Si02
#       5
#     4   4   4   4   4
#     4  11  26  53  81 111 164 214 262 346 403 479
#     4  12  28  50  80 124 149 221 277 321 414 494
#     4  11  23  51  77 110 164 205 265 338 400 477
#     4  11  26  51  79 119 164 208 272 342 400 484
#     4  11  23  49  77 108 163 208 256 345 399 468
#
# _framework density 27.395697999999999
#
# number of rings (size 3 to 8) (size 9 to 14) (size 15 to 20)
#    0.000    0.800    4.000    3.600    5.600    3.200 
#    7.200    0.000    0.000    0.000    0.000    0.000 
#    0.000    0.000    0.000    0.000    0.000    0.000 
#
# Total GULP energy -55995.027238 kJ/mol
# GULP energy per Si atom -5599.502724 kJ/mol
# Density = 2.733334 g / cm^3
# Si number density = 27.395698 Si / 1000 Ang^3
#
#
#
# Elastic Constant Matrix: (Units=GPa)
#
#
# Indices 1 2 3 4 5 6 
#
# 1 90.2538 27.3133 20.4741 0.0000 -17.7429 0.0000
# 2 27.3133 192.2296 46.2583 0.0000 -9.1006 0.0000
# 3 20.4741 46.2583 124.5952 0.0000 -26.7185 0.0000
# 4 0.0000 0.0000 0.0000 42.8474 0.0000 -7.4307
# 5 -17.7429 -9.1006 -26.7185 0.0000 49.0630 0.0000
# 6 0.0000 0.0000 0.0000 -7.4307 0.0000 16.2234
#
#
#
# Elastic Compliance Matrix: (Units=1/GPa)
#
#
# Indices 1 2 3 4 5 6 
#
# 1 0.012423 -0.001417 -0.000689 0.000000 0.003855 0.000000
# 2 -0.001417 0.005875 -0.002066 0.000000 -0.000548 0.000000
# 3 -0.000689 -0.002066 0.009930 0.000000 0.004775 0.000000
# 4 0.000000 0.000000 0.000000 0.025352 0.000000 0.011612
# 5 0.003855 -0.000548 0.004775 0.000000 0.024275 0.000000
# 6 0.000000 0.000000 0.000000 0.011612 0.000000 0.066958
#
#
# Mechanical properties :
#
#
# Convention : Reuss Voigt Hill
#
# Bulk Modulus (GPa) = 50.28945 66.13000 58.20973
# Shear Modulus (GPa) = 31.29233 42.49561 36.89397
#
# Velocity S-wave (km/s) = 3.38336 3.94277 3.67373
# Velocity P-wave (km/s) = 5.80167 6.70213 6.26809
#
# Compressibility (1/GPa) = 0.01988489
#
# Stress axis : x y z
#
# Youngs Moduli (GPa) = 80.49806 170.22464 100.70339
#
# Poissons Ratio (x) = 0.24119 0.06936
# Poissons Ratio (y) = 0.11406 0.20802
# Poissons Ratio (z) = 0.05544 0.35163
#
# Static dielectric constant tensor:
#      x y z
#    x 2.200400 0.000000 0.067830 
#    y 0.000000 2.224190 0.000000 
#    z 0.067830 0.000000 2.076670 
# 
# From -- ./inp_files/4934.got.cif
#   From: 2010.05.17/outbox.cif.g08.bks.cpg/sg9_3_cif.got.tgz:4934.got - 2010.06.03 20:04:27.
