data_PCOD9140974
_publ_section_title
;
Structure prediction by ZEFSAII (Michael W. Deem and Ramdas Pophale) SiO2 
 PCOD9140974
Probable space group: C C
;
_chemical_formula_sum "Si O2"
_cell_formula_units_Z 32
_cell_length_a 12.396030
_cell_length_b 8.026749
_cell_length_c 30.225552
_cell_angle_alpha 90.000000
_cell_angle_beta 151.105228
_cell_angle_gamma 90.000000
_cell_volume 1453.201086
_symmetry_space_group_name_H-M "C C"
_symmetry_group_IT_number 9
_symmetry_cell_setting 'monoclinic'
loop_
_space_group_symop_operation_xyz
x,y,z
x,-y,1/2+z
1/2+x,1/2+y,z
1/2+x,1/2-y,1/2+z
loop_
_atom_site_type_symbol
_atom_site_label
_atom_site_fract_x
_atom_site_fract_y
_atom_site_fract_z
Si Si1 0.331790 0.809085 0.001930
Si Si2 0.203232 0.240517 0.077172
Si Si3 0.571819 0.063639 0.151132
Si Si4 0.898115 0.663014 0.857602
Si Si5 0.499552 0.592941 0.849010
Si Si6 0.367585 0.185100 0.385115
Si Si7 0.901912 0.339541 0.252620
Si Si8 0.011676 0.702974 0.263802
O O1 0.485116 0.688917 0.027194
O O2 0.483708 0.918153 0.088355
O O3 0.151518 0.697626 0.961828
O O4 0.185149 0.949559 0.923089
O O5 0.364436 0.122978 0.106636
O O6 0.367297 0.303508 0.175063
O O7 0.068564 0.345214 0.992206
O O8 0.692934 0.215959 0.168301
O O9 0.766782 0.990643 0.251593
O O10 0.805813 0.492398 0.843276
O O11 0.894931 0.648525 0.803486
O O12 0.751290 0.808516 0.826447
O O13 0.465908 0.699026 0.881384
O O14 0.547246 0.709739 0.823753
O O15 0.140583 0.264342 0.323186
O O16 0.896023 0.524289 0.229945
#
# Coordination Sequence:
#
# PCOD9140974 Si02
#       8
#     4   4   4   4   4   4   4   4
#     4  12  25  46  74 107 146 191 240 306 356 439
#     4  12  24  44  74 102 144 186 242 300 358 424
#     4  12  25  46  74 107 146 191 240 306 356 439
#     4  12  25  48  76 104 147 194 240 299 371 425
#     4  12  24  50  76 106 152 192 244 300 378 424
#     4  12  26  47  76 107 144 197 243 303 368 438
#     4  12  25  48  76 104 147 194 240 299 371 425
#     4  12  26  47  76 107 144 197 243 303 368 438
#
# _framework density 22.020353
#
# number of rings (size 3 to 8) (size 9 to 14) (size 15 to 20)
#    0.000    0.000    7.500    3.000    0.000    1.000 
#    4.500    2.500    0.000    0.000    0.000    0.000 
#    0.000    0.000    0.000    0.000    0.000    0.000 
#
# Total GULP energy -89283.892330 kJ/mol
# GULP energy per Si atom -5580.243271 kJ/mol
# Density = 2.197023 g / cm^3
# Si number density = 22.020353 Si / 1000 Ang^3
#
#
#
# Elastic Constant Matrix: (Units=GPa)
#
#
# Indices 1 2 3 4 5 6 
#
# 1 147.3222 37.1576 36.2522 0.0000 17.4586 0.0000
# 2 37.1576 70.6058 12.2989 0.0000 2.1980 0.0000
# 3 36.2522 12.2989 89.0935 0.0000 4.0084 0.0000
# 4 0.0000 0.0000 0.0000 31.8332 0.0000 1.7830
# 5 17.4586 2.1980 4.0084 0.0000 43.3133 0.0000
# 6 0.0000 0.0000 0.0000 1.7830 0.0000 33.3409
#
#
#
# Elastic Compliance Matrix: (Units=1/GPa)
#
#
# Indices 1 2 3 4 5 6 
#
# 1 0.008904 -0.004081 -0.002920 0.000000 -0.003112 0.000000
# 2 -0.004081 0.016395 -0.000642 0.000000 0.000872 0.000000
# 3 -0.002920 -0.000642 0.012499 0.000000 0.000053 0.000000
# 4 0.000000 0.000000 0.000000 0.031508 0.000000 -0.001685
# 5 -0.003112 0.000872 0.000053 0.000000 0.024293 0.000000
# 6 0.000000 0.000000 0.000000 -0.001685 0.000000 0.030083
#
#
# Mechanical properties :
#
#
# Convention : Reuss Voigt Hill
#
# Bulk Modulus (GPa) = 44.41879 53.15987 48.78933
# Shear Modulus (GPa) = 34.13624 36.45166 35.29395
#
# Velocity S-wave (km/s) = 3.94155 4.07303 4.00783
# Velocity P-wave (km/s) = 6.39765 6.80537 6.60465
#
# Compressibility (1/GPa) = 0.02251300
#
# Stress axis : x y z
#
# Youngs Moduli (GPa) = 112.30507 60.99305 80.00942
#
# Poissons Ratio (x) = 0.24889 0.23362
# Poissons Ratio (y) = 0.45827 0.05138
# Poissons Ratio (z) = 0.32792 0.03917
#
# Static dielectric constant tensor:
#      x y z
#    x 1.837060 0.000000 -0.007610 
#    y 0.000000 1.836460 0.000000 
#    z -0.007610 0.000000 1.830610 
# 
# From -- ./inp_files/31861.got.cif
#   From: 2010.05.17/outbox.cif.g08.bks.cpg/sg9_16_cif.got.tgz:31861.got - 2010.06.03 20:04:27.
