data_PCOD9140087
_publ_section_title
;
Structure prediction by ZEFSAII (Michael W. Deem and Ramdas Pophale) SiO2 
 PCOD9140087
Probable space group: C C
;
_chemical_formula_sum "Si O2"
_cell_formula_units_Z 28
_cell_length_a 20.599740
_cell_length_b 6.586258
_cell_length_c 10.250321
_cell_angle_alpha 90.000000
_cell_angle_beta 68.341287
_cell_angle_gamma 90.000000
_cell_volume 1292.528227
_symmetry_space_group_name_H-M "C C"
_symmetry_group_IT_number 9
_symmetry_cell_setting 'monoclinic'
loop_
_space_group_symop_operation_xyz
x,y,z
x,-y,1/2+z
1/2+x,1/2+y,z
1/2+x,1/2-y,1/2+z
loop_
_atom_site_type_symbol
_atom_site_label
_atom_site_fract_x
_atom_site_fract_y
_atom_site_fract_z
Si Si1 0.278810 0.668345 0.193970
Si Si2 0.034498 0.935685 0.952125
Si Si3 0.672321 0.496554 0.202113
Si Si4 0.971339 0.610025 0.833989
Si Si5 0.211780 0.395589 0.015713
Si Si6 0.584868 0.151415 0.122128
Si Si7 0.931761 0.701868 0.578591
O O1 0.243086 0.522043 0.113818
O O2 0.262930 0.609104 0.354844
O O3 0.360869 0.675658 0.108724
O O4 0.241705 0.887935 0.203289
O O5 0.116613 0.943523 0.855014
O O6 0.992270 0.834737 0.864536
O O7 0.031515 0.767766 0.068076
O O8 0.998796 0.148743 0.013384
O O9 0.691313 0.679238 0.091884
O O10 0.628463 0.326548 0.158656
O O11 0.931832 0.621275 0.726399
O O12 0.042854 0.488164 0.753082
O O13 0.934096 0.480508 0.973295
O O14 0.141280 0.503463 0.015026
#
# Coordination Sequence:
#
# PCOD9140087 Si02
#       7
#     4   4   4   4   4   4   4
#     4  11  29  46  72 103 146 192 239 287 363 433
#     4  12  24  43  75 108 142 188 240 299 359 425
#     4  11  23  43  74 105 141 185 239 297 357 418
#     4  12  26  47  72 106 147 184 242 298 363 426
#     4  11  25  48  72 105 143 187 243 302 352 421
#     4  11  23  41  71 111 137 180 237 299 355 414
#     4  12  30  48  72 106 148 194 238 296 363 439
#
# _framework density 21.662972
#
# number of rings (size 3 to 8) (size 9 to 14) (size 15 to 20)
#    0.000    0.571    4.286    2.571    8.000    1.143 
#    0.000    0.000    0.000    0.000    0.000    0.000 
#    0.000    0.000    0.000    0.000    0.000    0.000 
#
# Total GULP energy -78289.028727 kJ/mol
# GULP energy per Si atom -5592.073481 kJ/mol
# Density = 2.161367 g / cm^3
# Si number density = 21.662972 Si / 1000 Ang^3
#
#
#
# Elastic Constant Matrix: (Units=GPa)
#
#
# Indices 1 2 3 4 5 6 
#
# 1 60.8927 10.6188 18.4473 0.0000 2.8481 0.0000
# 2 10.6188 67.2240 14.4141 0.0000 15.2964 0.0000
# 3 18.4473 14.4141 76.2359 0.0000 18.6867 0.0000
# 4 0.0000 0.0000 0.0000 35.1342 0.0000 1.9690
# 5 2.8481 15.2964 18.6867 0.0000 30.3808 0.0000
# 6 0.0000 0.0000 0.0000 1.9690 0.0000 24.1122
#
#
#
# Elastic Compliance Matrix: (Units=1/GPa)
#
#
# Indices 1 2 3 4 5 6 
#
# 1 0.018094 -0.002415 -0.004479 0.000000 0.002275 0.000000
# 2 -0.002415 0.017233 -0.000709 0.000000 -0.008014 0.000000
# 3 -0.004479 -0.000709 0.016656 0.000000 -0.009468 0.000000
# 4 0.000000 0.000000 0.000000 0.028593 0.000000 -0.002335
# 5 0.002275 -0.008014 -0.009468 0.000000 0.042560 0.000000
# 6 0.000000 0.000000 0.000000 -0.002335 0.000000 0.041663
#
#
# Mechanical properties :
#
#
# Convention : Reuss Voigt Hill
#
# Bulk Modulus (GPa) = 27.19281 32.36811 29.78046
# Shear Modulus (GPa) = 26.00561 28.65027 27.32794
#
# Velocity S-wave (km/s) = 3.46853 3.64063 3.55562
# Velocity P-wave (km/s) = 5.34985 5.71370 5.53476
#
# Compressibility (1/GPa) = 0.03677442
#
# Stress axis : x y z
#
# Youngs Moduli (GPa) = 55.26660 58.02898 60.03885
#
# Poissons Ratio (x) = 0.14016 0.26893
# Poissons Ratio (y) = 0.13349 0.04260
# Poissons Ratio (z) = 0.24756 0.04117
#
# Static dielectric constant tensor:
#      x y z
#    x 1.778450 0.000000 0.002990 
#    y 0.000000 1.787120 0.000000 
#    z 0.002990 0.000000 1.814650 
# 
# From -- ./inp_files/19646.got.cif
#   From: 2010.05.17/outbox.cif.g08.bks.cpg/sg9_10_cif.got.tgz:19646.got - 2010.06.03 20:04:27.
