data_PCOD9140835
_publ_section_title
;
Structure prediction by ZEFSAII (Michael W. Deem and Ramdas Pophale) SiO2 
 PCOD9140835
Probable space group: C C
;
_chemical_formula_sum "Si O2"
_cell_formula_units_Z 20
_cell_length_a 4.849044
_cell_length_b 14.532902
_cell_length_c 11.129060
_cell_angle_alpha 90.000000
_cell_angle_beta 107.399722
_cell_angle_gamma 90.000000
_cell_volume 748.385529
_symmetry_space_group_name_H-M "C C"
_symmetry_group_IT_number 9
_symmetry_cell_setting 'monoclinic'
loop_
_space_group_symop_operation_xyz
x,y,z
x,-y,1/2+z
1/2+x,1/2+y,z
1/2+x,1/2-y,1/2+z
loop_
_atom_site_type_symbol
_atom_site_label
_atom_site_fract_x
_atom_site_fract_y
_atom_site_fract_z
Si Si1 0.108900 0.154904 0.439430
Si Si2 0.423614 0.725878 0.806615
Si Si3 0.686644 0.580500 0.696293
Si Si4 0.271879 0.808413 0.551037
Si Si5 0.170362 0.540171 0.224387
O O1 0.356245 0.186330 0.380521
O O2 0.223616 0.090934 0.559505
O O3 0.953729 0.240305 0.487602
O O4 0.870280 0.104683 0.329916
O O5 0.669941 0.680487 0.754551
O O6 0.206186 0.750776 0.665768
O O7 0.496044 0.661098 0.934494
O O8 0.388490 0.528451 0.684736
O O9 0.956019 0.522176 0.775343
O O10 0.468888 0.893070 0.618543
#
# Coordination Sequence:
#
# PCOD9140835 Si02
#       5
#     4   4   4   4   4
#     4  11  28  50  81 113 162 216 281 320 405 496
#     4  11  27  50  82 112 158 215 277 324 397 495
#     4  11  31  48  81 120 165 206 271 340 415 468
#     4  11  26  48  78 114 153 218 270 326 395 493
#     4  12  28  50  76 121 166 209 261 348 406 472
#
# _framework density 26.724191000000001
#
# number of rings (size 3 to 8) (size 9 to 14) (size 15 to 20)
#    0.000    0.800    2.000    1.200   19.600    0.000 
#    0.000    0.000    0.000    0.000    0.000    0.000 
#    0.000    0.000    0.000    0.000    0.000    0.000 
#
# Total GULP energy -55770.389858 kJ/mol
# GULP energy per Si atom -5577.038986 kJ/mol
# Density = 2.666337 g / cm^3
# Si number density = 26.724191 Si / 1000 Ang^3
#
#
#
# Elastic Constant Matrix: (Units=GPa)
#
#
# Indices 1 2 3 4 5 6 
#
# 1 131.8268 62.3444 20.6481 0.0000 -7.8815 0.0000
# 2 62.3444 108.1688 40.0436 0.0000 -8.5011 0.0000
# 3 20.6481 40.0436 188.9731 0.0000 8.9433 0.0000
# 4 0.0000 0.0000 0.0000 32.8415 0.0000 1.9212
# 5 -7.8815 -8.5011 8.9433 0.0000 34.3040 0.0000
# 6 0.0000 0.0000 0.0000 1.9212 0.0000 61.6684
#
#
#
# Elastic Compliance Matrix: (Units=1/GPa)
#
#
# Indices 1 2 3 4 5 6 
#
# 1 0.010458 -0.005988 0.000084 0.000000 0.000897 0.000000
# 2 -0.005988 0.013792 -0.002394 0.000000 0.002666 0.000000
# 3 0.000084 -0.002394 0.005890 0.000000 -0.002110 0.000000
# 4 0.000000 0.000000 0.000000 0.030505 0.000000 -0.000950
# 5 0.000897 0.002666 -0.002110 0.000000 0.030568 0.000000
# 6 0.000000 0.000000 0.000000 -0.000950 0.000000 0.016245
#
#
# Mechanical properties :
#
#
# Convention : Reuss Voigt Hill
#
# Bulk Modulus (GPa) = 73.84247 75.00453 74.42350
# Shear Modulus (GPa) = 38.88921 46.15829 42.52375
#
# Velocity S-wave (km/s) = 3.81885 4.16048 3.99332
# Velocity P-wave (km/s) = 6.86558 7.15587 7.01223
#
# Compressibility (1/GPa) = 0.01354234
#
# Stress axis : x y z
#
# Youngs Moduli (GPa) = 95.61863 72.50501 169.78397
#
# Poissons Ratio (x) = 0.43418 -0.01422
# Poissons Ratio (y) = 0.57259 0.40654
# Poissons Ratio (z) = -0.00801 0.17361
#
# Static dielectric constant tensor:
#      x y z
#    x 2.173850 0.000000 0.101800 
#    y 0.000000 2.246470 0.000000 
#    z 0.101800 0.000000 2.104170 
# 
# From -- ./inp_files/12895.got.cif
#   From: 2010.05.17/outbox.cif.g08.bks.cpg/sg9_7_cif.got.tgz:12895.got - 2010.06.03 20:04:27.
