data_PCOD9140985
_publ_section_title
;
Structure prediction by ZEFSAII (Michael W. Deem and Ramdas Pophale) SiO2 
 PCOD9140985
Probable space group: C C
;
_chemical_formula_sum "Si O2"
_cell_formula_units_Z 24
_cell_length_a 9.829793
_cell_length_b 9.870356
_cell_length_c 13.602927
_cell_angle_alpha 90.000000
_cell_angle_beta 111.045075
_cell_angle_gamma 90.000000
_cell_volume 1231.771037
_symmetry_space_group_name_H-M "C C"
_symmetry_group_IT_number 9
_symmetry_cell_setting 'monoclinic'
loop_
_space_group_symop_operation_xyz
x,y,z
x,-y,1/2+z
1/2+x,1/2+y,z
1/2+x,1/2-y,1/2+z
loop_
_atom_site_type_symbol
_atom_site_label
_atom_site_fract_x
_atom_site_fract_y
_atom_site_fract_z
Si Si1 0.331650 0.630173 0.785430
Si Si2 0.354321 0.356828 0.686123
Si Si3 0.673000 0.211605 0.945355
Si Si4 0.852917 0.377653 0.344922
Si Si5 0.639427 0.537432 0.946722
Si Si6 0.179866 0.109062 0.182862
O O1 0.294651 0.497736 0.712970
O O2 0.253390 0.657879 0.869000
O O3 0.498963 0.604139 0.858563
O O4 0.279793 0.757388 0.708196
O O5 0.268107 0.312574 0.566901
O O6 0.332016 0.251602 0.769095
O O7 0.525098 0.367083 0.698278
O O8 0.524177 0.126433 0.910453
O O9 0.644839 0.374272 0.932322
O O10 0.773765 0.388244 0.428902
O O11 0.778616 0.499298 0.264933
O O12 0.641599 0.562435 0.063342
#
# Coordination Sequence:
#
# PCOD9140985 Si02
#       6
#     4   4   4   4   4   4
#     4  12  24  46  72 106 142 186 236 298 356 414
#     4  12  26  46  74 106 146 187 240 299 351 424
#     4  12  26  46  74 106 146 187 240 299 351 424
#     4  12  24  46  72 106 142 186 236 298 356 414
#     4  12  26  46  74 106 146 187 240 299 351 424
#     4  12  26  46  74 106 146 187 240 299 351 424
#
# _framework density 19.484141000000001
#
# number of rings (size 3 to 8) (size 9 to 14) (size 15 to 20)
#    0.000    0.000   10.000    0.000    0.000    9.333 
#    0.000    0.000    0.000    0.000    0.000    0.000 
#    0.000    0.000    0.000    0.000    0.000    0.000 
#
# Total GULP energy -66996.562993 kJ/mol
# GULP energy per Si atom -5583.046916 kJ/mol
# Density = 1.943979 g / cm^3
# Si number density = 19.484141 Si / 1000 Ang^3
#
#
#
# Elastic Constant Matrix: (Units=GPa)
#
#
# Indices 1 2 3 4 5 6 
#
# 1 50.9556 32.1835 -12.1152 0.0000 6.2913 0.0000
# 2 32.1835 133.7556 21.6738 0.0000 17.7879 0.0000
# 3 -12.1152 21.6738 89.0019 0.0000 7.8602 0.0000
# 4 0.0000 0.0000 0.0000 18.2629 0.0000 -1.9662
# 5 6.2913 17.7879 7.8602 0.0000 96.4731 0.0000
# 6 0.0000 0.0000 0.0000 -1.9662 0.0000 30.2375
#
#
#
# Elastic Compliance Matrix: (Units=1/GPa)
#
#
# Indices 1 2 3 4 5 6 
#
# 1 0.025252 -0.006805 0.005166 0.000000 -0.000813 0.000000
# 2 -0.006805 0.009780 -0.003211 0.000000 -0.001098 0.000000
# 3 0.005166 -0.003211 0.012790 0.000000 -0.000787 0.000000
# 4 0.000000 0.000000 0.000000 0.055142 0.000000 0.003586
# 5 -0.000813 -0.001098 -0.000787 0.000000 0.010685 0.000000
# 6 0.000000 0.000000 0.000000 0.003586 0.000000 0.033305
#
#
# Mechanical properties :
#
#
# Convention : Reuss Voigt Hill
#
# Bulk Modulus (GPa) = 26.23107 39.68859 32.95983
# Shear Modulus (GPa) = 29.52282 44.45944 36.99113
#
# Velocity S-wave (km/s) = 3.89681 4.78203 4.36193
# Velocity P-wave (km/s) = 5.80851 7.13473 6.50550
#
# Compressibility (1/GPa) = 0.03812274
#
# Stress axis : x y z
#
# Youngs Moduli (GPa) = 39.60138 102.24945 78.18357
#
# Poissons Ratio (x) = 0.69580 -0.40392
# Poissons Ratio (y) = 0.26949 0.25105
# Poissons Ratio (z) = -0.20459 0.32832
#
# Static dielectric constant tensor:
#      x y z
#    x 1.677170 0.000000 0.011010 
#    y 0.000000 3.010240 0.000000 
#    z 0.011010 0.000000 1.664710 
# 
# From -- ./inp_files/14006.got.cif
#   From: 2010.05.17/outbox.cif.g08.bks.cpg/sg9_8_cif.got.tgz:14006.got - 2010.06.03 20:04:27.
