data_PCOD9140633
_publ_section_title
;
Structure prediction by ZEFSAII (Michael W. Deem and Ramdas Pophale) SiO2 
 PCOD9140633
Probable space group: C C
;
_chemical_formula_sum "Si O2"
_cell_formula_units_Z 32
_cell_length_a 21.255286
_cell_length_b 5.555235
_cell_length_c 9.910317
_cell_angle_alpha 90.000000
_cell_angle_beta 85.704779
_cell_angle_gamma 90.000000
_cell_volume 1166.904870
_symmetry_space_group_name_H-M "C C"
_symmetry_group_IT_number 9
_symmetry_cell_setting 'monoclinic'
loop_
_space_group_symop_operation_xyz
x,y,z
x,-y,1/2+z
1/2+x,1/2+y,z
1/2+x,1/2-y,1/2+z
loop_
_atom_site_type_symbol
_atom_site_label
_atom_site_fract_x
_atom_site_fract_y
_atom_site_fract_z
Si Si1 0.920620 0.650754 0.021880
Si Si2 0.515710 0.438394 0.150281
Si Si3 0.532847 0.070741 0.800411
Si Si4 0.624960 0.223454 0.991605
Si Si5 0.346672 0.755602 0.145136
Si Si6 0.319003 0.534818 0.398087
Si Si7 0.186197 0.724242 0.490676
Si Si8 0.710460 0.549486 0.713668
O O1 0.900585 0.454076 0.134945
O O2 0.951666 0.886455 0.081936
O O3 0.858548 0.736974 0.951104
O O4 0.978992 0.550420 0.925194
O O5 0.512415 0.690515 0.222967
O O6 0.572676 0.421868 0.036190
O O7 0.531313 0.193480 0.233057
O O8 0.601893 0.159058 0.841826
O O9 0.676090 0.293542 0.102397
O O10 0.625144 0.934760 0.024199
O O11 0.344563 0.523624 0.242791
O O12 0.283067 0.881313 0.209322
O O13 0.336993 0.682408 0.991876
O O14 0.243357 0.562572 0.420315
O O15 0.181677 0.927152 0.370249
O O16 0.209353 0.800987 0.633774
#
# Coordination Sequence:
#
# PCOD9140633 Si02
#       8
#     4   4   4   4   4   4   4   4
#     4  11  26  46  75 107 153 200 269 325 405 467
#     4  11  28  49  75 108 152 207 263 324 394 470
#     4  11  28  49  75 108 152 207 263 324 394 470
#     4  11  26  46  75 107 153 200 269 325 405 467
#     4  11  25  46  71 116 155 215 256 338 393 495
#     4  11  25  44  73 110 160 204 271 320 412 477
#     4  11  25  46  71 116 155 215 256 338 393 495
#     4  11  25  44  73 110 160 204 271 320 412 477
#
# _framework density 27.422975000000001
#
# number of rings (size 3 to 8) (size 9 to 14) (size 15 to 20)
#    0.000    1.000    2.500    1.500   10.500    5.000 
#    0.000    0.000    0.000    0.000    0.000    0.000 
#    0.000    0.000    0.000    0.000    0.000    0.000 
#
# Total GULP energy -89259.988839 kJ/mol
# GULP energy per Si atom -5578.749302 kJ/mol
# Density = 2.736056 g / cm^3
# Si number density = 27.422975 Si / 1000 Ang^3
#
#
#
# Elastic Constant Matrix: (Units=GPa)
#
#
# Indices 1 2 3 4 5 6 
#
# 1 77.0933 12.5776 37.3725 0.0000 -8.5645 0.0000
# 2 12.5776 29.3220 5.4061 0.0000 -1.1393 0.0000
# 3 37.3725 5.4061 114.9779 0.0000 -9.4890 0.0000
# 4 0.0000 0.0000 0.0000 49.1813 0.0000 9.7663
# 5 -8.5645 -1.1393 -9.4890 0.0000 58.2216 0.0000
# 6 0.0000 0.0000 0.0000 9.7663 0.0000 40.1021
#
#
#
# Elastic Compliance Matrix: (Units=1/GPa)
#
#
# Indices 1 2 3 4 5 6 
#
# 1 0.016545 -0.006123 -0.004966 0.000000 0.001505 0.000000
# 2 -0.006123 0.036678 0.000254 0.000000 -0.000142 0.000000
# 3 -0.004966 0.000254 0.010379 0.000000 0.000966 0.000000
# 4 0.000000 0.000000 0.000000 0.021366 0.000000 -0.005203
# 5 0.001505 -0.000142 0.000966 0.000000 0.017552 0.000000
# 6 0.000000 0.000000 0.000000 -0.005203 0.000000 0.026204
#
#
# Mechanical properties :
#
#
# Convention : Reuss Voigt Hill
#
# Bulk Modulus (GPa) = 23.84762 36.90062 30.37412
# Shear Modulus (GPa) = 30.41922 40.57013 35.49468
#
# Velocity S-wave (km/s) = 3.33417 3.85050 3.60160
# Velocity P-wave (km/s) = 4.85153 5.76661 5.32875
#
# Compressibility (1/GPa) = 0.04193290
#
# Stress axis : x y z
#
# Youngs Moduli (GPa) = 60.44305 27.26424 96.34719
#
# Poissons Ratio (x) = 0.16693 0.47842
# Poissons Ratio (y) = 0.37008 -0.02446
# Poissons Ratio (z) = 0.30013 -0.00692
#
# Static dielectric constant tensor:
#      x y z
#    x 2.235700 0.000000 -0.020570 
#    y 0.000000 2.246850 0.000000 
#    z -0.020570 0.000000 2.173630 
# 
# From -- ./inp_files/20588.got.cif
#   From: 2010.05.17/outbox.cif.g08.bks.cpg/sg9_11_cif.got.tgz:20588.got - 2010.06.03 20:04:27.
