data_PCOD9140373
_publ_section_title
;
Structure prediction by ZEFSAII (Michael W. Deem and Ramdas Pophale) SiO2 
 PCOD9140373
Probable space group: C C
;
_chemical_formula_sum "Si O2"
_cell_formula_units_Z 32
_cell_length_a 29.640441
_cell_length_b 8.796382
_cell_length_c 9.031111
_cell_angle_alpha 90.000000
_cell_angle_beta 139.833764
_cell_angle_gamma 90.000000
_cell_volume 1518.779305
_symmetry_space_group_name_H-M "C C"
_symmetry_group_IT_number 9
_symmetry_cell_setting 'monoclinic'
loop_
_space_group_symop_operation_xyz
x,y,z
x,-y,1/2+z
1/2+x,1/2+y,z
1/2+x,1/2-y,1/2+z
loop_
_atom_site_type_symbol
_atom_site_label
_atom_site_fract_x
_atom_site_fract_y
_atom_site_fract_z
Si Si1 0.095490 0.670023 0.220490
Si Si2 0.101354 0.680873 0.718921
Si Si3 0.310734 0.668865 0.525390
Si Si4 0.955565 0.833080 0.894462
Si Si5 0.809822 0.838335 0.379969
Si Si6 0.666102 0.328902 0.143696
Si Si7 0.959708 0.836390 0.261872
Si Si8 0.674461 0.680426 0.156614
O O1 0.111582 0.497603 0.222121
O O2 0.143973 0.788271 0.254540
O O3 0.117656 0.705955 0.443202
O O4 0.015318 0.714280 0.001964
O O5 0.163559 0.779035 0.800385
O O6 0.025356 0.734586 0.474247
O O7 0.112715 0.724439 0.917860
O O8 0.294549 0.505605 0.409390
O O9 0.315518 0.652893 0.716111
O O10 0.246424 0.779031 0.327237
O O11 0.385839 0.716491 0.647007
O O12 0.882022 0.789233 0.637500
O O13 0.973136 0.996696 0.865911
O O14 0.952446 0.846857 0.065357
O O15 0.748813 0.726824 0.279129
O O16 0.656445 0.505600 0.086812
#
# Coordination Sequence:
#
# PCOD9140373 Si02
#       8
#     4   4   4   4   4   4   4   4
#     4  12  25  47  66 103 135 175 228 275 341 397
#     4  12  27  43  72  99 138 178 220 283 333 403
#     4  11  24  44  68 102 136 179 225 274 341 403
#     4  11  24  43  70  99 139 178 224 277 336 407
#     4  11  24  43  70  99 139 178 224 277 336 407
#     4  12  27  43  72  99 138 178 220 283 333 403
#     4  11  24  44  68 102 136 179 225 274 341 403
#     4  12  25  47  66 103 135 175 228 275 341 397
#
# _framework density 21.069552000000002
#
# number of rings (size 3 to 8) (size 9 to 14) (size 15 to 20)
#    0.000    0.500    2.500    7.500    7.000    1.000 
#    0.000    2.500    0.000    0.000    0.000    0.000 
#    0.000    0.000    0.000    0.000    0.000    0.000 
#
# Total GULP energy -89464.570709 kJ/mol
# GULP energy per Si atom -5591.535669 kJ/mol
# Density = 2.102160 g / cm^3
# Si number density = 21.069552 Si / 1000 Ang^3
#
#
#
# Elastic Constant Matrix: (Units=GPa)
#
#
# Indices 1 2 3 4 5 6 
#
# 1 93.7877 38.2432 18.3465 0.0000 3.4295 0.0000
# 2 38.2432 101.0991 41.9584 0.0000 15.8571 0.0000
# 3 18.3465 41.9584 105.3494 0.0000 -1.9701 0.0000
# 4 0.0000 0.0000 0.0000 29.8521 0.0000 6.1889
# 5 3.4295 15.8571 -1.9701 0.0000 31.2176 0.0000
# 6 0.0000 0.0000 0.0000 6.1889 0.0000 33.8083
#
#
#
# Elastic Compliance Matrix: (Units=1/GPa)
#
#
# Indices 1 2 3 4 5 6 
#
# 1 0.012649 -0.004845 -0.000253 0.000000 0.001056 0.000000
# 2 -0.004845 0.015100 -0.005310 0.000000 -0.007473 0.000000
# 3 -0.000253 -0.005310 0.011716 0.000000 0.003464 0.000000
# 4 0.000000 0.000000 0.000000 0.034820 0.000000 -0.006374
# 5 0.001056 -0.007473 0.003464 0.000000 0.035932 0.000000
# 6 0.000000 0.000000 0.000000 -0.006374 0.000000 0.030745
#
#
# Mechanical properties :
#
#
# Convention : Reuss Voigt Hill
#
# Bulk Modulus (GPa) = 53.62517 55.25915 54.44216
# Shear Modulus (GPa) = 29.76277 32.42146 31.09212
#
# Velocity S-wave (km/s) = 3.76253 3.92699 3.84564
# Velocity P-wave (km/s) = 6.66200 6.84438 6.75381
#
# Compressibility (1/GPa) = 0.01864796
#
# Stress axis : x y z
#
# Youngs Moduli (GPa) = 79.05741 66.22539 85.35371
#
# Poissons Ratio (x) = 0.32088 0.02162
# Poissons Ratio (y) = 0.38305 0.45322
# Poissons Ratio (z) = 0.02003 0.35165
#
# Static dielectric constant tensor:
#      x y z
#    x 1.741620 0.000000 0.007240 
#    y 0.000000 1.696080 0.000000 
#    z 0.007240 0.000000 1.742960 
# 
# From -- ./inp_files/12703.got.cif
#   From: 2010.05.17/outbox.cif.g08.bks.cpg/sg9_7_cif.got.tgz:12703.got - 2010.06.03 20:04:27.
