data_PCOD9140614
_publ_section_title
;
Structure prediction by ZEFSAII (Michael W. Deem and Ramdas Pophale) SiO2 
 PCOD9140614
Probable space group: C C
;
_chemical_formula_sum "Si O2"
_cell_formula_units_Z 16
_cell_length_a 5.465979
_cell_length_b 12.479793
_cell_length_c 8.697023
_cell_angle_alpha 90.000000
_cell_angle_beta 83.060989
_cell_angle_gamma 90.000000
_cell_volume 588.915766
_symmetry_space_group_name_H-M "C C"
_symmetry_group_IT_number 9
_symmetry_cell_setting 'monoclinic'
loop_
_space_group_symop_operation_xyz
x,y,z
x,-y,1/2+z
1/2+x,1/2+y,z
1/2+x,1/2-y,1/2+z
loop_
_atom_site_type_symbol
_atom_site_label
_atom_site_fract_x
_atom_site_fract_y
_atom_site_fract_z
Si Si1 0.483440 0.324547 0.199810
Si Si2 0.370275 0.052095 0.467716
Si Si3 0.207638 0.467710 0.681491
Si Si4 0.114999 0.823087 0.529265
O O1 0.702179 0.360488 0.065805
O O2 0.362768 0.440054 0.254263
O O3 0.286246 0.252162 0.121925
O O4 0.565169 0.279650 0.360595
O O5 0.623892 0.034494 0.539254
O O6 0.456622 0.062282 0.287094
O O7 0.245716 0.936429 0.488782
O O8 0.365396 0.363120 0.631468
#
# Coordination Sequence:
#
# PCOD9140614 Si02
#       4
#     4   4   4   4
#     4  11  26  51  82 122 165 218 278 344 419 499
#     4  11  24  51  82 114 168 217 275 344 416 489
#     4  11  24  51  82 114 168 217 275 344 416 489
#     4  11  26  51  82 122 165 218 278 344 419 499
#
# _framework density 27.168571
#
# number of rings (size 3 to 8) (size 9 to 14) (size 15 to 20)
#    0.000    1.000    5.000    0.000    0.000    4.000 
#    9.000    2.500    0.000    0.000    0.000    0.000 
#    0.000    0.000    0.000    0.000    0.000    0.000 
#
# Total GULP energy -44826.852531 kJ/mol
# GULP energy per Si atom -5603.356566 kJ/mol
# Density = 2.710673 g / cm^3
# Si number density = 27.168571 Si / 1000 Ang^3
#
#
#
# Elastic Constant Matrix: (Units=GPa)
#
#
# Indices 1 2 3 4 5 6 
#
# 1 148.9239 66.6135 88.5491 0.0000 -29.5088 0.0000
# 2 66.6135 181.2734 74.4583 0.0000 -3.7953 0.0000
# 3 88.5491 74.4583 202.4340 0.0000 4.5774 0.0000
# 4 0.0000 0.0000 0.0000 48.5095 0.0000 15.6024
# 5 -29.5088 -3.7953 4.5774 0.0000 67.4705 0.0000
# 6 0.0000 0.0000 0.0000 15.6024 0.0000 71.3967
#
#
#
# Elastic Compliance Matrix: (Units=1/GPa)
#
#
# Indices 1 2 3 4 5 6 
#
# 1 0.011237 -0.002305 -0.004182 0.000000 0.005069 0.000000
# 2 -0.002305 0.006990 -0.001551 0.000000 -0.000510 0.000000
# 3 -0.004182 -0.001551 0.007394 0.000000 -0.002418 0.000000
# 4 0.000000 0.000000 0.000000 0.022173 0.000000 -0.004845
# 5 0.005069 -0.000510 -0.002418 0.000000 0.017173 0.000000
# 6 0.000000 0.000000 0.000000 -0.004845 0.000000 0.015065
#
#
# Mechanical properties :
#
#
# Convention : Reuss Voigt Hill
#
# Bulk Modulus (GPa) = 104.77242 110.20815 107.49028
# Shear Modulus (GPa) = 50.35680 57.67602 54.01641
#
# Velocity S-wave (km/s) = 4.30989 4.61249 4.46375
# Velocity P-wave (km/s) = 7.96332 8.30779 8.13738
#
# Compressibility (1/GPa) = 0.00954450
#
# Stress axis : x y z
#
# Youngs Moduli (GPa) = 88.99233 143.05807 135.23855
#
# Poissons Ratio (x) = 0.32981 0.56556
# Poissons Ratio (y) = 0.20517 0.20977
# Poissons Ratio (z) = 0.37216 0.22190
#
# Static dielectric constant tensor:
#      x y z
#    x 2.183570 0.000000 0.052410 
#    y 0.000000 2.150130 0.000000 
#    z 0.052410 0.000000 2.130580 
# 
# From -- ./inp_files/3554.got.cif
#   From: 2010.05.17/outbox.cif.g08.bks.cpg/sg9_2_cif.got.tgz:3554.got - 2010.06.03 20:04:27.
