data_PCOD9140938
_publ_section_title
;
Structure prediction by ZEFSAII (Michael W. Deem and Ramdas Pophale) SiO2 
 PCOD9140938
Probable space group: C C
;
_chemical_formula_sum "Si O2"
_cell_formula_units_Z 32
_cell_length_a 14.354845
_cell_length_b 20.565188
_cell_length_c 8.964628
_cell_angle_alpha 90.000000
_cell_angle_beta 148.290758
_cell_angle_gamma 90.000000
_cell_volume 1390.996894
_symmetry_space_group_name_H-M "C C"
_symmetry_group_IT_number 9
_symmetry_cell_setting 'monoclinic'
loop_
_space_group_symop_operation_xyz
x,y,z
x,-y,1/2+z
1/2+x,1/2+y,z
1/2+x,1/2-y,1/2+z
loop_
_atom_site_type_symbol
_atom_site_label
_atom_site_fract_x
_atom_site_fract_y
_atom_site_fract_z
Si Si1 0.392750 0.058908 0.669780
Si Si2 0.504383 0.621749 0.686152
Si Si3 0.654263 0.508129 0.076801
Si Si4 0.753838 0.289510 0.366914
Si Si5 0.955890 0.776402 0.387127
Si Si6 0.781139 0.062389 0.148217
Si Si7 0.279582 0.688682 0.939824
Si Si8 0.474564 0.800960 0.388570
O O1 0.293939 0.040158 0.688547
O O2 0.435876 0.135523 0.740500
O O3 0.254003 0.040301 0.352430
O O4 0.588290 0.028484 0.902738
O O5 0.605344 0.656385 0.687098
O O6 0.489881 0.672820 0.800470
O O7 0.326630 0.592544 0.372902
O O8 0.619282 0.563231 0.906249
O O9 0.459322 0.478663 0.850622
O O10 0.814313 0.270379 0.614132
O O11 0.906587 0.311581 0.464474
O O12 0.671302 0.226022 0.176687
O O13 0.892968 0.817279 0.443313
O O14 0.103974 0.726531 0.646858
O O15 0.762044 0.120297 0.000185
O O16 0.375320 0.741521 0.174005
#
# Coordination Sequence:
#
# PCOD9140938 Si02
#       8
#     4   4   4   4   4   4   4   4
#     4  12  29  51  79 113 147 206 264 317 383 466
#     4  12  25  49  76 107 158 202 249 323 382 458
#     4  12  30  53  78 111 155 208 262 321 381 456
#     4  12  23  46  72 111 157 193 240 311 391 457
#     4  12  24  42  71 114 155 189 243 311 388 456
#     4  12  28  53  78 110 156 205 263 313 385 464
#     4  12  25  42  73 114 149 193 244 317 382 458
#     4  12  24  44  75 108 147 198 249 309 390 459
#
# _framework density 23.005082999999999
#
# number of rings (size 3 to 8) (size 9 to 14) (size 15 to 20)
#    0.000    0.000    5.000    4.500    7.000    0.000 
#    0.000    0.000    0.000    0.000    0.000    0.000 
#    0.000    0.000    0.000    0.000    0.000    0.000 
#
# Total GULP energy -89454.984391 kJ/mol
# GULP energy per Si atom -5590.936524 kJ/mol
# Density = 2.295272 g / cm^3
# Si number density = 23.005083 Si / 1000 Ang^3
#
#
#
# Elastic Constant Matrix: (Units=GPa)
#
#
# Indices 1 2 3 4 5 6 
#
# 1 127.0326 20.7849 22.1579 0.0000 6.0180 0.0000
# 2 20.7849 71.3868 35.3101 0.0000 5.6892 0.0000
# 3 22.1579 35.3101 134.0939 0.0000 -2.6323 0.0000
# 4 0.0000 0.0000 0.0000 42.9785 0.0000 -1.1196
# 5 6.0180 5.6892 -2.6323 0.0000 41.3725 0.0000
# 6 0.0000 0.0000 0.0000 -1.1196 0.0000 20.8178
#
#
#
# Elastic Compliance Matrix: (Units=1/GPa)
#
#
# Indices 1 2 3 4 5 6 
#
# 1 0.008391 -0.001916 -0.000902 0.000000 -0.001014 0.000000
# 2 -0.001916 0.016803 -0.004153 0.000000 -0.002296 0.000000
# 3 -0.000902 -0.004153 0.008725 0.000000 0.001257 0.000000
# 4 0.000000 0.000000 0.000000 0.023300 0.000000 0.001253
# 5 -0.001014 -0.002296 0.001257 0.000000 0.024714 0.000000
# 6 0.000000 0.000000 0.000000 0.001253 0.000000 0.048103
#
#
# Mechanical properties :
#
#
# Convention : Reuss Voigt Hill
#
# Bulk Modulus (GPa) = 50.05837 54.33546 52.19692
# Shear Modulus (GPa) = 33.19225 37.98446 35.58835
#
# Velocity S-wave (km/s) = 3.80257 4.06782 3.93743
# Velocity P-wave (km/s) = 6.40986 6.76262 6.58860
#
# Compressibility (1/GPa) = 0.01997668
#
# Stress axis : x y z
#
# Youngs Moduli (GPa) = 119.17704 59.51184 114.61585
#
# Poissons Ratio (x) = 0.11403 0.10337
# Poissons Ratio (y) = 0.22836 0.47602
# Poissons Ratio (z) = 0.10748 0.24716
#
# Static dielectric constant tensor:
#      x y z
#    x 1.893960 0.000000 0.054850 
#    y 0.000000 1.886030 0.000000 
#    z 0.054850 0.000000 1.885670 
# 
# From -- ./inp_files/10102.got.cif
#   From: 2010.05.17/outbox.cif.g08.bks.cpg/sg9_6_cif.got.tgz:10102.got - 2010.06.03 20:04:27.
