data_PCOD9140126
_publ_section_title
;
Structure prediction by ZEFSAII (Michael W. Deem and Ramdas Pophale) SiO2 
 PCOD9140126
Probable space group: C C
;
_chemical_formula_sum "Si O2"
_cell_formula_units_Z 32
_cell_length_a 16.530728
_cell_length_b 10.935977
_cell_length_c 9.230974
_cell_angle_alpha 90.000000
_cell_angle_beta 66.582949
_cell_angle_gamma 90.000000
_cell_volume 1531.326246
_symmetry_space_group_name_H-M "C C"
_symmetry_group_IT_number 9
_symmetry_cell_setting 'monoclinic'
loop_
_space_group_symop_operation_xyz
x,y,z
x,-y,1/2+z
1/2+x,1/2+y,z
1/2+x,1/2-y,1/2+z
loop_
_atom_site_type_symbol
_atom_site_label
_atom_site_fract_x
_atom_site_fract_y
_atom_site_fract_z
Si Si1 0.089500 0.085347 0.183730
Si Si2 0.782419 0.440124 0.649497
Si Si3 0.826153 0.212143 0.809223
Si Si4 0.183075 0.486038 0.323214
Si Si5 0.334609 0.352674 0.616820
Si Si6 0.474262 0.568450 0.545622
Si Si7 0.582652 0.139003 0.636212
Si Si8 0.873252 0.638088 0.786238
O O1 0.182228 0.034643 0.174501
O O2 0.104094 0.217432 0.099331
O O3 0.025456 0.109052 0.366039
O O4 0.042591 0.991164 0.109569
O O5 0.785159 0.328742 0.761227
O O6 0.828369 0.551527 0.698516
O O7 0.833783 0.396392 0.469639
O O8 0.757541 0.100465 0.840772
O O9 0.915760 0.172626 0.663403
O O10 0.843203 0.228502 0.966948
O O11 0.238847 0.586984 0.195774
O O12 0.125300 0.555904 0.481894
O O13 0.124897 0.405299 0.256757
O O14 0.405872 0.460772 0.552849
O O15 0.352393 0.275893 0.749332
O O16 0.477975 0.122667 0.711837
#
# Coordination Sequence:
#
# PCOD9140126 Si02
#       8
#     4   4   4   4   4   4   4   4
#     4  12  24  45  69 104 139 180 233 284 344 411
#     4  12  26  46  70 100 143 182 225 284 351 412
#     4  11  23  43  69 102 138 178 227 280 351 401
#     4  11  24  42  70 103 137 176 229 286 336 418
#     4  11  23  43  69 102 138 178 227 280 351 401
#     4  11  24  42  70 103 137 176 229 286 336 418
#     4  12  24  45  69 104 139 180 233 284 344 411
#     4  12  26  46  70 100 143 182 225 284 351 412
#
# _framework density 20.896917999999999
#
# number of rings (size 3 to 8) (size 9 to 14) (size 15 to 20)
#    0.000    0.500    5.000    3.750    0.000    0.000 
#    0.000    3.750    0.000    0.000    0.000    0.000 
#    0.000    0.000    0.000    0.000    0.000    0.000 
#
# Total GULP energy -89581.264905 kJ/mol
# GULP energy per Si atom -5598.829057 kJ/mol
# Density = 2.084936 g / cm^3
# Si number density = 20.896918 Si / 1000 Ang^3
#
#
#
# Elastic Constant Matrix: (Units=GPa)
#
#
# Indices 1 2 3 4 5 6 
#
# 1 107.5415 3.0026 4.1797 0.0000 -4.4207 0.0000
# 2 3.0026 37.4139 -2.4796 0.0000 -4.0573 0.0000
# 3 4.1797 -2.4796 35.7431 0.0000 6.0763 0.0000
# 4 0.0000 0.0000 0.0000 31.8301 0.0000 6.1143
# 5 -4.4207 -4.0573 6.0763 0.0000 26.7340 0.0000
# 6 0.0000 0.0000 0.0000 6.1143 0.0000 28.0422
#
#
#
# Elastic Compliance Matrix: (Units=1/GPa)
#
#
# Indices 1 2 3 4 5 6 
#
# 1 0.009447 -0.000660 -0.001455 0.000000 0.001793 0.000000
# 2 -0.000660 0.027274 0.001336 0.000000 0.003726 0.000000
# 3 -0.001455 0.001336 0.029382 0.000000 -0.006716 0.000000
# 4 0.000000 0.000000 0.000000 0.032790 0.000000 -0.007150
# 5 0.001793 0.003726 -0.006716 0.000000 0.039794 0.000000
# 6 0.000000 0.000000 0.000000 -0.007150 0.000000 0.037219
#
#
# Mechanical properties :
#
#
# Convention : Reuss Voigt Hill
#
# Bulk Modulus (GPa) = 15.49342 21.12266 18.30804
# Shear Modulus (GPa) = 25.12806 29.05432 27.09119
#
# Velocity S-wave (km/s) = 3.47144 3.73280 3.60449
# Velocity P-wave (km/s) = 4.84749 5.35802 5.10914
#
# Compressibility (1/GPa) = 0.06454351
#
# Stress axis : x y z
#
# Youngs Moduli (GPa) = 105.84892 36.66545 34.03441
#
# Poissons Ratio (x) = 0.02421 0.04953
# Poissons Ratio (y) = 0.06988 -0.04546
# Poissons Ratio (z) = 0.15405 -0.04898
#
# Static dielectric constant tensor:
#      x y z
#    x 1.712740 0.000000 0.005550 
#    y 0.000000 1.745890 0.000000 
#    z 0.005550 0.000000 1.730420 
# 
# From -- ./inp_files/9093.got.cif
#   From: 2010.05.17/outbox.cif.g08.bks.cpg/sg9_5_cif.got.tgz:9093.got - 2010.06.03 20:04:27.
