data_PCOD9140275
_publ_section_title
;
Structure prediction by ZEFSAII (Michael W. Deem and Ramdas Pophale) SiO2 
 PCOD9140275
Probable space group: C C
;
_chemical_formula_sum "Si O2"
_cell_formula_units_Z 24
_cell_length_a 11.921621
_cell_length_b 7.381641
_cell_length_c 13.069615
_cell_angle_alpha 90.000000
_cell_angle_beta 46.167693
_cell_angle_gamma 90.000000
_cell_volume 829.676913
_symmetry_space_group_name_H-M "C C"
_symmetry_group_IT_number 9
_symmetry_cell_setting 'monoclinic'
loop_
_space_group_symop_operation_xyz
x,y,z
x,-y,1/2+z
1/2+x,1/2+y,z
1/2+x,1/2-y,1/2+z
loop_
_atom_site_type_symbol
_atom_site_label
_atom_site_fract_x
_atom_site_fract_y
_atom_site_fract_z
Si Si1 0.612600 0.546873 0.400300
Si Si2 0.451141 0.673367 0.844897
Si Si3 0.159008 0.440770 0.663087
Si Si4 0.709352 0.929982 0.830267
Si Si5 0.896588 0.781474 0.177575
Si Si6 0.514827 0.225292 0.616024
O O1 0.552061 0.488748 0.327968
O O2 0.782244 0.616407 0.271872
O O3 0.512872 0.712435 0.508249
O O4 0.584322 0.407370 0.515040
O O5 0.343421 0.574607 0.812266
O O6 0.524751 0.783689 0.693230
O O7 0.307701 0.663624 0.018290
O O8 0.075718 0.346641 0.819140
O O9 0.265899 0.559402 0.697783
O O10 0.089918 0.631669 0.666742
O O11 0.834299 0.764013 0.746430
O O12 0.576785 0.920507 0.997244
#
# Coordination Sequence:
#
# PCOD9140275 Si02
#       6
#     4   4   4   4   4   4
#     4  11  26  51  77 110 158 201 250 322 380 450
#     4  12  25  47  76 111 152 199 254 312 382 455
#     4  12  24  47  77 109 149 201 254 309 381 458
#     4  11  23  47  71 108 149 193 251 315 375 450
#     4  11  25  46  74 110 153 196 258 312 372 461
#     4  11  25  46  79 106 151 200 251 316 382 444
#
# _framework density 28.926926000000002
#
# number of rings (size 3 to 8) (size 9 to 14) (size 15 to 20)
#    0.000    0.667    6.667    1.000    2.333    2.667 
#    3.000    0.000    0.000    0.000    0.000    0.000 
#    0.000    0.000    0.000    0.000    0.000    0.000 
#
# Total GULP energy -66825.825126 kJ/mol
# GULP energy per Si atom -5568.818760 kJ/mol
# Density = 2.886109 g / cm^3
# Si number density = 28.926926 Si / 1000 Ang^3
#
#
#
# Elastic Constant Matrix: (Units=GPa)
#
#
# Indices 1 2 3 4 5 6 
#
# 1 194.1996 24.0707 73.9805 0.0000 35.0545 0.0000
# 2 24.0707 167.4398 28.9450 0.0000 -5.0030 0.0000
# 3 73.9805 28.9450 158.8018 0.0000 -4.6951 0.0000
# 4 0.0000 0.0000 0.0000 57.4357 0.0000 -5.4815
# 5 35.0545 -5.0030 -4.6951 0.0000 67.7911 0.0000
# 6 0.0000 0.0000 0.0000 -5.4815 0.0000 69.3960
#
#
#
# Elastic Compliance Matrix: (Units=1/GPa)
#
#
# Indices 1 2 3 4 5 6 
#
# 1 0.007235 -0.000575 -0.003385 0.000000 -0.004018 0.000000
# 2 -0.000575 0.006222 -0.000846 0.000000 0.000698 0.000000
# 3 -0.003385 -0.000846 0.008095 0.000000 0.002248 0.000000
# 4 0.000000 0.000000 0.000000 0.017543 0.000000 0.001386
# 5 -0.004018 0.000698 0.002248 0.000000 0.017036 0.000000
# 6 0.000000 0.000000 0.000000 0.001386 0.000000 0.014520
#
#
# Mechanical properties :
#
#
# Convention : Reuss Voigt Hill
#
# Bulk Modulus (GPa) = 83.74319 86.04817 84.89568
# Shear Modulus (GPa) = 59.35304 65.15424 62.25364
#
# Velocity S-wave (km/s) = 4.53462 4.75107 4.64411
# Velocity P-wave (km/s) = 7.51198 7.74004 7.62686
#
# Compressibility (1/GPa) = 0.01194127
#
# Stress axis : x y z
#
# Youngs Moduli (GPa) = 138.21063 160.72024 123.53973
#
# Poissons Ratio (x) = 0.09243 0.41814
# Poissons Ratio (y) = 0.07948 0.10446
# Poissons Ratio (z) = 0.46780 0.13590
#
# Static dielectric constant tensor:
#      x y z
#    x 2.938220 0.000000 0.094660 
#    y 0.000000 2.578140 0.000000 
#    z 0.094660 0.000000 1.960980 
# 
# From -- ./inp_files/16061.got.cif
#   From: 2010.05.17/outbox.cif.g08.bks.cpg/sg9_9_cif.got.tgz:16061.got - 2010.06.03 20:04:27.
