data_PCOD9140571
_publ_section_title
;
Structure prediction by ZEFSAII (Michael W. Deem and Ramdas Pophale) SiO2 
 PCOD9140571
Probable space group: C C
;
_chemical_formula_sum "Si O2"
_cell_formula_units_Z 20
_cell_length_a 30.542983
_cell_length_b 5.182360
_cell_length_c 10.876513
_cell_angle_alpha 90.000000
_cell_angle_beta 150.704328
_cell_angle_gamma 90.000000
_cell_volume 842.400548
_symmetry_space_group_name_H-M "C C"
_symmetry_group_IT_number 9
_symmetry_cell_setting 'monoclinic'
loop_
_space_group_symop_operation_xyz
x,y,z
x,-y,1/2+z
1/2+x,1/2+y,z
1/2+x,1/2-y,1/2+z
loop_
_atom_site_type_symbol
_atom_site_label
_atom_site_fract_x
_atom_site_fract_y
_atom_site_fract_z
Si Si1 0.223830 0.973333 0.552140
Si Si2 0.552601 0.612416 0.252819
Si Si3 0.477727 0.103885 0.968539
Si Si4 0.784452 0.710614 0.453893
Si Si5 0.634050 0.907579 0.669818
O O1 0.194949 0.693840 0.431501
O O2 0.268309 0.959385 0.793229
O O3 0.131391 0.126918 0.343580
O O4 0.279320 0.915676 0.076154
O O5 0.602781 0.678152 0.502032
O O6 0.521287 0.317931 0.165363
O O7 0.478077 0.830258 0.042049
O O8 0.390465 0.256726 0.706877
O O9 0.539663 0.032998 0.003315
O O10 0.701721 0.912040 0.257993
#
# Coordination Sequence:
#
# PCOD9140571 Si02
#       5
#     4   4   4   4   4
#     4  11  25  48  75 107 152 203 255 317 389 462
#     4  11  24  49  71 110 148 203 251 319 385 459
#     4  11  28  44  75 112 154 197 260 322 382 462
#     4  12  27  47  76 115 152 207 260 320 389 469
#     4  11  24  48  75 106 154 202 256 316 389 458
#
# _framework density 23.741672999999999
#
# number of rings (size 3 to 8) (size 9 to 14) (size 15 to 20)
#    0.000    0.800    4.000    2.400    5.600    0.000 
#    0.000    0.000    0.000    0.000    0.000    0.000 
#    0.000    0.000    0.000    0.000    0.000    0.000 
#
# Total GULP energy -55700.120170 kJ/mol
# GULP energy per Si atom -5570.012017 kJ/mol
# Density = 2.368764 g / cm^3
# Si number density = 23.741673 Si / 1000 Ang^3
#
#
#
# Elastic Constant Matrix: (Units=GPa)
#
#
# Indices 1 2 3 4 5 6 
#
# 1 93.2131 13.8219 17.8665 0.0000 -18.8908 0.0000
# 2 13.8219 83.7912 22.1324 0.0000 -6.3610 0.0000
# 3 17.8665 22.1324 97.1002 0.0000 1.1014 0.0000
# 4 0.0000 0.0000 0.0000 20.2961 0.0000 -9.3172
# 5 -18.8908 -6.3610 1.1014 0.0000 28.9472 0.0000
# 6 0.0000 0.0000 0.0000 -9.3172 0.0000 35.3984
#
#
#
# Elastic Compliance Matrix: (Units=1/GPa)
#
#
# Indices 1 2 3 4 5 6 
#
# 1 0.012995 -0.000906 -0.002279 0.000000 0.008368 0.000000
# 2 -0.000906 0.013011 -0.002826 0.000000 0.002375 0.000000
# 3 -0.002279 -0.002826 0.011391 0.000000 -0.002542 0.000000
# 4 0.000000 0.000000 0.000000 0.056042 0.000000 0.014751
# 5 0.008368 0.002375 -0.002542 0.000000 0.040625 0.000000
# 6 0.000000 0.000000 0.000000 0.014751 0.000000 0.032132
#
#
# Mechanical properties :
#
#
# Convention : Reuss Voigt Hill
#
# Bulk Modulus (GPa) = 39.41058 42.41622 40.91340
# Shear Modulus (GPa) = 26.78408 31.61391 29.19900
#
# Velocity S-wave (km/s) = 3.36243 3.65304 3.51074
# Velocity P-wave (km/s) = 5.63120 5.97473 5.80551
#
# Compressibility (1/GPa) = 0.02537390
#
# Stress axis : x y z
#
# Youngs Moduli (GPa) = 76.95061 76.86031 87.78873
#
# Poissons Ratio (x) = 0.06966 0.20011
# Poissons Ratio (y) = 0.06974 0.24807
# Poissons Ratio (z) = 0.17541 0.21719
#
# Static dielectric constant tensor:
#      x y z
#    x 1.903740 0.000000 0.035930 
#    y 0.000000 2.022260 0.000000 
#    z 0.035930 0.000000 1.945710 
# 
# From -- ./inp_files/21056.got.cif
#   From: 2010.05.17/outbox.cif.g08.bks.cpg/sg9_11_cif.got.tgz:21056.got - 2010.06.03 20:04:27.
