data_PCOD9140171
_publ_section_title
;
Structure prediction by ZEFSAII (Michael W. Deem and Ramdas Pophale) SiO2 
 PCOD9140171
Probable space group: C C
;
_chemical_formula_sum "Si O2"
_cell_formula_units_Z 32
_cell_length_a 21.025716
_cell_length_b 8.824944
_cell_length_c 17.733003
_cell_angle_alpha 90.000000
_cell_angle_beta 26.989552
_cell_angle_gamma 90.000000
_cell_volume 1493.263128
_symmetry_space_group_name_H-M "C C"
_symmetry_group_IT_number 9
_symmetry_cell_setting 'monoclinic'
loop_
_space_group_symop_operation_xyz
x,y,z
x,-y,1/2+z
1/2+x,1/2+y,z
1/2+x,1/2-y,1/2+z
loop_
_atom_site_type_symbol
_atom_site_label
_atom_site_fract_x
_atom_site_fract_y
_atom_site_fract_z
Si Si1 0.445590 0.595996 0.519740
Si Si2 0.323488 0.214592 0.508470
Si Si3 0.661366 0.773123 0.394368
Si Si4 0.602557 0.899202 0.979113
Si Si5 0.333471 0.255847 0.831081
Si Si6 0.554338 0.272097 0.379984
Si Si7 0.909650 0.962335 0.886980
Si Si8 0.695652 0.437166 0.004355
O O1 0.573005 0.679612 0.426603
O O2 0.303860 0.661693 0.706462
O O3 0.467350 0.414272 0.504562
O O4 0.444679 0.614524 0.429966
O O5 0.465081 0.198536 0.406635
O O6 0.308863 0.395142 0.510034
O O7 0.305010 0.131271 0.449097
O O8 0.196785 0.162036 0.695239
O O9 0.686232 0.668566 0.441035
O O10 0.576138 0.922134 0.510524
O O11 0.485529 0.799279 0.144276
O O12 0.751028 0.862567 0.860201
O O13 0.593887 0.846299 0.902063
O O14 0.346078 0.343684 0.896186
O O15 0.244691 0.103293 0.930302
O O16 0.045814 0.039779 0.704037
#
# Coordination Sequence:
#
# PCOD9140171 Si02
#       8
#     4   4   4   4   4   4   4   4
#     4  11  26  48  70 104 145 188 239 306 356 431
#     4  11  23  44  75 100 142 190 235 299 357 432
#     4  12  28  44  76 103 146 189 244 300 360 432
#     4  12  25  44  69 108 141 192 240 296 365 429
#     4  12  26  44  73 100 145 193 238 301 361 437
#     4  11  24  45  71 104 144 188 241 295 361 433
#     4  11  26  48  71 105 147 185 243 302 361 431
#     4  12  26  47  71 110 142 189 242 301 363 429
#
# _framework density 21.429579
#
# number of rings (size 3 to 8) (size 9 to 14) (size 15 to 20)
#    0.000    0.500    3.750    5.250    7.000    3.000 
#    0.000    0.000    0.000    0.000    0.000    0.000 
#    0.000    0.000    0.000    0.000    0.000    0.000 
#
# Total GULP energy -89508.352018 kJ/mol
# GULP energy per Si atom -5594.272001 kJ/mol
# Density = 2.138080 g / cm^3
# Si number density = 21.429579 Si / 1000 Ang^3
#
#
#
# Elastic Constant Matrix: (Units=GPa)
#
#
# Indices 1 2 3 4 5 6 
#
# 1 167.7193 75.7527 17.9605 0.0000 11.2222 0.0000
# 2 75.7527 90.4408 -6.6240 0.0005 11.5088 -0.0002
# 3 17.9605 -6.6240 79.6478 0.0002 5.5956 -0.0001
# 4 0.0000 0.0005 0.0002 31.3530 -0.0001 2.1211
# 5 11.2222 11.5088 5.5956 -0.0001 31.7911 0.0000
# 6 0.0000 -0.0002 -0.0001 2.1211 0.0000 53.2534
#
#
#
# Elastic Compliance Matrix: (Units=1/GPa)
#
#
# Indices 1 2 3 4 5 6 
#
# 1 0.010279 -0.008848 -0.003062 0.000000 0.000114 0.000000
# 2 -0.008848 0.019337 0.003924 0.000000 -0.004568 0.000000
# 3 -0.003062 0.003924 0.013766 0.000000 -0.002763 0.000000
# 4 0.000000 0.000000 0.000000 0.031981 0.000000 -0.001274
# 5 0.000114 -0.004568 -0.002763 0.000000 0.033555 0.000000
# 6 0.000000 0.000000 0.000000 -0.001274 0.000000 0.018829
#
#
# Mechanical properties :
#
#
# Convention : Reuss Voigt Hill
#
# Bulk Modulus (GPa) = 36.48221 56.88737 46.68479
# Shear Modulus (GPa) = 32.71050 39.99408 36.35229
#
# Velocity S-wave (km/s) = 3.91118 4.32476 4.12316
# Velocity P-wave (km/s) = 6.12026 7.17927 6.67081
#
# Compressibility (1/GPa) = 0.02741062
#
# Stress axis : x y z
#
# Youngs Moduli (GPa) = 97.28424 51.71415 72.64172
#
# Poissons Ratio (x) = 0.45759 0.22242
# Poissons Ratio (y) = 0.86082 -0.28508
# Poissons Ratio (z) = 0.29787 -0.20295
#
# Static dielectric constant tensor:
#      x y z
#    x 1.751380 0.000000 0.000230 
#    y 0.000000 1.744700 0.000000 
#    z 0.000230 0.000000 1.859140 
# 
# From -- ./inp_files/31222.got.cif
#   From: 2010.05.17/outbox.cif.g08.bks.cpg/sg9_16_cif.got.tgz:31222.got - 2010.06.03 20:04:27.
