data_PCOD9140264
_publ_section_title
;
Structure prediction by ZEFSAII (Michael W. Deem and Ramdas Pophale) SiO2 
 PCOD9140264
Probable space group: C C
;
_chemical_formula_sum "Si O2"
_cell_formula_units_Z 32
_cell_length_a 12.831535
_cell_length_b 12.191662
_cell_length_c 8.879627
_cell_angle_alpha 90.000000
_cell_angle_beta 75.716605
_cell_angle_gamma 90.000000
_cell_volume 1346.167621
_symmetry_space_group_name_H-M "C C"
_symmetry_group_IT_number 9
_symmetry_cell_setting 'monoclinic'
loop_
_space_group_symop_operation_xyz
x,y,z
x,-y,1/2+z
1/2+x,1/2+y,z
1/2+x,1/2-y,1/2+z
loop_
_atom_site_type_symbol
_atom_site_label
_atom_site_fract_x
_atom_site_fract_y
_atom_site_fract_z
Si Si1 0.467370 0.182653 0.197520
Si Si2 0.488545 0.418414 0.280639
Si Si3 0.716956 0.409089 0.306823
Si Si4 0.176139 0.295796 0.035447
Si Si5 0.838730 0.983490 0.076214
Si Si6 0.128101 0.539384 0.308486
Si Si7 0.262667 0.871591 0.954208
Si Si8 0.586991 0.786756 0.380431
O O1 0.513601 0.290097 0.262174
O O2 0.538031 0.078295 0.222640
O O3 0.351824 0.178005 0.312274
O O4 0.477278 0.202593 0.015109
O O5 0.602861 0.462297 0.293029
O O6 0.443427 0.458536 0.138212
O O7 0.388374 0.448835 0.421818
O O8 0.705893 0.303350 0.416261
O O9 0.762228 0.503940 0.396209
O O10 0.777116 0.377244 0.129633
O O11 0.112950 0.384620 0.958284
O O12 0.278285 0.369636 0.054336
O O13 0.103347 0.253795 0.200783
O O14 0.746387 0.053382 0.193278
O O15 0.124928 0.413264 0.358567
O O16 0.159786 0.795896 0.952262
#
# Coordination Sequence:
#
# PCOD9140264 Si02
#       8
#     4   4   4   4   4   4   4   4
#     4  12  27  45  74 108 146 203 242 308 384 443
#     4  12  25  46  75 110 146 197 249 307 374 444
#     4  12  27  53  74 108 158 199 249 310 383 455
#     4  11  23  46  78 105 149 193 241 315 377 434
#     4  11  25  44  78 112 146 189 254 310 370 444
#     4  11  23  47  72 109 142 191 249 313 365 441
#     4  12  28  50  74 106 155 198 248 312 380 453
#     4  11  24  47  73 104 148 188 252 305 371 444
#
# _framework density 23.771184999999999
#
# number of rings (size 3 to 8) (size 9 to 14) (size 15 to 20)
#    0.000    0.500    3.750    4.500    7.000    0.000 
#    0.000    0.000    0.000    0.000    0.000    0.000 
#    0.000    0.000    0.000    0.000    0.000    0.000 
#
# Total GULP energy -89396.377548 kJ/mol
# GULP energy per Si atom -5587.273597 kJ/mol
# Density = 2.371708 g / cm^3
# Si number density = 23.771185 Si / 1000 Ang^3
#
#
#
# Elastic Constant Matrix: (Units=GPa)
#
#
# Indices 1 2 3 4 5 6 
#
# 1 36.6428 -16.8616 24.2107 0.0000 -20.8635 0.0000
# 2 -16.8616 88.5207 55.7568 0.0000 3.1657 0.0000
# 3 24.2107 55.7568 201.3204 0.0000 -23.9638 0.0000
# 4 0.0000 0.0000 0.0000 36.8535 0.0000 7.0447
# 5 -20.8635 3.1657 -23.9638 0.0000 38.5920 0.0000
# 6 0.0000 0.0000 0.0000 7.0447 0.0000 13.6584
#
#
#
# Elastic Compliance Matrix: (Units=1/GPa)
#
#
# Indices 1 2 3 4 5 6 
#
# 1 0.050631 0.013404 -0.007207 0.000000 0.021798 0.000000
# 2 0.013404 0.017755 -0.006306 0.000000 0.001874 0.000000
# 3 -0.007207 -0.006306 0.007751 0.000000 0.001434 0.000000
# 4 0.000000 0.000000 0.000000 0.030102 0.000000 -0.015526
# 5 0.021798 0.001874 0.001434 0.000000 0.038433 0.000000
# 6 0.000000 0.000000 0.000000 -0.015526 0.000000 0.081223
#
#
# Mechanical properties :
#
#
# Convention : Reuss Voigt Hill
#
# Bulk Modulus (GPa) = 13.17182 50.29955 31.73568
# Shear Modulus (GPa) = 19.88705 35.37931 27.63318
#
# Velocity S-wave (km/s) = 2.89555 3.86207 3.41319
# Velocity P-wave (km/s) = 4.09048 6.41040 5.37705
#
# Compressibility (1/GPa) = 0.07591966
#
# Stress axis : x y z
#
# Youngs Moduli (GPa) = 19.75072 56.32180 129.01294
#
# Poissons Ratio (x) = -0.75493 0.92974
# Poissons Ratio (y) = -0.26474 0.81359
# Poissons Ratio (z) = 0.14233 0.35518
#
# Static dielectric constant tensor:
#      x y z
#    x 1.965960 0.000000 0.013340 
#    y 0.000000 1.937370 0.000000 
#    z 0.013340 0.000000 1.967960 
# 
# From -- ./inp_files/9110.got.cif
#   From: 2010.05.17/outbox.cif.g08.bks.cpg/sg9_5_cif.got.tgz:9110.got - 2010.06.03 20:04:27.
