data_PCOD9140033
_publ_section_title
;
Structure prediction by ZEFSAII (Michael W. Deem and Ramdas Pophale) SiO2 
 PCOD9140033
Probable space group: C C
;
_chemical_formula_sum "Si O2"
_cell_formula_units_Z 32
_cell_length_a 13.703571
_cell_length_b 7.172297
_cell_length_c 14.433358
_cell_angle_alpha 90.000000
_cell_angle_beta 115.988001
_cell_angle_gamma 90.000000
_cell_volume 1275.157818
_symmetry_space_group_name_H-M "C C"
_symmetry_group_IT_number 9
_symmetry_cell_setting 'monoclinic'
loop_
_space_group_symop_operation_xyz
x,y,z
x,-y,1/2+z
1/2+x,1/2+y,z
1/2+x,1/2-y,1/2+z
loop_
_atom_site_type_symbol
_atom_site_label
_atom_site_fract_x
_atom_site_fract_y
_atom_site_fract_z
Si Si1 0.626900 0.844201 0.918170
Si Si2 0.018263 0.067596 0.196994
Si Si3 0.791401 0.011315 0.841734
Si Si4 0.261314 0.900442 0.065916
Si Si5 0.760146 0.539753 0.355762
Si Si6 0.030018 0.957020 0.495579
Si Si7 0.929352 0.600573 0.786351
Si Si8 0.796141 0.979555 0.125792
O O1 0.555758 0.664951 0.915362
O O2 0.533979 0.997124 0.867768
O O3 0.704886 0.893161 0.864581
O O4 0.704373 0.857545 0.040554
O O5 0.138063 0.002215 0.271172
O O6 0.979880 0.217644 0.257558
O O7 0.920333 0.918475 0.159995
O O8 0.021512 0.143273 0.092446
O O9 0.779420 0.236932 0.849582
O O10 0.912121 0.960163 0.926519
O O11 0.777370 0.986053 0.726183
O O12 0.285344 0.680058 0.070809
O O13 0.351262 0.982249 0.172734
O O14 0.270161 0.990082 0.969138
O O15 0.137039 0.915952 0.048394
O O16 0.844207 0.414213 0.334726
#
# Coordination Sequence:
#
# PCOD9140033 Si02
#       8
#     4   4   4   4   4   4   4   4
#     4  12  25  42  70 107 140 195 244 303 370 438
#     4  11  22  46  73 101 145 191 237 311 359 438
#     4  12  24  46  73 104 147 190 244 311 367 443
#     4  11  25  46  71 108 143 196 248 305 370 447
#     4  12  22  46  73 102 148 191 244 307 369 438
#     4  12  25  46  77 105 149 193 247 309 376 439
#     4  11  24  39  71 104 136 191 248 287 371 433
#     4  11  25  45  74 103 146 193 242 303 378 434
#
# _framework density 25.094933000000001
#
# number of rings (size 3 to 8) (size 9 to 14) (size 15 to 20)
#    0.000    0.500    6.250    2.250    0.000    3.000 
#    2.250    1.250    0.000    0.000    0.000    0.000 
#    0.000    0.000    0.000    0.000    0.000    0.000 
#
# Total GULP energy -89528.286856 kJ/mol
# GULP energy per Si atom -5595.517928 kJ/mol
# Density = 2.503782 g / cm^3
# Si number density = 25.094933 Si / 1000 Ang^3
#
#
#
# Elastic Constant Matrix: (Units=GPa)
#
#
# Indices 1 2 3 4 5 6 
#
# 1 238.7088 42.8053 80.6540 0.0000 7.4857 0.0000
# 2 42.8053 75.0098 15.7319 0.0000 -2.3100 0.0000
# 3 80.6540 15.7319 159.8551 0.0000 -9.8452 0.0000
# 4 0.0000 0.0000 0.0000 19.5962 0.0000 -0.8245
# 5 7.4857 -2.3100 -9.8452 0.0000 68.6278 0.0000
# 6 0.0000 0.0000 0.0000 -0.8245 0.0000 34.1234
#
#
#
# Elastic Compliance Matrix: (Units=1/GPa)
#
#
# Indices 1 2 3 4 5 6 
#
# 1 0.005588 -0.002672 -0.002623 0.000000 -0.001076 0.000000
# 2 -0.002672 0.014895 -0.000069 0.000000 0.000783 0.000000
# 3 -0.002623 -0.000069 0.007671 0.000000 0.001384 0.000000
# 4 0.000000 0.000000 0.000000 0.051082 0.000000 0.001234
# 5 -0.001076 0.000783 0.001384 0.000000 0.014914 0.000000
# 6 0.000000 0.000000 0.000000 0.001234 0.000000 0.029335
#
#
# Mechanical properties :
#
#
# Convention : Reuss Voigt Hill
#
# Bulk Modulus (GPa) = 57.38641 83.55070 70.46855
# Shear Modulus (GPa) = 35.70842 46.76163 41.23503
#
# Velocity S-wave (km/s) = 3.77627 4.32138 4.05799
# Velocity P-wave (km/s) = 6.47542 7.63317 7.07800
#
# Compressibility (1/GPa) = 0.01742573
#
# Stress axis : x y z
#
# Youngs Moduli (GPa) = 178.94571 67.13605 130.35958
#
# Poissons Ratio (x) = 0.17939 0.34191
# Poissons Ratio (y) = 0.47816 0.00906
# Poissons Ratio (z) = 0.46934 0.00467
#
# Static dielectric constant tensor:
#      x y z
#    x 1.972980 0.000000 -0.018110 
#    y 0.000000 2.069440 0.000000 
#    z -0.018110 0.000000 1.972090 
# 
# From -- ./inp_files/24298.got.cif
#   From: 2010.05.17/outbox.cif.g08.bks.cpg/sg9_13_cif.got.tgz:24298.got - 2010.06.03 20:04:27.
