data_PCOD9140076
_publ_section_title
;
Structure prediction by ZEFSAII (Michael W. Deem and Ramdas Pophale) SiO2 
 PCOD9140076
Probable space group: C C
;
_chemical_formula_sum "Si O2"
_cell_formula_units_Z 24
_cell_length_a 7.620612
_cell_length_b 18.100238
_cell_length_c 8.170892
_cell_angle_alpha 90.000000
_cell_angle_beta 92.839796
_cell_angle_gamma 90.000000
_cell_volume 1125.667040
_symmetry_space_group_name_H-M "C C"
_symmetry_group_IT_number 9
_symmetry_cell_setting 'monoclinic'
loop_
_space_group_symop_operation_xyz
x,y,z
x,-y,1/2+z
1/2+x,1/2+y,z
1/2+x,1/2-y,1/2+z
loop_
_atom_site_type_symbol
_atom_site_label
_atom_site_fract_x
_atom_site_fract_y
_atom_site_fract_z
Si Si1 0.889000 0.609617 0.849280
Si Si2 0.583819 0.306424 0.495934
Si Si3 0.894937 0.456958 0.989409
Si Si4 0.584765 0.367441 0.863240
Si Si5 0.680171 0.847503 0.864088
Si Si6 0.179738 0.712960 0.995963
O O1 0.928050 0.543669 0.977885
O O2 0.897831 0.572716 0.673329
O O3 0.701101 0.644892 0.880530
O O4 0.032725 0.673430 0.879866
O O5 0.608810 0.338633 0.678941
O O6 0.650397 0.222232 0.482645
O O7 0.376692 0.306650 0.450222
O O8 0.704975 0.437742 0.903994
O O9 0.039991 0.410242 0.897870
O O10 0.378537 0.377154 0.885233
O O11 0.654428 0.300458 0.979158
O O12 0.656145 0.814649 0.680602
#
# Coordination Sequence:
#
# PCOD9140076 Si02
#       6
#     4   4   4   4   4   4
#     4  12  26  44  66  94 131 172 213 268 326 382
#     4  11  23  40  66  97 129 168 215 264 318 381
#     4  12  26  44  66  94 131 172 213 268 326 382
#     4  11  23  40  66  97 129 168 215 264 318 381
#     4  11  23  40  66  97 129 168 215 264 318 381
#     4  11  23  40  66  97 129 168 215 264 318 381
#
# _framework density 21.320689999999999
#
# number of rings (size 3 to 8) (size 9 to 14) (size 15 to 20)
#    0.000    0.667    3.333    5.000    0.000    5.333 
#    0.000    0.000    0.000    0.000    0.000    0.000 
#    0.000    0.000    0.000    0.000    0.000    0.000 
#
# Total GULP energy -67212.557430 kJ/mol
# GULP energy per Si atom -5601.046453 kJ/mol
# Density = 2.127216 g / cm^3
# Si number density = 21.320690 Si / 1000 Ang^3
#
#
#
# Elastic Constant Matrix: (Units=GPa)
#
#
# Indices 1 2 3 4 5 6 
#
# 1 93.0742 -5.5336 38.9092 0.0000 -23.6583 0.0000
# 2 -5.5336 56.4543 -8.5562 0.0000 -17.0491 0.0000
# 3 38.9092 -8.5562 59.1326 0.0000 -8.2193 0.0000
# 4 0.0000 0.0000 0.0000 31.5111 0.0000 10.2725
# 5 -23.6583 -17.0491 -8.2193 0.0000 25.3005 0.0000
# 6 0.0000 0.0000 0.0000 10.2725 0.0000 9.4591
#
#
#
# Elastic Compliance Matrix: (Units=1/GPa)
#
#
# Indices 1 2 3 4 5 6 
#
# 1 0.020338 0.006714 -0.009571 0.000000 0.020433 0.000000
# 2 0.006714 0.026343 0.002864 0.000000 0.024960 0.000000
# 3 -0.009571 0.002864 0.023718 0.000000 0.000685 0.000000
# 4 0.000000 0.000000 0.000000 0.049127 0.000000 -0.053351
# 5 0.020433 0.024960 0.000685 0.000000 0.075674 0.000000
# 6 0.000000 0.000000 0.000000 -0.053351 0.000000 0.163657
#
#
# Mechanical properties :
#
#
# Convention : Reuss Voigt Hill
#
# Bulk Modulus (GPa) = 14.20204 28.70000 21.45102
# Shear Modulus (GPa) = 13.07821 25.51026 19.29423
#
# Velocity S-wave (km/s) = 2.47939 3.46280 3.01151
# Velocity P-wave (km/s) = 3.85644 5.42939 4.70906
#
# Compressibility (1/GPa) = 0.07041242
#
# Stress axis : x y z
#
# Youngs Moduli (GPa) = 49.16884 37.96017 42.16129
#
# Poissons Ratio (x) = -0.25485 0.40352
# Poissons Ratio (y) = -0.33010 -0.12073
# Poissons Ratio (z) = 0.47059 -0.10870
#
# Static dielectric constant tensor:
#      x y z
#    x 1.733690 0.000000 0.003510 
#    y 0.000000 1.709100 0.000000 
#    z 0.003510 0.000000 1.790550 
# 
# From -- ./inp_files/4988.got.cif
#   From: 2010.05.17/outbox.cif.g08.bks.cpg/sg9_3_cif.got.tgz:4988.got - 2010.06.03 20:04:27.
