data_PCOD9140844
_publ_section_title
;
Structure prediction by ZEFSAII (Michael W. Deem and Ramdas Pophale) SiO2 
 PCOD9140844
Probable space group: C C
;
_chemical_formula_sum "Si O2"
_cell_formula_units_Z 28
_cell_length_a 17.037972
_cell_length_b 7.854196
_cell_length_c 12.813567
_cell_angle_alpha 90.000000
_cell_angle_beta 140.599770
_cell_angle_gamma 90.000000
_cell_volume 1088.381567
_symmetry_space_group_name_H-M "C C"
_symmetry_group_IT_number 9
_symmetry_cell_setting 'monoclinic'
loop_
_space_group_symop_operation_xyz
x,y,z
x,-y,1/2+z
1/2+x,1/2+y,z
1/2+x,1/2-y,1/2+z
loop_
_atom_site_type_symbol
_atom_site_label
_atom_site_fract_x
_atom_site_fract_y
_atom_site_fract_z
Si Si1 0.406710 0.887907 0.224280
Si Si2 0.904859 0.744112 0.939346
Si Si3 0.659696 0.812050 0.418582
Si Si4 0.513030 0.249989 0.333545
Si Si5 0.151121 0.230410 0.186527
Si Si6 0.657617 0.353852 0.293449
Si Si7 0.812139 0.941618 0.212189
O O1 0.395894 0.892062 0.337473
O O2 0.521270 0.762468 0.312264
O O3 0.699248 0.962748 0.538217
O O4 0.455240 0.070908 0.237913
O O5 0.791280 0.712824 0.899389
O O6 0.042736 0.752769 0.123932
O O7 0.875675 0.921382 0.851721
O O8 0.775254 0.680759 0.548252
O O9 0.647213 0.853089 0.283422
O O10 0.626356 0.323939 0.382749
O O11 0.547401 0.248945 0.491607
O O12 0.403153 0.385206 0.215031
O O13 0.268937 0.285798 0.239427
O O14 0.148272 0.044061 0.235617
#
# Coordination Sequence:
#
# PCOD9140844 Si02
#       7
#     4   4   4   4   4   4   4
#     4  11  26  52  82 120 164 213 272 333 404 491
#     4  11  26  51  79 116 160 213 265 334 403 480
#     4  11  28  49  86 117 164 213 272 331 414 473
#     4  12  29  49  82 118 164 209 281 331 403 490
#     4  12  29  51  83 116 166 216 268 335 410 481
#     4  12  30  49  82 115 167 212 270 330 417 472
#     4  11  26  49  80 116 159 208 276 334 395 485
#
# _framework density 25.726272999999999
#
# number of rings (size 3 to 8) (size 9 to 14) (size 15 to 20)
#    0.000    0.571    2.857    2.571   14.000    2.286 
#    0.000    0.000    0.000    0.000    0.000    0.000 
#    0.000    0.000    0.000    0.000    0.000    0.000 
#
# Total GULP energy -78372.839448 kJ/mol
# GULP energy per Si atom -5598.059961 kJ/mol
# Density = 2.566772 g / cm^3
# Si number density = 25.726273 Si / 1000 Ang^3
#
#
#
# Elastic Constant Matrix: (Units=GPa)
#
#
# Indices 1 2 3 4 5 6 
#
# 1 190.7559 54.4943 62.2292 0.0000 13.9420 0.0000
# 2 54.4943 129.4967 34.9492 0.0000 14.2299 0.0000
# 3 62.2292 34.9492 160.8748 0.0000 -8.7415 0.0000
# 4 0.0000 0.0000 0.0000 16.9715 0.0000 1.5179
# 5 13.9420 14.2299 -8.7415 0.0000 53.4672 0.0000
# 6 0.0000 0.0000 0.0000 1.5179 0.0000 46.2013
#
#
#
# Elastic Compliance Matrix: (Units=1/GPa)
#
#
# Indices 1 2 3 4 5 6 
#
# 1 0.006661 -0.002033 -0.002220 0.000000 -0.001559 0.000000
# 2 -0.002033 0.009168 -0.001321 0.000000 -0.002126 0.000000
# 3 -0.002220 -0.001321 0.007479 0.000000 0.002153 0.000000
# 4 0.000000 0.000000 0.000000 0.059096 0.000000 -0.001941
# 5 -0.001559 -0.002126 0.002153 0.000000 0.020027 0.000000
# 6 0.000000 0.000000 0.000000 -0.001941 0.000000 0.021708
#
#
# Mechanical properties :
#
#
# Convention : Reuss Voigt Hill
#
# Bulk Modulus (GPa) = 82.23183 87.16365 84.69774
# Shear Modulus (GPa) = 35.88372 45.29164 40.58768
#
# Velocity S-wave (km/s) = 3.73879 4.20041 3.97630
# Velocity P-wave (km/s) = 7.11840 7.58151 7.35360
#
# Compressibility (1/GPa) = 0.01216074
#
# Stress axis : x y z
#
# Youngs Moduli (GPa) = 150.12623 109.07880 133.71523
#
# Poissons Ratio (x) = 0.22173 0.29681
# Poissons Ratio (y) = 0.30516 0.17662
# Poissons Ratio (z) = 0.33324 0.14408
#
# Static dielectric constant tensor:
#      x y z
#    x 2.004980 0.000000 0.003370 
#    y 0.000000 2.084530 0.000000 
#    z 0.003370 0.000000 2.031100 
# 
# From -- ./inp_files/26708.got.cif
#   From: 2010.05.17/outbox.cif.g08.bks.cpg/sg9_14_cif.got.tgz:26708.got - 2010.06.03 20:04:27.
