data_PCOD9140417
_publ_section_title
;
Structure prediction by ZEFSAII (Michael W. Deem and Ramdas Pophale) SiO2 
 PCOD9140417
Probable space group: C C
;
_chemical_formula_sum "Si O2"
_cell_formula_units_Z 32
_cell_length_a 12.589109
_cell_length_b 12.194793
_cell_length_c 8.476061
_cell_angle_alpha 90.000000
_cell_angle_beta 90.482840
_cell_angle_gamma 90.000000
_cell_volume 1301.212057
_symmetry_space_group_name_H-M "C C"
_symmetry_group_IT_number 9
_symmetry_cell_setting 'monoclinic'
loop_
_space_group_symop_operation_xyz
x,y,z
x,-y,1/2+z
1/2+x,1/2+y,z
1/2+x,1/2-y,1/2+z
loop_
_atom_site_type_symbol
_atom_site_label
_atom_site_fract_x
_atom_site_fract_y
_atom_site_fract_z
Si Si1 0.704860 0.047696 0.966390
Si Si2 0.081847 0.850316 0.440063
Si Si3 0.913687 0.657079 0.497527
Si Si4 0.349342 0.579685 0.679699
Si Si5 0.738075 0.238812 0.195786
Si Si6 0.923259 0.239765 0.443402
Si Si7 0.540827 0.427249 0.754579
Si Si8 0.479374 0.964847 0.313697
O O1 0.798253 0.085676 0.849913
O O2 0.601178 0.020764 0.865881
O O3 0.686641 0.141002 0.096453
O O4 0.752374 0.946142 0.061698
O O5 0.156424 0.792013 0.314940
O O6 0.983354 0.766793 0.470206
O O7 0.116944 0.883820 0.617501
O O8 0.066880 0.968151 0.359308
O O9 0.798336 0.685802 0.567284
O O10 0.917717 0.576964 0.347878
O O11 0.968408 0.586140 0.639802
O O12 0.402329 0.689091 0.613426
O O13 0.433635 0.479144 0.670426
O O14 0.832266 0.205348 0.316736
O O15 0.022178 0.174774 0.370307
O O16 0.934424 0.368732 0.427017
#
# Coordination Sequence:
#
# PCOD9140417 Si02
#       8
#     4   4   4   4   4   4   4   4
#     4  12  24  41  69 114 130 189 249 302 349 432
#     4  12  27  44  78 104 146 185 245 303 359 429
#     4  11  26  50  67 105 151 191 230 302 360 438
#     4  12  22  39  73 101 143 177 250 305 353 413
#     4  11  26  47  68 103 149 184 242 293 361 430
#     4  11  24  45  68 102 143 193 230 301 362 425
#     4  12  22  46  71 105 140 186 236 306 360 412
#     4  11  27  44  70 100 150 187 236 284 374 427
#
# _framework density 24.592455999999999
#
# number of rings (size 3 to 8) (size 9 to 14) (size 15 to 20)
#    0.000    0.500    6.250    1.500    8.750    3.000 
#    0.000    0.000    0.000    0.000    0.000    0.000 
#    0.000    0.000    0.000    0.000    0.000    0.000 
#
# Total GULP energy -89516.855989 kJ/mol
# GULP energy per Si atom -5594.803499 kJ/mol
# Density = 2.453648 g / cm^3
# Si number density = 24.592456 Si / 1000 Ang^3
#
#
#
# Elastic Constant Matrix: (Units=GPa)
#
#
# Indices 1 2 3 4 5 6 
#
# 1 24.6222 -21.4595 14.4668 0.0000 -6.8918 0.0000
# 2 -21.4595 94.1715 41.8751 0.0000 -14.6123 0.0000
# 3 14.4668 41.8751 143.6611 0.0000 -37.5972 0.0000
# 4 0.0000 0.0000 0.0000 56.8772 0.0000 -7.7152
# 5 -6.8918 -14.6123 -37.5972 0.0000 40.1822 0.0000
# 6 0.0000 0.0000 0.0000 -7.7152 0.0000 18.0296
#
#
#
# Elastic Compliance Matrix: (Units=1/GPa)
#
#
# Indices 1 2 3 4 5 6 
#
# 1 0.068854 0.022001 -0.010809 0.000000 0.009696 0.000000
# 2 0.022001 0.019296 -0.006643 0.000000 0.004575 0.000000
# 3 -0.010809 -0.006643 0.011744 0.000000 0.006719 0.000000
# 4 0.000000 0.000000 0.000000 0.018665 0.000000 0.007987
# 5 0.009696 0.004575 0.006719 0.000000 0.034500 0.000000
# 6 0.000000 0.000000 0.000000 0.007987 0.000000 0.058882
#
#
# Mechanical properties :
#
#
# Convention : Reuss Voigt Hill
#
# Bulk Modulus (GPa) = 9.17492 36.91329 23.04411
# Shear Modulus (GPa) = 20.90531 38.18928 29.54730
#
# Velocity S-wave (km/s) = 2.91876 3.94494 3.46999
# Velocity P-wave (km/s) = 3.88558 5.98270 5.04433
#
# Compressibility (1/GPa) = 0.10899274
#
# Stress axis : x y z
#
# Youngs Moduli (GPa) = 14.52354 51.82362 85.15006
#
# Poissons Ratio (x) = -1.14018 0.92039
# Poissons Ratio (y) = -0.31954 0.56563
# Poissons Ratio (z) = 0.15699 0.34425
#
# Static dielectric constant tensor:
#      x y z
#    x 2.033160 0.000000 -0.006420 
#    y 0.000000 1.934970 0.000000 
#    z -0.006420 0.000000 1.962980 
# 
# From -- ./inp_files/9079.got.cif
#   From: 2010.05.17/outbox.cif.g08.bks.cpg/sg9_5_cif.got.tgz:9079.got - 2010.06.03 20:04:27.
