data_PCOD9140671
_publ_section_title
;
Structure prediction by ZEFSAII (Michael W. Deem and Ramdas Pophale) SiO2 
 PCOD9140671
Probable space group: C C
;
_chemical_formula_sum "Si O2"
_cell_formula_units_Z 32
_cell_length_a 14.836738
_cell_length_b 19.178525
_cell_length_c 8.982112
_cell_angle_alpha 90.000000
_cell_angle_beta 145.270996
_cell_angle_gamma 90.000000
_cell_volume 1456.045634
_symmetry_space_group_name_H-M "C C"
_symmetry_group_IT_number 9
_symmetry_cell_setting 'monoclinic'
loop_
_space_group_symop_operation_xyz
x,y,z
x,-y,1/2+z
1/2+x,1/2+y,z
1/2+x,1/2-y,1/2+z
loop_
_atom_site_type_symbol
_atom_site_label
_atom_site_fract_x
_atom_site_fract_y
_atom_site_fract_z
Si Si1 0.509120 0.797957 0.917110
Si Si2 0.234149 0.794941 0.340259
Si Si3 0.554442 0.576479 0.201536
Si Si4 0.533374 0.422949 0.034224
Si Si5 0.200177 0.566905 0.213339
Si Si6 0.966421 0.689471 0.892572
Si Si7 0.782013 0.310270 0.873494
Si Si8 0.726014 0.081376 0.600877
O O1 0.371053 0.765404 0.630048
O O2 0.405313 0.828232 0.911362
O O3 0.643186 0.742436 0.139491
O O4 0.594911 0.859933 0.946528
O O5 0.147834 0.866499 0.266298
O O6 0.321404 0.813611 0.306838
O O7 0.101946 0.737739 0.141584
O O8 0.566694 0.498395 0.151450
O O9 0.547558 0.575845 0.372843
O O10 0.696550 0.623885 0.333262
O O11 0.389994 0.603634 0.903729
O O12 0.352970 0.404293 0.832653
O O13 0.241166 0.566543 0.445201
O O14 0.176431 0.489379 0.118284
O O15 0.048695 0.615135 0.979289
O O16 0.896972 0.724133 0.650999
#
# Coordination Sequence:
#
# PCOD9140671 Si02
#       8
#     4   4   4   4   4   4   4   4
#     4  12  28  46  73 103 141 186 236 292 350 415
#     4  12  26  47  71 103 141 182 234 292 352 416
#     4  11  25  46  73 105 144 185 234 287 353 421
#     4  11  25  46  74 105 142 187 231 289 353 420
#     4  11  25  46  74 105 142 187 231 289 353 420
#     4  12  26  47  71 103 141 182 234 292 352 416
#     4  12  28  46  73 103 141 186 236 292 350 415
#     4  11  25  46  73 105 144 185 234 287 353 421
#
# _framework density 21.977333000000002
#
# number of rings (size 3 to 8) (size 9 to 14) (size 15 to 20)
#    0.000    0.500    2.500    6.000   10.500    2.000 
#    0.000    0.000    0.000    0.000    0.000    0.000 
#    0.000    0.000    0.000    0.000    0.000    0.000 
#
# Total GULP energy -89523.577079 kJ/mol
# GULP energy per Si atom -5595.223567 kJ/mol
# Density = 2.192731 g / cm^3
# Si number density = 21.977333 Si / 1000 Ang^3
#
#
#
# Elastic Constant Matrix: (Units=GPa)
#
#
# Indices 1 2 3 4 5 6 
#
# 1 124.8247 28.6030 3.3183 0.0000 -1.7855 0.0000
# 2 28.6030 50.1664 22.2585 0.0000 10.6357 0.0000
# 3 3.3183 22.2585 103.8877 0.0000 -14.6966 0.0000
# 4 0.0000 0.0000 0.0000 29.0661 0.0000 4.3448
# 5 -1.7855 10.6357 -14.6966 0.0000 36.4061 0.0000
# 6 0.0000 0.0000 0.0000 4.3448 0.0000 4.4582
#
#
#
# Elastic Compliance Matrix: (Units=1/GPa)
#
#
# Indices 1 2 3 4 5 6 
#
# 1 0.009578 -0.006829 0.001597 0.000000 0.003109 0.000000
# 2 -0.006829 0.029955 -0.007939 0.000000 -0.012291 0.000000
# 3 0.001597 -0.007939 0.012318 0.000000 0.007370 0.000000
# 4 0.000000 0.000000 0.000000 0.040271 0.000000 -0.039247
# 5 0.003109 -0.012291 0.007370 0.000000 0.034186 0.000000
# 6 0.000000 0.000000 0.000000 -0.039247 0.000000 0.262556
#
#
# Mechanical properties :
#
#
# Convention : Reuss Voigt Hill
#
# Bulk Modulus (GPa) = 39.19926 43.02649 41.11288
# Shear Modulus (GPa) = 11.80054 28.96601 20.38328
#
# Velocity S-wave (km/s) = 2.31971 3.63436 3.04874
# Velocity P-wave (km/s) = 5.00497 6.10177 5.58038
#
# Compressibility (1/GPa) = 0.02551068
#
# Stress axis : x y z
#
# Youngs Moduli (GPa) = 104.40529 33.38303 81.17993
#
# Poissons Ratio (x) = 0.22797 -0.12965
# Poissons Ratio (y) = 0.71297 0.64446
# Poissons Ratio (z) = -0.16674 0.26502
#
# Static dielectric constant tensor:
#      x y z
#    x 1.850440 0.000000 -0.049300 
#    y 0.000000 1.819330 0.000000 
#    z -0.049300 0.000000 1.828570 
# 
# From -- ./inp_files/10107.got.cif
#   From: 2010.05.17/outbox.cif.g08.bks.cpg/sg9_6_cif.got.tgz:10107.got - 2010.06.03 20:04:27.
