data_PCOD9140072
_publ_section_title
;
Structure prediction by ZEFSAII (Michael W. Deem and Ramdas Pophale) SiO2 
 PCOD9140072
Probable space group: C C
;
_chemical_formula_sum "Si O2"
_cell_formula_units_Z 32
_cell_length_a 23.010372
_cell_length_b 11.265369
_cell_length_c 10.482957
_cell_angle_alpha 90.000000
_cell_angle_beta 151.472677
_cell_angle_gamma 90.000000
_cell_volume 1297.767788
_symmetry_space_group_name_H-M "C C"
_symmetry_group_IT_number 9
_symmetry_cell_setting 'monoclinic'
loop_
_space_group_symop_operation_xyz
x,y,z
x,-y,1/2+z
1/2+x,1/2+y,z
1/2+x,1/2-y,1/2+z
loop_
_atom_site_type_symbol
_atom_site_label
_atom_site_fract_x
_atom_site_fract_y
_atom_site_fract_z
Si Si1 0.570560 0.735321 0.460570
Si Si2 0.287452 0.538422 0.022007
Si Si3 0.328295 0.813533 0.050873
Si Si4 0.174134 0.985138 0.607917
Si Si5 0.171278 0.554201 0.544470
Si Si6 0.835253 0.797167 0.003498
Si Si7 0.413283 0.108135 0.984465
Si Si8 0.189529 0.207688 0.943938
O O1 0.447115 0.802403 0.186179
O O2 0.581966 0.594633 0.450884
O O3 0.701532 0.791475 0.674166
O O4 0.584531 0.743596 0.641527
O O5 0.177649 0.530250 0.706724
O O6 0.260180 0.509424 0.115440
O O7 0.365977 0.428710 0.113837
O O8 0.320699 0.674870 0.074059
O O9 0.366844 0.881764 0.252314
O O10 0.205065 0.879069 0.766764
O O11 0.159125 0.917649 0.445357
O O12 0.305894 0.047084 0.856209
O O13 0.203162 0.692278 0.577144
O O14 0.036788 0.537650 0.233800
O O15 0.927425 0.734660 0.085892
O O16 0.806567 0.720040 0.076323
#
# Coordination Sequence:
#
# PCOD9140072 Si02
#       8
#     4   4   4   4   4   4   4   4
#     4   9  21  42  63  90 129 167 215 279 326 401
#     4  11  23  42  65  97 132 169 224 279 328 417
#     4  12  23  41  65  98 126 178 225 267 346 410
#     4  11  23  39  68  95 127 170 227 277 336 405
#     4  11  23  40  67  90 133 171 213 277 333 395
#     4   8  20  40  64  87 127 167 211 270 336 385
#     4  11  23  38  68  91 129 171 221 270 342 407
#     4   9  18  42  58  86 129 165 204 277 335 386
#
# _framework density 24.657726
#
# number of rings (size 3 to 8) (size 9 to 14) (size 15 to 20)
#    0.750    1.000    2.500    1.500    3.500    1.000 
#    2.250    0.000    0.000    0.000    0.000    0.000 
#    0.000    0.000    0.000    0.000    0.000    0.000 
#
# Total GULP energy -89143.007063 kJ/mol
# GULP energy per Si atom -5571.437941 kJ/mol
# Density = 2.460160 g / cm^3
# Si number density = 24.657726 Si / 1000 Ang^3
#
#
#
# Elastic Constant Matrix: (Units=GPa)
#
#
# Indices 1 2 3 4 5 6 
#
# 1 51.1978 11.4630 -3.1108 0.0000 -2.7697 0.0000
# 2 11.4630 97.5847 -10.3265 0.0000 2.0818 0.0000
# 3 -3.1108 -10.3265 25.8362 0.0000 -10.4243 0.0000
# 4 0.0000 0.0000 0.0000 31.0212 0.0000 -7.5250
# 5 -2.7697 2.0818 -10.4243 0.0000 28.9093 0.0000
# 6 0.0000 0.0000 0.0000 -7.5250 0.0000 42.5194
#
#
#
# Elastic Compliance Matrix: (Units=1/GPa)
#
#
# Indices 1 2 3 4 5 6 
#
# 1 0.020358 -0.002156 0.002854 0.000000 0.003135 0.000000
# 2 -0.002156 0.010949 0.004347 0.000000 0.000573 0.000000
# 3 0.002854 0.004347 0.047712 0.000000 0.017165 0.000000
# 4 0.000000 0.000000 0.000000 0.033682 0.000000 0.005961
# 5 0.003135 0.000573 0.017165 0.000000 0.041039 0.000000
# 6 0.000000 0.000000 0.000000 0.005961 0.000000 0.024574
#
#
# Mechanical properties :
#
#
# Convention : Reuss Voigt Hill
#
# Bulk Modulus (GPa) = 11.22212 18.96334 15.09273
# Shear Modulus (GPa) = 25.26196 32.26285 28.76241
#
# Velocity S-wave (km/s) = 3.20426 3.62114 3.41906
# Velocity P-wave (km/s) = 4.27209 5.01905 4.66056
#
# Compressibility (1/GPa) = 0.08910971
#
# Stress axis : x y z
#
# Youngs Moduli (GPa) = 49.12100 91.33563 20.95899
#
# Poissons Ratio (x) = 0.19694 -0.05982
# Poissons Ratio (y) = 0.10592 -0.09112
# Poissons Ratio (z) = -0.14020 -0.39708
#
# Static dielectric constant tensor:
#      x y z
#    x 1.961910 0.000000 0.046060 
#    y 0.000000 2.110270 0.000000 
#    z 0.046060 0.000000 1.992490 
# 
# From -- ./inp_files/21268.got.cif
#   From: 2010.05.17/outbox.cif.g08.bks.cpg/sg9_11_cif.got.tgz:21268.got - 2010.06.03 20:04:27.
