data_PCOD9140301
_publ_section_title
;
Structure prediction by ZEFSAII (Michael W. Deem and Ramdas Pophale) SiO2 
 PCOD9140301
Probable space group: C C
;
_chemical_formula_sum "Si O2"
_cell_formula_units_Z 32
_cell_length_a 12.244018
_cell_length_b 8.434589
_cell_length_c 13.891938
_cell_angle_alpha 90.000000
_cell_angle_beta 67.688638
_cell_angle_gamma 90.000000
_cell_volume 1327.258684
_symmetry_space_group_name_H-M "C C"
_symmetry_group_IT_number 9
_symmetry_cell_setting 'monoclinic'
loop_
_space_group_symop_operation_xyz
x,y,z
x,-y,1/2+z
1/2+x,1/2+y,z
1/2+x,1/2-y,1/2+z
loop_
_atom_site_type_symbol
_atom_site_label
_atom_site_fract_x
_atom_site_fract_y
_atom_site_fract_z
Si Si1 0.213850 0.088965 0.400830
Si Si2 0.652933 0.931732 0.356647
Si Si3 0.608863 0.935764 0.144510
Si Si4 0.894563 0.116677 0.316708
Si Si5 0.921594 0.631964 0.468941
Si Si6 0.357834 0.936497 0.205063
Si Si7 0.046288 0.080801 0.108267
Si Si8 0.867726 0.019414 0.013233
O O1 0.162123 0.263077 0.404932
O O2 0.341781 0.077874 0.407885
O O3 0.135029 0.998499 0.504676
O O4 0.243600 0.021626 0.285258
O O5 0.632425 0.908589 0.249517
O O6 0.777463 0.015735 0.335604
O O7 0.545157 0.041449 0.428071
O O8 0.484425 0.025904 0.172963
O O9 0.586938 0.765758 0.099370
O O10 0.726231 0.019819 0.066538
O O11 0.874289 0.281245 0.267278
O O12 0.903676 0.121914 0.429250
O O13 0.013130 0.044470 0.229682
O O14 0.853529 0.605751 0.593487
O O15 0.926588 0.820820 0.452279
O O16 0.922285 0.026071 0.100633
#
# Coordination Sequence:
#
# PCOD9140301 Si02
#       8
#     4   4   4   4   4   4   4   4
#     4  12  29  45  69 113 147 198 253 306 374 449
#     4  12  26  47  74 107 152 194 247 317 376 447
#     4  11  23  48  74 104 150 195 243 317 375 442
#     4  11  24  48  74 106 142 195 255 309 374 449
#     4  12  26  48  72 110 149 196 248 310 377 449
#     4  11  25  48  74 106 146 199 245 310 381 443
#     4  11  27  45  70 110 143 199 251 301 378 441
#     4  12  24  47  75 106 145 196 248 304 377 446
#
# _framework density 24.109845
#
# number of rings (size 3 to 8) (size 9 to 14) (size 15 to 20)
#    0.000    0.500    6.250    1.500    7.000    2.000 
#    2.250    0.000    0.000    0.000    0.000    0.000 
#    0.000    0.000    0.000    0.000    0.000    0.000 
#
# Total GULP energy -89363.707317 kJ/mol
# GULP energy per Si atom -5585.231707 kJ/mol
# Density = 2.405497 g / cm^3
# Si number density = 24.109845 Si / 1000 Ang^3
#
#
#
# Elastic Constant Matrix: (Units=GPa)
#
#
# Indices 1 2 3 4 5 6 
#
# 1 105.4564 31.0368 29.7728 0.0000 -8.2978 0.0000
# 2 31.0368 83.7329 47.0916 0.0000 -17.4272 0.0000
# 3 29.7728 47.0916 138.5541 0.0000 -8.7701 0.0000
# 4 0.0000 0.0000 0.0000 34.6942 0.0000 1.8976
# 5 -8.2978 -17.4272 -8.7701 0.0000 51.2825 0.0000
# 6 0.0000 0.0000 0.0000 1.8976 0.0000 35.0969
#
#
#
# Elastic Compliance Matrix: (Units=1/GPa)
#
#
# Indices 1 2 3 4 5 6 
#
# 1 0.010809 -0.003244 -0.001192 0.000000 0.000443 0.000000
# 2 -0.003244 0.016693 -0.004702 0.000000 0.004344 0.000000
# 3 -0.001192 -0.004702 0.009056 0.000000 -0.000242 0.000000
# 4 0.000000 0.000000 0.000000 0.028909 0.000000 -0.001563
# 5 0.000443 0.004344 -0.000242 0.000000 0.021006 0.000000
# 6 0.000000 0.000000 0.000000 -0.001563 0.000000 0.028577
#
#
# Mechanical properties :
#
#
# Convention : Reuss Voigt Hill
#
# Bulk Modulus (GPa) = 54.69525 60.39399 57.54462
# Shear Modulus (GPa) = 35.86282 38.87087 37.36684
#
# Velocity S-wave (km/s) = 3.86097 4.01963 3.94109
# Velocity P-wave (km/s) = 6.52772 6.82987 6.68050
#
# Compressibility (1/GPa) = 0.01828312
#
# Stress axis : x y z
#
# Youngs Moduli (GPa) = 92.51846 59.90363 110.42082
#
# Poissons Ratio (x) = 0.19432 0.13163
# Poissons Ratio (y) = 0.30011 0.51917
# Poissons Ratio (z) = 0.11029 0.28165
#
# Static dielectric constant tensor:
#      x y z
#    x 1.981260 0.000000 -0.006230 
#    y 0.000000 1.934020 0.000000 
#    z -0.006230 0.000000 1.969120 
# 
# From -- ./inp_files/24212.got.cif
#   From: 2010.05.17/outbox.cif.g08.bks.cpg/sg9_13_cif.got.tgz:24212.got - 2010.06.03 20:04:27.
