data_PCOD9140340
_publ_section_title
;
Structure prediction by ZEFSAII (Michael W. Deem and Ramdas Pophale) SiO2 
 PCOD9140340
Probable space group: C C
;
_chemical_formula_sum "Si O2"
_cell_formula_units_Z 24
_cell_length_a 9.539537
_cell_length_b 21.995200
_cell_length_c 9.402880
_cell_angle_alpha 90.000000
_cell_angle_beta 30.306314
_cell_angle_gamma 90.000000
_cell_volume 995.595549
_symmetry_space_group_name_H-M "C C"
_symmetry_group_IT_number 9
_symmetry_cell_setting 'monoclinic'
loop_
_space_group_symop_operation_xyz
x,y,z
x,-y,1/2+z
1/2+x,1/2+y,z
1/2+x,1/2-y,1/2+z
loop_
_atom_site_type_symbol
_atom_site_label
_atom_site_fract_x
_atom_site_fract_y
_atom_site_fract_z
Si Si1 0.205490 0.426852 0.480790
Si Si2 0.467482 0.381641 0.837493
Si Si3 0.457356 0.786653 0.936345
Si Si4 0.358031 0.109978 0.747249
Si Si5 0.475519 0.502857 0.989709
Si Si6 0.166930 0.151699 0.452334
O O1 0.562783 0.551508 0.307812
O O2 0.306971 0.472841 0.267886
O O3 0.272552 0.454926 0.574541
O O4 0.410914 0.369967 0.273650
O O5 0.541331 0.338681 0.905934
O O6 0.146102 0.390232 0.080925
O O7 0.632554 0.363151 0.553593
O O8 0.402423 0.847848 0.071972
O O9 0.273841 0.732690 0.161449
O O10 0.335432 0.796607 0.885270
O O11 0.392982 0.096860 0.245243
O O12 0.230046 0.044728 0.817165
#
# Coordination Sequence:
#
# PCOD9140340 Si02
#       6
#     4   4   4   4   4   4
#     4  11  24  39  69  99 148 184 234 279 348 431
#     4  11  26  43  70 104 149 191 227 279 365 433
#     4  12  27  50  79 104 133 185 252 310 365 407
#     4  12  26  46  69 105 147 187 238 297 343 426
#     4  11  24  41  67 107 147 193 227 274 352 433
#     4  11  25  47  68 103 140 184 242 295 347 426
#
# _framework density 24.106175
#
# number of rings (size 3 to 8) (size 9 to 14) (size 15 to 20)
#    0.000    0.667    3.333    4.000    7.000    4.000 
#    0.000    5.000    0.000    0.000    0.000    0.000 
#    0.000    0.000    0.000    0.000    0.000    0.000 
#
# Total GULP energy -67225.292624 kJ/mol
# GULP energy per Si atom -5602.107719 kJ/mol
# Density = 2.405131 g / cm^3
# Si number density = 24.106175 Si / 1000 Ang^3
#
#
#
# Elastic Constant Matrix: (Units=GPa)
#
#
# Indices 1 2 3 4 5 6 
#
# 1 131.7666 17.1156 36.9012 0.0001 -13.3931 0.0003
# 2 17.1156 49.9839 27.8676 0.0000 6.9940 0.0000
# 3 36.9012 27.8676 78.7817 0.0000 -6.9427 0.0002
# 4 0.0001 0.0000 0.0000 39.9036 0.0000 -1.6929
# 5 -13.3931 6.9940 -6.9427 0.0000 36.3460 -0.0002
# 6 0.0003 0.0000 0.0002 -1.6929 -0.0002 29.5624
#
#
#
# Elastic Compliance Matrix: (Units=1/GPa)
#
#
# Indices 1 2 3 4 5 6 
#
# 1 0.009058 -0.001624 -0.003404 0.000000 0.003000 0.000000
# 2 -0.001624 0.026868 -0.009410 0.000000 -0.007566 0.000000
# 3 -0.003404 -0.009410 0.017968 0.000000 0.003989 0.000000
# 4 0.000000 0.000000 0.000000 0.025121 0.000000 0.001439
# 5 0.003000 -0.007566 0.003989 0.000000 0.030837 0.000000
# 6 0.000000 0.000000 0.000000 0.001439 0.000000 0.033909
#
#
# Mechanical properties :
#
#
# Convention : Reuss Voigt Hill
#
# Bulk Modulus (GPa) = 39.97136 47.14457 43.55796
# Shear Modulus (GPa) = 27.62793 33.07225 30.35009
#
# Velocity S-wave (km/s) = 3.38907 3.70799 3.55211
# Velocity P-wave (km/s) = 5.65082 6.15888 5.91031
#
# Compressibility (1/GPa) = 0.02501791
#
# Stress axis : x y z
#
# Youngs Moduli (GPa) = 110.39533 37.21967 55.65445
#
# Poissons Ratio (x) = 0.06043 0.18946
# Poissons Ratio (y) = 0.17924 0.52372
# Poissons Ratio (z) = 0.37581 0.35024
#
# Static dielectric constant tensor:
#      x y z
#    x 1.912810 0.000000 0.022700 
#    y 0.000000 1.962280 0.000000 
#    z 0.022700 0.000000 1.901330 
# 
# From -- ./inp_files/5699.got.cif
#   From: 2010.05.17/outbox.cif.g08.bks.cpg/sg9_3_cif.got.tgz:5699.got - 2010.06.03 20:04:27.
