data_PCOD9140190
_publ_section_title
;
Structure prediction by ZEFSAII (Michael W. Deem and Ramdas Pophale) SiO2 
 PCOD9140190
Probable space group: C C
;
_chemical_formula_sum "Si O2"
_cell_formula_units_Z 32
_cell_length_a 14.974339
_cell_length_b 11.874761
_cell_length_c 9.034954
_cell_angle_alpha 90.000000
_cell_angle_beta 69.430670
_cell_angle_gamma 90.000000
_cell_volume 1504.143483
_symmetry_space_group_name_H-M "C C"
_symmetry_group_IT_number 9
_symmetry_cell_setting 'monoclinic'
loop_
_space_group_symop_operation_xyz
x,y,z
x,-y,1/2+z
1/2+x,1/2+y,z
1/2+x,1/2-y,1/2+z
loop_
_atom_site_type_symbol
_atom_site_label
_atom_site_fract_x
_atom_site_fract_y
_atom_site_fract_z
Si Si1 0.083560 0.253448 0.989110
Si Si2 0.233630 0.087672 0.786399
Si Si3 0.502265 0.917716 0.805413
Si Si4 0.399915 0.253398 0.803274
Si Si5 0.748806 0.915657 0.016265
Si Si6 0.530306 0.138213 0.953349
Si Si7 0.238877 0.647878 0.857570
Si Si8 0.788703 0.380921 0.933564
O O1 0.143356 0.141712 0.921414
O O2 0.156486 0.340919 0.025141
O O3 0.052784 0.313401 0.854683
O O4 0.988700 0.234134 0.140296
O O5 0.325878 0.160228 0.785381
O O6 0.224897 0.105135 0.616362
O O7 0.250824 0.959692 0.824457
O O8 0.502863 0.907057 0.629802
O O9 0.392916 0.924653 0.919092
O O10 0.549804 0.031268 0.836254
O O11 0.337173 0.363024 0.873239
O O12 0.447541 0.209874 0.927264
O O13 0.735554 0.044490 0.974546
O O14 0.766813 0.897999 0.179967
O O15 0.631808 0.198478 0.908058
O O16 0.300588 0.751944 0.878177
#
# Coordination Sequence:
#
# PCOD9140190 Si02
#       8
#     4   4   4   4   4   4   4   4
#     4  11  23  45  69 100 136 185 228 287 343 404
#     4  11  26  43  71 101 142 177 231 286 346 407
#     4  12  22  38  65  99 133 174 235 281 334 403
#     4  11  23  45  69 100 136 185 228 287 343 404
#     4  11  26  43  71 101 142 177 231 286 346 407
#     4  12  22  38  65  99 133 174 235 281 334 403
#     4  12  26  44  69 104 142 180 228 285 348 411
#     4  12  26  44  69 104 142 180 228 285 348 411
#
# _framework density 21.274566
#
# number of rings (size 3 to 8) (size 9 to 14) (size 15 to 20)
#    0.000    0.500    5.000    3.750    7.000    0.000 
#    0.000    6.250    0.000    0.000    0.000    0.000 
#    0.000    0.000    0.000    0.000    0.000    0.000 
#
# Total GULP energy -89538.643433 kJ/mol
# GULP energy per Si atom -5596.165215 kJ/mol
# Density = 2.122614 g / cm^3
# Si number density = 21.274566 Si / 1000 Ang^3
#
#
#
# Elastic Constant Matrix: (Units=GPa)
#
#
# Indices 1 2 3 4 5 6 
#
# 1 61.0331 10.7428 24.9280 0.0000 -13.4562 0.0000
# 2 10.7428 81.2438 23.5012 0.0000 1.6393 0.0000
# 3 24.9280 23.5012 120.0326 0.0000 5.4164 0.0000
# 4 0.0000 0.0000 0.0000 25.4250 0.0000 0.5681
# 5 -13.4562 1.6393 5.4164 0.0000 44.4311 0.0000
# 6 0.0000 0.0000 0.0000 0.5681 0.0000 25.5885
#
#
#
# Elastic Compliance Matrix: (Units=1/GPa)
#
#
# Indices 1 2 3 4 5 6 
#
# 1 0.019776 -0.001562 -0.004097 0.000000 0.006546 0.000000
# 2 -0.001562 0.013172 -0.002224 0.000000 -0.000688 0.000000
# 3 -0.004097 -0.002224 0.009723 0.000000 -0.002344 0.000000
# 4 0.000000 0.000000 0.000000 0.039351 0.000000 -0.000874
# 5 0.006546 -0.000688 -0.002344 0.000000 0.024800 0.000000
# 6 0.000000 0.000000 0.000000 -0.000874 0.000000 0.039099
#
#
# Mechanical properties :
#
#
# Convention : Reuss Voigt Hill
#
# Bulk Modulus (GPa) = 37.16530 42.29483 39.73007
# Shear Modulus (GPa) = 29.29885 32.63143 30.96514
#
# Velocity S-wave (km/s) = 3.71506 3.92065 3.81924
# Velocity P-wave (km/s) = 5.99245 6.35759 6.17772
#
# Compressibility (1/GPa) = 0.02690682
#
# Stress axis : x y z
#
# Youngs Moduli (GPa) = 50.56652 75.91713 102.84947
#
# Poissons Ratio (x) = 0.11859 0.42133
# Poissons Ratio (y) = 0.07899 0.22869
# Poissons Ratio (z) = 0.20715 0.16881
#
# Static dielectric constant tensor:
#      x y z
#    x 1.742570 0.000000 -0.011900 
#    y 0.000000 1.719810 0.000000 
#    z -0.011900 0.000000 1.783030 
# 
# From -- ./inp_files/9088.got.cif
#   From: 2010.05.17/outbox.cif.g08.bks.cpg/sg9_5_cif.got.tgz:9088.got - 2010.06.03 20:04:27.
