data_PCOD9140013
_publ_section_title
;
Structure prediction by ZEFSAII (Michael W. Deem and Ramdas Pophale) SiO2 
 PCOD9140013
Probable space group: C C
;
_chemical_formula_sum "Si O2"
_cell_formula_units_Z 24
_cell_length_a 15.400668
_cell_length_b 11.088331
_cell_length_c 9.320097
_cell_angle_alpha 90.000000
_cell_angle_beta 33.080374
_cell_angle_gamma 90.000000
_cell_volume 868.703602
_symmetry_space_group_name_H-M "C C"
_symmetry_group_IT_number 9
_symmetry_cell_setting 'monoclinic'
loop_
_space_group_symop_operation_xyz
x,y,z
x,-y,1/2+z
1/2+x,1/2+y,z
1/2+x,1/2-y,1/2+z
loop_
_atom_site_type_symbol
_atom_site_label
_atom_site_fract_x
_atom_site_fract_y
_atom_site_fract_z
Si Si1 0.376550 0.701012 0.440530
Si Si2 0.378282 0.728855 0.887531
Si Si3 0.164246 0.090355 0.214563
Si Si4 0.168219 0.490454 0.607006
Si Si5 0.062477 0.159543 0.910439
Si Si6 0.456660 0.019103 0.147363
O O1 0.276822 0.813497 0.637493
O O2 0.526171 0.663307 0.326966
O O3 0.259230 0.590446 0.572591
O O4 0.446837 0.722078 0.183564
O O5 0.284344 0.623506 0.933762
O O6 0.236183 0.785331 0.177720
O O7 0.501008 0.674537 0.832400
O O8 0.450975 0.837120 0.692216
O O9 0.081634 0.982728 0.415426
O O10 0.285910 0.028340 0.934518
O O11 0.100824 0.530161 0.548061
O O12 0.005920 0.473675 0.922678
#
# Coordination Sequence:
#
# PCOD9140013 Si02
#       6
#     4   4   4   4   4   4
#     4  12  25  44  73 103 151 191 244 306 370 439
#     4  11  22  45  74 101 140 198 242 302 367 437
#     4  11  26  46  71 109 141 195 245 306 367 444
#     4  12  25  48  73 106 151 192 243 306 372 438
#     4  11  23  44  75 102 143 195 246 298 373 436
#     4  11  27  47  74 107 146 193 250 302 369 442
#
# _framework density 27.627375000000001
#
# number of rings (size 3 to 8) (size 9 to 14) (size 15 to 20)
#    0.000    0.667    3.333    4.000    4.667    1.333 
#    3.000    0.000    0.000    0.000    0.000    0.000 
#    0.000    0.000    0.000    0.000    0.000    0.000 
#
# Total GULP energy -67381.785146 kJ/mol
# GULP energy per Si atom -5615.148762 kJ/mol
# Density = 2.756449 g / cm^3
# Si number density = 27.627375 Si / 1000 Ang^3
#
#
#
# Elastic Constant Matrix: (Units=GPa)
#
#
# Indices 1 2 3 4 5 6 
#
# 1 129.0041 38.9619 22.8580 0.0000 -29.4232 0.0000
# 2 38.9619 141.2096 39.4552 0.0000 -27.4401 0.0000
# 3 22.8580 39.4552 111.9768 0.0000 -7.8825 0.0000
# 4 0.0000 0.0000 0.0000 58.1603 0.0000 -19.3124
# 5 -29.4232 -27.4401 -7.8825 0.0000 48.7309 0.0000
# 6 0.0000 0.0000 0.0000 -19.3124 0.0000 40.2664
#
#
#
# Elastic Compliance Matrix: (Units=1/GPa)
#
#
# Indices 1 2 3 4 5 6 
#
# 1 0.009447 -0.001373 -0.001110 0.000000 0.004751 0.000000
# 2 -0.001373 0.008919 -0.002597 0.000000 0.003773 0.000000
# 3 -0.001110 -0.002597 0.010036 0.000000 -0.000509 0.000000
# 4 0.000000 0.000000 0.000000 0.020451 0.000000 0.009809
# 5 0.004751 0.003773 -0.000509 0.000000 0.025432 0.000000
# 6 0.000000 0.000000 0.000000 0.009809 0.000000 0.029539
#
#
# Mechanical properties :
#
#
# Convention : Reuss Voigt Hill
#
# Bulk Modulus (GPa) = 54.81802 64.97121 59.89461
# Shear Modulus (GPa) = 41.64419 48.15920 44.90170
#
# Velocity S-wave (km/s) = 3.88668 4.17966 4.03583
# Velocity P-wave (km/s) = 6.32666 6.84549 6.59118
#
# Compressibility (1/GPa) = 0.01824218
#
# Stress axis : x y z
#
# Youngs Moduli (GPa) = 105.85688 112.11592 99.63939
#
# Poissons Ratio (x) = 0.15394 0.11061
# Poissons Ratio (y) = 0.14535 0.25875
# Poissons Ratio (z) = 0.11751 0.29115
#
# Static dielectric constant tensor:
#      x y z
#    x 2.043450 0.000000 0.025690 
#    y 0.000000 2.203750 0.000000 
#    z 0.025690 0.000000 2.109310 
# 
# From -- ./inp_files/6864.got.cif
#   From: 2010.05.17/outbox.cif.g08.bks.cpg/sg9_4_cif.got.tgz:6864.got - 2010.06.03 20:04:27.
