data_PCOD9140288
_publ_section_title
;
Structure prediction by ZEFSAII (Michael W. Deem and Ramdas Pophale) SiO2 
 PCOD9140288
Probable space group: C C
;
_chemical_formula_sum "Si O2"
_cell_formula_units_Z 20
_cell_length_a 7.224388
_cell_length_b 14.140679
_cell_length_c 7.347517
_cell_angle_alpha 90.000000
_cell_angle_beta 109.073162
_cell_angle_gamma 90.000000
_cell_volume 709.399120
_symmetry_space_group_name_H-M "C C"
_symmetry_group_IT_number 9
_symmetry_cell_setting 'monoclinic'
loop_
_space_group_symop_operation_xyz
x,y,z
x,-y,1/2+z
1/2+x,1/2+y,z
1/2+x,1/2-y,1/2+z
loop_
_atom_site_type_symbol
_atom_site_label
_atom_site_fract_x
_atom_site_fract_y
_atom_site_fract_z
Si Si1 0.800420 0.161953 0.477260
Si Si2 0.186518 0.137299 0.064387
Si Si3 0.020873 0.373357 0.387885
Si Si4 0.726365 0.698781 0.486652
Si Si5 0.318141 0.481912 0.316675
O O1 0.661451 0.252058 0.478740
O O2 0.020497 0.200589 0.530349
O O3 0.803531 0.084810 0.636683
O O4 0.806503 0.096121 0.297764
O O5 0.222012 0.145669 0.292408
O O6 0.381939 0.111773 0.015383
O O7 0.023067 0.056804 0.970434
O O8 0.113315 0.469592 0.355164
O O9 0.884141 0.333698 0.181655
O O10 0.719186 0.809235 0.439833
#
# Coordination Sequence:
#
# PCOD9140288 Si02
#       5
#     4   4   4   4   4
#     4  11  26  48  79 117 159 210 267 328 405 473
#     4  11  25  51  81 110 156 211 261 330 407 471
#     4  11  25  45  76 115 148 206 261 319 404 474
#     4  11  23  47  80 108 156 198 260 324 399 476
#     4  12  25  53  74 114 167 201 269 335 393 484
#
# _framework density 28.192878
#
# number of rings (size 3 to 8) (size 9 to 14) (size 15 to 20)
#    0.000    0.800    4.000    2.400    0.000    1.600 
#   10.800    0.000    0.000    0.000    0.000    0.000 
#    0.000    0.000    0.000    0.000    0.000    0.000 
#
# Total GULP energy -55853.016622 kJ/mol
# GULP energy per Si atom -5585.301662 kJ/mol
# Density = 2.812871 g / cm^3
# Si number density = 28.192878 Si / 1000 Ang^3
#
#
#
# Elastic Constant Matrix: (Units=GPa)
#
#
# Indices 1 2 3 4 5 6 
#
# 1 149.1739 28.7586 42.3474 0.0000 -20.3553 0.0000
# 2 28.7586 89.2847 31.8474 0.0000 16.1549 0.0000
# 3 42.3474 31.8474 180.6984 0.0000 -18.7050 0.0000
# 4 0.0000 0.0000 0.0000 50.6219 0.0000 0.5327
# 5 -20.3553 16.1549 -18.7050 0.0000 45.4988 0.0000
# 6 0.0000 0.0000 0.0000 0.5327 0.0000 21.2672
#
#
#
# Elastic Compliance Matrix: (Units=1/GPa)
#
#
# Indices 1 2 3 4 5 6 
#
# 1 0.008155 -0.003092 -0.000914 0.000000 0.004371 0.000000
# 2 -0.003092 0.014508 -0.002620 0.000000 -0.007612 0.000000
# 3 -0.000914 -0.002620 0.006542 0.000000 0.003211 0.000000
# 4 0.000000 0.000000 0.000000 0.019760 0.000000 -0.000495
# 5 0.004371 -0.007612 0.003211 0.000000 0.027957 0.000000
# 6 0.000000 0.000000 0.000000 -0.000495 0.000000 0.047033
#
#
# Mechanical properties :
#
#
# Convention : Reuss Voigt Hill
#
# Bulk Modulus (GPa) = 62.68060 69.45154 66.06607
# Shear Modulus (GPa) = 35.08159 44.55782 39.81971
#
# Velocity S-wave (km/s) = 3.53135 3.97982 3.76227
# Velocity P-wave (km/s) = 6.23765 6.76805 6.50826
#
# Compressibility (1/GPa) = 0.01595390
#
# Stress axis : x y z
#
# Youngs Moduli (GPa) = 122.61736 68.92841 152.84694
#
# Poissons Ratio (x) = 0.21310 0.13969
# Poissons Ratio (y) = 0.37909 0.40051
# Poissons Ratio (z) = 0.11207 0.18061
#
# Static dielectric constant tensor:
#      x y z
#    x 2.117240 0.000000 -0.040710 
#    y 0.000000 5.118430 0.000000 
#    z -0.040710 0.000000 2.396940 
# 
# From -- ./inp_files/5142.got.cif
#   From: 2010.05.17/outbox.cif.g08.bks.cpg/sg9_3_cif.got.tgz:5142.got - 2010.06.03 20:04:27.
