data_PCOD9140452
_publ_section_title
;
Structure prediction by ZEFSAII (Michael W. Deem and Ramdas Pophale) SiO2 
 PCOD9140452
Probable space group: C C
;
_chemical_formula_sum "Si O2"
_cell_formula_units_Z 28
_cell_length_a 14.431639
_cell_length_b 13.916635
_cell_length_c 9.025539
_cell_angle_alpha 90.000000
_cell_angle_beta 140.458123
_cell_angle_gamma 90.000000
_cell_volume 1154.033307
_symmetry_space_group_name_H-M "C C"
_symmetry_group_IT_number 9
_symmetry_cell_setting 'monoclinic'
loop_
_space_group_symop_operation_xyz
x,y,z
x,-y,1/2+z
1/2+x,1/2+y,z
1/2+x,1/2-y,1/2+z
loop_
_atom_site_type_symbol
_atom_site_label
_atom_site_fract_x
_atom_site_fract_y
_atom_site_fract_z
Si Si1 0.067380 0.562462 0.935950
Si Si2 0.597519 0.869368 0.810712
Si Si3 0.020367 0.869376 0.903061
Si Si4 0.799217 0.618592 0.401847
Si Si5 0.310671 0.192374 0.106155
Si Si6 0.587180 0.526661 0.743420
Si Si7 0.741998 0.242132 0.053150
O O1 0.114477 0.456050 0.948146
O O2 0.910172 0.580286 0.664599
O O3 0.076099 0.584133 0.121325
O O4 0.169402 0.640367 0.984290
O O5 0.446875 0.816156 0.665393
O O6 0.729014 0.793714 0.987238
O O7 0.911500 0.780990 0.748659
O O8 0.022765 0.950199 0.778610
O O9 0.975362 0.918122 0.001334
O O10 0.178437 0.816501 0.096253
O O11 0.868452 0.663118 0.341465
O O12 0.688841 0.530406 0.250678
O O13 0.704013 0.704350 0.354622
O O14 0.189402 0.109080 0.935906
#
# Coordination Sequence:
#
# PCOD9140452 Si02
#       7
#     4   4   4   4   4   4   4
#     4  12  27  50  80 112 155 209 261 319 392 465
#     4  12  31  49  80 112 158 204 261 327 389 465
#     4  11  25  47  76 108 144 196 243 313 373 456
#     4  11  25  48  77 108 148 206 254 310 388 464
#     4  12  28  48  78 113 154 199 264 317 387 466
#     4  11  24  45  76 106 145 194 250 305 376 454
#     4  11  26  45  81 109 150 192 259 309 389 448
#
# _framework density 24.262733000000001
#
# number of rings (size 3 to 8) (size 9 to 14) (size 15 to 20)
#    0.000    0.571    4.286    1.714   10.000    2.286 
#    0.000    0.000    0.000    0.000    0.000    0.000 
#    0.000    0.000    0.000    0.000    0.000    0.000 
#
# Total GULP energy -78291.134636 kJ/mol
# GULP energy per Si atom -5592.223903 kJ/mol
# Density = 2.420751 g / cm^3
# Si number density = 24.262733 Si / 1000 Ang^3
#
#
#
# Elastic Constant Matrix: (Units=GPa)
#
#
# Indices 1 2 3 4 5 6 
#
# 1 69.3142 54.6172 -0.6106 0.0000 -9.5852 0.0000
# 2 54.6172 174.9330 33.3199 0.0000 -7.0488 0.0000
# 3 -0.6106 33.3199 22.7282 0.0000 -11.2079 0.0000
# 4 0.0000 0.0000 0.0000 30.8759 0.0000 4.2826
# 5 -9.5852 -7.0488 -11.2079 0.0000 26.2302 0.0000
# 6 0.0000 0.0000 0.0000 4.2826 0.0000 47.2221
#
#
#
# Elastic Compliance Matrix: (Units=1/GPa)
#
#
# Indices 1 2 3 4 5 6 
#
# 1 0.028542 -0.014055 0.031233 0.000000 0.019999 0.000000
# 2 -0.014055 0.015129 -0.029247 0.000000 -0.013567 0.000000
# 3 0.031233 -0.029247 0.113349 0.000000 0.051987 0.000000
# 4 0.000000 0.000000 0.000000 0.032800 0.000000 -0.002975
# 5 0.019999 -0.013567 0.051987 0.000000 0.064000 0.000000
# 6 0.000000 0.000000 0.000000 -0.002975 0.000000 0.021446
#
#
# Mechanical properties :
#
#
# Convention : Reuss Voigt Hill
#
# Bulk Modulus (GPa) = 7.52539 49.06981 28.29760
# Shear Modulus (GPa) = 14.54770 32.84224 23.69497
#
# Velocity S-wave (km/s) = 2.45131 3.68313 3.12845
# Velocity P-wave (km/s) = 3.33470 6.19319 4.97372
#
# Compressibility (1/GPa) = 0.13288342
#
# Stress axis : x y z
#
# Youngs Moduli (GPa) = 35.03578 66.10033 8.82230
#
# Poissons Ratio (x) = 0.92901 -0.27555
# Poissons Ratio (y) = 0.49241 0.25802
# Poissons Ratio (z) = -1.09427 1.93320
#
# Static dielectric constant tensor:
#      x y z
#    x 1.977020 0.000000 -0.025180 
#    y 0.000000 1.868390 0.000000 
#    z -0.025180 0.000000 2.021970 
# 
# From -- ./inp_files/9742.got.cif
#   From: 2010.05.17/outbox.cif.g08.bks.cpg/sg9_5_cif.got.tgz:9742.got - 2010.06.03 20:04:27.
