data_PCOD9140428
_publ_section_title
;
Structure prediction by ZEFSAII (Michael W. Deem and Ramdas Pophale) SiO2 
 PCOD9140428
Probable space group: C C
;
_chemical_formula_sum "Si O2"
_cell_formula_units_Z 28
_cell_length_a 15.792460
_cell_length_b 16.651764
_cell_length_c 7.991702
_cell_angle_alpha 90.000000
_cell_angle_beta 34.039642
_cell_angle_gamma 90.000000
_cell_volume 1176.402977
_symmetry_space_group_name_H-M "C C"
_symmetry_group_IT_number 9
_symmetry_cell_setting 'monoclinic'
loop_
_space_group_symop_operation_xyz
x,y,z
x,-y,1/2+z
1/2+x,1/2+y,z
1/2+x,1/2-y,1/2+z
loop_
_atom_site_type_symbol
_atom_site_label
_atom_site_fract_x
_atom_site_fract_y
_atom_site_fract_z
Si Si1 0.706830 0.082795 0.699210
Si Si2 0.869900 0.440516 0.764804
Si Si3 0.294506 0.424823 0.441504
Si Si4 0.418198 0.204495 0.431674
Si Si5 0.674149 0.825683 0.946173
Si Si6 0.867656 0.623962 0.854419
Si Si7 0.111873 0.152886 0.489319
O O1 0.722668 0.089301 0.874169
O O2 0.734944 0.158291 0.533272
O O3 0.821062 0.017860 0.436335
O O4 0.541583 0.047189 0.914369
O O5 0.902240 0.357960 0.809859
O O6 0.846257 0.526757 0.894284
O O7 0.718659 0.411825 0.913246
O O8 0.210886 0.395404 0.748915
O O9 0.454453 0.381928 0.185346
O O10 0.262607 0.252822 0.717060
O O11 0.425754 0.147322 0.577998
O O12 0.556652 0.267271 0.179614
O O13 0.494092 0.831071 0.258664
O O14 0.711890 0.665223 0.161079
#
# Coordination Sequence:
#
# PCOD9140428 Si02
#       7
#     4   4   4   4   4   4   4
#     4  12  23  44  80 110 155 216 259 316 396 478
#     4  12  25  48  81 110 151 207 268 323 385 479
#     4  11  24  45  71 115 160 203 263 330 383 466
#     4  11  28  49  73 114 163 200 254 341 398 467
#     4  11  24  49  73 109 157 210 265 312 405 470
#     4  12  24  48  79 112 149 208 264 320 395 473
#     4  11  28  47  73 118 157 192 269 332 388 457
#
# _framework density 23.801368
#
# number of rings (size 3 to 8) (size 9 to 14) (size 15 to 20)
#    0.000    0.571    4.286    2.571    4.000    1.143 
#    7.714    0.000    0.000    0.000    0.000    0.000 
#    0.000    0.000    0.000    0.000    0.000    0.000 
#
# Total GULP energy -78001.426319 kJ/mol
# GULP energy per Si atom -5571.530451 kJ/mol
# Density = 2.374720 g / cm^3
# Si number density = 23.801368 Si / 1000 Ang^3
#
#
#
# Elastic Constant Matrix: (Units=GPa)
#
#
# Indices 1 2 3 4 5 6 
#
# 1 104.6379 17.3834 23.1434 0.0001 7.7352 0.0000
# 2 17.3834 131.8546 33.6250 0.0001 -2.7657 -0.0001
# 3 23.1434 33.6250 120.7209 0.0004 5.8535 -0.0002
# 4 0.0001 0.0001 0.0004 36.7239 -0.0003 3.8022
# 5 7.7352 -2.7657 5.8535 -0.0003 35.0433 0.0001
# 6 0.0000 -0.0001 -0.0002 3.8022 0.0001 28.7095
#
#
#
# Elastic Compliance Matrix: (Units=1/GPa)
#
#
# Indices 1 2 3 4 5 6 
#
# 1 0.010224 -0.000987 -0.001585 0.000000 -0.002070 0.000000
# 2 -0.000987 0.008297 -0.002182 0.000000 0.001237 0.000000
# 3 -0.001585 -0.002182 0.009261 0.000000 -0.001369 0.000000
# 4 0.000000 0.000000 0.000000 0.027609 0.000000 -0.003656
# 5 -0.002070 0.001237 -0.001369 0.000000 0.029319 0.000000
# 6 0.000000 0.000000 0.000000 -0.003656 0.000000 0.035316
#
#
# Mechanical properties :
#
#
# Convention : Reuss Voigt Hill
#
# Bulk Modulus (GPa) = 54.71918 56.16856 55.44387
# Shear Modulus (GPa) = 36.86625 38.96610 37.91617
#
# Velocity S-wave (km/s) = 3.93989 4.05054 3.99560
# Velocity P-wave (km/s) = 6.61338 6.74729 6.68067
#
# Compressibility (1/GPa) = 0.01827513
#
# Stress axis : x y z
#
# Youngs Moduli (GPa) = 97.80608 120.53193 107.97461
#
# Poissons Ratio (x) = 0.11899 0.17111
# Poissons Ratio (y) = 0.09656 0.23556
# Poissons Ratio (z) = 0.15500 0.26295
#
# Static dielectric constant tensor:
#      x y z
#    x 2.025110 0.000000 0.023260 
#    y 0.000000 1.971020 0.000000 
#    z 0.023260 0.000000 1.911950 
# 
# From -- ./inp_files/10946.got.cif
#   From: 2010.05.17/outbox.cif.g08.bks.cpg/sg9_6_cif.got.tgz:10946.got - 2010.06.03 20:04:27.
