data_PCOD9140520
_publ_section_title
;
Structure prediction by ZEFSAII (Michael W. Deem and Ramdas Pophale) SiO2 
 PCOD9140520
Probable space group: C C
;
_chemical_formula_sum "Si O2"
_cell_formula_units_Z 28
_cell_length_a 9.414001
_cell_length_b 14.970727
_cell_length_c 14.870001
_cell_angle_alpha 90.000000
_cell_angle_beta 145.921019
_cell_angle_gamma 90.000000
_cell_volume 1174.291779
_symmetry_space_group_name_H-M "C C"
_symmetry_group_IT_number 9
_symmetry_cell_setting 'monoclinic'
loop_
_space_group_symop_operation_xyz
x,y,z
x,-y,1/2+z
1/2+x,1/2+y,z
1/2+x,1/2-y,1/2+z
loop_
_atom_site_type_symbol
_atom_site_label
_atom_site_fract_x
_atom_site_fract_y
_atom_site_fract_z
Si Si1 0.284910 0.986193 0.271150
Si Si2 0.687899 0.978807 0.120665
Si Si3 0.089722 0.662878 0.235305
Si Si4 0.979993 0.137630 0.176835
Si Si5 0.346136 0.343828 0.058220
Si Si6 0.648049 0.304462 0.943754
Si Si7 0.491879 0.033229 0.693195
O O1 0.414124 0.990697 0.436821
O O2 0.493326 0.970096 0.302053
O O3 0.132273 0.080097 0.182446
O O4 0.089417 0.904876 0.160636
O O5 0.737766 0.891665 0.088414
O O6 0.861874 0.058653 0.176372
O O7 0.721843 0.954592 0.243080
O O8 0.162300 0.658428 0.377472
O O9 0.359181 0.682303 0.326424
O O10 0.920319 0.744632 0.119780
O O11 0.947067 0.569999 0.141350
O O12 0.772455 0.210137 0.037464
O O13 0.156091 0.189846 0.339945
O O14 0.801975 0.388316 0.065420
#
# Coordination Sequence:
#
# PCOD9140520 Si02
#       7
#     4   4   4   4   4   4   4
#     4  11  24  47  69 103 137 184 228 293 337 418
#     4  11  24  47  69 103 137 184 228 293 337 418
#     4  12  25  45  69 107 135 190 228 290 343 419
#     4  11  26  44  73  98 142 180 238 275 353 412
#     4  11  26  44  73  98 142 180 238 275 353 412
#     4  12  25  45  69 107 135 190 228 290 343 419
#     4  12  26  44  72 100 144 178 238 282 354 400
#
# _framework density 23.844159999999999
#
# number of rings (size 3 to 8) (size 9 to 14) (size 15 to 20)
#    0.000    0.571    5.714    1.714    4.000    1.143 
#    0.000    0.000    0.000    0.000    0.000    0.000 
#    0.000    0.000    0.000    0.000    0.000    0.000 
#
# Total GULP energy -78182.288942 kJ/mol
# GULP energy per Si atom -5584.449210 kJ/mol
# Density = 2.378989 g / cm^3
# Si number density = 23.844160 Si / 1000 Ang^3
#
#
#
# Elastic Constant Matrix: (Units=GPa)
#
#
# Indices 1 2 3 4 5 6 
#
# 1 113.1765 11.7913 11.3382 0.0002 -22.7722 0.0006
# 2 11.7913 99.3448 11.8678 -0.0014 -3.9034 0.0009
# 3 11.3382 11.8678 29.5139 0.0034 0.1436 0.0039
# 4 0.0002 -0.0014 0.0034 35.7015 -0.0008 -2.2140
# 5 -22.7722 -3.9034 0.1436 -0.0008 25.6940 0.0000
# 6 0.0006 0.0009 0.0039 -2.2140 0.0000 -2.9243
#
#
#
# Elastic Compliance Matrix: (Units=1/GPa)
#
#
# Indices 1 2 3 4 5 6 
#
# 1 0.011313 -0.000447 -0.004215 0.000000 0.009982 -0.000004
# 2 -0.000447 0.010660 -0.004121 0.000001 0.001246 -0.000003
# 3 -0.004215 -0.004121 0.037181 -0.000001 -0.004569 0.000048
# 4 0.000000 0.000001 -0.000001 0.026754 0.000001 -0.020255
# 5 0.009982 0.001246 -0.004569 0.000001 0.047982 -0.000005
# 6 -0.000004 -0.000003 0.000048 -0.020255 -0.000005 -0.326630
#
#
# Mechanical properties :
#
#
# Convention : Reuss Voigt Hill
#
# Bulk Modulus (GPa) = 24.04511 34.67000 29.35756
# Shear Modulus (GPa) = -30.99582 25.49677 -2.74953
#
# Velocity S-wave (km/s) = -3.60937 3.27358 -1.07500
# Velocity P-wave (km/s) = 2.69516 5.37217 3.28605
#
# Compressibility (1/GPa) = 0.04158850
#
# Stress axis : x y z
#
# Youngs Moduli (GPa) = 88.39300 93.80621 26.89554
#
# Poissons Ratio (x) = 0.04193 0.11336
# Poissons Ratio (y) = 0.03951 0.11083
# Poissons Ratio (z) = 0.37257 0.38657
#
# Static dielectric constant tensor:
#      x y z
#    x 2.018160 0.000000 0.023180 
#    y 0.000000 1.878100 0.000000 
#    z 0.023180 0.000000 1.922730 
# 
# From -- ./inp_files/23317.got.cif
#   From: 2010.05.17/outbox.cif.g08.bks.cpg/sg9_12_cif.got.tgz:23317.got - 2010.06.03 20:04:27.
