data_PCOD9140879
_publ_section_title
;
Structure prediction by ZEFSAII (Michael W. Deem and Ramdas Pophale) SiO2 
 PCOD9140879
Probable space group: C C
;
_chemical_formula_sum "Si O2"
_cell_formula_units_Z 20
_cell_length_a 5.197479
_cell_length_b 18.389990
_cell_length_c 8.829615
_cell_angle_alpha 90.000000
_cell_angle_beta 104.006455
_cell_angle_gamma 90.000000
_cell_volume 818.856725
_symmetry_space_group_name_H-M "C C"
_symmetry_group_IT_number 9
_symmetry_cell_setting 'monoclinic'
loop_
_space_group_symop_operation_xyz
x,y,z
x,-y,1/2+z
1/2+x,1/2+y,z
1/2+x,1/2-y,1/2+z
loop_
_atom_site_type_symbol
_atom_site_label
_atom_site_fract_x
_atom_site_fract_y
_atom_site_fract_z
Si Si1 0.131960 0.370677 0.050660
Si Si2 0.667277 0.130748 0.225892
Si Si3 0.175843 0.799301 0.188155
Si Si4 0.986855 0.990562 0.671697
Si Si5 0.244318 0.085245 0.929111
O O1 0.389109 0.317629 0.077009
O O2 0.259862 0.447446 0.121866
O O3 0.913200 0.338148 0.131092
O O4 0.018964 0.374430 0.864783
O O5 0.730011 0.214161 0.203029
O O6 0.908119 0.074918 0.270962
O O7 0.507018 0.099590 0.060366
O O8 0.157514 0.836849 0.350972
O O9 0.234474 0.032953 0.781926
O O10 0.052759 0.953394 0.521972
#
# Coordination Sequence:
#
# PCOD9140879 Si02
#       5
#     4   4   4   4   4
#     4  11  28  53  76 114 158 208 267 323 393 469
#     4  12  28  45  82 111 158 211 259 329 391 467
#     4  11  29  51  79 117 161 205 264 325 398 472
#     4  11  27  49  75 114 153 212 262 328 384 470
#     4  11  28  48  78 112 158 204 264 325 392 466
#
# _framework density 24.424296999999999
#
# number of rings (size 3 to 8) (size 9 to 14) (size 15 to 20)
#    0.000    0.800    2.000    1.200   22.400    0.000 
#    0.000    0.000    0.000    0.000    0.000    0.000 
#    0.000    0.000    0.000    0.000    0.000    0.000 
#
# Total GULP energy -55965.578640 kJ/mol
# GULP energy per Si atom -5596.557864 kJ/mol
# Density = 2.436871 g / cm^3
# Si number density = 24.424297 Si / 1000 Ang^3
#
#
#
# Elastic Constant Matrix: (Units=GPa)
#
#
# Indices 1 2 3 4 5 6 
#
# 1 114.5166 68.5691 41.4183 0.0000 -12.1914 0.0000
# 2 68.5691 223.2974 58.1992 0.0000 -16.5328 0.0000
# 3 41.4183 58.1992 113.8940 0.0000 -0.2565 0.0000
# 4 0.0000 0.0000 0.0000 33.4737 0.0000 4.2237
# 5 -12.1914 -16.5328 -0.2565 0.0000 38.8686 0.0000
# 6 0.0000 0.0000 0.0000 4.2237 0.0000 29.8908
#
#
#
# Elastic Compliance Matrix: (Units=1/GPa)
#
#
# Indices 1 2 3 4 5 6 
#
# 1 0.011614 -0.002632 -0.002873 0.000000 0.002504 0.000000
# 2 -0.002632 0.005955 -0.002082 0.000000 0.001693 0.000000
# 3 -0.002873 -0.002082 0.010885 0.000000 -0.001715 0.000000
# 4 0.000000 0.000000 0.000000 0.030417 0.000000 -0.004298
# 5 0.002504 0.001693 -0.001715 0.000000 0.027222 0.000000
# 6 0.000000 0.000000 0.000000 -0.004298 0.000000 0.034062
#
#
# Mechanical properties :
#
#
# Convention : Reuss Voigt Hill
#
# Bulk Modulus (GPa) = 75.30232 87.56459 81.43345
# Shear Modulus (GPa) = 35.77698 39.34806 37.56252
#
# Velocity S-wave (km/s) = 3.83144 4.01811 3.92588
# Velocity P-wave (km/s) = 7.10430 7.57999 7.34599
#
# Compressibility (1/GPa) = 0.01327980
#
# Stress axis : x y z
#
# Youngs Moduli (GPa) = 86.10217 167.93815 91.87204
#
# Poissons Ratio (x) = 0.44205 0.26393
# Poissons Ratio (y) = 0.22664 0.19125
# Poissons Ratio (z) = 0.24736 0.34960
#
# Static dielectric constant tensor:
#      x y z
#    x 1.966990 0.000000 0.043410 
#    y 0.000000 1.943100 0.000000 
#    z 0.043410 0.000000 2.013600 
# 
# From -- ./inp_files/3593.got.cif
#   From: 2010.05.17/outbox.cif.g08.bks.cpg/sg9_2_cif.got.tgz:3593.got - 2010.06.03 20:04:27.
