data_PCOD9140544
_publ_section_title
;
Structure prediction by ZEFSAII (Michael W. Deem and Ramdas Pophale) SiO2 
 PCOD9140544
Probable space group: C C
;
_chemical_formula_sum "Si O2"
_cell_formula_units_Z 28
_cell_length_a 16.378117
_cell_length_b 9.250372
_cell_length_c 22.586032
_cell_angle_alpha 90.000000
_cell_angle_beta 20.122382
_cell_angle_gamma 90.000000
_cell_volume 1177.212930
_symmetry_space_group_name_H-M "C C"
_symmetry_group_IT_number 9
_symmetry_cell_setting 'monoclinic'
loop_
_space_group_symop_operation_xyz
x,y,z
x,-y,1/2+z
1/2+x,1/2+y,z
1/2+x,1/2-y,1/2+z
loop_
_atom_site_type_symbol
_atom_site_label
_atom_site_fract_x
_atom_site_fract_y
_atom_site_fract_z
Si Si1 0.631600 0.847162 0.921270
Si Si2 0.030956 0.951884 0.555829
Si Si3 0.354175 0.793016 0.468269
Si Si4 0.678715 0.957435 0.019016
Si Si5 0.167172 0.071801 0.662395
Si Si6 0.488771 0.876001 0.746043
Si Si7 0.795048 0.096191 0.606688
O O1 0.839253 0.894572 0.734212
O O2 0.644682 0.939815 0.972705
O O3 0.626552 0.684384 0.951761
O O4 0.384886 0.875832 0.054670
O O5 0.901980 0.052435 0.595832
O O6 0.245605 0.050816 0.434463
O O7 0.159381 0.692677 0.568630
O O8 0.556883 0.815366 0.282564
O O9 0.444217 0.700388 0.463013
O O10 0.261184 0.945959 0.555213
O O11 0.949069 0.005129 0.847015
O O12 0.508546 0.073206 0.164777
O O13 0.042070 0.208314 0.716267
O O14 0.703429 0.955126 0.634711
#
# Coordination Sequence:
#
# PCOD9140544 Si02
#       7
#     4   4   4   4   4   4   4
#     4  12  28  48  84 115 162 218 268 325 407 486
#     4  12  27  48  80 117 160 208 273 332 400 477
#     4  11  24  47  77 106 156 205 253 321 396 471
#     4  11  28  49  79 114 156 212 268 322 406 477
#     4  12  27  49  81 119 157 209 267 332 396 471
#     4  11  28  49  78 113 157 202 269 338 391 469
#     4  11  24  48  75 110 150 208 262 324 390 473
#
# _framework density 23.784991999999999
#
# number of rings (size 3 to 8) (size 9 to 14) (size 15 to 20)
#    0.000    0.571    4.286    1.714   10.000    3.429 
#    2.571    0.000    0.000    0.000    0.000    0.000 
#    0.000    0.000    0.000    0.000    0.000    0.000 
#
# Total GULP energy -78328.154215 kJ/mol
# GULP energy per Si atom -5594.868158 kJ/mol
# Density = 2.373086 g / cm^3
# Si number density = 23.784992 Si / 1000 Ang^3
#
#
#
# Elastic Constant Matrix: (Units=GPa)
#
#
# Indices 1 2 3 4 5 6 
#
# 1 131.0479 59.6987 43.3712 0.0017 10.0433 0.0026
# 2 59.6987 153.5556 38.0724 -0.0127 4.7063 0.0052
# 3 43.3712 38.0724 88.6351 -0.0345 5.2001 0.0087
# 4 0.0017 -0.0127 -0.0345 28.5809 -0.0013 -1.3383
# 5 10.0433 4.7063 5.2001 -0.0013 42.6301 -0.0016
# 6 0.0026 0.0052 0.0087 -1.3383 -0.0016 29.3583
#
#
#
# Elastic Compliance Matrix: (Units=1/GPa)
#
#
# Indices 1 2 3 4 5 6 
#
# 1 0.010368 -0.003074 -0.003656 -0.000006 -0.001657 0.000000
# 2 -0.003074 0.008207 -0.002025 0.000001 0.000065 -0.000001
# 3 -0.003656 -0.002025 0.013977 0.000016 -0.000620 -0.000003
# 4 -0.000006 0.000001 0.000016 0.035063 0.000001 0.001598
# 5 -0.001657 0.000065 -0.000620 0.000001 0.023917 0.000002
# 6 0.000000 -0.000001 -0.000003 0.001598 0.000002 0.034135
#
#
# Mechanical properties :
#
#
# Convention : Reuss Voigt Hill
#
# Bulk Modulus (GPa) = 66.47424 72.83592 69.65508
# Shear Modulus (GPa) = 33.74024 35.58693 34.66359
#
# Velocity S-wave (km/s) = 3.77045 3.87226 3.82170
# Velocity P-wave (km/s) = 6.85301 7.11911 6.98732
#
# Compressibility (1/GPa) = 0.01504342
#
# Stress axis : x y z
#
# Youngs Moduli (GPa) = 96.45173 121.84161 71.54413
#
# Poissons Ratio (x) = 0.37449 0.26155
# Poissons Ratio (y) = 0.29645 0.14489
# Poissons Ratio (z) = 0.35261 0.24676
#
# Static dielectric constant tensor:
#      x y z
#    x 1.902610 0.000000 -0.008510 
#    y 0.000000 1.928710 0.000010 
#    z -0.008510 0.000010 1.902880 
# 
# From -- ./inp_files/35808.got.cif
#   From: 2010.05.17/outbox.cif.g08.bks.cpg/sg9_18_cif.got.tgz:35808.got - 2010.06.03 20:04:27.
