data_PCOD9140230
_publ_section_title
;
Structure prediction by ZEFSAII (Michael W. Deem and Ramdas Pophale) SiO2 
 PCOD9140230
Probable space group: C C
;
_chemical_formula_sum "Si O2"
_cell_formula_units_Z 28
_cell_length_a 10.287225
_cell_length_b 10.151554
_cell_length_c 14.453602
_cell_angle_alpha 90.000000
_cell_angle_beta 62.897429
_cell_angle_gamma 90.000000
_cell_volume 1343.664129
_symmetry_space_group_name_H-M "C C"
_symmetry_group_IT_number 9
_symmetry_cell_setting 'monoclinic'
loop_
_space_group_symop_operation_xyz
x,y,z
x,-y,1/2+z
1/2+x,1/2+y,z
1/2+x,1/2-y,1/2+z
loop_
_atom_site_type_symbol
_atom_site_label
_atom_site_fract_x
_atom_site_fract_y
_atom_site_fract_z
Si Si1 0.796770 0.484703 0.704710
Si Si2 0.108323 0.407375 0.108562
Si Si3 0.873175 0.781069 0.106991
Si Si4 0.003608 0.067713 0.730985
Si Si5 0.654368 0.620419 0.434000
Si Si6 0.034288 0.870260 0.563031
Si Si7 0.308243 0.630069 0.969690
O O1 0.838387 0.372431 0.617149
O O2 0.673252 0.579436 0.703616
O O3 0.718797 0.405540 0.812695
O O4 0.943954 0.555505 0.689744
O O5 0.225609 0.366581 0.148515
O O6 0.099080 0.273987 0.052273
O O7 0.176483 0.529863 0.031805
O O8 0.953780 0.819000 0.176333
O O9 0.987190 0.826575 0.991430
O O10 0.908182 0.075331 0.854000
O O11 0.986946 0.932424 0.677283
O O12 0.645410 0.479558 0.487480
O O13 0.748658 0.728434 0.457316
O O14 0.903256 0.863018 0.532040
#
# Coordination Sequence:
#
# PCOD9140230 Si02
#       7
#     4   4   4   4   4   4   4
#     4  12  24  44  72 105 137 189 240 289 357 427
#     4  12  26  43  71 103 137 186 239 286 357 425
#     4  11  23  46  69  99 142 185 230 296 355 416
#     4  11  23  46  71  98 143 182 232 295 352 413
#     4  11  24  47  71  99 147 185 235 296 355 419
#     4  11  26  44  69 103 146 177 235 300 348 415
#     4  12  24  46  71 105 138 192 233 294 358 421
#
# _framework density 20.838540999999999
#
# number of rings (size 3 to 8) (size 9 to 14) (size 15 to 20)
#    0.000    0.571    8.571    0.000    4.000    1.143 
#    5.143    0.000    0.000    0.000    0.000    0.000 
#    0.000    0.000    0.000    0.000    0.000    0.000 
#
# Total GULP energy -78227.934021 kJ/mol
# GULP energy per Si atom -5587.709573 kJ/mol
# Density = 2.079111 g / cm^3
# Si number density = 20.838541 Si / 1000 Ang^3
#
#
#
# Elastic Constant Matrix: (Units=GPa)
#
#
# Indices 1 2 3 4 5 6 
#
# 1 143.0304 33.8171 47.7619 0.0000 -17.2127 0.0000
# 2 33.8171 92.0019 13.6014 0.0000 -3.2902 0.0000
# 3 47.7619 13.6014 78.0541 0.0000 -13.0801 0.0000
# 4 0.0000 0.0000 0.0000 18.2241 0.0000 -2.3055
# 5 -17.2127 -3.2902 -13.0801 0.0000 21.8906 0.0000
# 6 0.0000 0.0000 0.0000 -2.3055 0.0000 41.7412
#
#
#
# Elastic Compliance Matrix: (Units=1/GPa)
#
#
# Indices 1 2 3 4 5 6 
#
# 1 0.009755 -0.002725 -0.004754 0.000000 0.004421 0.000000
# 2 -0.002725 0.011924 -0.000521 0.000000 -0.000662 0.000000
# 3 -0.004754 -0.000521 0.016860 0.000000 0.006258 0.000000
# 4 0.000000 0.000000 0.000000 0.055259 0.000000 0.003052
# 5 0.004421 -0.000662 0.006258 0.000000 0.052797 0.000000
# 6 0.000000 0.000000 0.000000 0.003052 0.000000 0.024126
#
#
# Mechanical properties :
#
#
# Convention : Reuss Voigt Hill
#
# Bulk Modulus (GPa) = 44.36642 55.93861 50.15251
# Shear Modulus (GPa) = 25.74211 30.89823 28.32017
#
# Velocity S-wave (km/s) = 3.51851 3.85482 3.69050
# Velocity P-wave (km/s) = 6.15170 6.83483 6.50224
#
# Compressibility (1/GPa) = 0.02253957
#
# Stress axis : x y z
#
# Youngs Moduli (GPa) = 102.51029 83.86219 59.31207
#
# Poissons Ratio (x) = 0.22851 0.28195
# Poissons Ratio (y) = 0.27932 0.03093
# Poissons Ratio (z) = 0.48730 0.04373
#
# Static dielectric constant tensor:
#      x y z
#    x 1.783970 0.000000 -0.006830 
#    y 0.000000 1.742580 0.000000 
#    z -0.006830 0.000000 1.741450 
# 
# From -- ./inp_files/22578.got.cif
#   From: 2010.05.17/outbox.cif.g08.bks.cpg/sg9_12_cif.got.tgz:22578.got - 2010.06.03 20:04:27.
