data_PCOD9140478
_publ_section_title
;
Structure prediction by ZEFSAII (Michael W. Deem and Ramdas Pophale) SiO2 
 PCOD9140478
Probable space group: C C
;
_chemical_formula_sum "Si O2"
_cell_formula_units_Z 32
_cell_length_a 33.813684
_cell_length_b 5.306496
_cell_length_c 10.126165
_cell_angle_alpha 90.000000
_cell_angle_beta 134.473105
_cell_angle_gamma 90.000000
_cell_volume 1296.545086
_symmetry_space_group_name_H-M "C C"
_symmetry_group_IT_number 9
_symmetry_cell_setting 'monoclinic'
loop_
_space_group_symop_operation_xyz
x,y,z
x,-y,1/2+z
1/2+x,1/2+y,z
1/2+x,1/2-y,1/2+z
loop_
_atom_site_type_symbol
_atom_site_label
_atom_site_fract_x
_atom_site_fract_y
_atom_site_fract_z
Si Si1 0.214790 0.388122 0.360910
Si Si2 0.857919 0.042570 0.761185
Si Si3 0.568090 0.413550 0.828266
Si Si4 0.598809 0.745704 0.128713
Si Si5 0.489041 0.023458 0.790869
Si Si6 0.778761 0.861326 0.772604
Si Si7 0.464931 0.708289 0.498524
Si Si8 0.303742 0.963555 0.008283
O O1 0.149397 0.418599 0.202445
O O2 0.237227 0.437221 0.558961
O O3 0.246314 0.548530 0.325319
O O4 0.240324 0.106723 0.399146
O O5 0.834697 0.998856 0.854370
O O6 0.836248 0.789022 0.631980
O O7 0.834301 0.301056 0.648492
O O8 0.923749 0.027343 0.905492
O O9 0.605942 0.316927 0.798657
O O10 0.524834 0.214595 0.785795
O O11 0.528873 0.627028 0.668949
O O12 0.600569 0.518240 0.029326
O O13 0.536498 0.848184 0.967238
O O14 0.452007 0.871985 0.599411
O O15 0.459748 0.156089 0.845476
O O16 0.796176 0.571377 0.841464
#
# Coordination Sequence:
#
# PCOD9140478 Si02
#       8
#     4   4   4   4   4   4   4   4
#     4  11  28  45  79 105 154 199 255 318 392 456
#     4  11  28  46  81 106 153 201 251 313 390 451
#     4  11  24  47  67 109 153 184 257 307 368 465
#     4  11  26  44  74 113 140 212 236 324 383 455
#     4  11  24  46  71 106 154 182 264 303 380 460
#     4  11  25  51  69 110 149 192 258 315 377 462
#     4  11  26  46  76 107 146 205 243 323 380 459
#     4  11  25  49  69 114 147 189 254 315 366 466
#
# _framework density 24.680978
#
# number of rings (size 3 to 8) (size 9 to 14) (size 15 to 20)
#    0.000    1.000    5.000    0.000   10.500    1.000 
#    0.000    0.000    0.000    0.000    0.000    0.000 
#    0.000    0.000    0.000    0.000    0.000    0.000 
#
# Total GULP energy -89359.553872 kJ/mol
# GULP energy per Si atom -5584.972117 kJ/mol
# Density = 2.462480 g / cm^3
# Si number density = 24.680978 Si / 1000 Ang^3
#
#
#
# Elastic Constant Matrix: (Units=GPa)
#
#
# Indices 1 2 3 4 5 6 
#
# 1 83.2688 14.5394 26.7279 0.0000 1.0291 0.0000
# 2 14.5394 87.0107 21.5969 0.0000 -16.0097 0.0000
# 3 26.7279 21.5969 58.5937 0.0000 -22.3621 0.0000
# 4 0.0000 0.0000 0.0000 32.2718 0.0000 -7.3441
# 5 1.0291 -16.0097 -22.3621 0.0000 36.0570 0.0000
# 6 0.0000 0.0000 0.0000 -7.3441 0.0000 36.8901
#
#
#
# Elastic Compliance Matrix: (Units=1/GPa)
#
#
# Indices 1 2 3 4 5 6 
#
# 1 0.015223 -0.001556 -0.008908 0.000000 -0.006650 0.000000
# 2 -0.001556 0.013170 -0.002484 0.000000 0.004352 0.000000
# 3 -0.008908 -0.002484 0.028458 0.000000 0.016800 0.000000
# 4 0.000000 0.000000 0.000000 0.032457 0.000000 0.006462
# 5 -0.006650 0.004352 0.016800 0.000000 0.040275 0.000000
# 6 0.000000 0.000000 0.000000 0.006462 0.000000 0.028394
#
#
# Mechanical properties :
#
#
# Convention : Reuss Voigt Hill
#
# Bulk Modulus (GPa) = 32.30609 39.40016 35.85313
# Shear Modulus (GPa) = 25.74782 32.11103 28.92943
#
# Velocity S-wave (km/s) = 3.23340 3.61091 3.42736
# Velocity P-wave (km/s) = 5.20171 5.77783 5.49732
#
# Compressibility (1/GPa) = 0.03095391
#
# Stress axis : x y z
#
# Youngs Moduli (GPa) = 65.69157 75.92988 35.14001
#
# Poissons Ratio (x) = 0.11816 0.31304
# Poissons Ratio (y) = 0.10223 0.08728
# Poissons Ratio (z) = 0.58521 0.18858
#
# Static dielectric constant tensor:
#      x y z
#    x 1.957050 0.000000 0.030370 
#    y 0.000000 2.059230 0.000000 
#    z 0.030370 0.000000 2.078800 
# 
# From -- ./inp_files/12653.got.cif
#   From: 2010.05.17/outbox.cif.g08.bks.cpg/sg9_7_cif.got.tgz:12653.got - 2010.06.03 20:04:27.
