data_PCOD9140056
_publ_section_title
;
Structure prediction by ZEFSAII (Michael W. Deem and Ramdas Pophale) SiO2 
 PCOD9140056
Probable space group: C C
;
_chemical_formula_sum "Si O2"
_cell_formula_units_Z 32
_cell_length_a 8.247352
_cell_length_b 14.720757
_cell_length_c 12.496870
_cell_angle_alpha 90.000000
_cell_angle_beta 113.377500
_cell_angle_gamma 90.000000
_cell_volume 1392.663750
_symmetry_space_group_name_H-M "C C"
_symmetry_group_IT_number 9
_symmetry_cell_setting 'monoclinic'
loop_
_space_group_symop_operation_xyz
x,y,z
x,-y,1/2+z
1/2+x,1/2+y,z
1/2+x,1/2-y,1/2+z
loop_
_atom_site_type_symbol
_atom_site_label
_atom_site_fract_x
_atom_site_fract_y
_atom_site_fract_z
Si Si1 0.968660 0.379707 0.478450
Si Si2 0.732960 0.421541 0.614935
Si Si3 0.345046 0.390563 0.233503
Si Si4 0.154472 0.567286 0.478042
Si Si5 0.459171 0.527780 0.418719
Si Si6 0.947674 0.604494 0.724104
Si Si7 0.857078 0.293231 0.828163
Si Si8 0.187694 0.208931 0.505402
O O1 0.817058 0.383650 0.527168
O O2 0.916761 0.371550 0.340076
O O3 0.072050 0.476101 0.506958
O O4 0.089066 0.292813 0.533200
O O5 0.544418 0.461473 0.530611
O O6 0.857140 0.506198 0.681976
O O7 0.739670 0.348160 0.711119
O O8 0.459526 0.474357 0.306973
O O9 0.431069 0.295599 0.289311
O O10 0.151303 0.393853 0.239780
O O11 0.299991 0.394774 0.097613
O O12 0.258426 0.545693 0.397657
O O13 0.003682 0.638662 0.411852
O O14 0.566144 0.620940 0.450454
O O15 0.845453 0.674159 0.620833
O O16 0.754461 0.261204 0.906478
#
# Coordination Sequence:
#
# PCOD9140056 Si02
#       8
#     4   4   4   4   4   4   4   4
#     4  12  24  48  73 100 140 193 237 294 357 422
#     4  11  26  45  72 102 143 188 237 299 356 423
#     4  12  25  43  71 104 140 186 234 296 355 424
#     4  12  25  46  72 100 144 184 240 290 360 425
#     4  11  27  44  67 108 139 181 239 294 358 418
#     4  11  22  48  70 100 141 191 238 292 359 422
#     4  12  25  46  73 100 142 189 238 291 357 429
#     4  11  26  44  72 106 139 188 241 296 360 425
#
# _framework density 22.977550000000001
#
# number of rings (size 3 to 8) (size 9 to 14) (size 15 to 20)
#    0.000    0.500    6.250    0.750    5.250    3.000 
#    0.000    0.000    0.000    0.000    0.000    0.000 
#    0.000    0.000    0.000    0.000    0.000    0.000 
#
# Total GULP energy -89584.337451 kJ/mol
# GULP energy per Si atom -5599.021091 kJ/mol
# Density = 2.292525 g / cm^3
# Si number density = 22.977550 Si / 1000 Ang^3
#
#
#
# Elastic Constant Matrix: (Units=GPa)
#
#
# Indices 1 2 3 4 5 6 
#
# 1 35.2044 3.4149 -3.1022 0.0000 5.7680 0.0000
# 2 3.4149 110.9506 21.3287 0.0000 15.7181 0.0000
# 3 -3.1022 21.3287 90.5794 0.0000 -4.3030 0.0000
# 4 0.0000 0.0000 0.0000 12.0996 0.0000 -21.6884
# 5 5.7680 15.7181 -4.3030 0.0000 29.4740 0.0000
# 6 0.0000 0.0000 0.0000 -21.6884 0.0000 11.1106
#
#
#
# Elastic Compliance Matrix: (Units=1/GPa)
#
#
# Indices 1 2 3 4 5 6 
#
# 1 0.029403 -0.000285 0.000813 0.000000 -0.005484 0.000000
# 2 -0.000285 0.010380 -0.002733 0.000000 -0.005879 0.000000
# 3 0.000813 -0.002733 0.011855 0.000000 0.003029 0.000000
# 4 0.000000 0.000000 0.000000 -0.033072 0.000000 -0.064558
# 5 -0.005484 -0.005879 0.003029 0.000000 0.038579 0.000000
# 6 0.000000 0.000000 0.000000 -0.064558 0.000000 -0.036016
#
#
# Mechanical properties :
#
#
# Convention : Reuss Voigt Hill
#
# Bulk Modulus (GPa) = 21.17290 31.11303 26.14296
# Shear Modulus (GPa) = 121.11998 24.87637 72.99817
#
# Velocity S-wave (km/s) = 7.26820 3.29392 5.64255
# Velocity P-wave (km/s) = 8.92582 5.29495 7.33849
#
# Compressibility (1/GPa) = 0.04723019
#
# Stress axis : x y z
#
# Youngs Moduli (GPa) = 34.00986 96.33868 84.34978
#
# Poissons Ratio (x) = 0.02741 -0.06862
# Poissons Ratio (y) = 0.00968 0.23055
# Poissons Ratio (z) = -0.02767 0.26331
#
# Static dielectric constant tensor:
#      x y z
#    x 1.827860 0.000000 0.005610 
#    y 0.000000 1.875970 0.000000 
#    z 0.005610 0.000000 1.833290 
# 
# From -- ./inp_files/14583.got.cif
#   From: 2010.05.17/outbox.cif.g08.bks.cpg/sg9_8_cif.got.tgz:14583.got - 2010.06.03 20:04:27.
