data_PCOD9140036
_publ_section_title
;
Structure prediction by ZEFSAII (Michael W. Deem and Ramdas Pophale) SiO2 
 PCOD9140036
Probable space group: C C
;
_chemical_formula_sum "Si O2"
_cell_formula_units_Z 32
_cell_length_a 10.215621
_cell_length_b 11.617418
_cell_length_c 11.890213
_cell_angle_alpha 90.000000
_cell_angle_beta 76.399164
_cell_angle_gamma 90.000000
_cell_volume 1371.549003
_symmetry_space_group_name_H-M "C C"
_symmetry_group_IT_number 9
_symmetry_cell_setting 'monoclinic'
loop_
_space_group_symop_operation_xyz
x,y,z
x,-y,1/2+z
1/2+x,1/2+y,z
1/2+x,1/2-y,1/2+z
loop_
_atom_site_type_symbol
_atom_site_label
_atom_site_fract_x
_atom_site_fract_y
_atom_site_fract_z
Si Si1 0.899020 0.141948 0.623080
Si Si2 0.223066 0.587210 0.113677
Si Si3 0.895077 0.129793 0.886173
Si Si4 0.234821 0.129823 0.144037
Si Si5 0.460295 0.035476 0.644185
Si Si6 0.081301 0.250366 0.001850
Si Si7 0.548861 0.608734 0.381928
Si Si8 0.830118 0.746129 0.786320
O O1 0.811193 0.251226 0.605692
O O2 0.911571 0.155590 0.753161
O O3 0.031012 0.140226 0.517014
O O4 0.813658 0.025254 0.623295
O O5 0.066250 0.559427 0.167294
O O6 0.279590 0.686746 0.184498
O O7 0.250866 0.606162 0.974129
O O8 0.952127 0.228864 0.952362
O O9 0.991469 0.019851 0.884802
O O10 0.185713 0.120103 0.283499
O O11 0.340447 0.028028 0.101462
O O12 0.105715 0.148859 0.089300
O O13 0.556751 0.125300 0.559974
O O14 0.386928 0.120272 0.746350
O O15 0.204401 0.242359 0.893216
O O16 0.444338 0.685881 0.331705
#
# Coordination Sequence:
#
# PCOD9140036 Si02
#       8
#     4   4   4   4   4   4   4   4
#     4  11  24  45  71 107 144 198 250 300 377 443
#     4  11  23  47  78 104 152 194 248 311 373 442
#     4  11  24  45  75 108 141 202 247 304 377 446
#     4  12  26  48  73 111 148 198 247 308 376 439
#     4  12  27  48  77 115 146 200 247 304 378 446
#     4  12  25  49  75 106 160 190 251 316 370 440
#     4  11  22  46  74 102 149 196 242 311 376 436
#     4  12  23  48  77 109 148 200 246 310 375 442
#
# _framework density 23.331285000000001
#
# number of rings (size 3 to 8) (size 9 to 14) (size 15 to 20)
#    0.000    0.500    6.250    1.500    3.500    2.000 
#    2.250    0.000    0.000    0.000    0.000    0.000 
#    0.000    0.000    0.000    0.000    0.000    0.000 
#
# Total GULP energy -89401.866464 kJ/mol
# GULP energy per Si atom -5587.616654 kJ/mol
# Density = 2.327818 g / cm^3
# Si number density = 23.331285 Si / 1000 Ang^3
#
#
#
# Elastic Constant Matrix: (Units=GPa)
#
#
# Indices 1 2 3 4 5 6 
#
# 1 62.7903 27.6977 41.9353 0.0000 -9.7979 0.0000
# 2 27.6977 44.0464 25.3021 0.0000 -1.0179 0.0000
# 3 41.9353 25.3021 175.9755 0.0000 -13.7253 0.0000
# 4 0.0000 0.0000 0.0000 22.1571 0.0000 -7.6786
# 5 -9.7979 -1.0179 -13.7253 0.0000 49.6790 0.0000
# 6 0.0000 0.0000 0.0000 -7.6786 0.0000 39.3100
#
#
#
# Elastic Compliance Matrix: (Units=1/GPa)
#
#
# Indices 1 2 3 4 5 6 
#
# 1 0.024902 -0.013438 -0.003721 0.000000 0.003608 0.000000
# 2 -0.013438 0.032011 -0.001590 0.000000 -0.002434 0.000000
# 3 -0.003721 -0.001590 0.006886 0.000000 0.001136 0.000000
# 4 0.000000 0.000000 0.000000 0.048409 0.000000 0.009456
# 5 0.003608 -0.002434 0.001136 0.000000 0.021105 0.000000
# 6 0.000000 0.000000 0.000000 0.009456 0.000000 0.027286
#
#
# Mechanical properties :
#
#
# Convention : Reuss Voigt Hill
#
# Bulk Modulus (GPa) = 38.02098 52.52027 45.27063
# Shear Modulus (GPa) = 24.17048 34.75436 29.46242
#
# Velocity S-wave (km/s) = 3.22214 3.86373 3.55743
# Velocity P-wave (km/s) = 5.49312 6.51644 6.02654
#
# Compressibility (1/GPa) = 0.02630127
#
# Stress axis : x y z
#
# Youngs Moduli (GPa) = 40.15790 31.23933 145.21254
#
# Poissons Ratio (x) = 0.41981 0.54027
# Poissons Ratio (y) = 0.53966 0.23089
# Poissons Ratio (z) = 0.14941 0.04967
#
# Static dielectric constant tensor:
#      x y z
#    x 2.017300 0.000000 0.046080 
#    y 0.000000 1.878990 0.000000 
#    z 0.046080 0.000000 1.976480 
# 
# From -- ./inp_files/16400.got.cif
#   From: 2010.05.17/outbox.cif.g08.bks.cpg/sg9_9_cif.got.tgz:16400.got - 2010.06.03 20:04:27.
