data_PCOD9140864
_publ_section_title
;
Structure prediction by ZEFSAII (Michael W. Deem and Ramdas Pophale) SiO2 
 PCOD9140864
Probable space group: C C
;
_chemical_formula_sum "Si O2"
_cell_formula_units_Z 32
_cell_length_a 12.422141
_cell_length_b 6.961215
_cell_length_c 20.194788
_cell_angle_alpha 90.000000
_cell_angle_beta 135.370174
_cell_angle_gamma 90.000000
_cell_volume 1226.822481
_symmetry_space_group_name_H-M "C C"
_symmetry_group_IT_number 9
_symmetry_cell_setting 'monoclinic'
loop_
_space_group_symop_operation_xyz
x,y,z
x,-y,1/2+z
1/2+x,1/2+y,z
1/2+x,1/2-y,1/2+z
loop_
_atom_site_type_symbol
_atom_site_label
_atom_site_fract_x
_atom_site_fract_y
_atom_site_fract_z
Si Si1 0.587760 0.825665 0.505600
Si Si2 0.965927 0.830577 0.333952
Si Si3 0.945516 0.248855 0.300332
Si Si4 0.493382 0.800116 0.027446
Si Si5 0.273748 0.006821 0.531279
Si Si6 0.130744 0.060973 0.646524
Si Si7 0.229733 0.664458 0.830051
Si Si8 0.531685 0.807177 0.721265
O O1 0.484757 0.798565 0.394292
O O2 0.588069 0.050251 0.523683
O O3 0.740341 0.717537 0.547081
O O4 0.551937 0.698983 0.555658
O O5 0.896081 0.028102 0.275522
O O6 0.114388 0.904583 0.441131
O O7 0.831074 0.732067 0.317225
O O8 0.028586 0.722109 0.298195
O O9 0.091901 0.258109 0.315344
O O10 0.869459 0.620881 0.123260
O O11 0.381983 0.946498 0.017198
O O12 0.595356 0.659559 0.115616
O O13 0.373027 0.650243 0.942442
O O14 0.307700 0.118189 0.718474
O O15 0.076489 0.126746 0.695531
O O16 0.156685 0.474828 0.766575
#
# Coordination Sequence:
#
# PCOD9140864 Si02
#       8
#     4   4   4   4   4   4   4   4
#     4  11  26  56  81 119 177 214 281 355 422 509
#     4  11  27  54  84 122 168 228 283 351 431 509
#     4  11  26  56  82 118 175 223 277 364 418 514
#     4  12  27  50  90 123 166 234 279 356 435 503
#     4  11  26  57  79 124 182 218 285 360 432 509
#     4  12  28  52  86 127 175 220 296 348 434 520
#     4  12  27  54  79 123 165 225 287 345 431 501
#     4  12  29  51  87 128 176 228 284 357 437 517
#
# _framework density 26.083642000000001
#
# number of rings (size 3 to 8) (size 9 to 14) (size 15 to 20)
#    0.000    0.500    5.000    2.250    5.250    3.000 
#   18.000    0.000    0.000    0.000    0.000    0.000 
#    0.000    0.000    0.000    0.000    0.000    0.000 
#
# Total GULP energy -89490.037302 kJ/mol
# GULP energy per Si atom -5593.127331 kJ/mol
# Density = 2.602427 g / cm^3
# Si number density = 26.083642 Si / 1000 Ang^3
#
#
#
# Elastic Constant Matrix: (Units=GPa)
#
#
# Indices 1 2 3 4 5 6 
#
# 1 153.3703 34.6017 59.4251 0.0000 0.2548 0.0000
# 2 34.6017 101.3904 27.0342 0.0000 15.9561 0.0000
# 3 59.4251 27.0342 115.6289 0.0000 10.6868 0.0000
# 4 0.0000 0.0000 0.0000 45.8843 0.0000 -5.7356
# 5 0.2548 15.9561 10.6868 0.0000 35.0750 0.0000
# 6 0.0000 0.0000 0.0000 -5.7356 0.0000 41.9268
#
#
#
# Elastic Compliance Matrix: (Units=1/GPa)
#
#
# Indices 1 2 3 4 5 6 
#
# 1 0.008602 -0.002183 -0.004112 0.000000 0.002184 0.000000
# 2 -0.002183 0.011695 -0.001155 0.000000 -0.004953 0.000000
# 3 -0.004112 -0.001155 0.011299 0.000000 -0.002887 0.000000
# 4 0.000000 0.000000 0.000000 0.022173 0.000000 0.003033
# 5 0.002184 -0.004953 -0.002887 0.000000 0.031627 0.000000
# 6 0.000000 0.000000 0.000000 0.003033 0.000000 0.024266
#
#
# Mechanical properties :
#
#
# Convention : Reuss Voigt Hill
#
# Bulk Modulus (GPa) = 59.89445 68.05684 63.97564
# Shear Modulus (GPa) = 38.42361 41.19912 39.81137
#
# Velocity S-wave (km/s) = 3.84225 3.97860 3.91102
# Velocity P-wave (km/s) = 6.53423 6.87416 6.70635
#
# Compressibility (1/GPa) = 0.01669604
#
# Stress axis : x y z
#
# Youngs Moduli (GPa) = 116.24597 85.50570 88.50549
#
# Poissons Ratio (x) = 0.18665 0.36398
# Poissons Ratio (y) = 0.25375 0.10220
# Poissons Ratio (z) = 0.47806 0.09874
#
# Static dielectric constant tensor:
#      x y z
#    x 2.052360 0.000000 -0.048480 
#    y 0.000000 2.025650 0.000000 
#    z -0.048480 0.000000 2.129540 
# 
# From -- ./inp_files/29850.got.cif
#   From: 2010.05.17/outbox.cif.g08.bks.cpg/sg9_15_cif.got.tgz:29850.got - 2010.06.03 20:04:27.
