data_PCOD9140407
_publ_section_title
;
Structure prediction by ZEFSAII (Michael W. Deem and Ramdas Pophale) SiO2 
 PCOD9140407
Probable space group: C C
;
_chemical_formula_sum "Si O2"
_cell_formula_units_Z 24
_cell_length_a 13.261161
_cell_length_b 16.517576
_cell_length_c 11.583197
_cell_angle_alpha 90.000000
_cell_angle_beta 158.422330
_cell_angle_gamma 90.000000
_cell_volume 933.089596
_symmetry_space_group_name_H-M "C C"
_symmetry_group_IT_number 9
_symmetry_cell_setting 'monoclinic'
loop_
_space_group_symop_operation_xyz
x,y,z
x,-y,1/2+z
1/2+x,1/2+y,z
1/2+x,1/2-y,1/2+z
loop_
_atom_site_type_symbol
_atom_site_label
_atom_site_fract_x
_atom_site_fract_y
_atom_site_fract_z
Si Si1 0.692730 0.482732 0.142030
Si Si2 0.479291 0.794848 0.292034
Si Si3 0.731184 0.118364 0.246054
Si Si4 0.797216 0.917999 0.070624
Si Si5 0.439869 0.065872 0.595018
Si Si6 0.185670 0.689387 0.671600
O O1 0.007701 0.453755 0.486734
O O2 0.679190 0.533540 0.247294
O O3 0.490416 0.407113 0.944804
O O4 0.572870 0.541263 0.916474
O O5 0.565658 0.806893 0.516426
O O6 0.355434 0.875929 0.109201
O O7 0.766542 0.774385 0.540857
O O8 0.823985 0.126964 0.476262
O O9 0.670845 0.859285 0.033548
O O10 0.605992 0.993414 0.830837
O O11 0.611658 0.121388 0.688203
O O12 0.472376 0.737271 0.968425
#
# Coordination Sequence:
#
# PCOD9140407 Si02
#       6
#     4   4   4   4   4   4
#     4  11  24  44  74 112 147 185 263 325 378 444
#     4  12  27  47  72 106 157 203 248 317 396 463
#     4  11  26  44  70 111 149 197 253 318 379 460
#     4  11  25  47  82 108 150 202 260 317 378 468
#     4  11  26  47  81 113 150 201 267 314 388 467
#     4  12  28  51  73 114 157 202 251 325 401 458
#
# _framework density 25.721003
#
# number of rings (size 3 to 8) (size 9 to 14) (size 15 to 20)
#    0.000    0.667    1.667    5.000    2.333    8.000 
#    0.000    0.000    0.000    0.000    0.000    0.000 
#    0.000    0.000    0.000    0.000    0.000    0.000 
#
# Total GULP energy -67140.326978 kJ/mol
# GULP energy per Si atom -5595.027248 kJ/mol
# Density = 2.566246 g / cm^3
# Si number density = 25.721003 Si / 1000 Ang^3
#
#
#
# Elastic Constant Matrix: (Units=GPa)
#
#
# Indices 1 2 3 4 5 6 
#
# 1 94.4557 -2.4641 25.2039 0.0013 -10.7540 0.0002
# 2 -2.4641 71.1855 17.1351 0.0005 -2.8364 0.0005
# 3 25.2039 17.1351 133.1679 0.0032 -14.3546 0.0029
# 4 0.0013 0.0005 0.0032 50.8418 0.0021 -14.6082
# 5 -10.7540 -2.8364 -14.3546 0.0021 51.4534 0.0008
# 6 0.0002 0.0005 0.0029 -14.6082 0.0008 47.9599
#
#
#
# Elastic Compliance Matrix: (Units=1/GPa)
#
#
# Indices 1 2 3 4 5 6 
#
# 1 0.011378 0.000968 -0.002078 0.000000 0.001852 0.000000
# 2 0.000968 0.014583 -0.002012 0.000000 0.000445 0.000000
# 3 -0.002078 -0.002012 0.008354 -0.000001 0.001785 -0.000001
# 4 0.000000 0.000000 -0.000001 0.021555 -0.000001 0.006566
# 5 0.001852 0.000445 0.001785 -0.000001 0.020345 -0.000001
# 6 0.000000 0.000000 -0.000001 0.006566 -0.000001 0.022851
#
#
# Mechanical properties :
#
#
# Convention : Reuss Voigt Hill
#
# Bulk Modulus (GPa) = 35.62453 42.06212 38.84332
# Shear Modulus (GPa) = 43.60472 47.31331 45.45901
#
# Velocity S-wave (km/s) = 4.12186 4.29357 4.20859
# Velocity P-wave (km/s) = 6.04429 6.40066 6.22502
#
# Compressibility (1/GPa) = 0.02807055
#
# Stress axis : x y z
#
# Youngs Moduli (GPa) = 87.89211 68.57170 119.70360
#
# Poissons Ratio (x) = -0.06637 0.24878
# Poissons Ratio (y) = -0.08507 0.24081
# Poissons Ratio (z) = 0.18267 0.13795
#
# Static dielectric constant tensor:
#      x y z
#    x 2.133760 0.000000 -0.029250 
#    y 0.000000 2.034970 0.000000 
#    z -0.029250 0.000000 1.936130 
# 
# From -- ./inp_files/18563.got.cif
#   From: 2010.05.17/outbox.cif.g08.bks.cpg/sg9_10_cif.got.tgz:18563.got - 2010.06.03 20:04:27.
