data_PCOD9140530
_publ_section_title
;
Structure prediction by ZEFSAII (Michael W. Deem and Ramdas Pophale) SiO2 
 PCOD9140530
Probable space group: C C
;
_chemical_formula_sum "Si O2"
_cell_formula_units_Z 32
_cell_length_a 14.370552
_cell_length_b 8.918530
_cell_length_c 18.181625
_cell_angle_alpha 90.000000
_cell_angle_beta 148.690231
_cell_angle_gamma 90.000000
_cell_volume 1210.940255
_symmetry_space_group_name_H-M "C C"
_symmetry_group_IT_number 9
_symmetry_cell_setting 'monoclinic'
loop_
_space_group_symop_operation_xyz
x,y,z
x,-y,1/2+z
1/2+x,1/2+y,z
1/2+x,1/2-y,1/2+z
loop_
_atom_site_type_symbol
_atom_site_label
_atom_site_fract_x
_atom_site_fract_y
_atom_site_fract_z
Si Si1 0.036250 0.240739 0.741520
Si Si2 0.866117 0.354770 0.376902
Si Si3 0.541476 0.009416 0.362264
Si Si4 0.413012 0.539010 0.385303
Si Si5 0.364055 0.277913 0.579779
Si Si6 0.579140 0.102910 0.614443
Si Si7 0.656263 0.263467 0.527153
Si Si8 0.058718 0.926919 0.838962
O O1 0.161925 0.191304 0.758903
O O2 0.051850 0.404869 0.790750
O O3 0.824017 0.247019 0.586290
O O4 0.070328 0.095989 0.817704
O O5 0.956835 0.193267 0.454526
O O6 0.907518 0.403647 0.320400
O O7 0.948165 0.478916 0.488477
O O8 0.513363 0.157530 0.392612
O O9 0.727372 0.917072 0.491384
O O10 0.219887 0.464745 0.267940
O O11 0.572953 0.420473 0.492743
O O12 0.400591 0.583901 0.290740
O O13 0.467059 0.237989 0.574894
O O14 0.510131 0.312766 0.740646
O O15 0.236531 0.132380 0.499843
O O16 0.694153 0.177035 0.627699
#
# Coordination Sequence:
#
# PCOD9140530 Si02
#       8
#     4   4   4   4   4   4   4   4
#     4  12  25  48  78 114 162 206 274 339 411 495
#     4  11  27  48  75 115 159 208 277 334 414 500
#     4  11  24  47  73 111 159 207 259 332 410 487
#     4  12  26  47  77 111 162 210 264 337 412 492
#     4  12  27  48  83 111 161 208 272 336 413 498
#     4  11  26  47  76 116 160 208 276 330 410 505
#     4  11  24  47  74 110 163 209 258 335 411 493
#     4  12  25  50  78 112 154 210 260 337 409 482
#
# _framework density 26.425747000000001
#
# number of rings (size 3 to 8) (size 9 to 14) (size 15 to 20)
#    0.000    0.500    6.250    0.750    3.500    5.000 
#    0.000    0.000    0.000    0.000    0.000    0.000 
#    0.000    0.000    0.000    0.000    0.000    0.000 
#
# Total GULP energy -89247.299958 kJ/mol
# GULP energy per Si atom -5577.956247 kJ/mol
# Density = 2.636560 g / cm^3
# Si number density = 26.425747 Si / 1000 Ang^3
#
#
#
# Elastic Constant Matrix: (Units=GPa)
#
#
# Indices 1 2 3 4 5 6 
#
# 1 130.4805 55.3564 46.4000 0.0001 27.4210 0.0000
# 2 55.3564 160.6707 57.6075 0.0003 1.1001 -0.0002
# 3 46.4000 57.6075 81.8516 0.0003 16.9082 -0.0003
# 4 0.0001 0.0003 0.0003 47.3665 0.0000 3.2450
# 5 27.4210 1.1001 16.9082 0.0000 34.0097 -0.0001
# 6 0.0000 -0.0002 -0.0003 3.2450 -0.0001 36.9191
#
#
#
# Elastic Compliance Matrix: (Units=1/GPa)
#
#
# Indices 1 2 3 4 5 6 
#
# 1 0.011559 -0.002883 -0.002917 0.000000 -0.007776 0.000000
# 2 -0.002883 0.009317 -0.005952 0.000000 0.004983 0.000000
# 3 -0.002917 -0.005952 0.019541 0.000000 -0.007171 0.000000
# 4 0.000000 0.000000 0.000000 0.021240 0.000000 -0.001867
# 5 -0.007776 0.004983 -0.007171 0.000000 0.039077 0.000000
# 6 0.000000 0.000000 0.000000 -0.001867 0.000000 0.027250
#
#
# Mechanical properties :
#
#
# Convention : Reuss Voigt Hill
#
# Bulk Modulus (GPa) = 59.12831 76.85894 67.99363
# Shear Modulus (GPa) = 31.82148 37.90167 34.86158
#
# Velocity S-wave (km/s) = 3.47390 3.79129 3.63606
# Velocity P-wave (km/s) = 6.20600 6.95076 6.58892
#
# Compressibility (1/GPa) = 0.01691237
#
# Stress axis : x y z
#
# Youngs Moduli (GPa) = 86.51569 107.32640 51.17371
#
# Poissons Ratio (x) = 0.30945 0.14926
# Poissons Ratio (y) = 0.24945 0.30461
# Poissons Ratio (z) = 0.25235 0.63885
#
# Static dielectric constant tensor:
#      x y z
#    x 2.201480 0.000000 -0.015650 
#    y 0.000000 2.097320 0.000000 
#    z -0.015650 0.000000 2.120210 
# 
# From -- ./inp_files/33735.got.cif
#   From: 2010.05.17/outbox.cif.g08.bks.cpg/sg9_17_cif.got.tgz:33735.got - 2010.06.03 20:04:27.
