data_PCOD9140173
_publ_section_title
;
Structure prediction by ZEFSAII (Michael W. Deem and Ramdas Pophale) SiO2 
 PCOD9140173
Probable space group: C C
;
_chemical_formula_sum "Si O2"
_cell_formula_units_Z 32
_cell_length_a 14.005495
_cell_length_b 12.173879
_cell_length_c 8.863295
_cell_angle_alpha 90.000000
_cell_angle_beta 63.448051
_cell_angle_gamma 90.000000
_cell_volume 1351.815070
_symmetry_space_group_name_H-M "C C"
_symmetry_group_IT_number 9
_symmetry_cell_setting 'monoclinic'
loop_
_space_group_symop_operation_xyz
x,y,z
x,-y,1/2+z
1/2+x,1/2+y,z
1/2+x,1/2-y,1/2+z
loop_
_atom_site_type_symbol
_atom_site_label
_atom_site_fract_x
_atom_site_fract_y
_atom_site_fract_z
Si Si1 0.235630 0.579987 0.077030
Si Si2 0.611544 0.732219 0.777537
Si Si3 0.139749 0.232862 0.112131
Si Si4 0.804407 0.799494 0.230412
Si Si5 0.949920 0.044379 0.484412
Si Si6 0.591041 0.498696 0.638662
Si Si7 0.441523 0.885726 0.727019
Si Si8 0.530716 0.072071 0.830551
O O1 0.214681 0.696161 0.167787
O O2 0.346123 0.531646 0.058767
O O3 0.136507 0.499963 0.198753
O O4 0.249788 0.617988 0.890843
O O5 0.616860 0.615438 0.691655
O O6 0.513120 0.800573 0.775109
O O7 0.609295 0.735368 0.958985
O O8 0.240593 0.290590 0.119249
O O9 0.163801 0.104512 0.122498
O O10 0.047149 0.304449 0.258434
O O11 0.916944 0.849360 0.100276
O O12 0.831628 0.679533 0.276336
O O13 0.979874 0.047410 0.289095
O O14 0.059468 0.008804 0.486944
O O15 0.502676 0.915205 0.526876
O O16 0.437180 0.999933 0.820667
#
# Coordination Sequence:
#
# PCOD9140173 Si02
#       8
#     4   4   4   4   4   4   4   4
#     4  11  25  42  76 105 139 180 246 301 350 428
#     4  11  25  44  70 104 141 189 236 292 362 429
#     4  12  26  44  73 104 144 192 239 292 367 435
#     4  12  26  46  72 108 145 186 240 304 357 421
#     4  12  23  44  72 104 134 182 241 295 347 423
#     4  12  26  46  71 101 147 188 237 292 368 436
#     4  11  24  48  73 105 145 188 242 301 359 431
#     4  11  23  44  75 105 141 193 237 295 364 439
#
# _framework density 23.671876000000001
#
# number of rings (size 3 to 8) (size 9 to 14) (size 15 to 20)
#    0.000    0.500    5.000    3.750    5.250    0.000 
#    4.500    0.000    0.000    0.000    0.000    0.000 
#    0.000    0.000    0.000    0.000    0.000    0.000 
#
# Total GULP energy -89182.523323 kJ/mol
# GULP energy per Si atom -5573.907708 kJ/mol
# Density = 2.361800 g / cm^3
# Si number density = 23.671876 Si / 1000 Ang^3
#
#
#
# Elastic Constant Matrix: (Units=GPa)
#
#
# Indices 1 2 3 4 5 6 
#
# 1 56.1080 17.8457 17.7254 0.0000 29.0711 0.0000
# 2 17.8457 78.6917 12.0879 0.0000 21.0579 0.0000
# 3 17.7254 12.0879 114.4710 0.0000 29.4579 0.0000
# 4 0.0000 0.0000 0.0000 34.1304 0.0000 4.7785
# 5 29.0711 21.0579 29.4579 0.0000 33.3907 0.0000
# 6 0.0000 0.0000 0.0000 4.7785 0.0000 40.1398
#
#
#
# Elastic Compliance Matrix: (Units=1/GPa)
#
#
# Indices 1 2 3 4 5 6 
#
# 1 0.033255 0.000547 0.003017 0.000000 -0.031960 0.000000
# 2 0.000547 0.015409 0.001179 0.000000 -0.011235 0.000000
# 3 0.003017 0.001179 0.011658 0.000000 -0.013656 0.000000
# 4 0.000000 0.000000 0.000000 0.029796 0.000000 -0.003547
# 5 -0.031960 -0.011235 -0.013656 0.000000 0.076906 0.000000
# 6 0.000000 0.000000 0.000000 -0.003547 0.000000 0.025335
#
#
# Mechanical properties :
#
#
# Convention : Reuss Voigt Hill
#
# Bulk Modulus (GPa) = 14.32461 38.28762 26.30611
# Shear Modulus (GPa) = 24.25520 34.97297 29.61409
#
# Velocity S-wave (km/s) = 3.20448 3.84787 3.54082
# Velocity P-wave (km/s) = 4.44477 5.99591 5.27764
#
# Compressibility (1/GPa) = 0.06980994
#
# Stress axis : x y z
#
# Youngs Moduli (GPa) = 30.07091 64.89750 85.77601
#
# Poissons Ratio (x) = -0.03553 -0.25882
# Poissons Ratio (y) = -0.01646 -0.10115
# Poissons Ratio (z) = -0.09074 -0.07653
#
# Static dielectric constant tensor:
#      x y z
#    x 1.962520 0.000000 -0.032230 
#    y 0.000000 1.995610 0.000000 
#    z -0.032230 0.000000 1.917060 
# 
# From -- ./inp_files/9259.got.cif
#   From: 2010.05.17/outbox.cif.g08.bks.cpg/sg9_5_cif.got.tgz:9259.got - 2010.06.03 20:04:27.
