data_PCOD9140494
_publ_section_title
;
Structure prediction by ZEFSAII (Michael W. Deem and Ramdas Pophale) SiO2 
 PCOD9140494
Probable space group: C C
;
_chemical_formula_sum "Si O2"
_cell_formula_units_Z 28
_cell_length_a 14.306957
_cell_length_b 11.051937
_cell_length_c 13.779311
_cell_angle_alpha 90.000000
_cell_angle_beta 149.577423
_cell_angle_gamma 90.000000
_cell_volume 1103.276134
_symmetry_space_group_name_H-M "C C"
_symmetry_group_IT_number 9
_symmetry_cell_setting 'monoclinic'
loop_
_space_group_symop_operation_xyz
x,y,z
x,-y,1/2+z
1/2+x,1/2+y,z
1/2+x,1/2-y,1/2+z
loop_
_atom_site_type_symbol
_atom_site_label
_atom_site_fract_x
_atom_site_fract_y
_atom_site_fract_z
Si Si1 0.859730 0.579855 0.400730
Si Si2 0.139494 0.412202 0.429301
Si Si3 0.251810 0.914821 0.131334
Si Si4 0.761695 0.851015 0.332348
Si Si5 0.364129 0.587800 0.333367
Si Si6 0.241928 0.351013 0.930320
Si Si7 0.143890 0.079852 0.861937
O O1 0.848875 0.500055 0.296142
O O2 0.782824 0.714325 0.317820
O O3 0.751807 0.500007 0.381333
O O4 0.064594 0.600879 0.621528
O O5 0.256676 0.354557 0.445142
O O6 0.251812 0.409889 0.631334
O O7 0.108640 0.550604 0.361474
O O8 0.934956 0.351589 0.251867
O O9 0.154743 0.000059 0.966528
O O10 0.068666 0.851586 0.010800
O O11 0.894982 0.949399 0.401194
O O12 0.246945 0.645445 0.317524
O O13 0.439027 0.399120 0.141139
O O14 0.220804 0.214321 0.944849
#
# Coordination Sequence:
#
# PCOD9140494 Si02
#       7
#     4   4   4   4   4   4   4
#     4  12  26  46  72 107 148 189 242 297 359 429
#     4  11  24  46  74 109 143 189 243 297 364 428
#     4  12  24  44  76 106 140 186 244 296 352 434
#     4  11  26  45  72 106 151 188 236 305 363 420
#     4  11  24  46  74 109 143 189 243 297 364 428
#     4  11  26  45  72 106 151 188 236 305 363 420
#     4  12  26  46  72 107 148 189 242 297 359 429
#
# _framework density 25.378957
#
# number of rings (size 3 to 8) (size 9 to 14) (size 15 to 20)
#    0.000    0.571    5.714    1.714    6.000    2.286 
#    2.571    2.857    0.000    0.000    0.000    0.000 
#    0.000    0.000    0.000    0.000    0.000    0.000 
#
# Total GULP energy -78420.313556 kJ/mol
# GULP energy per Si atom -5601.450968 kJ/mol
# Density = 2.532119 g / cm^3
# Si number density = 25.378957 Si / 1000 Ang^3
#
#
#
# Elastic Constant Matrix: (Units=GPa)
#
#
# Indices 1 2 3 4 5 6 
#
# 1 111.2980 -7.3152 39.5330 0.0001 -9.6032 0.0000
# 2 -7.3152 95.1921 -0.3429 0.0001 8.4202 0.0000
# 3 39.5330 -0.3429 136.9056 0.0001 -5.8748 0.0001
# 4 0.0001 0.0001 0.0001 35.8257 0.0001 -14.9644
# 5 -9.6032 8.4202 -5.8748 0.0001 58.8275 0.0000
# 6 0.0000 0.0000 0.0001 -14.9644 0.0000 9.4146
#
#
#
# Elastic Compliance Matrix: (Units=1/GPa)
#
#
# Indices 1 2 3 4 5 6 
#
# 1 0.010160 0.000657 -0.002877 0.000000 0.001277 0.000000
# 2 0.000657 0.010683 -0.000225 0.000000 -0.001444 0.000000
# 3 -0.002877 -0.000225 0.008151 0.000000 0.000376 0.000000
# 4 0.000000 0.000000 0.000000 0.083057 0.000000 0.132018
# 5 0.001277 -0.001444 0.000376 0.000000 0.017452 0.000000
# 6 0.000000 0.000000 0.000000 0.132018 0.000000 0.316060
#
#
# Mechanical properties :
#
#
# Convention : Reuss Voigt Hill
#
# Bulk Modulus (GPa) = 41.48769 45.23840 43.36304
# Shear Modulus (GPa) = 10.90544 41.58162 26.24353
#
# Velocity S-wave (km/s) = 2.07518 4.05214 3.21918
# Velocity P-wave (km/s) = 4.70368 6.30532 5.56245
#
# Compressibility (1/GPa) = 0.02410354
#
# Stress axis : x y z
#
# Youngs Moduli (GPa) = 98.42160 93.61080 122.68745
#
# Poissons Ratio (x) = -0.06154 0.35303
# Poissons Ratio (y) = -0.06471 0.02761
# Poissons Ratio (z) = 0.28320 0.02107
#
# Static dielectric constant tensor:
#      x y z
#    x 2.141640 0.000000 0.030330 
#    y 0.000000 2.074190 0.000000 
#    z 0.030330 0.000000 1.998610 
# 
# From -- ./inp_files/10693.got.cif
#   From: 2010.05.17/outbox.cif.g08.bks.cpg/sg9_6_cif.got.tgz:10693.got - 2010.06.03 20:04:27.
