data_PCOD9140718
_publ_section_title
;
Structure prediction by ZEFSAII (Michael W. Deem and Ramdas Pophale) SiO2 
 PCOD9140718
Probable space group: C C
;
_chemical_formula_sum "Si O2"
_cell_formula_units_Z 32
_cell_length_a 14.886998
_cell_length_b 10.887689
_cell_length_c 11.202583
_cell_angle_alpha 90.000000
_cell_angle_beta 130.205232
_cell_angle_gamma 90.000000
_cell_volume 1386.771433
_symmetry_space_group_name_H-M "C C"
_symmetry_group_IT_number 9
_symmetry_cell_setting 'monoclinic'
loop_
_space_group_symop_operation_xyz
x,y,z
x,-y,1/2+z
1/2+x,1/2+y,z
1/2+x,1/2-y,1/2+z
loop_
_atom_site_type_symbol
_atom_site_label
_atom_site_fract_x
_atom_site_fract_y
_atom_site_fract_z
Si Si1 0.546340 0.795677 0.110130
Si Si2 0.308221 0.240704 0.252483
Si Si3 0.979274 0.059868 0.157431
Si Si4 0.391838 0.776253 0.451453
Si Si5 0.760455 0.090896 0.491408
Si Si6 0.511701 0.033862 0.203840
Si Si7 0.051344 0.926274 0.974439
Si Si8 0.308397 0.959481 0.191191
O O1 0.684205 0.763690 0.212790
O O2 0.506705 0.703718 0.181828
O O3 0.547072 0.941653 0.129008
O O4 0.437989 0.765267 0.924909
O O5 0.304749 0.344902 0.149144
O O6 0.287195 0.104149 0.184595
O O7 0.015792 0.009634 0.319090
O O8 0.040707 0.003699 0.090333
O O9 0.842809 0.023861 0.028868
O O10 0.286361 0.693574 0.412210
O O11 0.468837 0.832677 0.624678
O O12 0.468731 0.689186 0.432825
O O13 0.351322 0.896883 0.348532
O O14 0.625448 0.054425 0.382560
O O15 0.408416 0.957907 0.178295
O O16 0.185836 0.892871 0.063535
#
# Coordination Sequence:
#
# PCOD9140718 Si02
#       8
#     4   4   4   4   4   4   4   4
#     4  12  26  47  74 113 154 198 253 327 396 470
#     4  12  25  45  76 110 153 199 261 319 397 470
#     4  11  25  49  75 111 146 201 254 311 385 464
#     4  11  25  48  71 109 148 201 254 316 394 457
#     4  11  26  47  76 106 150 201 261 317 389 476
#     4  12  26  46  74 109 151 193 253 324 395 463
#     4  11  26  46  78 107 152 197 257 311 380 473
#     4  12  25  46  72 109 146 196 251 315 384 467
#
# _framework density 23.07518
#
# number of rings (size 3 to 8) (size 9 to 14) (size 15 to 20)
#    0.000    0.500    3.750    3.750    3.500    2.000 
#    6.750    0.000    0.000    0.000    0.000    0.000 
#    0.000    0.000    0.000    0.000    0.000    0.000 
#
# Total GULP energy -89272.682628 kJ/mol
# GULP energy per Si atom -5579.542664 kJ/mol
# Density = 2.302266 g / cm^3
# Si number density = 23.075180 Si / 1000 Ang^3
#
#
#
# Elastic Constant Matrix: (Units=GPa)
#
#
# Indices 1 2 3 4 5 6 
#
# 1 92.5254 14.7340 27.0484 0.0000 3.4328 0.0000
# 2 14.7340 69.7592 -4.5520 0.0000 -0.6508 0.0000
# 3 27.0484 -4.5520 99.5053 0.0000 2.2708 0.0000
# 4 0.0000 0.0000 0.0000 27.5268 0.0000 -4.8563
# 5 3.4328 -0.6508 2.2708 0.0000 32.0341 0.0000
# 6 0.0000 0.0000 0.0000 -4.8563 0.0000 23.7506
#
#
#
# Elastic Compliance Matrix: (Units=1/GPa)
#
#
# Indices 1 2 3 4 5 6 
#
# 1 0.012310 -0.002836 -0.003450 0.000000 -0.001132 0.000000
# 2 -0.002836 0.015033 0.001447 0.000000 0.000507 0.000000
# 3 -0.003450 0.001447 0.011063 0.000000 -0.000385 0.000000
# 4 0.000000 0.000000 0.000000 0.037688 0.000000 0.007706
# 5 -0.001132 0.000507 -0.000385 0.000000 0.031376 0.000000
# 6 0.000000 0.000000 0.000000 0.007706 0.000000 0.043680
#
#
# Mechanical properties :
#
#
# Convention : Reuss Voigt Hill
#
# Bulk Modulus (GPa) = 34.80928 37.36119 36.08524
# Shear Modulus (GPa) = 29.34230 31.63295 30.48762
#
# Velocity S-wave (km/s) = 3.56981 3.70654 3.63882
# Velocity P-wave (km/s) = 5.66651 5.87742 5.77293
#
# Compressibility (1/GPa) = 0.02872797
#
# Stress axis : x y z
#
# Youngs Moduli (GPa) = 81.23479 66.51987 90.39522
#
# Poissons Ratio (x) = 0.18863 0.31187
# Poissons Ratio (y) = 0.23036 -0.13080
# Poissons Ratio (z) = 0.28027 -0.09625
#
# Static dielectric constant tensor:
#      x y z
#    x 1.906420 0.000000 -0.016350 
#    y 0.000000 1.861780 0.000000 
#    z -0.016350 0.000000 1.940190 
# 
# From -- ./inp_files/18280.got.cif
#   From: 2010.05.17/outbox.cif.g08.bks.cpg/sg9_10_cif.got.tgz:18280.got - 2010.06.03 20:04:27.
