data_PCOD9140546
_publ_section_title
;
Structure prediction by ZEFSAII (Michael W. Deem and Ramdas Pophale) SiO2 
 PCOD9140546
Probable space group: C C
;
_chemical_formula_sum "Si O2"
_cell_formula_units_Z 32
_cell_length_a 12.443892
_cell_length_b 8.576712
_cell_length_c 14.409061
_cell_angle_alpha 90.000000
_cell_angle_beta 59.808162
_cell_angle_gamma 90.000000
_cell_volume 1329.231403
_symmetry_space_group_name_H-M "C C"
_symmetry_group_IT_number 9
_symmetry_cell_setting 'monoclinic'
loop_
_space_group_symop_operation_xyz
x,y,z
x,-y,1/2+z
1/2+x,1/2+y,z
1/2+x,1/2-y,1/2+z
loop_
_atom_site_type_symbol
_atom_site_label
_atom_site_fract_x
_atom_site_fract_y
_atom_site_fract_z
Si Si1 0.219460 0.865571 0.728540
Si Si2 0.375613 0.532368 0.097047
Si Si3 0.574537 0.660753 0.872588
Si Si4 0.378683 0.168293 0.335699
Si Si5 0.702273 0.154040 0.022747
Si Si6 0.997081 0.341387 0.315440
Si Si7 0.791941 0.893975 0.837204
Si Si8 0.949715 0.323975 0.542668
O O1 0.304788 0.795931 0.773784
O O2 0.325391 0.923753 0.612437
O O3 0.126146 0.736768 0.727618
O O4 0.141367 0.004280 0.807989
O O5 0.358775 0.551755 0.213612
O O6 0.402617 0.353539 0.060357
O O7 0.488706 0.625197 0.999239
O O8 0.252930 0.598399 0.099232
O O9 0.485576 0.719288 0.828358
O O10 0.675024 0.789479 0.856808
O O11 0.269736 0.186288 0.460958
O O12 0.442187 0.999839 0.298860
O O13 0.750633 0.027333 0.926369
O O14 0.555426 0.163507 0.074514
O O15 0.890571 0.214391 0.346535
O O16 0.012614 0.366883 0.418546
#
# Coordination Sequence:
#
# PCOD9140546 Si02
#       8
#     4   4   4   4   4   4   4   4
#     4  12  26  48  74 109 149 196 255 307 378 450
#     4  11  26  48  75 113 149 205 250 311 389 448
#     4  11  25  48  74 111 157 191 257 314 371 460
#     4  11  24  47  78 103 153 195 239 322 371 443
#     4  11  24  50  77 111 155 196 260 311 374 466
#     4  12  25  51  74 109 155 194 253 322 378 452
#     4  12  26  48  81 110 156 203 250 323 382 452
#     4  12  26  46  79 106 150 206 250 310 385 447
#
# _framework density 24.074062999999999
#
# number of rings (size 3 to 8) (size 9 to 14) (size 15 to 20)
#    0.000    0.500    5.000    2.250    3.500    4.000 
#    0.000    0.000    0.000    0.000    0.000    0.000 
#    0.000    0.000    0.000    0.000    0.000    0.000 
#
# Total GULP energy -89626.669767 kJ/mol
# GULP energy per Si atom -5601.666860 kJ/mol
# Density = 2.401927 g / cm^3
# Si number density = 24.074063 Si / 1000 Ang^3
#
#
#
# Elastic Constant Matrix: (Units=GPa)
#
#
# Indices 1 2 3 4 5 6 
#
# 1 134.1070 40.6971 9.3175 0.0000 -27.2542 0.0000
# 2 40.6971 70.8561 18.8069 0.0000 -7.6732 0.0000
# 3 9.3175 18.8069 64.5616 0.0000 -13.8899 0.0000
# 4 0.0000 0.0000 0.0000 26.9234 0.0000 -1.2398
# 5 -27.2542 -7.6732 -13.8899 0.0000 46.5256 0.0000
# 6 0.0000 0.0000 0.0000 -1.2398 0.0000 35.9462
#
#
#
# Elastic Compliance Matrix: (Units=1/GPa)
#
#
# Indices 1 2 3 4 5 6 
#
# 1 0.010169 -0.005607 0.001334 0.000000 0.005431 0.000000
# 2 -0.005607 0.018458 -0.004936 0.000000 -0.001714 0.000000
# 3 0.001334 -0.004936 0.017876 0.000000 0.005304 0.000000
# 4 0.000000 0.000000 0.000000 0.037201 0.000000 0.001283
# 5 0.005431 -0.001714 0.005304 0.000000 0.025975 0.000000
# 6 0.000000 0.000000 0.000000 0.001283 0.000000 0.027864
#
#
# Mechanical properties :
#
#
# Convention : Reuss Voigt Hill
#
# Bulk Modulus (GPa) = 35.60688 45.24083 40.42386
# Shear Modulus (GPa) = 30.24376 35.25926 32.75151
#
# Velocity S-wave (km/s) = 3.54825 3.83118 3.69243
# Velocity P-wave (km/s) = 5.62223 6.19708 5.91664
#
# Compressibility (1/GPa) = 0.02808446
#
# Stress axis : x y z
#
# Youngs Moduli (GPa) = 98.33656 54.17682 55.94200
#
# Poissons Ratio (x) = 0.30376 -0.07463
# Poissons Ratio (y) = 0.55135 0.27615
# Poissons Ratio (z) = -0.13118 0.26744
#
# Static dielectric constant tensor:
#      x y z
#    x 1.874620 0.000000 -0.030240 
#    y 0.000000 1.916920 0.000000 
#    z -0.030240 0.000000 1.992470 
# 
# From -- ./inp_files/24214.got.cif
#   From: 2010.05.17/outbox.cif.g08.bks.cpg/sg9_13_cif.got.tgz:24214.got - 2010.06.03 20:04:27.
