data_PCOD9140283
_publ_section_title
;
Structure prediction by ZEFSAII (Michael W. Deem and Ramdas Pophale) SiO2 
 PCOD9140283
Probable space group: C C
;
_chemical_formula_sum "Si O2"
_cell_formula_units_Z 24
_cell_length_a 9.552809
_cell_length_b 11.924488
_cell_length_c 9.290514
_cell_angle_alpha 90.000000
_cell_angle_beta 100.945613
_cell_angle_gamma 90.000000
_cell_volume 1039.051524
_symmetry_space_group_name_H-M "C C"
_symmetry_group_IT_number 9
_symmetry_cell_setting 'monoclinic'
loop_
_space_group_symop_operation_xyz
x,y,z
x,-y,1/2+z
1/2+x,1/2+y,z
1/2+x,1/2-y,1/2+z
loop_
_atom_site_type_symbol
_atom_site_label
_atom_site_fract_x
_atom_site_fract_y
_atom_site_fract_z
Si Si1 0.281440 0.081682 0.750000
Si Si2 0.506392 0.565394 0.115509
Si Si3 0.705303 0.791861 0.931641
Si Si4 0.821349 0.980837 0.324323
Si Si5 0.185173 0.260352 0.242933
Si Si6 0.896993 0.614581 0.462492
O O1 0.226021 0.192401 0.821356
O O2 0.377914 0.103710 0.629222
O O3 0.146106 0.010617 0.663803
O O4 0.365364 0.004222 0.880126
O O5 0.379105 0.510104 0.179035
O O6 0.544506 0.685830 0.191151
O O7 0.452405 0.570765 0.941927
O O8 0.545318 0.833720 0.937038
O O9 0.780913 0.902091 0.887199
O O10 0.760560 0.752925 0.100023
O O11 0.695302 0.890229 0.288695
O O12 0.273416 0.195898 0.380817
#
# Coordination Sequence:
#
# PCOD9140283 Si02
#       6
#     4   4   4   4   4   4
#     4  11  25  50  76 108 142 203 241 304 379 422
#     4  11  23  47  74  99 142 187 244 300 359 442
#     4  12  28  44  72 110 148 193 247 305 365 443
#     4  12  26  44  70 109 143 186 246 300 364 439
#     4  11  24  47  70 102 141 193 240 301 366 428
#     4  11  26  48  76 104 150 190 252 302 361 450
#
# _framework density 23.097987
#
# number of rings (size 3 to 8) (size 9 to 14) (size 15 to 20)
#    0.000    0.667    1.667    7.000    7.000    0.000 
#    0.000    0.000    0.000    0.000    0.000    0.000 
#    0.000    0.000    0.000    0.000    0.000    0.000 
#
# Total GULP energy -67145.722744 kJ/mol
# GULP energy per Si atom -5595.476895 kJ/mol
# Density = 2.304542 g / cm^3
# Si number density = 23.097987 Si / 1000 Ang^3
#
#
#
# Elastic Constant Matrix: (Units=GPa)
#
#
# Indices 1 2 3 4 5 6 
#
# 1 70.3190 58.2020 25.8506 0.0000 -11.0496 0.0000
# 2 58.2020 180.5297 60.1841 0.0000 -0.9124 0.0000
# 3 25.8506 60.1841 131.6837 0.0000 -14.0153 0.0000
# 4 0.0000 0.0000 0.0000 43.2264 0.0000 -8.1039
# 5 -11.0496 -0.9124 -14.0153 0.0000 26.7979 0.0000
# 6 0.0000 0.0000 0.0000 -8.1039 0.0000 37.9077
#
#
#
# Elastic Compliance Matrix: (Units=1/GPa)
#
#
# Indices 1 2 3 4 5 6 
#
# 1 0.021173 -0.006720 -0.000191 0.000000 0.008402 0.000000
# 2 -0.006720 0.008719 -0.003102 0.000000 -0.004096 0.000000
# 3 -0.000191 -0.003102 0.009562 0.000000 0.004816 0.000000
# 4 0.000000 0.000000 0.000000 0.024100 0.000000 0.005152
# 5 0.008402 -0.004096 0.004816 0.000000 0.043160 0.000000
# 6 0.000000 0.000000 0.000000 0.005152 0.000000 0.027481
#
#
# Mechanical properties :
#
#
# Convention : Reuss Voigt Hill
#
# Bulk Modulus (GPa) = 51.47037 74.55619 63.01328
# Shear Modulus (GPa) = 31.11439 37.47278 34.29358
#
# Velocity S-wave (km/s) = 3.67421 4.03220 3.85736
# Velocity P-wave (km/s) = 6.35072 7.35027 6.86870
#
# Compressibility (1/GPa) = 0.01942865
#
# Stress axis : x y z
#
# Youngs Moduli (GPa) = 47.22894 114.69055 104.58448
#
# Poissons Ratio (x) = 0.77073 0.01997
# Poissons Ratio (y) = 0.31738 0.32439
# Poissons Ratio (z) = 0.00902 0.35574
#
# Static dielectric constant tensor:
#      x y z
#    x 1.861950 0.000000 0.012800 
#    y 0.000000 1.880170 0.000000 
#    z 0.012800 0.000000 1.840040 
# 
# From -- ./inp_files/4770.got.cif
#   From: 2010.05.17/outbox.cif.g08.bks.cpg/sg9_3_cif.got.tgz:4770.got - 2010.06.03 20:04:27.
