data_PCOD9140554
_publ_section_title
;
Structure prediction by ZEFSAII (Michael W. Deem and Ramdas Pophale) SiO2 
 PCOD9140554
Probable space group: C C
;
_chemical_formula_sum "Si O2"
_cell_formula_units_Z 28
_cell_length_a 17.467289
_cell_length_b 8.731072
_cell_length_c 13.726540
_cell_angle_alpha 90.000000
_cell_angle_beta 144.809408
_cell_angle_gamma 90.000000
_cell_volume 1206.427888
_symmetry_space_group_name_H-M "C C"
_symmetry_group_IT_number 9
_symmetry_cell_setting 'monoclinic'
loop_
_space_group_symop_operation_xyz
x,y,z
x,-y,1/2+z
1/2+x,1/2+y,z
1/2+x,1/2-y,1/2+z
loop_
_atom_site_type_symbol
_atom_site_label
_atom_site_fract_x
_atom_site_fract_y
_atom_site_fract_z
Si Si1 0.551120 0.595850 0.305680
Si Si2 0.346070 0.325987 0.061683
Si Si3 0.979650 0.484288 0.638890
Si Si4 0.701199 0.976634 0.738292
Si Si5 0.736749 0.319017 0.825087
Si Si6 0.056032 0.590639 0.906486
Si Si7 0.779832 0.591526 0.151420
O O1 0.431408 0.477503 0.168961
O O2 0.607709 0.655648 0.259530
O O3 0.518597 0.734021 0.345666
O O4 0.672191 0.505122 0.480742
O O5 0.437725 0.186307 0.119860
O O6 0.287818 0.253472 0.101040
O O7 0.255754 0.355777 0.872578
O O8 0.856432 0.600262 0.508042
O O9 0.088977 0.530618 0.832466
O O10 0.046909 0.495221 0.605476
O O11 0.682949 0.925162 0.608468
O O12 0.763307 0.141528 0.826322
O O13 0.732123 0.394298 0.713144
O O14 0.923635 0.491630 0.793363
#
# Coordination Sequence:
#
# PCOD9140554 Si02
#       7
#     4   4   4   4   4   4   4
#     4  12  26  48  78 106 152 192 251 302 373 441
#     4  11  27  47  75 109 148 197 241 307 367 442
#     4  11  24  48  70 104 151 187 250 301 361 437
#     4  12  27  45  79 107 148 193 253 300 371 441
#     4  12  26  47  76 106 150 195 242 305 374 430
#     4  11  25  46  73 106 144 196 242 303 363 438
#     4  11  27  49  73 108 153 192 247 304 369 439
#
# _framework density 23.209012999999999
#
# number of rings (size 3 to 8) (size 9 to 14) (size 15 to 20)
#    0.000    0.571    5.714    1.714    8.000    0.000 
#    2.571    0.000    0.000    0.000    0.000    0.000 
#    0.000    0.000    0.000    0.000    0.000    0.000 
#
# Total GULP energy -78186.557924 kJ/mol
# GULP energy per Si atom -5584.754137 kJ/mol
# Density = 2.315619 g / cm^3
# Si number density = 23.209013 Si / 1000 Ang^3
#
#
#
# Elastic Constant Matrix: (Units=GPa)
#
#
# Indices 1 2 3 4 5 6 
#
# 1 72.3573 22.2697 35.1549 0.0000 -29.9955 0.0000
# 2 22.2697 139.5696 59.2122 0.0000 -16.3532 0.0000
# 3 35.1549 59.2122 146.4652 0.0000 -40.0468 0.0000
# 4 0.0000 0.0000 0.0000 26.6709 0.0000 2.8613
# 5 -29.9955 -16.3532 -40.0468 0.0000 35.0762 0.0000
# 6 0.0000 0.0000 0.0000 2.8613 0.0000 28.6129
#
#
#
# Elastic Compliance Matrix: (Units=1/GPa)
#
#
# Indices 1 2 3 4 5 6 
#
# 1 0.021666 -0.001484 0.000402 0.000000 0.018294 0.000000
# 2 -0.001484 0.008750 -0.003508 0.000000 -0.001194 0.000000
# 3 0.000402 -0.003508 0.011334 0.000000 0.011648 0.000000
# 4 0.000000 0.000000 0.000000 0.037901 0.000000 -0.003790
# 5 0.018294 -0.001194 0.011648 0.000000 0.056896 0.000000
# 6 0.000000 0.000000 0.000000 -0.003790 0.000000 0.035328
#
#
# Mechanical properties :
#
#
# Convention : Reuss Voigt Hill
#
# Bulk Modulus (GPa) = 30.70324 65.74065 48.22195
# Shear Modulus (GPa) = 26.05370 34.18902 30.12136
#
# Velocity S-wave (km/s) = 3.35411 3.84225 3.60645
# Velocity P-wave (km/s) = 5.31581 6.93331 6.17773
#
# Compressibility (1/GPa) = 0.03256985
#
# Stress axis : x y z
#
# Youngs Moduli (GPa) = 46.15597 114.28741 88.22847
#
# Poissons Ratio (x) = 0.16959 -0.03544
# Poissons Ratio (y) = 0.06849 0.30949
# Poissons Ratio (z) = -0.01854 0.40090
#
# Static dielectric constant tensor:
#      x y z
#    x 1.897960 0.000000 0.006700 
#    y 0.000000 1.901150 0.000000 
#    z 0.006700 0.000000 1.858990 
# 
# From -- ./inp_files/26741.got.cif
#   From: 2010.05.17/outbox.cif.g08.bks.cpg/sg9_14_cif.got.tgz:26741.got - 2010.06.03 20:04:27.
