data_PCOD9140603
_publ_section_title
;
Structure prediction by ZEFSAII (Michael W. Deem and Ramdas Pophale) SiO2 
 PCOD9140603
Probable space group: C C
;
_chemical_formula_sum "Si O2"
_cell_formula_units_Z 28
_cell_length_a 9.524339
_cell_length_b 11.007912
_cell_length_c 20.149024
_cell_angle_alpha 90.000000
_cell_angle_beta 30.031814
_cell_angle_gamma 90.000000
_cell_volume 1057.258589
_symmetry_space_group_name_H-M "C C"
_symmetry_group_IT_number 9
_symmetry_cell_setting 'monoclinic'
loop_
_space_group_symop_operation_xyz
x,y,z
x,-y,1/2+z
1/2+x,1/2+y,z
1/2+x,1/2-y,1/2+z
loop_
_atom_site_type_symbol
_atom_site_label
_atom_site_fract_x
_atom_site_fract_y
_atom_site_fract_z
Si Si1 0.805250 0.025982 0.842960
Si Si2 0.181265 0.954350 0.063970
Si Si3 0.148386 0.820446 0.481899
Si Si4 0.550045 0.172041 0.643306
Si Si5 0.677564 0.710816 0.215208
Si Si6 0.444305 0.766566 0.859723
Si Si7 0.080600 0.613474 0.162710
O O1 0.838594 0.134619 0.880981
O O2 0.944275 0.067734 0.715959
O O3 0.483425 0.986946 0.971156
O O4 0.996036 0.911093 0.781487
O O5 0.401296 0.661725 0.030272
O O6 0.248841 0.845711 0.986471
O O7 0.102467 0.068946 0.051089
O O8 0.458702 0.816577 0.325987
O O9 0.126197 0.699134 0.535763
O O10 0.755259 0.244341 0.609315
O O11 0.245256 0.237288 0.770632
O O12 0.560089 0.030457 0.656993
O O13 0.890519 0.676649 0.185389
O O14 0.484505 0.845311 0.775653
#
# Coordination Sequence:
#
# PCOD9140603 Si02
#       7
#     4   4   4   4   4   4   4
#     4  12  27  51  83 120 164 225 279 354 429 506
#     4  12  26  56  81 118 173 220 280 358 431 506
#     4  11  27  49  79 117 162 219 282 351 423 505
#     4  11  24  50  75 114 159 213 277 340 422 504
#     4  12  25  51  78 117 164 213 280 347 420 504
#     4  11  25  49  80 120 158 218 280 340 426 502
#     4  11  26  48  80 116 164 214 284 348 415 507
#
# _framework density 26.483588999999998
#
# number of rings (size 3 to 8) (size 9 to 14) (size 15 to 20)
#    0.000    0.571    4.286    2.571    4.000    4.571 
#   10.286    1.429    0.000    0.000    0.000    0.000 
#    0.000    0.000    0.000    0.000    0.000    0.000 
#
# Total GULP energy -78590.332787 kJ/mol
# GULP energy per Si atom -5613.595199 kJ/mol
# Density = 2.642331 g / cm^3
# Si number density = 26.483589 Si / 1000 Ang^3
#
#
#
# Elastic Constant Matrix: (Units=GPa)
#
#
# Indices 1 2 3 4 5 6 
#
# 1 220.1063 83.0645 26.9392 -0.0030 -21.9078 0.0020
# 2 83.0645 173.8188 23.8461 -0.0032 6.4552 0.0014
# 3 26.9392 23.8461 84.6617 -0.0120 10.8143 0.0042
# 4 -0.0030 -0.0032 -0.0120 45.2560 0.0046 10.4520
# 5 -21.9078 6.4552 10.8143 0.0046 33.3164 -0.0022
# 6 0.0020 0.0014 0.0042 10.4520 -0.0022 68.5662
#
#
#
# Elastic Compliance Matrix: (Units=1/GPa)
#
#
# Indices 1 2 3 4 5 6 
#
# 1 0.006462 -0.003030 -0.001899 -0.000001 0.005453 0.000000
# 2 -0.003030 0.007418 -0.000717 0.000001 -0.003197 0.000000
# 3 -0.001899 -0.000717 0.013312 0.000004 -0.005431 -0.000002
# 4 -0.000001 0.000001 0.000004 0.022903 -0.000006 -0.003491
# 5 0.005453 -0.003197 -0.005431 -0.000006 0.035983 0.000002
# 6 0.000000 0.000000 -0.000002 -0.003491 0.000002 0.015117
#
#
# Mechanical properties :
#
#
# Convention : Reuss Voigt Hill
#
# Bulk Modulus (GPa) = 62.89507 82.92072 72.90790
# Shear Modulus (GPa) = 42.44983 52.41020 47.43001
#
# Velocity S-wave (km/s) = 4.00793 4.45339 4.23652
# Velocity P-wave (km/s) = 6.72445 7.60406 7.17774
#
# Compressibility (1/GPa) = 0.01589950
#
# Stress axis : x y z
#
# Youngs Moduli (GPa) = 154.75385 134.80456 75.12200
#
# Poissons Ratio (x) = 0.40845 0.14267
# Poissons Ratio (y) = 0.46890 0.05386
# Poissons Ratio (z) = 0.29391 0.09665
#
# Static dielectric constant tensor:
#      x y z
#    x 2.077290 0.000000 -0.004590 
#    y 0.000000 2.035050 0.000000 
#    z -0.004590 0.000000 2.176090 
# 
# From -- ./inp_files/32444.got.cif
#   From: 2010.05.17/outbox.cif.g08.bks.cpg/sg9_17_cif.got.tgz:32444.got - 2010.06.03 20:04:27.
