data_PCOD9140668
_publ_section_title
;
Structure prediction by ZEFSAII (Michael W. Deem and Ramdas Pophale) SiO2 
 PCOD9140668
Probable space group: C C
;
_chemical_formula_sum "Si O2"
_cell_formula_units_Z 32
_cell_length_a 19.122417
_cell_length_b 9.049474
_cell_length_c 16.079041
_cell_angle_alpha 90.000000
_cell_angle_beta 151.236141
_cell_angle_gamma 90.000000
_cell_volume 1338.913820
_symmetry_space_group_name_H-M "C C"
_symmetry_group_IT_number 9
_symmetry_cell_setting 'monoclinic'
loop_
_space_group_symop_operation_xyz
x,y,z
x,-y,1/2+z
1/2+x,1/2+y,z
1/2+x,1/2-y,1/2+z
loop_
_atom_site_type_symbol
_atom_site_label
_atom_site_fract_x
_atom_site_fract_y
_atom_site_fract_z
Si Si1 0.000000 0.090912 0.680100
Si Si2 0.820543 0.107049 0.665179
Si Si3 0.437266 0.255973 0.622747
Si Si4 0.724216 0.230247 0.329341
Si Si5 0.537787 0.961336 0.090424
Si Si6 0.201590 0.292763 0.503597
Si Si7 0.267854 0.082169 0.718750
Si Si8 0.104453 0.221777 0.033608
O O1 0.158710 0.159272 0.830193
O O2 0.917976 0.106294 0.683114
O O3 0.893139 0.190146 0.512447
O O4 0.994820 0.916962 0.654017
O O5 0.676779 0.206071 0.526563
O O6 0.764017 0.939015 0.613130
O O7 0.935831 0.176563 0.849699
O O8 0.447337 0.132870 0.562999
O O9 0.278254 0.279891 0.493843
O O10 0.533356 0.206837 0.803156
O O11 0.701126 0.308348 0.217355
O O12 0.640701 0.075332 0.244937
O O13 0.624211 0.843960 0.125063
O O14 0.432435 0.049183 0.917679
O O15 0.240461 0.154197 0.601104
O O16 0.187338 0.927375 0.638797
#
# Coordination Sequence:
#
# PCOD9140668 Si02
#       8
#     4   4   4   4   4   4   4   4
#     4  11  25  46  71 106 142 188 237 294 356 425
#     4  11  25  46  71 106 142 188 237 294 356 425
#     4  11  27  47  74 100 143 190 241 292 358 434
#     4  12  26  45  73 102 147 184 239 295 357 430
#     4  12  27  45  72 109 140 189 238 298 362 423
#     4  11  27  47  74 100 143 190 241 292 358 434
#     4  12  27  45  72 109 140 189 238 298 362 423
#     4  12  26  45  73 102 147 184 239 295 357 430
#
# _framework density 23.899972000000002
#
# number of rings (size 3 to 8) (size 9 to 14) (size 15 to 20)
#    0.000    0.500    2.500    5.250   10.500    3.000 
#    0.000    0.000    0.000    0.000    0.000    0.000 
#    0.000    0.000    0.000    0.000    0.000    0.000 
#
# Total GULP energy -89560.678906 kJ/mol
# GULP energy per Si atom -5597.542432 kJ/mol
# Density = 2.384557 g / cm^3
# Si number density = 23.899972 Si / 1000 Ang^3
#
#
#
# Elastic Constant Matrix: (Units=GPa)
#
#
# Indices 1 2 3 4 5 6 
#
# 1 53.1668 23.2988 -12.5405 0.0000 1.0590 0.0000
# 2 23.2988 97.8788 1.3884 0.0000 5.8619 0.0000
# 3 -12.5405 1.3884 46.8750 0.0000 14.7871 0.0000
# 4 0.0000 0.0000 0.0000 39.6162 0.0000 3.4846
# 5 1.0590 5.8619 14.7871 0.0000 31.7778 0.0000
# 6 0.0000 0.0000 0.0000 3.4846 0.0000 46.6195
#
#
#
# Elastic Compliance Matrix: (Units=1/GPa)
#
#
# Indices 1 2 3 4 5 6 
#
# 1 0.022950 -0.005377 0.007299 0.000000 -0.003169 0.000000
# 2 -0.005377 0.011595 -0.001364 0.000000 -0.001325 0.000000
# 3 0.007299 -0.001364 0.027336 0.000000 -0.012712 0.000000
# 4 0.000000 0.000000 0.000000 0.025409 0.000000 -0.001899
# 5 -0.003169 -0.001325 -0.012712 0.000000 0.037734 0.000000
# 6 0.000000 0.000000 0.000000 -0.001899 0.000000 0.021592
#
#
# Mechanical properties :
#
#
# Convention : Reuss Voigt Hill
#
# Bulk Modulus (GPa) = 15.87351 24.69043 20.28197
# Shear Modulus (GPa) = 30.03014 35.98760 33.00887
#
# Velocity S-wave (km/s) = 3.54855 3.88462 3.72038
# Velocity P-wave (km/s) = 4.84207 5.52028 5.19226
#
# Compressibility (1/GPa) = 0.06299805
#
# Stress axis : x y z
#
# Youngs Moduli (GPa) = 43.57381 86.24217 36.58113
#
# Poissons Ratio (x) = 0.46369 -0.26700
# Poissons Ratio (y) = 0.23428 0.04989
# Poissons Ratio (z) = -0.31803 0.11762
#
# Static dielectric constant tensor:
#      x y z
#    x 1.908760 0.000000 -0.014030 
#    y 0.000000 1.854060 0.000000 
#    z -0.014030 0.000000 1.932040 
# 
# From -- ./inp_files/31207.got.cif
#   From: 2010.05.17/outbox.cif.g08.bks.cpg/sg9_16_cif.got.tgz:31207.got - 2010.06.03 20:04:27.
