data_PCOD9140657
_publ_section_title
;
Structure prediction by ZEFSAII (Michael W. Deem and Ramdas Pophale) SiO2 
 PCOD9140657
Probable space group: C C
;
_chemical_formula_sum "Si O2"
_cell_formula_units_Z 28
_cell_length_a 10.234685
_cell_length_b 9.314910
_cell_length_c 11.648946
_cell_angle_alpha 90.000000
_cell_angle_beta 94.671808
_cell_angle_gamma 90.000000
_cell_volume 1106.864519
_symmetry_space_group_name_H-M "C C"
_symmetry_group_IT_number 9
_symmetry_cell_setting 'monoclinic'
loop_
_space_group_symop_operation_xyz
x,y,z
x,-y,1/2+z
1/2+x,1/2+y,z
1/2+x,1/2-y,1/2+z
loop_
_atom_site_type_symbol
_atom_site_label
_atom_site_fract_x
_atom_site_fract_y
_atom_site_fract_z
Si Si1 0.777180 0.952455 0.071690
Si Si2 0.114110 0.729199 0.397028
Si Si3 0.986565 0.007230 0.947405
Si Si4 0.234926 0.242915 0.662517
Si Si5 0.965580 0.693362 0.856679
Si Si6 0.749255 0.180847 0.804633
Si Si7 0.844355 0.577197 0.454863
O O1 0.757452 0.842373 0.171400
O O2 0.712432 0.105497 0.095738
O O3 0.728859 0.868823 0.955775
O O4 0.929075 0.996309 0.070594
O O5 0.128320 0.749834 0.259783
O O6 0.986202 0.658659 0.449107
O O7 0.109723 0.891935 0.441946
O O8 0.002459 0.845397 0.911917
O O9 0.868405 0.088168 0.868638
O O10 0.369657 0.228817 0.744389
O O11 0.265674 0.126928 0.563593
O O12 0.104761 0.626887 0.829383
O O13 0.888484 0.585083 0.934410
O O14 0.769176 0.344983 0.843984
#
# Coordination Sequence:
#
# PCOD9140657 Si02
#       7
#     4   4   4   4   4   4   4
#     4  12  21  46  81 108 151 203 249 319 386 456
#     4  11  25  49  80 109 152 202 258 317 385 456
#     4  11  25  49  72 109 151 196 259 312 379 460
#     4  12  25  48  78 113 158 203 259 312 391 458
#     4  12  26  48  74 110 156 199 252 318 380 454
#     4  11  25  45  75 111 150 198 257 312 388 452
#     4  11  27  49  74 116 156 197 264 314 381 466
#
# _framework density 25.296679999999999
#
# number of rings (size 3 to 8) (size 9 to 14) (size 15 to 20)
#    0.000    0.571    5.714    2.571    2.000    1.143 
#    5.143    0.000    0.000    0.000    0.000    0.000 
#    0.000    0.000    0.000    0.000    0.000    0.000 
#
# Total GULP energy -78179.157046 kJ/mol
# GULP energy per Si atom -5584.225503 kJ/mol
# Density = 2.523910 g / cm^3
# Si number density = 25.296680 Si / 1000 Ang^3
#
#
#
# Elastic Constant Matrix: (Units=GPa)
#
#
# Indices 1 2 3 4 5 6 
#
# 1 90.0961 13.7125 15.3558 0.0000 -11.9481 0.0000
# 2 13.7125 186.9602 55.2947 0.0000 -7.7063 0.0000
# 3 15.3558 55.2947 96.1924 0.0000 -26.6021 0.0000
# 4 0.0000 0.0000 0.0000 34.5731 0.0000 -1.6579
# 5 -11.9481 -7.7063 -26.6021 0.0000 32.8658 0.0000
# 6 0.0000 0.0000 0.0000 -1.6579 0.0000 41.6873
#
#
#
# Elastic Compliance Matrix: (Units=1/GPa)
#
#
# Indices 1 2 3 4 5 6 
#
# 1 0.011767 -0.000552 -0.000533 0.000000 0.003717 0.000000
# 2 -0.000552 0.006565 -0.004272 0.000000 -0.002119 0.000000
# 3 -0.000533 -0.004272 0.016242 0.000000 0.011951 0.000000
# 4 0.000000 0.000000 0.000000 0.028979 0.000000 0.001153
# 5 0.003717 -0.002119 0.011951 0.000000 0.040954 0.000000
# 6 0.000000 0.000000 0.000000 0.001153 0.000000 0.024034
#
#
# Mechanical properties :
#
#
# Convention : Reuss Voigt Hill
#
# Bulk Modulus (GPa) = 41.91192 60.21941 51.06567
# Shear Modulus (GPa) = 33.96532 41.08429 37.52481
#
# Velocity S-wave (km/s) = 3.66823 4.03438 3.85566
# Velocity P-wave (km/s) = 5.87753 6.74971 6.32866
#
# Compressibility (1/GPa) = 0.02385956
#
# Stress axis : x y z
#
# Youngs Moduli (GPa) = 84.98291 152.31573 61.57066
#
# Poissons Ratio (x) = 0.08410 0.03283
# Poissons Ratio (y) = 0.04692 0.26302
# Poissons Ratio (z) = 0.04531 0.65067
#
# Static dielectric constant tensor:
#      x y z
#    x 2.150580 0.000000 -0.046270 
#    y 0.000000 2.013260 0.000000 
#    z -0.046270 0.000000 2.001500 
# 
# From -- ./inp_files/15945.got.cif
#   From: 2010.05.17/outbox.cif.g08.bks.cpg/sg9_8_cif.got.tgz:15945.got - 2010.06.03 20:04:27.
