data_PCOD9140781
_publ_section_title
;
Structure prediction by ZEFSAII (Michael W. Deem and Ramdas Pophale) SiO2 
 PCOD9140781
Probable space group: C C
;
_chemical_formula_sum "Si O2"
_cell_formula_units_Z 28
_cell_length_a 10.914570
_cell_length_b 7.505300
_cell_length_c 19.060216
_cell_angle_alpha 90.000000
_cell_angle_beta 138.085318
_cell_angle_gamma 90.000000
_cell_volume 1043.023495
_symmetry_space_group_name_H-M "C C"
_symmetry_group_IT_number 9
_symmetry_cell_setting 'monoclinic'
loop_
_space_group_symop_operation_xyz
x,y,z
x,-y,1/2+z
1/2+x,1/2+y,z
1/2+x,1/2-y,1/2+z
loop_
_atom_site_type_symbol
_atom_site_label
_atom_site_fract_x
_atom_site_fract_y
_atom_site_fract_z
Si Si1 0.205490 0.536386 0.989940
Si Si2 0.097421 0.938141 0.801994
Si Si3 0.034439 0.687532 0.236132
Si Si4 0.914534 0.935752 0.954198
Si Si5 0.829974 0.565211 0.280093
Si Si6 0.728929 0.250847 0.136921
Si Si7 0.243061 0.106759 0.006059
O O1 0.330674 0.569550 0.975859
O O2 0.217938 0.321352 0.004534
O O3 0.989714 0.553272 0.883644
O O4 0.264970 0.672168 0.074587
O O5 0.221747 0.835524 0.796675
O O6 0.211714 0.013176 0.917008
O O7 0.053779 0.104177 0.731231
O O8 0.905664 0.853464 0.745199
O O9 0.933743 0.692887 0.269034
O O10 0.237157 0.615730 0.334218
O O11 0.927759 0.577626 0.131390
O O12 0.076888 0.020488 0.979733
O O13 0.004942 0.762612 0.032693
O O14 0.741766 0.435651 0.184370
#
# Coordination Sequence:
#
# PCOD9140781 Si02
#       7
#     4   4   4   4   4   4   4
#     4  11  26  49  74 111 155 197 258 329 380 464
#     4  12  27  47  77 115 152 204 259 313 402 460
#     4  11  25  52  77 107 163 202 249 333 386 453
#     4  11  26  51  75 112 163 197 264 325 381 472
#     4  11  26  49  72 110 158 195 258 324 376 469
#     4  12  26  45  79 113 150 207 256 315 397 457
#     4  12  26  49  80 114 151 208 256 319 402 453
#
# _framework density 26.845033000000001
#
# number of rings (size 3 to 8) (size 9 to 14) (size 15 to 20)
#    0.000    0.571    5.714    1.714    4.000    2.286 
#    0.000    2.857    0.000    0.000    0.000    0.000 
#    0.000    0.000    0.000    0.000    0.000    0.000 
#
# Total GULP energy -78008.352012 kJ/mol
# GULP energy per Si atom -5572.025144 kJ/mol
# Density = 2.678393 g / cm^3
# Si number density = 26.845033 Si / 1000 Ang^3
#
#
#
# Elastic Constant Matrix: (Units=GPa)
#
#
# Indices 1 2 3 4 5 6 
#
# 1 127.5627 31.2526 54.1734 0.0000 -24.4277 0.0000
# 2 31.2526 69.6362 24.0582 0.0000 1.9678 0.0000
# 3 54.1734 24.0582 196.7024 0.0000 26.6407 0.0000
# 4 0.0000 0.0000 0.0000 39.0088 0.0000 0.0906
# 5 -24.4277 1.9678 26.6407 0.0000 42.2118 0.0000
# 6 0.0000 0.0000 0.0000 0.0906 0.0000 23.0015
#
#
#
# Elastic Compliance Matrix: (Units=1/GPa)
#
#
# Indices 1 2 3 4 5 6 
#
# 1 0.012792 -0.004523 -0.004375 0.000000 0.010375 0.000000
# 2 -0.004523 0.016603 -0.000356 0.000000 -0.003166 0.000000
# 3 -0.004375 -0.000356 0.007297 0.000000 -0.007120 0.000000
# 4 0.000000 0.000000 0.000000 0.025635 0.000000 -0.000101
# 5 0.010375 -0.003166 -0.007120 0.000000 0.034335 0.000000
# 6 0.000000 0.000000 0.000000 -0.000101 0.000000 0.043476
#
#
# Mechanical properties :
#
#
# Convention : Reuss Voigt Hill
#
# Bulk Modulus (GPa) = 54.99472 68.09663 61.54567
# Shear Modulus (GPa) = 30.35701 39.80556 35.08128
#
# Velocity S-wave (km/s) = 3.36642 3.85488 3.61890
# Velocity P-wave (km/s) = 5.97000 6.72570 6.35909
#
# Compressibility (1/GPa) = 0.01818356
#
# Stress axis : x y z
#
# Youngs Moduli (GPa) = 78.17398 60.23134 137.04967
#
# Poissons Ratio (x) = 0.27241 0.59959
# Poissons Ratio (y) = 0.35356 0.04882
# Poissons Ratio (z) = 0.34201 0.02145
#
# Static dielectric constant tensor:
#      x y z
#    x 2.259270 0.000000 0.025120 
#    y 0.000000 2.125320 0.000000 
#    z 0.025120 0.000000 2.190130 
# 
# From -- ./inp_files/33186.got.cif
#   From: 2010.05.17/outbox.cif.g08.bks.cpg/sg9_17_cif.got.tgz:33186.got - 2010.06.03 20:04:27.
