data_PCOD9140744
_publ_section_title
;
Structure prediction by ZEFSAII (Michael W. Deem and Ramdas Pophale) SiO2 
 PCOD9140744
Probable space group: C C
;
_chemical_formula_sum "Si O2"
_cell_formula_units_Z 28
_cell_length_a 23.207609
_cell_length_b 7.994939
_cell_length_c 9.260190
_cell_angle_alpha 90.000000
_cell_angle_beta 39.124387
_cell_angle_gamma 90.000000
_cell_volume 1084.173985
_symmetry_space_group_name_H-M "C C"
_symmetry_group_IT_number 9
_symmetry_cell_setting 'monoclinic'
loop_
_space_group_symop_operation_xyz
x,y,z
x,-y,1/2+z
1/2+x,1/2+y,z
1/2+x,1/2-y,1/2+z
loop_
_atom_site_type_symbol
_atom_site_label
_atom_site_fract_x
_atom_site_fract_y
_atom_site_fract_z
Si Si1 0.843760 0.347414 0.094750
Si Si2 0.170451 0.985532 0.044926
Si Si3 0.703581 0.883417 0.433318
Si Si4 0.590794 0.972237 0.912804
Si Si5 0.394188 0.488876 0.637079
Si Si6 0.918875 0.357996 0.642210
Si Si7 0.549404 0.602928 0.047722
O O1 0.741891 0.368621 0.362815
O O2 0.898933 0.493693 0.069507
O O3 0.892739 0.172844 0.037169
O O4 0.845388 0.363171 0.917719
O O5 0.218485 0.814575 0.899584
O O6 0.076797 0.009019 0.138930
O O7 0.131684 0.959036 0.280478
O O8 0.616674 0.914370 0.702489
O O9 0.785984 0.975454 0.351427
O O10 0.676745 0.956622 0.331854
O O11 0.557653 0.801714 0.051063
O O12 0.512621 0.108307 0.045693
O O13 0.424015 0.680935 0.552326
O O14 0.452454 0.437563 0.664139
#
# Coordination Sequence:
#
# PCOD9140744 Si02
#       7
#     4   4   4   4   4   4   4
#     4  12  27  49  78 111 152 197 254 313 379 448
#     4  11  25  49  72 107 143 199 241 311 369 451
#     4  11  26  45  74 105 150 186 254 302 375 444
#     4  11  25  49  72 107 143 199 241 311 369 451
#     4  12  28  46  74 114 148 198 252 314 370 454
#     4  12  27  49  78 111 152 197 254 313 379 448
#     4  11  26  45  74 105 150 186 254 302 375 444
#
# _framework density 25.826111999999998
#
# number of rings (size 3 to 8) (size 9 to 14) (size 15 to 20)
#    0.000    0.571    2.857    3.429    8.000    8.000 
#    0.000    0.000    0.000    0.000    0.000    0.000 
#    0.000    0.000    0.000    0.000    0.000    0.000 
#
# Total GULP energy -78386.339911 kJ/mol
# GULP energy per Si atom -5599.024279 kJ/mol
# Density = 2.576733 g / cm^3
# Si number density = 25.826112 Si / 1000 Ang^3
#
#
#
# Elastic Constant Matrix: (Units=GPa)
#
#
# Indices 1 2 3 4 5 6 
#
# 1 120.9227 41.7784 29.0813 0.0000 -16.3898 0.0000
# 2 41.7784 156.3881 51.6608 0.0000 10.5448 0.0000
# 3 29.0813 51.6608 71.6326 0.0000 2.2027 0.0000
# 4 0.0000 0.0000 0.0000 32.7999 0.0000 -4.9496
# 5 -16.3898 10.5448 2.2027 0.0000 48.5656 0.0000
# 6 0.0000 0.0000 0.0000 -4.9496 0.0000 54.4242
#
#
#
# Elastic Compliance Matrix: (Units=1/GPa)
#
#
# Indices 1 2 3 4 5 6 
#
# 1 0.010198 -0.002083 -0.002762 0.000000 0.004019 0.000000
# 2 -0.002083 0.008938 -0.005527 0.000000 -0.002393 0.000000
# 3 -0.002762 -0.005527 0.019085 0.000000 -0.000598 0.000000
# 4 0.000000 0.000000 0.000000 0.030912 0.000000 0.002811
# 5 0.004019 -0.002393 -0.000598 0.000000 0.022494 0.000000
# 6 0.000000 0.000000 0.000000 0.002811 0.000000 0.018630
#
#
# Mechanical properties :
#
#
# Convention : Reuss Voigt Hill
#
# Bulk Modulus (GPa) = 57.21166 65.99825 61.60496
# Shear Modulus (GPa) = 36.54266 42.25280 39.39773
#
# Velocity S-wave (km/s) = 3.76566 4.04920 3.91000
# Velocity P-wave (km/s) = 6.41153 6.88997 6.65505
#
# Compressibility (1/GPa) = 0.01747895
#
# Stress axis : x y z
#
# Youngs Moduli (GPa) = 98.05454 111.88357 52.39622
#
# Poissons Ratio (x) = 0.23308 0.14469
# Poissons Ratio (y) = 0.20427 0.28957
# Poissons Ratio (z) = 0.27078 0.61833
#
# Static dielectric constant tensor:
#      x y z
#    x 1.980830 0.000000 -0.058080 
#    y 0.000000 1.966360 0.000000 
#    z -0.058080 0.000000 2.088740 
# 
# From -- ./inp_files/11418.got.cif
#   From: 2010.05.17/outbox.cif.g08.bks.cpg/sg9_6_cif.got.tgz:11418.got - 2010.06.03 20:04:27.
