data_PCOD9140883
_publ_section_title
;
Structure prediction by ZEFSAII (Michael W. Deem and Ramdas Pophale) SiO2 
 PCOD9140883
Probable space group: C C
;
_chemical_formula_sum "Si O2"
_cell_formula_units_Z 28
_cell_length_a 20.005061
_cell_length_b 8.773993
_cell_length_c 9.019964
_cell_angle_alpha 90.000000
_cell_angle_beta 139.637864
_cell_angle_gamma 90.000000
_cell_volume 1025.321042
_symmetry_space_group_name_H-M "C C"
_symmetry_group_IT_number 9
_symmetry_cell_setting 'monoclinic'
loop_
_space_group_symop_operation_xyz
x,y,z
x,-y,1/2+z
1/2+x,1/2+y,z
1/2+x,1/2-y,1/2+z
loop_
_atom_site_type_symbol
_atom_site_label
_atom_site_fract_x
_atom_site_fract_y
_atom_site_fract_z
Si Si1 0.850430 0.938231 0.795430
Si Si2 0.371988 0.290108 0.146619
Si Si3 0.642242 0.976963 0.256225
Si Si4 0.472756 0.229927 0.553537
Si Si5 0.691860 0.555785 0.922748
Si Si6 0.746705 0.310867 0.809831
Si Si7 0.532681 0.714359 0.461322
O O1 0.742292 0.982702 0.536865
O O2 0.694820 0.854379 0.232363
O O3 0.902486 0.103777 0.847256
O O4 0.914228 0.807742 0.818061
O O5 0.471286 0.197136 0.362294
O O6 0.276232 0.178793 0.003157
O O7 0.357695 0.389000 0.977778
O O8 0.552310 0.912726 0.206203
O O9 0.596022 0.131510 0.107205
O O10 0.362987 0.179824 0.445129
O O11 0.527683 0.329670 0.780012
O O12 0.686037 0.590323 0.085150
O O13 0.731289 0.391195 0.941444
O O14 0.588785 0.592373 0.661124
#
# Coordination Sequence:
#
# PCOD9140883 Si02
#       7
#     4   4   4   4   4   4   4
#     4  12  27  49  82 119 175 219 283 361 421 525
#     4  11  27  50  79 120 173 221 285 355 436 508
#     4  12  29  50  84 121 170 222 285 360 425 523
#     4  11  28  48  81 119 162 220 281 342 438 500
#     4  11  28  48  81 115 166 225 279 350 429 508
#     4  11  29  53  77 122 169 214 288 353 424 513
#     4  12  28  48  84 118 165 225 285 343 445 503
#
# _framework density 27.308519
#
# number of rings (size 3 to 8) (size 9 to 14) (size 15 to 20)
#    0.000    0.571    2.857    1.714   18.000    0.000 
#    0.000    0.000    0.000    0.000    0.000    0.000 
#    0.000    0.000    0.000    0.000    0.000    0.000 
#
# Total GULP energy -78043.732703 kJ/mol
# GULP energy per Si atom -5574.552336 kJ/mol
# Density = 2.724636 g / cm^3
# Si number density = 27.308519 Si / 1000 Ang^3
#
#
#
# Elastic Constant Matrix: (Units=GPa)
#
#
# Indices 1 2 3 4 5 6 
#
# 1 115.2575 60.6723 60.2101 0.0000 -6.6936 0.0000
# 2 60.6723 112.7232 61.5435 0.0000 8.3394 0.0000
# 3 60.2101 61.5435 194.2720 0.0000 -6.1523 0.0000
# 4 0.0000 0.0000 0.0000 47.6864 0.0000 -11.3691
# 5 -6.6936 8.3394 -6.1523 0.0000 61.9047 0.0000
# 6 0.0000 0.0000 0.0000 -11.3691 0.0000 59.0269
#
#
#
# Elastic Compliance Matrix: (Units=1/GPa)
#
#
# Indices 1 2 3 4 5 6 
#
# 1 0.013058 -0.006049 -0.002066 0.000000 0.002021 0.000000
# 2 -0.006049 0.013730 -0.002562 0.000000 -0.002758 0.000000
# 3 -0.002066 -0.002562 0.006624 0.000000 0.000780 0.000000
# 4 0.000000 0.000000 0.000000 0.021980 0.000000 0.004233
# 5 0.002021 -0.002758 0.000780 0.000000 0.016822 0.000000
# 6 0.000000 0.000000 0.000000 0.004233 0.000000 0.017757
#
#
# Mechanical properties :
#
#
# Convention : Reuss Voigt Hill
#
# Bulk Modulus (GPa) = 82.94587 87.45605 85.20096
# Shear Modulus (GPa) = 43.34828 49.71206 46.53017
#
# Velocity S-wave (km/s) = 3.98848 4.27123 4.13227
# Velocity P-wave (km/s) = 7.18681 7.51127 7.35083
#
# Compressibility (1/GPa) = 0.01205606
#
# Stress axis : x y z
#
# Youngs Moduli (GPa) = 76.58369 72.83195 150.96116
#
# Poissons Ratio (x) = 0.44059 0.31196
# Poissons Ratio (y) = 0.46329 0.38677
# Poissons Ratio (z) = 0.15826 0.18660
#
# Static dielectric constant tensor:
#      x y z
#    x 2.252870 0.000000 0.041620 
#    y 0.000000 2.136890 0.000000 
#    z 0.041620 0.000000 2.271920 
# 
# From -- ./inp_files/21197.got.cif
#   From: 2010.05.17/outbox.cif.g08.bks.cpg/sg9_11_cif.got.tgz:21197.got - 2010.06.03 20:04:27.
