data_PCOD9140185
_publ_section_title
;
Structure prediction by ZEFSAII (Michael W. Deem and Ramdas Pophale) SiO2 
 PCOD9140185
Probable space group: C C
;
_chemical_formula_sum "Si O2"
_cell_formula_units_Z 32
_cell_length_a 8.404581
_cell_length_b 11.030556
_cell_length_c 20.074399
_cell_angle_alpha 90.000000
_cell_angle_beta 133.100299
_cell_angle_gamma 90.000000
_cell_volume 1358.855554
_symmetry_space_group_name_H-M "C C"
_symmetry_group_IT_number 9
_symmetry_cell_setting 'monoclinic'
loop_
_space_group_symop_operation_xyz
x,y,z
x,-y,1/2+z
1/2+x,1/2+y,z
1/2+x,1/2-y,1/2+z
loop_
_atom_site_type_symbol
_atom_site_label
_atom_site_fract_x
_atom_site_fract_y
_atom_site_fract_z
Si Si1 0.018860 0.810621 0.641810
Si Si2 0.180106 0.856478 0.892318
Si Si3 0.184966 0.571139 0.231196
Si Si4 0.220027 0.006690 0.790654
Si Si5 0.644312 0.916917 0.350034
Si Si6 0.816551 0.421579 0.079830
Si Si7 0.884647 0.802598 0.157925
Si Si8 0.887174 0.966398 0.033363
O O1 0.172137 0.885509 0.734637
O O2 0.160470 0.742651 0.625994
O O3 0.885641 0.702691 0.636036
O O4 0.856767 0.910624 0.566354
O O5 0.044986 0.310989 0.709529
O O6 0.236720 0.717450 0.890579
O O7 0.306912 0.958151 0.885795
O O8 0.212936 0.884264 0.979383
O O9 0.432160 0.617132 0.296838
O O10 0.185271 0.469133 0.289015
O O11 0.027034 0.507779 0.131266
O O12 0.392065 0.084617 0.798536
O O13 0.002147 0.088037 0.731484
O O14 0.741075 0.019927 0.426854
O O15 0.633588 0.477367 0.075260
O O16 0.860637 0.854140 0.075805
#
# Coordination Sequence:
#
# PCOD9140185 Si02
#       8
#     4   4   4   4   4   4   4   4
#     4  11  23  45  67  99 138 179 234 286 350 416
#     4  12  27  46  71 105 140 185 240 289 350 421
#     4  12  24  47  73 101 143 186 230 292 354 416
#     4  11  25  43  70 101 134 183 232 287 351 417
#     4  12  24  48  70  98 146 184 231 296 353 411
#     4  12  25  47  70 103 144 184 233 293 349 417
#     4  11  23  45  70 100 137 182 234 284 353 421
#     4  11  25  43  69 101 140 185 228 289 352 411
#
# _framework density 23.549229
#
# number of rings (size 3 to 8) (size 9 to 14) (size 15 to 20)
#    0.000    0.500    6.250    2.250    3.500    0.000 
#    4.500    0.000    0.000    0.000    0.000    0.000 
#    0.000    0.000    0.000    0.000    0.000    0.000 
#
# Total GULP energy -89429.677429 kJ/mol
# GULP energy per Si atom -5589.354839 kJ/mol
# Density = 2.349563 g / cm^3
# Si number density = 23.549229 Si / 1000 Ang^3
#
#
#
# Elastic Constant Matrix: (Units=GPa)
#
#
# Indices 1 2 3 4 5 6 
#
# 1 57.3036 14.5482 3.0582 0.0000 4.0121 0.0000
# 2 14.5482 112.7350 26.0548 0.0000 -12.3266 0.0000
# 3 3.0582 26.0548 78.5732 0.0000 -11.8947 0.0000
# 4 0.0000 0.0000 0.0000 35.7097 0.0000 -2.2223
# 5 4.0121 -12.3266 -11.8947 0.0000 38.3994 0.0000
# 6 0.0000 0.0000 0.0000 -2.2223 0.0000 38.0287
#
#
#
# Elastic Compliance Matrix: (Units=1/GPa)
#
#
# Indices 1 2 3 4 5 6 
#
# 1 0.018327 -0.002611 -0.000277 0.000000 -0.002839 0.000000
# 2 -0.002611 0.010159 -0.002867 0.000000 0.002646 0.000000
# 3 -0.000277 -0.002867 0.014220 0.000000 0.003514 0.000000
# 4 0.000000 0.000000 0.000000 0.028106 0.000000 0.001642
# 5 -0.002839 0.002646 0.003514 0.000000 0.028277 0.000000
# 6 0.000000 0.000000 0.000000 0.001642 0.000000 0.026392
#
#
# Mechanical properties :
#
#
# Convention : Reuss Voigt Hill
#
# Bulk Modulus (GPa) = 32.05489 37.32603 34.69046
# Shear Modulus (GPa) = 33.92352 36.09094 35.00723
#
# Velocity S-wave (km/s) = 3.79956 3.91906 3.85977
# Velocity P-wave (km/s) = 5.73500 6.03020 5.88445
#
# Compressibility (1/GPa) = 0.03119649
#
# Stress axis : x y z
#
# Youngs Moduli (GPa) = 54.56285 98.43296 70.32235
#
# Poissons Ratio (x) = 0.25706 0.01949
# Poissons Ratio (y) = 0.14249 0.20158
# Poissons Ratio (z) = 0.01512 0.28216
#
# Static dielectric constant tensor:
#      x y z
#    x 1.940230 0.000000 0.007530 
#    y 0.000000 1.852810 0.000000 
#    z 0.007530 0.000000 1.925980 
# 
# From -- ./inp_files/29095.got.cif
#   From: 2010.05.17/outbox.cif.g08.bks.cpg/sg9_15_cif.got.tgz:29095.got - 2010.06.03 20:04:27.
