data_PCOD9140034
_publ_section_title
;
Structure prediction by ZEFSAII (Michael W. Deem and Ramdas Pophale) SiO2 
 PCOD9140034
Probable space group: C C
;
_chemical_formula_sum "Si O2"
_cell_formula_units_Z 32
_cell_length_a 6.378184
_cell_length_b 16.447340
_cell_length_c 16.530975
_cell_angle_alpha 90.000000
_cell_angle_beta 122.253984
_cell_angle_gamma 90.000000
_cell_volume 1466.569827
_symmetry_space_group_name_H-M "C C"
_symmetry_group_IT_number 9
_symmetry_cell_setting 'monoclinic'
loop_
_space_group_symop_operation_xyz
x,y,z
x,-y,1/2+z
1/2+x,1/2+y,z
1/2+x,1/2-y,1/2+z
loop_
_atom_site_type_symbol
_atom_site_label
_atom_site_fract_x
_atom_site_fract_y
_atom_site_fract_z
Si Si1 0.570950 0.822664 0.119570
Si Si2 0.803365 0.520174 0.263995
Si Si3 0.808063 0.063922 0.908525
Si Si4 0.523012 0.393576 0.287507
Si Si5 0.113152 0.935312 0.061782
Si Si6 0.203522 0.199595 0.289392
Si Si7 0.730800 0.793696 0.980314
Si Si8 0.985925 0.289542 0.394124
O O1 0.322518 0.876152 0.067055
O O2 0.594939 0.763021 0.201679
O O3 0.793360 0.886002 0.180824
O O4 0.630454 0.774527 0.049330
O O5 0.663667 0.478138 0.310027
O O6 0.718352 0.469858 0.167726
O O7 0.705356 0.611568 0.247311
O O8 0.094106 0.499655 0.335592
O O9 0.674503 0.134472 0.932537
O O10 0.915469 0.112232 0.854477
O O11 0.027461 0.013666 0.994011
O O12 0.727123 0.326542 0.308211
O O13 0.867681 0.880021 0.017524
O O14 0.493018 0.205465 0.373325
O O15 0.067762 0.219864 0.347210
O O16 0.929161 0.738436 0.973677
#
# Coordination Sequence:
#
# PCOD9140034 Si02
#       8
#     4   4   4   4   4   4   4   4
#     4  12  25  47  77 106 150 194 252 305 371 451
#     4  11  25  44  73 107 146 194 245 306 372 439
#     4  11  24  47  75 105 148 198 245 305 371 439
#     4  11  22  46  74 100 146 199 238 301 374 438
#     4  12  26  45  75 109 146 194 251 307 372 442
#     4  12  26  48  74 111 150 194 248 313 373 435
#     4  12  26  45  73 111 147 198 247 308 372 441
#     4  11  24  46  75 105 147 199 240 305 377 437
#
# _framework density 21.819621000000001
#
# number of rings (size 3 to 8) (size 9 to 14) (size 15 to 20)
#    0.000    0.500    6.250    1.500    3.500    3.000 
#    0.000    0.000    2.750    0.000    0.000    0.000 
#    0.000    0.000    0.000    0.000    0.000    0.000 
#
# Total GULP energy -89312.952834 kJ/mol
# GULP energy per Si atom -5582.059552 kJ/mol
# Density = 2.176996 g / cm^3
# Si number density = 21.819621 Si / 1000 Ang^3
#
#
#
# Elastic Constant Matrix: (Units=GPa)
#
#
# Indices 1 2 3 4 5 6 
#
# 1 118.0225 56.4771 43.8050 0.0000 -7.1643 0.0000
# 2 56.4771 80.2507 35.0138 0.0000 -10.8179 0.0000
# 3 43.8050 35.0138 95.2668 0.0000 -8.2372 0.0000
# 4 0.0000 0.0000 0.0000 43.2717 0.0000 3.6070
# 5 -7.1643 -10.8179 -8.2372 0.0000 42.9753 0.0000
# 6 0.0000 0.0000 0.0000 3.6070 0.0000 23.4989
#
#
#
# Elastic Compliance Matrix: (Units=1/GPa)
#
#
# Indices 1 2 3 4 5 6 
#
# 1 0.013579 -0.008186 -0.003272 0.000000 -0.000424 0.000000
# 2 -0.008186 0.020099 -0.003359 0.000000 0.003051 0.000000
# 3 -0.003272 -0.003359 0.013337 0.000000 0.001165 0.000000
# 4 0.000000 0.000000 0.000000 0.023409 0.000000 -0.003593
# 5 -0.000424 0.003051 0.001165 0.000000 0.024190 0.000000
# 6 0.000000 0.000000 0.000000 -0.003593 0.000000 0.043107
#
#
# Mechanical properties :
#
#
# Convention : Reuss Voigt Hill
#
# Bulk Modulus (GPa) = 57.53599 62.68130 60.10864
# Shear Modulus (GPa) = 28.87721 32.49877 30.68799
#
# Velocity S-wave (km/s) = 3.64187 3.86350 3.75432
# Velocity P-wave (km/s) = 6.64157 6.97793 6.81183
#
# Compressibility (1/GPa) = 0.01738043
#
# Stress axis : x y z
#
# Youngs Moduli (GPa) = 73.64471 49.75456 74.98143
#
# Poissons Ratio (x) = 0.40728 0.24532
# Poissons Ratio (y) = 0.60284 0.25188
# Poissons Ratio (z) = 0.24095 0.16714
#
# Static dielectric constant tensor:
#      x y z
#    x 1.824720 0.000000 -0.013650 
#    y 0.000000 1.824220 0.000000 
#    z -0.013650 0.000000 1.794480 
# 
# From -- ./inp_files/21943.got.cif
#   From: 2010.05.17/outbox.cif.g08.bks.cpg/sg9_11_cif.got.tgz:21943.got - 2010.06.03 20:04:27.
