data_PCOD9140292
_publ_section_title
;
Structure prediction by ZEFSAII (Michael W. Deem and Ramdas Pophale) SiO2 
 PCOD9140292
Probable space group: C C
;
_chemical_formula_sum "Si O2"
_cell_formula_units_Z 32
_cell_length_a 6.048468
_cell_length_b 17.060720
_cell_length_c 15.064369
_cell_angle_alpha 90.000000
_cell_angle_beta 53.977438
_cell_angle_gamma 90.000000
_cell_volume 1257.265591
_symmetry_space_group_name_H-M "C C"
_symmetry_group_IT_number 9
_symmetry_cell_setting 'monoclinic'
loop_
_space_group_symop_operation_xyz
x,y,z
x,-y,1/2+z
1/2+x,1/2+y,z
1/2+x,1/2-y,1/2+z
loop_
_atom_site_type_symbol
_atom_site_label
_atom_site_fract_x
_atom_site_fract_y
_atom_site_fract_z
Si Si1 0.469080 0.655394 0.105850
Si Si2 0.217206 0.931533 0.023814
Si Si3 0.601092 0.696545 0.681484
Si Si4 0.691953 0.005049 0.714154
Si Si5 0.556319 0.670366 0.890023
Si Si6 0.656923 0.438395 0.838679
Si Si7 0.159979 0.553056 0.925657
Si Si8 0.558532 0.277313 0.763388
O O1 0.227550 0.717026 0.143174
O O2 0.339821 0.579291 0.181584
O O3 0.627601 0.702451 0.144634
O O4 0.607620 0.637226 0.977900
O O5 0.258813 0.855991 0.073351
O O6 0.277562 0.919052 0.907098
O O7 0.381765 0.008271 0.017121
O O8 0.893759 0.944457 0.107697
O O9 0.649011 0.655279 0.765551
O O10 0.278167 0.713039 0.743487
O O11 0.401105 0.988933 0.739249
O O12 0.673372 0.044925 0.815223
O O13 0.243763 0.637204 0.947358
O O14 0.743877 0.749286 0.851977
O O15 0.399349 0.495203 0.903375
O O16 0.594240 0.357817 0.806975
#
# Coordination Sequence:
#
# PCOD9140292 Si02
#       8
#     4   4   4   4   4   4   4   4
#     4  11  25  45  71 106 147 201 251 308 392 451
#     4  11  27  43  78 107 150 198 256 311 388 454
#     4  11  26  46  68 109 153 194 250 322 374 456
#     4  11  23  48  71 106 145 196 259 312 376 463
#     4  11  27  45  74 110 149 194 263 307 379 462
#     4  11  25  45  76 105 146 198 251 312 387 455
#     4  11  25  47  73 107 150 198 252 317 377 462
#     4  11  26  45  73 108 152 195 248 323 379 457
#
# _framework density 25.452058999999998
#
# number of rings (size 3 to 8) (size 9 to 14) (size 15 to 20)
#    0.000    1.000    3.750    0.750    7.000    5.000 
#    0.000    0.000    0.000    0.000    0.000    0.000 
#    0.000    0.000    0.000    0.000    0.000    0.000 
#
# Total GULP energy -89251.408990 kJ/mol
# GULP energy per Si atom -5578.213062 kJ/mol
# Density = 2.539413 g / cm^3
# Si number density = 25.452059 Si / 1000 Ang^3
#
#
#
# Elastic Constant Matrix: (Units=GPa)
#
#
# Indices 1 2 3 4 5 6 
#
# 1 92.2430 55.5496 47.6570 0.0000 -1.2674 0.0000
# 2 55.5496 104.7568 35.6688 0.0000 0.8461 0.0000
# 3 47.6570 35.6688 101.6628 0.0000 10.2319 0.0000
# 4 0.0000 0.0000 0.0000 34.4910 0.0000 -2.7972
# 5 -1.2674 0.8461 10.2319 0.0000 46.2770 0.0000
# 6 0.0000 0.0000 0.0000 -2.7972 0.0000 51.9855
#
#
#
# Elastic Compliance Matrix: (Units=1/GPa)
#
#
# Indices 1 2 3 4 5 6 
#
# 1 0.018859 -0.007878 -0.006283 0.000000 0.002050 0.000000
# 2 -0.007878 0.014151 -0.001252 0.000000 -0.000198 0.000000
# 3 -0.006283 -0.001252 0.013537 0.000000 -0.003142 0.000000
# 4 0.000000 0.000000 0.000000 0.029120 0.000000 0.001567
# 5 0.002050 -0.000198 -0.003142 0.000000 0.022364 0.000000
# 6 0.000000 0.000000 0.000000 0.001567 0.000000 0.019320
#
#
# Mechanical properties :
#
#
# Convention : Reuss Voigt Hill
#
# Bulk Modulus (GPa) = 63.60623 64.04593 63.82608
# Shear Modulus (GPa) = 32.59051 37.20319 34.89685
#
# Velocity S-wave (km/s) = 3.58224 3.82736 3.70683
# Velocity P-wave (km/s) = 6.49267 6.68951 6.59183
#
# Compressibility (1/GPa) = 0.01572173
#
# Stress axis : x y z
#
# Youngs Moduli (GPa) = 53.02425 70.66516 73.86935
#
# Poissons Ratio (x) = 0.55668 0.46413
# Poissons Ratio (y) = 0.41771 0.09250
# Poissons Ratio (z) = 0.33316 0.08849
#
# Static dielectric constant tensor:
#      x y z
#    x 2.031800 0.000000 -0.030230 
#    y 0.000000 2.014930 0.000000 
#    z -0.030230 0.000000 2.026480 
# 
# From -- ./inp_files/22046.got.cif
#   From: 2010.05.17/outbox.cif.g08.bks.cpg/sg9_12_cif.got.tgz:22046.got - 2010.06.03 20:04:27.
