data_PCOD9140404
_publ_section_title
;
Structure prediction by ZEFSAII (Michael W. Deem and Ramdas Pophale) SiO2 
 PCOD9140404
Probable space group: C C
;
_chemical_formula_sum "Si O2"
_cell_formula_units_Z 28
_cell_length_a 14.164663
_cell_length_b 11.314873
_cell_length_c 8.787564
_cell_angle_alpha 90.000000
_cell_angle_beta 116.570854
_cell_angle_gamma 90.000000
_cell_volume 1259.642861
_symmetry_space_group_name_H-M "C C"
_symmetry_group_IT_number 9
_symmetry_cell_setting 'monoclinic'
loop_
_space_group_symop_operation_xyz
x,y,z
x,-y,1/2+z
1/2+x,1/2+y,z
1/2+x,1/2-y,1/2+z
loop_
_atom_site_type_symbol
_atom_site_label
_atom_site_fract_x
_atom_site_fract_y
_atom_site_fract_z
Si Si1 0.030980 0.491616 0.380060
Si Si2 0.758813 0.957247 0.398772
Si Si3 0.218031 0.731883 0.344397
Si Si4 0.496241 0.402248 0.685293
Si Si5 0.620408 0.803596 0.100091
Si Si6 0.423789 0.851565 0.545131
Si Si7 0.046655 0.139017 0.571377
O O1 0.150488 0.456713 0.420767
O O2 0.043727 0.585044 0.525884
O O3 0.969186 0.385121 0.411986
O O4 0.967076 0.560712 0.203886
O O5 0.872164 0.922025 0.550976
O O6 0.727115 0.858838 0.250163
O O7 0.759153 0.096856 0.348430
O O8 0.147714 0.729075 0.446570
O O9 0.301089 0.833914 0.440567
O O10 0.150306 0.779184 0.154490
O O11 0.557038 0.294112 0.647415
O O12 0.556917 0.518016 0.669325
O O13 0.508602 0.388331 0.874558
O O14 0.463391 0.718966 0.602940
#
# Coordination Sequence:
#
# PCOD9140404 Si02
#       7
#     4   4   4   4   4   4   4
#     4  11  24  44  74 106 148 187 256 312 369 446
#     4  11  24  47  79 108 141 205 252 309 375 452
#     4  11  26  48  78 102 155 198 250 314 383 445
#     4  12  29  44  79 107 158 195 253 313 379 442
#     4  11  24  46  73 109 148 191 255 308 375 453
#     4  12  25  46  75 107 149 197 254 311 374 447
#     4  12  26  47  70 113 151 195 256 313 373 451
#
# _framework density 22.228524
#
# number of rings (size 3 to 8) (size 9 to 14) (size 15 to 20)
#    0.000    0.571    5.714    1.714    6.000    5.714 
#    0.000    0.000    0.000    0.000    0.000    0.000 
#    0.000    0.000    0.000    0.000    0.000    0.000 
#
# Total GULP energy -78138.197984 kJ/mol
# GULP energy per Si atom -5581.299856 kJ/mol
# Density = 2.217793 g / cm^3
# Si number density = 22.228524 Si / 1000 Ang^3
#
#
#
# Elastic Constant Matrix: (Units=GPa)
#
#
# Indices 1 2 3 4 5 6 
#
# 1 63.6911 40.9787 40.0121 0.0000 19.2018 0.0000
# 2 40.9787 95.2351 60.7855 0.0000 4.0778 0.0000
# 3 40.0121 60.7855 158.7462 0.0000 29.6827 0.0000
# 4 0.0000 0.0000 0.0000 37.7617 0.0000 1.6870
# 5 19.2018 4.0778 29.6827 0.0000 32.7125 0.0000
# 6 0.0000 0.0000 0.0000 1.6870 0.0000 38.4522
#
#
#
# Elastic Compliance Matrix: (Units=1/GPa)
#
#
# Indices 1 2 3 4 5 6 
#
# 1 0.027249 -0.011211 0.000186 0.000000 -0.014766 0.000000
# 2 -0.011211 0.018898 -0.006263 0.000000 0.009908 0.000000
# 3 0.000186 -0.006263 0.010267 0.000000 -0.008644 0.000000
# 4 0.000000 0.000000 0.000000 0.026534 0.000000 -0.001164
# 5 -0.014766 0.009908 -0.008644 0.000000 0.045846 0.000000
# 6 0.000000 0.000000 0.000000 -0.001164 0.000000 0.026057
#
#
# Mechanical properties :
#
#
# Convention : Reuss Voigt Hill
#
# Bulk Modulus (GPa) = 45.79428 66.80278 56.29853
# Shear Modulus (GPa) = 25.41858 33.51166 29.46512
#
# Velocity S-wave (km/s) = 3.38525 3.88699 3.64477
# Velocity P-wave (km/s) = 5.99385 7.08963 6.56465
#
# Compressibility (1/GPa) = 0.02183679
#
# Stress axis : x y z
#
# Youngs Moduli (GPa) = 36.69840 52.91679 97.39920
#
# Poissons Ratio (x) = 0.59327 -0.01809
# Poissons Ratio (y) = 0.41144 0.61000
# Poissons Ratio (z) = -0.00682 0.33141
#
# Static dielectric constant tensor:
#      x y z
#    x 1.828760 0.000000 0.023470 
#    y 0.000000 1.817800 0.000000 
#    z 0.023470 0.000000 1.890600 
# 
# From -- ./inp_files/9029.got.cif
#   From: 2010.05.17/outbox.cif.g08.bks.cpg/sg9_5_cif.got.tgz:9029.got - 2010.06.03 20:04:27.
