data_PCOD9140127
_publ_section_title
;
Structure prediction by ZEFSAII (Michael W. Deem and Ramdas Pophale) SiO2 
 PCOD9140127
Probable space group: C C
;
_chemical_formula_sum "Si O2"
_cell_formula_units_Z 24
_cell_length_a 6.789072
_cell_length_b 30.406439
_cell_length_c 4.931180
_cell_angle_alpha 90.000000
_cell_angle_beta 97.333179
_cell_angle_gamma 90.000000
_cell_volume 1009.624772
_symmetry_space_group_name_H-M "C C"
_symmetry_group_IT_number 9
_symmetry_cell_setting 'monoclinic'
loop_
_space_group_symop_operation_xyz
x,y,z
x,-y,1/2+z
1/2+x,1/2+y,z
1/2+x,1/2-y,1/2+z
loop_
_atom_site_type_symbol
_atom_site_label
_atom_site_fract_x
_atom_site_fract_y
_atom_site_fract_z
Si Si1 0.731440 0.289584 0.181220
Si Si2 0.954128 0.800214 0.644010
Si Si3 0.105774 0.472619 0.665837
Si Si4 0.823171 0.107607 0.911811
Si Si5 0.280205 0.085950 0.974805
Si Si6 0.468181 0.129902 0.512783
O O1 0.636180 0.292770 0.463330
O O2 0.806382 0.241050 0.122593
O O3 0.907258 0.323088 0.128577
O O4 0.550962 0.302988 0.955409
O O5 0.842006 0.844944 0.555670
O O6 0.153343 0.513185 0.476866
O O7 0.215093 0.429809 0.568928
O O8 0.874306 0.459591 0.592119
O O9 0.046579 0.090884 0.922851
O O10 0.695646 0.117918 0.618572
O O11 0.379660 0.121840 0.198982
O O12 0.352505 0.095653 0.685122
#
# Coordination Sequence:
#
# PCOD9140127 Si02
#       6
#     4   4   4   4   4   4
#     4  12  24  45  67 106 154 190 245 297 343 426
#     4  12  26  43  70 106 148 196 245 293 359 416
#     4  11  26  46  70 106 140 180 236 301 366 435
#     4  11  25  46  76 104 140 190 238 294 363 428
#     4  11  24  45  72 100 141 183 235 291 354 432
#     4  11  23  43  69 104 143 183 239 290 341 419
#
# _framework density 23.771205999999999
#
# number of rings (size 3 to 8) (size 9 to 14) (size 15 to 20)
#    0.000    0.667    3.333    4.000    0.000   12.000 
#    0.000    0.000    0.000    0.000    0.000    0.000 
#    0.000    0.000    0.000    0.000    0.000    0.000 
#
# Total GULP energy -67164.557159 kJ/mol
# GULP energy per Si atom -5597.046430 kJ/mol
# Density = 2.371710 g / cm^3
# Si number density = 23.771206 Si / 1000 Ang^3
#
#
#
# Elastic Constant Matrix: (Units=GPa)
#
#
# Indices 1 2 3 4 5 6 
#
# 1 125.2727 35.0861 27.4170 0.0000 25.8332 0.0000
# 2 35.0861 112.5802 2.4138 0.0000 -13.4399 0.0000
# 3 27.4170 2.4138 75.8828 0.0000 -2.4201 0.0000
# 4 0.0000 0.0000 0.0000 27.4532 0.0000 3.0709
# 5 25.8332 -13.4399 -2.4201 0.0000 32.1586 0.0000
# 6 0.0000 0.0000 0.0000 3.0709 0.0000 44.5288
#
#
#
# Elastic Compliance Matrix: (Units=1/GPa)
#
#
# Indices 1 2 3 4 5 6 
#
# 1 0.013530 -0.005736 -0.005141 0.000000 -0.013653 0.000000
# 2 -0.005736 0.011783 0.002007 0.000000 0.009684 0.000000
# 3 -0.005141 0.002007 0.015167 0.000000 0.006110 0.000000
# 4 0.000000 0.000000 0.000000 0.036709 0.000000 -0.002532
# 5 -0.013653 0.009684 0.006110 0.000000 0.046570 0.000000
# 6 0.000000 0.000000 0.000000 -0.002532 0.000000 0.022632
#
#
# Mechanical properties :
#
#
# Convention : Reuss Voigt Hill
#
# Bulk Modulus (GPa) = 43.97958 49.28549 46.63254
# Shear Modulus (GPa) = 29.11844 37.41603 33.26723
#
# Velocity S-wave (km/s) = 3.50372 3.97168 3.74502
# Velocity P-wave (km/s) = 5.90842 6.46611 6.19355
#
# Compressibility (1/GPa) = 0.02273782
#
# Stress axis : x y z
#
# Youngs Moduli (GPa) = 73.91050 84.86583 65.93317
#
# Poissons Ratio (x) = 0.48682 0.33899
# Poissons Ratio (y) = 0.42397 -0.13230
# Poissons Ratio (z) = 0.38000 -0.17029
#
# Static dielectric constant tensor:
#      x y z
#    x 1.925180 0.000000 -0.011700 
#    y 0.000000 1.947010 0.000000 
#    z -0.011700 0.000000 1.849590 
# 
# From -- ./inp_files/381.got.cif
#   From: 2010.05.17/outbox.cif.g08.bks.cpg/sg9_1_cif.got.tgz:381.got - 2010.06.03 20:04:27.
