data_PCOD9140957
_publ_section_title
;
Structure prediction by ZEFSAII (Michael W. Deem and Ramdas Pophale) SiO2 
 PCOD9140957
Probable space group: C C
;
_chemical_formula_sum "Si O2"
_cell_formula_units_Z 28
_cell_length_a 6.195086
_cell_length_b 13.591406
_cell_length_c 13.670416
_cell_angle_alpha 90.000000
_cell_angle_beta 84.950942
_cell_angle_gamma 90.000000
_cell_volume 1146.581655
_symmetry_space_group_name_H-M "C C"
_symmetry_group_IT_number 9
_symmetry_cell_setting 'monoclinic'
loop_
_space_group_symop_operation_xyz
x,y,z
x,-y,1/2+z
1/2+x,1/2+y,z
1/2+x,1/2-y,1/2+z
loop_
_atom_site_type_symbol
_atom_site_label
_atom_site_fract_x
_atom_site_fract_y
_atom_site_fract_z
Si Si1 0.122440 0.531227 0.482950
Si Si2 0.985108 0.030177 0.859254
Si Si3 0.734744 0.587875 0.039917
Si Si4 0.158258 0.188687 0.738562
Si Si5 0.516167 0.649372 0.232140
Si Si6 0.352697 0.186380 0.371135
Si Si7 0.948905 0.201340 0.533415
O O1 0.250545 0.446436 0.417090
O O2 0.294121 0.605357 0.527676
O O3 0.945502 0.477493 0.558509
O O4 0.988086 0.600814 0.415490
O O5 0.132103 0.075145 0.766562
O O6 0.918982 0.925028 0.814949
O O7 0.139990 0.038796 0.946462
O O8 0.545430 0.598776 0.126826
O O9 0.811516 0.700017 0.021568
O O10 0.380347 0.249817 0.731676
O O11 0.015444 0.226413 0.837301
O O12 0.051119 0.202890 0.637441
O O13 0.753031 0.665032 0.268401
O O14 0.148720 0.203914 0.449671
#
# Coordination Sequence:
#
# PCOD9140957 Si02
#       7
#     4   4   4   4   4   4   4
#     4  12  26  49  77 110 156 204 257 329 389 463
#     4  12  27  49  76 111 154 205 264 321 397 468
#     4  12  28  47  77 115 156 207 263 322 400 470
#     4  12  29  47  80 111 156 210 260 323 401 470
#     4  12  27  49  73 113 156 200 263 325 387 469
#     4  12  23  52  71 107 156 199 256 331 377 461
#     4  12  28  47  78 117 158 207 263 327 393 471
#
# _framework density 24.420414000000001
#
# number of rings (size 3 to 8) (size 9 to 14) (size 15 to 20)
#    0.000    0.000    5.714    2.571   10.000    1.143 
#    2.571    0.000    0.000    0.000    0.000    0.000 
#    0.000    0.000    0.000    0.000    0.000    0.000 
#
# Total GULP energy -78175.927591 kJ/mol
# GULP energy per Si atom -5583.994828 kJ/mol
# Density = 2.436483 g / cm^3
# Si number density = 24.420414 Si / 1000 Ang^3
#
#
#
# Elastic Constant Matrix: (Units=GPa)
#
#
# Indices 1 2 3 4 5 6 
#
# 1 82.3480 34.9797 32.5099 0.0000 1.2692 0.0000
# 2 34.9797 85.2506 25.5909 0.0000 0.9799 0.0000
# 3 32.5099 25.5909 101.8724 0.0000 -2.2887 0.0000
# 4 0.0000 0.0000 0.0000 32.5485 0.0000 -15.4141
# 5 1.2692 0.9799 -2.2887 0.0000 40.3722 0.0000
# 6 0.0000 0.0000 0.0000 -15.4141 0.0000 42.7622
#
#
#
# Elastic Compliance Matrix: (Units=1/GPa)
#
#
# Indices 1 2 3 4 5 6 
#
# 1 0.015924 -0.005405 -0.003737 0.000000 -0.000581 0.000000
# 2 -0.005405 0.014531 -0.001932 0.000000 -0.000292 0.000000
# 3 -0.003737 -0.001932 0.011512 0.000000 0.000817 0.000000
# 4 0.000000 0.000000 0.000000 0.037048 0.000000 0.013354
# 5 -0.000581 -0.000292 0.000817 0.000000 0.024841 0.000000
# 6 0.000000 0.000000 0.000000 0.013354 0.000000 0.028199
#
#
# Mechanical properties :
#
#
# Convention : Reuss Voigt Hill
#
# Bulk Modulus (GPa) = 50.45609 50.62578 50.54093
# Shear Modulus (GPa) = 31.09258 34.89595 32.99427
#
# Velocity S-wave (km/s) = 3.57209 3.78427 3.67971
# Velocity P-wave (km/s) = 6.14161 6.31428 6.22855
#
# Compressibility (1/GPa) = 0.01981921
#
# Stress axis : x y z
#
# Youngs Moduli (GPa) = 62.79864 68.81679 86.86292
#
# Poissons Ratio (x) = 0.37198 0.32460
# Poissons Ratio (y) = 0.33945 0.16781
# Poissons Ratio (z) = 0.23467 0.13295
#
# Static dielectric constant tensor:
#      x y z
#    x 1.963030 0.000000 -0.030230 
#    y 0.000000 2.332430 0.000000 
#    z -0.030230 0.000000 1.915340 
# 
# From -- ./inp_files/21734.got.cif
#   From: 2010.05.17/outbox.cif.g08.bks.cpg/sg9_11_cif.got.tgz:21734.got - 2010.06.03 20:04:27.
