data_PCOD9140104
_publ_section_title
;
Structure prediction by ZEFSAII (Michael W. Deem and Ramdas Pophale) SiO2 
 PCOD9140104
Probable space group: C C
;
_chemical_formula_sum "Si O2"
_cell_formula_units_Z 32
_cell_length_a 22.359601
_cell_length_b 11.842300
_cell_length_c 11.823725
_cell_angle_alpha 90.000000
_cell_angle_beta 27.199561
_cell_angle_gamma 90.000000
_cell_volume 1431.057900
_symmetry_space_group_name_H-M "C C"
_symmetry_group_IT_number 9
_symmetry_cell_setting 'monoclinic'
loop_
_space_group_symop_operation_xyz
x,y,z
x,-y,1/2+z
1/2+x,1/2+y,z
1/2+x,1/2-y,1/2+z
loop_
_atom_site_type_symbol
_atom_site_label
_atom_site_fract_x
_atom_site_fract_y
_atom_site_fract_z
Si Si1 0.276750 0.679501 0.068300
Si Si2 0.150340 0.539112 0.099339
Si Si3 0.789723 0.593598 0.797270
Si Si4 0.482533 0.739940 0.107287
Si Si5 0.383925 0.563261 0.097416
Si Si6 0.944888 0.365050 0.812191
Si Si7 0.497869 0.321888 0.835361
Si Si8 0.939384 0.606353 0.087763
O O1 0.250326 0.580957 0.025315
O O2 0.133699 0.722568 0.343798
O O3 0.372766 0.644081 0.008165
O O4 0.365277 0.777601 0.865895
O O5 0.078699 0.644440 0.157979
O O6 0.033502 0.468628 0.347581
O O7 0.232669 0.458661 0.881297
O O8 0.834750 0.605100 0.590071
O O9 0.800590 0.460188 0.807403
O O10 0.891990 0.665680 0.700525
O O11 0.651054 0.650364 0.056861
O O12 0.457303 0.627296 0.075000
O O13 0.446683 0.718174 0.298239
O O14 0.439441 0.441748 0.971924
O O15 0.990192 0.434914 0.627122
O O16 0.463559 0.227601 0.986815
#
# Coordination Sequence:
#
# PCOD9140104 Si02
#       8
#     4   4   4   4   4   4   4   4
#     4  12  21  43  69 100 141 185 237 295 372 445
#     4  11  23  42  71 100 140 193 239 302 362 446
#     4  11  25  46  76 107 144 202 242 315 387 441
#     4  12  23  47  75 102 147 191 246 312 379 446
#     4  12  26  45  70 109 141 194 248 304 382 444
#     4  11  23  43  70 106 140 188 242 303 375 448
#     4  12  28  48  73 111 154 194 253 318 371 465
#     4  11  25  44  74 109 143 193 255 301 376 455
#
# _framework density 22.361079
#
# number of rings (size 3 to 8) (size 9 to 14) (size 15 to 20)
#    0.000    0.500    5.000    3.750    5.250    1.000 
#    2.250    0.000    0.000    0.000    0.000    0.000 
#    0.000    0.000    0.000    0.000    0.000    0.000 
#
# Total GULP energy -89162.618407 kJ/mol
# GULP energy per Si atom -5572.663650 kJ/mol
# Density = 2.231018 g / cm^3
# Si number density = 22.361079 Si / 1000 Ang^3
#
#
#
# Elastic Constant Matrix: (Units=GPa)
#
#
# Indices 1 2 3 4 5 6 
#
# 1 119.7409 24.2627 34.9858 0.0000 15.8169 0.0000
# 2 24.2627 59.5729 8.3877 0.0000 -9.8278 0.0000
# 3 34.9858 8.3877 50.7425 0.0000 7.2143 0.0000
# 4 0.0000 0.0000 0.0000 21.1630 0.0000 -13.3114
# 5 15.8169 -9.8278 7.2143 0.0000 28.4135 0.0000
# 6 0.0000 0.0000 0.0000 -13.3114 0.0000 33.2605
#
#
#
# Elastic Compliance Matrix: (Units=1/GPa)
#
#
# Indices 1 2 3 4 5 6 
#
# 1 0.012252 -0.005207 -0.006599 0.000000 -0.006946 0.000000
# 2 -0.005207 0.020817 -0.001335 0.000000 0.010437 0.000000
# 3 -0.006599 -0.001335 0.024921 0.000000 -0.003116 0.000000
# 4 0.000000 0.000000 0.000000 0.063149 0.000000 0.025273
# 5 -0.006946 0.010437 -0.003116 0.000000 0.043462 0.000000
# 6 0.000000 0.000000 0.000000 0.025273 0.000000 0.040180
#
#
# Mechanical properties :
#
#
# Convention : Reuss Voigt Hill
#
# Bulk Modulus (GPa) = 31.53816 40.59208 36.06512
# Shear Modulus (GPa) = 20.69258 27.39541 24.04399
#
# Velocity S-wave (km/s) = 3.04531 3.50399 3.28267
# Velocity P-wave (km/s) = 5.14781 5.87903 5.52553
#
# Compressibility (1/GPa) = 0.03170762
#
# Stress axis : x y z
#
# Youngs Moduli (GPa) = 81.61914 48.03877 40.12661
#
# Poissons Ratio (x) = 0.25012 0.26481
# Poissons Ratio (y) = 0.42496 0.05357
# Poissons Ratio (z) = 0.53863 0.06413
#
# Static dielectric constant tensor:
#      x y z
#    x 1.856790 0.000000 0.020190 
#    y 0.000000 2.012910 0.000000 
#    z 0.020190 0.000000 1.882970 
# 
# From -- ./inp_files/16507.got.cif
#   From: 2010.05.17/outbox.cif.g08.bks.cpg/sg9_9_cif.got.tgz:16507.got - 2010.06.03 20:04:27.
