data_PCOD9140742
_publ_section_title
;
Structure prediction by ZEFSAII (Michael W. Deem and Ramdas Pophale) SiO2 
 PCOD9140742
Probable space group: C C
;
_chemical_formula_sum "Si O2"
_cell_formula_units_Z 28
_cell_length_a 15.618682
_cell_length_b 9.611817
_cell_length_c 24.551567
_cell_angle_alpha 90.000000
_cell_angle_beta 19.958662
_cell_angle_gamma 90.000000
_cell_volume 1258.110898
_symmetry_space_group_name_H-M "C C"
_symmetry_group_IT_number 9
_symmetry_cell_setting 'monoclinic'
loop_
_space_group_symop_operation_xyz
x,y,z
x,-y,1/2+z
1/2+x,1/2+y,z
1/2+x,1/2-y,1/2+z
loop_
_atom_site_type_symbol
_atom_site_label
_atom_site_fract_x
_atom_site_fract_y
_atom_site_fract_z
Si Si1 0.889950 0.209537 0.219420
Si Si2 0.317646 0.498942 0.352476
Si Si3 0.738405 0.624977 0.526621
Si Si4 0.448365 0.620276 0.966344
Si Si5 0.767161 0.044594 0.183724
Si Si6 0.891377 0.138338 0.426912
Si Si7 0.449835 0.742938 0.595091
O O1 0.744032 0.354976 0.298171
O O2 0.874129 0.116128 0.174418
O O3 0.172727 0.248847 0.064353
O O4 0.750521 0.122544 0.350254
O O5 0.573709 0.443613 0.172216
O O6 0.356418 0.564690 0.388791
O O7 0.126723 0.368177 0.468500
O O8 0.874150 0.758146 0.470147
O O9 0.562566 0.684315 0.584140
O O10 0.968046 0.528512 0.369520
O O11 0.310822 0.640242 0.105644
O O12 0.368701 0.478243 0.986498
O O13 0.913887 0.901169 0.083489
O O14 0.169068 0.199293 0.266851
#
# Coordination Sequence:
#
# PCOD9140742 Si02
#       7
#     4   4   4   4   4   4   4
#     4  11  26  48  73 105 149 198 246 308 378 439
#     4  12  26  47  75 106 154 188 254 305 377 441
#     4  11  25  49  71 108 145 199 242 309 370 448
#     4  11  26  44  74 100 152 185 252 309 370 441
#     4  11  26  47  73 105 147 192 249 303 375 438
#     4  12  28  46  73 112 142 200 249 308 372 449
#     4  12  27  45  75 108 147 192 252 300 376 444
#
# _framework density 22.255590000000002
#
# number of rings (size 3 to 8) (size 9 to 14) (size 15 to 20)
#    0.000    0.571    2.857    3.429   10.000    1.143 
#    0.000    0.000    0.000    0.000    0.000    0.000 
#    0.000    0.000    0.000    0.000    0.000    0.000 
#
# Total GULP energy -78262.933030 kJ/mol
# GULP energy per Si atom -5590.209502 kJ/mol
# Density = 2.220494 g / cm^3
# Si number density = 22.255590 Si / 1000 Ang^3
#
#
#
# Elastic Constant Matrix: (Units=GPa)
#
#
# Indices 1 2 3 4 5 6 
#
# 1 115.0506 39.4318 32.6787 -0.0115 7.8605 -0.0029
# 2 39.4318 98.5153 43.7585 0.0155 -5.9231 -0.1348
# 3 32.6787 43.7585 112.8815 -0.1010 -12.5455 -0.0772
# 4 -0.0115 0.0155 -0.1010 52.4006 0.0415 4.9893
# 5 7.8605 -5.9231 -12.5455 0.0415 33.7782 -0.0512
# 6 -0.0029 -0.1348 -0.0772 4.9893 -0.0512 -11.3539
#
#
#
# Elastic Compliance Matrix: (Units=1/GPa)
#
#
# Indices 1 2 3 4 5 6 
#
# 1 0.010814 -0.003600 -0.002174 -0.000004 -0.003955 0.000071
# 2 -0.003600 0.013466 -0.003987 0.000000 0.001718 -0.000140
# 3 -0.002174 -0.003987 0.011487 0.000023 0.004073 -0.000038
# 4 -0.000004 0.000000 0.000023 0.018317 -0.000001 0.008049
# 5 -0.003955 0.001718 0.004073 -0.000001 0.032339 -0.000193
# 6 0.000071 -0.000140 -0.000038 0.008049 -0.000193 -0.084536
#
#
# Mechanical properties :
#
#
# Convention : Reuss Voigt Hill
#
# Bulk Modulus (GPa) = 61.56544 62.02059 61.79302
# Shear Modulus (GPa) = 186.40446 29.00355 107.70401
#
# Velocity S-wave (km/s) = 9.16177 3.61391 6.96414
# Velocity P-wave (km/s) = 11.81695 6.73362 9.61723
#
# Compressibility (1/GPa) = 0.01624288
#
# Stress axis : x y z
#
# Youngs Moduli (GPa) = 92.47651 74.26276 87.05856
#
# Poissons Ratio (x) = 0.26735 0.18930
# Poissons Ratio (y) = 0.33293 0.34710
# Poissons Ratio (z) = 0.20108 0.29608
#
# Static dielectric constant tensor:
#      x y z
#    x 1.804010 -0.000250 -0.035060 
#    y -0.000250 1.871300 0.000410 
#    z -0.035060 0.000410 1.806490 
# 
# From -- ./inp_files/35638.got.cif
#   From: 2010.05.17/outbox.cif.g08.bks.cpg/sg9_18_cif.got.tgz:35638.got - 2010.06.03 20:04:27.
