data_PCOD9140659
_publ_section_title
;
Structure prediction by ZEFSAII (Michael W. Deem and Ramdas Pophale) SiO2 
 PCOD9140659
Probable space group: C C
;
_chemical_formula_sum "Si O2"
_cell_formula_units_Z 20
_cell_length_a 8.171583
_cell_length_b 18.204067
_cell_length_c 4.984813
_cell_angle_alpha 90.000000
_cell_angle_beta 88.181619
_cell_angle_gamma 90.000000
_cell_volume 741.147658
_symmetry_space_group_name_H-M "C C"
_symmetry_group_IT_number 9
_symmetry_cell_setting 'monoclinic'
loop_
_space_group_symop_operation_xyz
x,y,z
x,-y,1/2+z
1/2+x,1/2+y,z
1/2+x,1/2-y,1/2+z
loop_
_atom_site_type_symbol
_atom_site_label
_atom_site_fract_x
_atom_site_fract_y
_atom_site_fract_z
Si Si1 0.293770 0.603509 0.714230
Si Si2 0.977750 0.894622 0.706640
Si Si3 0.972321 0.762988 0.350733
Si Si4 0.750122 0.350734 0.067099
Si Si5 0.446631 0.049145 0.922002
O O1 0.328960 0.582154 0.408327
O O2 0.327632 0.690994 0.712463
O O3 0.121590 0.584356 0.844835
O O4 0.435108 0.574524 0.914066
O O5 0.982772 0.807650 0.630104
O O6 0.136532 0.901204 0.883648
O O7 0.907561 0.682372 0.406954
O O8 0.136148 0.783452 0.181220
O O9 0.810027 0.395026 0.323028
O O10 0.436047 0.979567 0.722168
#
# Coordination Sequence:
#
# PCOD9140659 Si02
#       5
#     4   4   4   4   4
#     4   9  21  45  69  99 139 181 245 298 361 429
#     4   9  21  43  68 107 137 180 229 300 382 426
#     4   9  24  41  75 111 142 186 233 314 389 419
#     4  11  25  45  76 109 156 187 248 307 377 448
#     4  12  29  48  72 106 150 208 253 295 357 446
#
# _framework density 26.985177
#
# number of rings (size 3 to 8) (size 9 to 14) (size 15 to 20)
#    1.200    0.800    0.000    1.200    8.400    1.600 
#    0.000   14.000    0.000    0.000    0.000    0.000 
#    0.000    0.000    0.000    0.000    0.000    0.000 
#
# Total GULP energy -55914.656837 kJ/mol
# GULP energy per Si atom -5591.465684 kJ/mol
# Density = 2.692376 g / cm^3
# Si number density = 26.985177 Si / 1000 Ang^3
#
#
#
# Elastic Constant Matrix: (Units=GPa)
#
#
# Indices 1 2 3 4 5 6 
#
# 1 134.6652 16.2590 24.2030 0.0000 -3.7035 0.0000
# 2 16.2590 66.4983 -2.3315 0.0000 -3.3403 0.0000
# 3 24.2030 -2.3315 128.7775 0.0000 2.1876 0.0000
# 4 0.0000 0.0000 0.0000 33.2999 0.0000 -1.4907
# 5 -3.7035 -3.3403 2.1876 0.0000 45.0549 0.0000
# 6 0.0000 0.0000 0.0000 -1.4907 0.0000 37.7991
#
#
#
# Elastic Compliance Matrix: (Units=1/GPa)
#
#
# Indices 1 2 3 4 5 6 
#
# 1 0.007957 -0.001970 -0.001541 0.000000 0.000583 0.000000
# 2 -0.001970 0.015590 0.000636 0.000000 0.000963 0.000000
# 3 -0.001541 0.000636 0.008074 0.000000 -0.000472 0.000000
# 4 0.000000 0.000000 0.000000 0.030083 0.000000 0.001186
# 5 0.000583 0.000963 -0.000472 0.000000 0.022337 0.000000
# 6 0.000000 0.000000 0.000000 0.001186 0.000000 0.026502
#
#
# Mechanical properties :
#
#
# Convention : Reuss Voigt Hill
#
# Bulk Modulus (GPa) = 38.65246 45.13355 41.89301
# Shear Modulus (GPa) = 40.02616 42.68483 41.35550
#
# Velocity S-wave (km/s) = 3.85550 3.98148 3.91900
# Velocity P-wave (km/s) = 5.84589 6.15613 6.00302
#
# Compressibility (1/GPa) = 0.02587157
#
# Stress axis : x y z
#
# Youngs Moduli (GPa) = 125.68055 64.14218 123.84698
#
# Poissons Ratio (x) = 0.12637 0.19085
# Poissons Ratio (y) = 0.24761 -0.07879
# Poissons Ratio (z) = 0.19367 -0.04081
#
# Static dielectric constant tensor:
#      x y z
#    x 2.107410 0.000000 -0.016600 
#    y 0.000000 2.187310 0.000000 
#    z -0.016600 0.000000 2.082020 
# 
# From -- ./inp_files/528.got.cif
#   From: 2010.05.17/outbox.cif.g08.bks.cpg/sg9_1_cif.got.tgz:528.got - 2010.06.03 20:04:27.
