data_PCOD9140737
_publ_section_title
;
Structure prediction by ZEFSAII (Michael W. Deem and Ramdas Pophale) SiO2 
 PCOD9140737
Probable space group: C C
;
_chemical_formula_sum "Si O2"
_cell_formula_units_Z 28
_cell_length_a 7.602903
_cell_length_b 17.661941
_cell_length_c 8.482376
_cell_angle_alpha 90.000000
_cell_angle_beta 75.037174
_cell_angle_gamma 90.000000
_cell_volume 1100.410131
_symmetry_space_group_name_H-M "C C"
_symmetry_group_IT_number 9
_symmetry_cell_setting 'monoclinic'
loop_
_space_group_symop_operation_xyz
x,y,z
x,-y,1/2+z
1/2+x,1/2+y,z
1/2+x,1/2-y,1/2+z
loop_
_atom_site_type_symbol
_atom_site_label
_atom_site_fract_x
_atom_site_fract_y
_atom_site_fract_z
Si Si1 0.407160 0.893411 0.863950
Si Si2 0.995594 0.158741 0.501066
Si Si3 0.249494 0.126447 0.868824
Si Si4 0.924780 0.960391 0.272976
Si Si5 0.529988 0.963152 0.501238
Si Si6 0.650908 0.769143 0.695106
Si Si7 0.955286 0.132952 0.168318
O O1 0.470008 0.932695 0.685438
O O2 0.517323 0.814925 0.841753
O O3 0.193900 0.877608 0.919551
O O4 0.458696 0.951524 0.989591
O O5 0.029096 0.236829 0.582049
O O6 0.897763 0.100919 0.641064
O O7 0.910244 0.166271 0.350387
O O8 0.430641 0.087212 0.889302
O O9 0.146607 0.154857 0.050471
O O10 0.248396 0.195755 0.747738
O O11 0.103955 0.066546 0.827252
O O12 0.744414 0.964460 0.419651
O O13 0.952303 0.043206 0.193666
O O14 0.800190 0.828390 0.599382
#
# Coordination Sequence:
#
# PCOD9140737 Si02
#       7
#     4   4   4   4   4   4   4
#     4  12  26  50  75 114 148 192 257 314 366 450
#     4  11  27  46  77 109 152 197 247 309 380 446
#     4  11  26  49  73 108 151 198 243 310 379 445
#     4  11  25  48  77 112 148 193 252 313 369 448
#     4  12  27  46  80 110 148 196 254 308 372 446
#     4  11  27  48  71 109 155 193 248 310 374 448
#     4  12  22  47  75 104 150 195 247 308 376 439
#
# _framework density 25.445058
#
# number of rings (size 3 to 8) (size 9 to 14) (size 15 to 20)
#    0.000    0.571    2.857    4.286    8.000    1.143 
#    2.571    0.000    0.000    0.000    0.000    0.000 
#    0.000    0.000    0.000    0.000    0.000    0.000 
#
# Total GULP energy -78524.238837 kJ/mol
# GULP energy per Si atom -5608.874203 kJ/mol
# Density = 2.538714 g / cm^3
# Si number density = 25.445058 Si / 1000 Ang^3
#
#
#
# Elastic Constant Matrix: (Units=GPa)
#
#
# Indices 1 2 3 4 5 6 
#
# 1 71.9591 19.6259 -0.3261 0.0000 -9.3544 0.0000
# 2 19.6259 117.9215 9.0949 0.0000 15.9476 0.0000
# 3 -0.3261 9.0949 81.1266 0.0000 5.1704 0.0000
# 4 0.0000 0.0000 0.0000 44.1840 0.0000 0.1616
# 5 -9.3544 15.9476 5.1704 0.0000 43.1195 0.0000
# 6 0.0000 0.0000 0.0000 0.1616 0.0000 43.2491
#
#
#
# Elastic Compliance Matrix: (Units=1/GPa)
#
#
# Indices 1 2 3 4 5 6 
#
# 1 0.015345 -0.003171 0.000131 0.000000 0.004486 0.000000
# 2 -0.003171 0.009633 -0.000828 0.000000 -0.004151 0.000000
# 3 0.000131 -0.000828 0.012494 0.000000 -0.001163 0.000000
# 4 0.000000 0.000000 0.000000 0.022633 0.000000 -0.000085
# 5 0.004486 -0.004151 -0.001163 0.000000 0.025839 0.000000
# 6 0.000000 0.000000 0.000000 -0.000085 0.000000 0.023122
#
#
# Mechanical properties :
#
#
# Convention : Reuss Voigt Hill
#
# Bulk Modulus (GPa) = 33.62791 36.42185 35.02488
# Shear Modulus (GPa) = 39.45871 42.28469 40.87170
#
# Velocity S-wave (km/s) = 3.94222 4.08095 4.01218
# Velocity P-wave (km/s) = 5.82804 6.04570 5.93787
#
# Compressibility (1/GPa) = 0.02973721
#
# Stress axis : x y z
#
# Youngs Moduli (GPa) = 65.16644 103.80732 80.03889
#
# Poissons Ratio (x) = 0.32915 -0.01050
# Poissons Ratio (y) = 0.20663 0.06628
# Poissons Ratio (z) = -0.00855 0.08597
#
# Static dielectric constant tensor:
#      x y z
#    x 1.979810 0.000000 0.063220 
#    y 0.000000 1.975650 0.000000 
#    z 0.063220 0.000000 2.045330 
# 
# From -- ./inp_files/5339.got.cif
#   From: 2010.05.17/outbox.cif.g08.bks.cpg/sg9_3_cif.got.tgz:5339.got - 2010.06.03 20:04:27.
