data_PCOD9140422
_publ_section_title
;
Structure prediction by ZEFSAII (Michael W. Deem and Ramdas Pophale) SiO2 
 PCOD9140422
Probable space group: C C
;
_chemical_formula_sum "Si O2"
_cell_formula_units_Z 32
_cell_length_a 8.979255
_cell_length_b 12.017121
_cell_length_c 15.795220
_cell_angle_alpha 90.000000
_cell_angle_beta 63.352556
_cell_angle_gamma 90.000000
_cell_volume 1523.346107
_symmetry_space_group_name_H-M "C C"
_symmetry_group_IT_number 9
_symmetry_cell_setting 'monoclinic'
loop_
_space_group_symop_operation_xyz
x,y,z
x,-y,1/2+z
1/2+x,1/2+y,z
1/2+x,1/2-y,1/2+z
loop_
_atom_site_type_symbol
_atom_site_label
_atom_site_fract_x
_atom_site_fract_y
_atom_site_fract_z
Si Si1 0.064670 0.936823 0.639450
Si Si2 0.520751 0.611485 0.508640
Si Si3 0.532703 0.466376 0.337327
Si Si4 0.901283 0.403378 0.231000
Si Si5 0.328701 0.738812 0.924543
Si Si6 0.826415 0.230335 0.116901
Si Si7 0.460259 0.158076 0.237876
Si Si8 0.719706 0.228827 0.671218
O O1 0.191185 0.833758 0.616216
O O2 0.897450 0.874141 0.651087
O O3 0.101585 0.028658 0.558661
O O4 0.049921 0.983648 0.738522
O O5 0.507659 0.553078 0.420420
O O6 0.638709 0.719707 0.471465
O O7 0.342300 0.643903 0.592806
O O8 0.710813 0.406684 0.312724
O O9 0.381664 0.379149 0.372439
O O10 0.884825 0.343742 0.144820
O O11 0.959745 0.530154 0.211712
O O12 0.044009 0.329113 0.238527
O O13 0.428789 0.830410 0.845500
O O14 0.385379 0.727786 0.006376
O O15 0.628442 0.219597 0.170227
O O16 0.310149 0.221641 0.229961
#
# Coordination Sequence:
#
# PCOD9140422 Si02
#       8
#     4   4   4   4   4   4   4   4
#     4  11  24  48  73  98 144 193 230 305 358 423
#     4  12  24  46  72 104 146 182 238 301 359 426
#     4  12  24  46  70 105 148 184 244 302 357 436
#     4  11  24  45  70 100 137 189 235 286 357 430
#     4  12  24  42  73 104 138 189 234 292 363 429
#     4  11  24  46  70 100 145 187 239 293 365 430
#     4  12  23  45  70 102 142 187 231 295 362 425
#     4  11  25  44  74 103 138 189 241 292 357 433
#
# _framework density 21.006387
#
# number of rings (size 3 to 8) (size 9 to 14) (size 15 to 20)
#    0.000    0.500    6.250    2.250    0.000    0.000 
#   11.250    2.500    0.000    0.000    0.000    0.000 
#    0.000    0.000    0.000    0.000    0.000    0.000 
#
# Total GULP energy -89375.006567 kJ/mol
# GULP energy per Si atom -5585.937910 kJ/mol
# Density = 2.095858 g / cm^3
# Si number density = 21.006387 Si / 1000 Ang^3
#
#
#
# Elastic Constant Matrix: (Units=GPa)
#
#
# Indices 1 2 3 4 5 6 
#
# 1 95.4608 57.1564 28.8547 0.0000 7.9189 0.0000
# 2 57.1564 78.7458 26.9126 0.0000 7.5473 0.0000
# 3 28.8547 26.9126 87.3689 0.0000 6.8551 0.0000
# 4 0.0000 0.0000 0.0000 23.0153 0.0000 1.1359
# 5 7.9189 7.5473 6.8551 0.0000 21.9471 0.0000
# 6 0.0000 0.0000 0.0000 1.1359 0.0000 39.5445
#
#
#
# Elastic Compliance Matrix: (Units=1/GPa)
#
#
# Indices 1 2 3 4 5 6 
#
# 1 0.018980 -0.012869 -0.002168 0.000000 -0.001746 0.000000
# 2 -0.012869 0.023202 -0.002701 0.000000 -0.002492 0.000000
# 3 -0.002168 -0.002701 0.013183 0.000000 -0.002406 0.000000
# 4 0.000000 0.000000 0.000000 0.043511 0.000000 -0.001250
# 5 -0.001746 -0.002492 -0.002406 0.000000 0.047803 0.000000
# 6 0.000000 0.000000 0.000000 -0.001250 0.000000 0.025324
#
#
# Mechanical properties :
#
#
# Convention : Reuss Voigt Hill
#
# Bulk Modulus (GPa) = 50.27758 54.15810 52.21784
# Shear Modulus (GPa) = 23.35279 26.81148 25.08214
#
# Velocity S-wave (km/s) = 3.33783 3.57648 3.45921
# Velocity P-wave (km/s) = 6.23227 6.54925 6.39272
#
# Compressibility (1/GPa) = 0.01988958
#
# Stress axis : x y z
#
# Youngs Moduli (GPa) = 52.68568 43.10055 75.85798
#
# Poissons Ratio (x) = 0.55464 0.16443
# Poissons Ratio (y) = 0.67799 0.20492
# Poissons Ratio (z) = 0.11420 0.11643
#
# Static dielectric constant tensor:
#      x y z
#    x 1.777000 0.000000 0.012340 
#    y 0.000000 1.773660 0.000000 
#    z 0.012340 0.000000 1.748250 
# 
# From -- ./inp_files/22792.got.cif
#   From: 2010.05.17/outbox.cif.g08.bks.cpg/sg9_12_cif.got.tgz:22792.got - 2010.06.03 20:04:27.
