data_PCOD9140524
_publ_section_title
;
Structure prediction by ZEFSAII (Michael W. Deem and Ramdas Pophale) SiO2 
 PCOD9140524
Probable space group: C C
;
_chemical_formula_sum "Si O2"
_cell_formula_units_Z 32
_cell_length_a 14.371932
_cell_length_b 11.594587
_cell_length_c 11.591569
_cell_angle_alpha 90.000000
_cell_angle_beta 137.377719
_cell_angle_gamma 90.000000
_cell_volume 1307.992789
_symmetry_space_group_name_H-M "C C"
_symmetry_group_IT_number 9
_symmetry_cell_setting 'monoclinic'
loop_
_space_group_symop_operation_xyz
x,y,z
x,-y,1/2+z
1/2+x,1/2+y,z
1/2+x,1/2-y,1/2+z
loop_
_atom_site_type_symbol
_atom_site_label
_atom_site_fract_x
_atom_site_fract_y
_atom_site_fract_z
Si Si1 0.569370 0.098147 0.922970
Si Si2 0.707640 0.718822 0.894022
Si Si3 0.896126 0.227218 0.364446
Si Si4 0.870038 0.998067 0.235530
Si Si5 0.088827 0.980870 0.742455
Si Si6 0.939131 0.201774 0.963433
Si Si7 0.456225 0.141105 0.276608
Si Si8 0.740478 0.717420 0.485315
O O1 0.507522 0.170756 0.973409
O O2 0.606944 0.198859 0.866384
O O3 0.475162 0.996190 0.791070
O O4 0.714054 0.037995 0.080900
O O5 0.803654 0.784210 0.891609
O O6 0.652871 0.604993 0.777575
O O7 0.580029 0.793463 0.822720
O O8 0.809588 0.677344 0.089254
O O9 0.945826 0.099684 0.376567
O O10 0.809574 0.268045 0.173181
O O11 0.949308 0.994011 0.186891
O O12 0.871492 0.879450 0.304478
O O13 0.193428 0.911307 0.919358
O O14 0.057784 0.883965 0.618067
O O15 0.974765 0.316451 0.925648
O O16 0.840313 0.234524 0.978045
#
# Coordination Sequence:
#
# PCOD9140524 Si02
#       8
#     4   4   4   4   4   4   4   4
#     4  11  24  47  72 108 150 189 255 310 387 456
#     4  12  31  48  79 109 159 203 258 322 385 463
#     4  11  26  48  73 107 142 199 252 315 379 461
#     4  11  25  45  73 105 149 197 254 312 380 465
#     4  12  26  48  75 110 151 204 259 312 390 468
#     4  12  27  45  77 108 154 197 253 321 387 464
#     4  12  30  50  74 116 156 200 255 323 394 461
#     4  11  25  47  75 109 143 199 252 319 384 466
#
# _framework density 24.464967000000001
#
# number of rings (size 3 to 8) (size 9 to 14) (size 15 to 20)
#    0.000    0.500    5.000    1.500   14.000    0.000 
#    0.000    0.000    0.000    0.000    0.000    0.000 
#    0.000    0.000    0.000    0.000    0.000    0.000 
#
# Total GULP energy -89579.916932 kJ/mol
# GULP energy per Si atom -5598.744808 kJ/mol
# Density = 2.440928 g / cm^3
# Si number density = 24.464967 Si / 1000 Ang^3
#
#
#
# Elastic Constant Matrix: (Units=GPa)
#
#
# Indices 1 2 3 4 5 6 
#
# 1 62.3168 10.4427 12.0053 0.0000 -1.5427 0.0000
# 2 10.4427 105.2042 9.8284 0.0000 7.1375 0.0000
# 3 12.0053 9.8284 75.2840 0.0000 8.7280 0.0000
# 4 0.0000 0.0000 0.0000 41.4267 0.0000 1.0722
# 5 -1.5427 7.1375 8.7280 0.0000 32.8407 0.0000
# 6 0.0000 0.0000 0.0000 1.0722 0.0000 24.6985
#
#
#
# Elastic Compliance Matrix: (Units=1/GPa)
#
#
# Indices 1 2 3 4 5 6 
#
# 1 0.016873 -0.001548 -0.002703 0.000000 0.001847 0.000000
# 2 -0.001548 0.009870 -0.000810 0.000000 -0.002003 0.000000
# 3 -0.002703 -0.000810 0.014253 0.000000 -0.003739 0.000000
# 4 0.000000 0.000000 0.000000 0.024166 0.000000 -0.001049
# 5 0.001847 -0.002003 -0.003739 0.000000 0.031966 0.000000
# 6 0.000000 0.000000 0.000000 -0.001049 0.000000 0.040534
#
#
# Mechanical properties :
#
#
# Convention : Reuss Voigt Hill
#
# Bulk Modulus (GPa) = 32.38717 34.15087 33.26902
# Shear Modulus (GPa) = 31.63066 33.82842 32.72954
#
# Velocity S-wave (km/s) = 3.59959 3.72254 3.66158
# Velocity P-wave (km/s) = 5.52657 5.69788 5.61288
#
# Compressibility (1/GPa) = 0.03087642
#
# Stress axis : x y z
#
# Youngs Moduli (GPa) = 59.26695 101.31247 70.15953
#
# Poissons Ratio (x) = 0.15680 0.18963
# Poissons Ratio (y) = 0.09172 0.05680
# Poissons Ratio (z) = 0.16019 0.08202
#
# Static dielectric constant tensor:
#      x y z
#    x 1.916240 0.000000 0.032700 
#    y 0.000000 1.927870 0.000000 
#    z 0.032700 0.000000 2.046610 
# 
# From -- ./inp_files/18289.got.cif
#   From: 2010.05.17/outbox.cif.g08.bks.cpg/sg9_10_cif.got.tgz:18289.got - 2010.06.03 20:04:27.
