data_PCOD9140821
_publ_section_title
;
Structure prediction by ZEFSAII (Michael W. Deem and Ramdas Pophale) SiO2 
 PCOD9140821
Probable space group: C C
;
_chemical_formula_sum "Si O2"
_cell_formula_units_Z 32
_cell_length_a 7.157489
_cell_length_b 14.028696
_cell_length_c 13.919028
_cell_angle_alpha 90.000000
_cell_angle_beta 62.696910
_cell_angle_gamma 90.000000
_cell_volume 1241.908339
_symmetry_space_group_name_H-M "C C"
_symmetry_group_IT_number 9
_symmetry_cell_setting 'monoclinic'
loop_
_space_group_symop_operation_xyz
x,y,z
x,-y,1/2+z
1/2+x,1/2+y,z
1/2+x,1/2-y,1/2+z
loop_
_atom_site_type_symbol
_atom_site_label
_atom_site_fract_x
_atom_site_fract_y
_atom_site_fract_z
Si Si1 0.068470 0.094825 0.253490
Si Si2 0.633924 0.870897 0.954818
Si Si3 0.015705 0.323645 0.711028
Si Si4 0.216288 0.402709 0.147317
Si Si5 0.327423 0.289246 0.474244
Si Si6 0.485857 0.629583 0.762916
Si Si7 0.469170 0.002960 0.358383
Si Si8 0.040869 0.059971 0.034958
O O1 0.271731 0.150369 0.245311
O O2 0.069903 0.095798 0.137042
O O3 0.864870 0.140840 0.353085
O O4 0.063180 0.976916 0.269255
O O5 0.425474 0.815089 0.965697
O O6 0.584401 0.980051 0.933075
O O7 0.647834 0.852892 0.065685
O O8 0.116913 0.227513 0.735719
O O9 0.058696 0.408561 0.774931
O O10 0.128987 0.317556 0.582855
O O11 0.402641 0.366982 0.172996
O O12 0.329285 0.498149 0.080924
O O13 0.032477 0.420450 0.268468
O O14 0.300481 0.329662 0.374295
O O15 0.518680 0.350734 0.471671
O O16 0.229201 0.000044 0.445409
#
# Coordination Sequence:
#
# PCOD9140821 Si02
#       8
#     4   4   4   4   4   4   4   4
#     4  11  27  50  80 110 160 207 266 327 408 484
#     4  12  26  50  77 113 159 204 257 336 402 485
#     4  12  27  47  78 113 155 205 265 334 395 485
#     4  11  26  47  75 108 154 200 266 313 399 486
#     4  12  27  47  77 112 159 199 266 332 404 479
#     4  11  26  48  73 114 152 206 265 320 407 480
#     4  12  25  48  76 108 153 201 254 326 391 476
#     4  11  26  47  76 114 148 212 259 320 406 479
#
# _framework density 25.766798999999999
#
# number of rings (size 3 to 8) (size 9 to 14) (size 15 to 20)
#    0.000    0.500    5.000    2.250    8.750    3.000 
#    0.000    0.000    0.000    0.000    0.000    0.000 
#    0.000    0.000    0.000    0.000    0.000    0.000 
#
# Total GULP energy -89132.164999 kJ/mol
# GULP energy per Si atom -5570.760312 kJ/mol
# Density = 2.570815 g / cm^3
# Si number density = 25.766799 Si / 1000 Ang^3
#
#
#
# Elastic Constant Matrix: (Units=GPa)
#
#
# Indices 1 2 3 4 5 6 
#
# 1 89.8332 28.7067 42.5513 0.0000 -10.7375 0.0000
# 2 28.7067 99.8393 28.9714 0.0000 -3.3011 0.0000
# 3 42.5513 28.9714 157.4186 0.0000 -8.9802 0.0000
# 4 0.0000 0.0000 0.0000 34.5614 0.0000 3.5966
# 5 -10.7375 -3.3011 -8.9802 0.0000 52.2684 0.0000
# 6 0.0000 0.0000 0.0000 3.5966 0.0000 29.2880
#
#
#
# Elastic Compliance Matrix: (Units=1/GPa)
#
#
# Indices 1 2 3 4 5 6 
#
# 1 0.013793 -0.003010 -0.003054 0.000000 0.002119 0.000000
# 2 -0.003010 0.011244 -0.001263 0.000000 -0.000125 0.000000
# 3 -0.003054 -0.001263 0.007443 0.000000 0.000572 0.000000
# 4 0.000000 0.000000 0.000000 0.029309 0.000000 -0.003599
# 5 0.002119 -0.000125 0.000572 0.000000 0.019658 0.000000
# 6 0.000000 0.000000 0.000000 -0.003599 0.000000 0.034586
#
#
# Mechanical properties :
#
#
# Convention : Reuss Voigt Hill
#
# Bulk Modulus (GPa) = 56.09348 60.83890 58.46619
# Shear Modulus (GPa) = 36.59606 39.68101 38.13853
#
# Velocity S-wave (km/s) = 3.77275 3.92855 3.85144
# Velocity P-wave (km/s) = 6.38710 6.65136 6.52057
#
# Compressibility (1/GPa) = 0.01782738
#
# Stress axis : x y z
#
# Youngs Moduli (GPa) = 72.49955 88.93768 134.35554
#
# Poissons Ratio (x) = 0.26768 0.41027
# Poissons Ratio (y) = 0.21821 0.16968
# Poissons Ratio (z) = 0.22138 0.11232
#
# Static dielectric constant tensor:
#      x y z
#    x 2.090800 0.000000 0.067570 
#    y 0.000000 2.279450 0.000000 
#    z 0.067570 0.000000 2.135900 
# 
# From -- ./inp_files/23380.got.cif
#   From: 2010.05.17/outbox.cif.g08.bks.cpg/sg9_12_cif.got.tgz:23380.got - 2010.06.03 20:04:27.
