data_PCOD9140272
_publ_section_title
;
Structure prediction by ZEFSAII (Michael W. Deem and Ramdas Pophale) SiO2 
 PCOD9140272
Probable space group: C C
;
_chemical_formula_sum "Si O2"
_cell_formula_units_Z 24
_cell_length_a 16.652467
_cell_length_b 7.229166
_cell_length_c 24.642241
_cell_angle_alpha 90.000000
_cell_angle_beta 158.792015
_cell_angle_gamma 90.000000
_cell_volume 1073.151214
_symmetry_space_group_name_H-M "C C"
_symmetry_group_IT_number 9
_symmetry_cell_setting 'monoclinic'
loop_
_space_group_symop_operation_xyz
x,y,z
x,-y,1/2+z
1/2+x,1/2+y,z
1/2+x,1/2-y,1/2+z
loop_
_atom_site_type_symbol
_atom_site_label
_atom_site_fract_x
_atom_site_fract_y
_atom_site_fract_z
Si Si1 0.971950 0.425958 0.496280
Si Si2 0.918804 0.245167 0.891556
Si Si3 0.922422 0.221714 0.298605
Si Si4 0.764368 0.431889 0.476073
Si Si5 0.385729 0.151665 0.244655
Si Si6 0.222639 0.628734 0.291060
O O1 0.870873 0.559074 0.388188
O O2 0.898231 0.503541 0.507708
O O3 0.869560 0.223178 0.428942
O O4 0.230199 0.395351 0.647140
O O5 0.880220 0.266852 0.803084
O O6 0.758873 0.088730 0.813467
O O7 0.163875 0.185086 0.068819
O O8 0.930752 0.431428 0.281614
O O9 0.829324 0.205633 0.301647
O O10 0.144821 0.102340 0.430759
O O11 0.585203 0.276584 0.347391
O O12 0.962827 0.334061 0.634059
#
# Coordination Sequence:
#
# PCOD9140272 Si02
#       6
#     4   4   4   4   4   4
#     4  11  24  44  71 102 144 183 237 297 356 416
#     4  12  24  48  76 102 140 198 234 290 362 424
#     4  11  23  47  70 102 143 192 232 291 362 423
#     4  11  26  43  67 113 140 177 246 300 343 425
#     4  12  25  44  79 103 143 191 238 291 359 422
#     4  11  24  44  71 102 144 183 237 297 356 416
#
# _framework density 22.364045000000001
#
# number of rings (size 3 to 8) (size 9 to 14) (size 15 to 20)
#    0.000    0.667    6.667    1.000    2.333    2.667 
#    3.000    0.000    0.000    0.000    0.000    0.000 
#    0.000    0.000    0.000    0.000    0.000    0.000 
#
# Total GULP energy -66960.215569 kJ/mol
# GULP energy per Si atom -5580.017964 kJ/mol
# Density = 2.231314 g / cm^3
# Si number density = 22.364045 Si / 1000 Ang^3
#
#
#
# Elastic Constant Matrix: (Units=GPa)
#
#
# Indices 1 2 3 4 5 6 
#
# 1 48.2948 13.8144 14.7702 -0.0029 4.2148 0.0108
# 2 13.8144 111.6345 8.3239 -0.0042 12.6341 -0.0196
# 3 14.7702 8.3239 112.6330 -0.0249 12.2195 -0.0121
# 4 -0.0029 -0.0042 -0.0249 35.6104 0.0070 -11.8020
# 5 4.2148 12.6341 12.2195 0.0070 30.7368 0.0053
# 6 0.0108 -0.0196 -0.0121 -11.8020 0.0053 -3.3572
#
#
#
# Elastic Compliance Matrix: (Units=1/GPa)
#
#
# Indices 1 2 3 4 5 6 
#
# 1 0.022300 -0.002450 -0.002634 0.000014 -0.001004 0.000044
# 2 -0.002450 0.009673 0.000001 -0.000010 -0.003641 -0.000035
# 3 -0.002634 0.000001 0.009599 -0.000004 -0.003455 -0.000034
# 4 0.000014 -0.000010 -0.000004 0.012970 0.000009 -0.045596
# 5 -0.001004 -0.003641 -0.003455 0.000009 0.035542 0.000056
# 6 0.000044 -0.000035 -0.000034 -0.045596 0.000056 -0.137578
#
#
# Mechanical properties :
#
#
# Convention : Reuss Voigt Hill
#
# Bulk Modulus (GPa) = 31.84070 38.48658 35.16364
# Shear Modulus (GPa) = -186.14997 28.30824 -78.92086
#
# Velocity S-wave (km/s) = -9.13329 3.56166 -5.94691
# Velocity P-wave (km/s) = 9.84654 5.84469 5.60330
#
# Compressibility (1/GPa) = 0.03140635
#
# Stress axis : x y z
#
# Youngs Moduli (GPa) = 44.84280 103.38231 104.18178
#
# Poissons Ratio (x) = 0.25324 0.27446
# Poissons Ratio (y) = 0.10984 -0.00014
# Poissons Ratio (z) = 0.11813 -0.00014
#
# Static dielectric constant tensor:
#      x y z
#    x 1.882870 -0.000040 -0.041830 
#    y -0.000040 1.843770 0.000030 
#    z -0.041830 0.000030 1.851470 
# 
# From -- ./inp_files/17676.got.cif
#   From: 2010.05.17/outbox.cif.g08.bks.cpg/sg9_9_cif.got.tgz:17676.got - 2010.06.03 20:04:27.
