data_PCOD9140499
_publ_section_title
;
Structure prediction by ZEFSAII (Michael W. Deem and Ramdas Pophale) SiO2 
 PCOD9140499
Probable space group: C C
;
_chemical_formula_sum "Si O2"
_cell_formula_units_Z 32
_cell_length_a 7.588776
_cell_length_b 16.315167
_cell_length_c 11.722868
_cell_angle_alpha 90.000000
_cell_angle_beta 57.421113
_cell_angle_gamma 90.000000
_cell_volume 1223.051675
_symmetry_space_group_name_H-M "C C"
_symmetry_group_IT_number 9
_symmetry_cell_setting 'monoclinic'
loop_
_space_group_symop_operation_xyz
x,y,z
x,-y,1/2+z
1/2+x,1/2+y,z
1/2+x,1/2-y,1/2+z
loop_
_atom_site_type_symbol
_atom_site_label
_atom_site_fract_x
_atom_site_fract_y
_atom_site_fract_z
Si Si1 0.902790 0.557794 0.379220
Si Si2 0.198431 0.854484 0.747289
Si Si3 0.774886 0.872084 0.286179
Si Si4 0.812860 0.624976 0.818933
Si Si5 0.228767 0.177698 0.610986
Si Si6 0.867220 0.854552 0.486499
Si Si7 0.357175 0.552334 0.226027
Si Si8 0.397425 0.773676 0.456140
O O1 0.865391 0.605758 0.273585
O O2 0.867374 0.463116 0.359641
O O3 0.752045 0.598814 0.522785
O O4 0.129637 0.570903 0.357333
O O5 0.307796 0.799904 0.608892
O O6 0.054855 0.919926 0.730124
O O7 0.030416 0.806761 0.888561
O O8 0.707398 0.882381 0.441408
O O9 0.553667 0.834750 0.318925
O O10 0.975216 0.812259 0.216032
O O11 0.836604 0.956160 0.208084
O O12 0.871670 0.662120 0.673669
O O13 0.717586 0.701900 0.931239
O O14 0.571748 0.601234 0.861893
O O15 0.308249 0.258859 0.519398
O O16 0.848491 0.896435 0.614111
#
# Coordination Sequence:
#
# PCOD9140499 Si02
#       8
#     4   4   4   4   4   4   4   4
#     4  12  28  48  78 114 155 203 262 325 394 477
#     4  12  29  50  80 113 159 206 262 327 397 472
#     4  11  26  46  75 110 151 204 260 325 395 464
#     4  11  25  48  74 106 155 198 258 333 385 470
#     4  11  27  46  79 112 150 208 265 322 400 468
#     4  11  24  46  76 105 153 197 260 326 388 466
#     4  12  26  48  77 111 153 207 255 321 398 465
#     4  12  27  50  73 117 156 201 264 331 389 474
#
# _framework density 26.164061
#
# number of rings (size 3 to 8) (size 9 to 14) (size 15 to 20)
#    0.000    0.500    2.500    4.500   12.250    1.000 
#    0.000    0.000    0.000    0.000    0.000    0.000 
#    0.000    0.000    0.000    0.000    0.000    0.000 
#
# Total GULP energy -89107.837659 kJ/mol
# GULP energy per Si atom -5569.239854 kJ/mol
# Density = 2.610451 g / cm^3
# Si number density = 26.164061 Si / 1000 Ang^3
#
#
#
# Elastic Constant Matrix: (Units=GPa)
#
#
# Indices 1 2 3 4 5 6 
#
# 1 67.4021 28.5098 37.4164 0.0000 19.2932 0.0000
# 2 28.5098 88.7517 -3.0572 0.0000 3.5179 0.0000
# 3 37.4164 -3.0572 58.5749 0.0000 1.7621 0.0000
# 4 0.0000 0.0000 0.0000 28.1261 0.0000 10.3308
# 5 19.2932 3.5179 1.7621 0.0000 46.2290 0.0000
# 6 0.0000 0.0000 0.0000 10.3308 0.0000 29.8277
#
#
#
# Elastic Compliance Matrix: (Units=1/GPa)
#
#
# Indices 1 2 3 4 5 6 
#
# 1 0.037310 -0.012270 -0.024061 0.000000 -0.013720 0.000000
# 2 -0.012270 0.015359 0.008530 0.000000 0.003627 0.000000
# 3 -0.024061 0.008530 0.032642 0.000000 0.008148 0.000000
# 4 0.000000 0.000000 0.000000 0.040737 0.000000 -0.014109
# 5 -0.013720 0.003627 0.008148 0.000000 0.026771 0.000000
# 6 0.000000 0.000000 0.000000 -0.014109 0.000000 0.038413
#
#
# Mechanical properties :
#
#
# Convention : Reuss Voigt Hill
#
# Bulk Modulus (GPa) = 33.65848 37.82964 35.74406
# Shear Modulus (GPa) = 19.47536 30.96054 25.21795
#
# Velocity S-wave (km/s) = 2.73125 3.44368 3.10794
# Velocity P-wave (km/s) = 4.77898 5.50472 5.15463
#
# Compressibility (1/GPa) = 0.02971019
#
# Stress axis : x y z
#
# Youngs Moduli (GPa) = 26.80237 65.10842 30.63576
#
# Poissons Ratio (x) = 0.79889 0.73711
# Poissons Ratio (y) = 0.32887 -0.26133
# Poissons Ratio (z) = 0.64488 -0.55540
#
# Static dielectric constant tensor:
#      x y z
#    x 2.316260 0.000000 0.001220 
#    y 0.000000 2.568590 0.000000 
#    z 0.001220 0.000000 2.261140 
# 
# From -- ./inp_files/14708.got.cif
#   From: 2010.05.17/outbox.cif.g08.bks.cpg/sg9_8_cif.got.tgz:14708.got - 2010.06.03 20:04:27.
