data_PCOD9140616
_publ_section_title
;
Structure prediction by ZEFSAII (Michael W. Deem and Ramdas Pophale) SiO2 
 PCOD9140616
Probable space group: C C
;
_chemical_formula_sum "Si O2"
_cell_formula_units_Z 24
_cell_length_a 6.748413
_cell_length_b 17.726869
_cell_length_c 8.060864
_cell_angle_alpha 90.000000
_cell_angle_beta 76.380742
_cell_angle_gamma 90.000000
_cell_volume 937.192450
_symmetry_space_group_name_H-M "C C"
_symmetry_group_IT_number 9
_symmetry_cell_setting 'monoclinic'
loop_
_space_group_symop_operation_xyz
x,y,z
x,-y,1/2+z
1/2+x,1/2+y,z
1/2+x,1/2-y,1/2+z
loop_
_atom_site_type_symbol
_atom_site_label
_atom_site_fract_x
_atom_site_fract_y
_atom_site_fract_z
Si Si1 0.500000 0.346442 0.319870
Si Si2 0.089839 0.602426 0.225684
Si Si3 0.924264 0.974960 0.117671
Si Si4 0.057601 0.613468 0.593140
Si Si5 0.803801 0.424036 0.465226
Si Si6 0.795592 0.252576 0.092334
O O1 0.698709 0.184217 0.215225
O O2 0.654826 0.354611 0.443314
O O3 0.623717 0.316385 0.138568
O O4 0.332759 0.287163 0.409111
O O5 0.271997 0.544475 0.162369
O O6 0.937820 0.594541 0.100088
O O7 0.986074 0.589615 0.423768
O O8 0.793616 0.911916 0.043863
O O9 0.935086 0.930729 0.290558
O O10 0.145361 0.007737 0.030174
O O11 0.947273 0.572560 0.771419
O O12 0.993057 0.701329 0.617360
#
# Coordination Sequence:
#
# PCOD9140616 Si02
#       6
#     4   4   4   4   4   4
#     4  11  25  52  78 124 165 223 282 346 427 503
#     4  12  27  53  84 123 168 222 284 352 422 512
#     4  12  28  53  86 120 170 221 284 358 424 505
#     4  11  28  52  82 126 170 224 285 348 430 513
#     4  11  28  52  85 118 169 218 281 356 417 506
#     4  11  24  52  77 117 172 216 284 340 420 511
#
# _framework density 25.608402000000002
#
# number of rings (size 3 to 8) (size 9 to 14) (size 15 to 20)
#    0.000    0.667    3.333    2.000    7.000    1.333 
#   15.000    1.667    0.000    0.000    0.000    0.000 
#    0.000    0.000    0.000    0.000    0.000    0.000 
#
# Total GULP energy -67034.814509 kJ/mol
# GULP energy per Si atom -5586.234542 kJ/mol
# Density = 2.555012 g / cm^3
# Si number density = 25.608402 Si / 1000 Ang^3
#
#
#
# Elastic Constant Matrix: (Units=GPa)
#
#
# Indices 1 2 3 4 5 6 
#
# 1 148.1346 92.4314 82.9690 0.0000 9.3540 0.0000
# 2 92.4314 144.2512 47.4494 0.0000 -11.8753 0.0000
# 3 82.9690 47.4494 181.6083 0.0000 9.9366 0.0000
# 4 0.0000 0.0000 0.0000 49.2440 0.0000 -1.6561
# 5 9.3540 -11.8753 9.9366 0.0000 43.1464 0.0000
# 6 0.0000 0.0000 0.0000 -1.6561 0.0000 1.5658
#
#
#
# Elastic Compliance Matrix: (Units=1/GPa)
#
#
# Indices 1 2 3 4 5 6 
#
# 1 0.014619 -0.008337 -0.004255 0.000000 -0.004484 0.000000
# 2 -0.008337 0.012632 0.000222 0.000000 0.005233 0.000000
# 3 -0.004255 0.000222 0.007432 0.000000 -0.000728 0.000000
# 4 0.000000 0.000000 0.000000 0.021056 0.000000 0.022271
# 5 -0.004484 0.005233 -0.000728 0.000000 0.025757 0.000000
# 6 0.000000 0.000000 0.000000 0.022271 0.000000 0.662200
#
#
# Mechanical properties :
#
#
# Convention : Reuss Voigt Hill
#
# Bulk Modulus (GPa) = 100.57186 102.18818 101.38002
# Shear Modulus (GPa) = 6.47878 35.53421 21.00649
#
# Velocity S-wave (km/s) = 1.59230 3.72909 2.86719
# Velocity P-wave (km/s) = 6.53749 7.65064 7.11587
#
# Compressibility (1/GPa) = 0.00994314
#
# Stress axis : x y z
#
# Youngs Moduli (GPa) = 68.40420 79.16361 134.54886
#
# Poissons Ratio (x) = 0.65997 0.57254
# Poissons Ratio (y) = 0.57027 -0.02987
# Poissons Ratio (z) = 0.29108 -0.01757
#
# Static dielectric constant tensor:
#      x y z
#    x 2.094310 0.000000 0.018500 
#    y 0.000000 2.031450 0.000000 
#    z 0.018500 0.000000 2.093250 
# 
# From -- ./inp_files/5442.got.cif
#   From: 2010.05.17/outbox.cif.g08.bks.cpg/sg9_3_cif.got.tgz:5442.got - 2010.06.03 20:04:27.
