data_PCOD9140674
_publ_section_title
;
Structure prediction by ZEFSAII (Michael W. Deem and Ramdas Pophale) SiO2 
 PCOD9140674
Probable space group: C C
;
_chemical_formula_sum "Si O2"
_cell_formula_units_Z 24
_cell_length_a 13.664550
_cell_length_b 4.677916
_cell_length_c 16.700591
_cell_angle_alpha 90.000000
_cell_angle_beta 126.366026
_cell_angle_gamma 90.000000
_cell_volume 859.622779
_symmetry_space_group_name_H-M "C C"
_symmetry_group_IT_number 9
_symmetry_cell_setting 'monoclinic'
loop_
_space_group_symop_operation_xyz
x,y,z
x,-y,1/2+z
1/2+x,1/2+y,z
1/2+x,1/2-y,1/2+z
loop_
_atom_site_type_symbol
_atom_site_label
_atom_site_fract_x
_atom_site_fract_y
_atom_site_fract_z
Si Si1 0.745130 0.335407 0.477540
Si Si2 0.447538 0.179778 0.478606
Si Si3 0.626645 0.968156 0.772523
Si Si4 0.991802 0.144724 0.387741
Si Si5 0.663100 0.457466 0.687219
Si Si6 0.876505 0.815633 0.193739
O O1 0.409425 0.444947 0.405157
O O2 0.850864 0.529368 0.489362
O O3 0.629746 0.522390 0.451921
O O4 0.800928 0.141418 0.575707
O O5 0.490962 0.947095 0.432899
O O6 0.552417 0.329715 0.582410
O O7 0.694121 0.866190 0.883840
O O8 0.660530 0.789084 0.708491
O O9 0.489005 0.877449 0.721401
O O10 0.648962 0.296953 0.764929
O O11 0.932358 0.075858 0.272413
O O12 0.785902 0.365371 0.705005
#
# Coordination Sequence:
#
# PCOD9140674 Si02
#       6
#     4   4   4   4   4   4
#     4  11  25  46  74 104 143 185 238 291 353 420
#     4  12  25  47  73 100 144 185 235 288 357 415
#     4  11  27  48  68 107 142 187 233 293 350 423
#     4  11  27  48  68 107 142 187 233 293 350 423
#     4  12  25  47  73 100 144 185 235 288 357 415
#     4  11  25  46  74 104 143 185 238 291 353 420
#
# _framework density 27.919222999999999
#
# number of rings (size 3 to 8) (size 9 to 14) (size 15 to 20)
#    0.000    0.667    3.333    3.000    0.000    9.333 
#    0.000    0.000    0.000    0.000    0.000    0.000 
#    0.000    0.000    0.000    0.000    0.000    0.000 
#
# Total GULP energy -67412.046325 kJ/mol
# GULP energy per Si atom -5617.670527 kJ/mol
# Density = 2.785568 g / cm^3
# Si number density = 27.919223 Si / 1000 Ang^3
#
#
#
# Elastic Constant Matrix: (Units=GPa)
#
#
# Indices 1 2 3 4 5 6 
#
# 1 151.8053 -0.6023 34.4252 -0.0002 -3.2320 -0.0002
# 2 -0.6023 103.3535 40.5427 -0.0005 -12.1677 0.0008
# 3 34.4252 40.5427 213.9023 0.0000 12.5937 0.0000
# 4 -0.0002 -0.0005 0.0000 37.1517 0.0000 -9.9126
# 5 -3.2320 -12.1677 12.5937 0.0000 39.6609 0.0000
# 6 -0.0002 0.0008 0.0000 -9.9126 0.0000 47.3644
#
#
#
# Elastic Compliance Matrix: (Units=1/GPa)
#
#
# Indices 1 2 3 4 5 6 
#
# 1 0.006914 0.000697 -0.001315 0.000000 0.001195 0.000000
# 2 0.000697 0.011154 -0.002477 0.000000 0.004265 0.000000
# 3 -0.001315 -0.002477 0.005510 0.000000 -0.002617 0.000000
# 4 0.000000 0.000000 0.000000 0.028509 0.000000 0.005966
# 5 0.001195 0.004265 -0.002617 0.000000 0.027451 0.000000
# 6 0.000000 0.000000 0.000000 0.005966 0.000000 0.022362
#
#
# Mechanical properties :
#
#
# Convention : Reuss Voigt Hill
#
# Bulk Modulus (GPa) = 57.51595 68.64359 63.07977
# Shear Modulus (GPa) = 43.90393 51.14843 47.52618
#
# Velocity S-wave (km/s) = 3.96982 4.28485 4.13034
# Velocity P-wave (km/s) = 6.45432 7.00855 6.73713
#
# Compressibility (1/GPa) = 0.01738648
#
# Stress axis : x y z
#
# Youngs Moduli (GPa) = 144.63784 89.65791 181.47834
#
# Poissons Ratio (x) = -0.06248 0.23867
# Poissons Ratio (y) = -0.10079 0.44957
# Poissons Ratio (z) = 0.19022 0.22211
#
# Static dielectric constant tensor:
#      x y z
#    x 2.151260 0.000000 0.002590 
#    y 0.000000 2.088760 0.000000 
#    z 0.002590 0.000000 2.249240 
# 
# From -- ./inp_files/29677.got.cif
#   From: 2010.05.17/outbox.cif.g08.bks.cpg/sg9_15_cif.got.tgz:29677.got - 2010.06.03 20:04:27.
