data_PCOD9140088
_publ_section_title
;
Structure prediction by ZEFSAII (Michael W. Deem and Ramdas Pophale) SiO2 
 PCOD9140088
Probable space group: C C
;
_chemical_formula_sum "Si O2"
_cell_formula_units_Z 32
_cell_length_a 9.468928
_cell_length_b 14.003519
_cell_length_c 12.649830
_cell_angle_alpha 90.000000
_cell_angle_beta 49.000640
_cell_angle_gamma 90.000000
_cell_volume 1265.921478
_symmetry_space_group_name_H-M "C C"
_symmetry_group_IT_number 9
_symmetry_cell_setting 'monoclinic'
loop_
_space_group_symop_operation_xyz
x,y,z
x,-y,1/2+z
1/2+x,1/2+y,z
1/2+x,1/2-y,1/2+z
loop_
_atom_site_type_symbol
_atom_site_label
_atom_site_fract_x
_atom_site_fract_y
_atom_site_fract_z
Si Si1 0.367770 0.613897 0.630720
Si Si2 0.661533 0.881680 0.434714
Si Si3 0.611336 0.861109 0.818291
Si Si4 0.595833 0.476948 0.384708
Si Si5 0.520434 0.012766 0.693052
Si Si6 0.965031 0.126773 0.272656
Si Si7 0.344313 0.714875 0.025218
Si Si8 0.830807 0.284208 0.507825
O O1 0.332624 0.604362 0.771201
O O2 0.539682 0.549846 0.506722
O O3 0.190616 0.578050 0.647127
O O4 0.365200 0.723768 0.598069
O O5 0.593002 0.960817 0.551242
O O6 0.488399 0.864285 0.440978
O O7 0.725162 0.792964 0.476555
O O8 0.509923 0.934268 0.791213
O O9 0.474011 0.806291 0.962189
O O10 0.785797 0.905434 0.794079
O O11 0.707731 0.786065 0.691410
O O12 0.549947 0.543653 0.305039
O O13 0.465211 0.383763 0.461210
O O14 0.812861 0.447593 0.279692
O O15 0.125809 0.170359 0.117561
O O16 0.885806 0.213033 0.386020
#
# Coordination Sequence:
#
# PCOD9140088 Si02
#       8
#     4   4   4   4   4   4   4   4
#     4  11  25  44  71 103 144 177 234 292 340 411
#     4  11  24  46  70 105 140 183 233 290 344 419
#     4  11  26  47  70 102 145 175 233 296 350 412
#     4  11  25  48  73 100 142 186 239 280 354 422
#     4  11  26  49  71 105 141 184 235 290 351 415
#     4  11  24  43  72 103 142 181 233 289 350 414
#     4  11  27  46  71 100 143 182 233 289 353 415
#     4  11  23  41  72 104 135 190 232 278 348 418
#
# _framework density 25.278030000000001
#
# number of rings (size 3 to 8) (size 9 to 14) (size 15 to 20)
#    0.000    1.000    5.000    0.750   10.500    1.000 
#    4.500    0.000    0.000    0.000    0.000    0.000 
#    0.000    0.000    0.000    0.000    0.000    0.000 
#
# Total GULP energy -89628.080964 kJ/mol
# GULP energy per Si atom -5601.755060 kJ/mol
# Density = 2.522050 g / cm^3
# Si number density = 25.278030 Si / 1000 Ang^3
#
#
#
# Elastic Constant Matrix: (Units=GPa)
#
#
# Indices 1 2 3 4 5 6 
#
# 1 88.3295 -5.6258 11.8865 0.0000 -8.3658 0.0000
# 2 -5.6258 40.0994 -4.8875 0.0000 -1.0828 0.0000
# 3 11.8865 -4.8875 54.5300 0.0000 1.3328 0.0000
# 4 0.0000 0.0000 0.0000 31.7931 0.0000 -8.1948
# 5 -8.3658 -1.0828 1.3328 0.0000 42.0295 0.0000
# 6 0.0000 0.0000 0.0000 -8.1948 0.0000 23.1664
#
#
#
# Elastic Compliance Matrix: (Units=1/GPa)
#
#
# Indices 1 2 3 4 5 6 
#
# 1 0.011993 0.001440 -0.002546 0.000000 0.002505 0.000000
# 2 0.001440 0.025400 0.001941 0.000000 0.000879 0.000000
# 3 -0.002546 0.001941 0.019094 0.000000 -0.001062 0.000000
# 4 0.000000 0.000000 0.000000 0.034609 0.000000 0.012242
# 5 0.002505 0.000879 -0.001062 0.000000 0.024348 0.000000
# 6 0.000000 0.000000 0.000000 0.012242 0.000000 0.047497
#
#
# Mechanical properties :
#
#
# Convention : Reuss Voigt Hill
#
# Bulk Modulus (GPa) = 17.19505 20.63391 18.91448
# Shear Modulus (GPa) = 27.67690 31.50351 29.59021
#
# Velocity S-wave (km/s) = 3.31252 3.53410 3.42510
# Velocity P-wave (km/s) = 4.63114 4.98334 4.81046
#
# Compressibility (1/GPa) = 0.05815629
#
# Stress axis : x y z
#
# Youngs Moduli (GPa) = 83.38292 39.36947 52.37371
#
# Poissons Ratio (x) = -0.05669 0.13336
# Poissons Ratio (y) = -0.12006 -0.10167
# Poissons Ratio (z) = 0.21232 -0.07643
#
# Static dielectric constant tensor:
#      x y z
#    x 1.973790 0.000000 0.004560 
#    y 0.000000 2.017990 0.000000 
#    z 0.004560 0.000000 1.975120 
# 
# From -- ./inp_files/14714.got.cif
#   From: 2010.05.17/outbox.cif.g08.bks.cpg/sg9_8_cif.got.tgz:14714.got - 2010.06.03 20:04:27.
