data_PCOD9140810
_publ_section_title
;
Structure prediction by ZEFSAII (Michael W. Deem and Ramdas Pophale) SiO2 
 PCOD9140810
Probable space group: C C
;
_chemical_formula_sum "Si O2"
_cell_formula_units_Z 32
_cell_length_a 17.766243
_cell_length_b 5.107884
_cell_length_c 19.355730
_cell_angle_alpha 90.000000
_cell_angle_beta 47.376772
_cell_angle_gamma 90.000000
_cell_volume 1292.466550
_symmetry_space_group_name_H-M "C C"
_symmetry_group_IT_number 9
_symmetry_cell_setting 'monoclinic'
loop_
_space_group_symop_operation_xyz
x,y,z
x,-y,1/2+z
1/2+x,1/2+y,z
1/2+x,1/2-y,1/2+z
loop_
_atom_site_type_symbol
_atom_site_label
_atom_site_fract_x
_atom_site_fract_y
_atom_site_fract_z
Si Si1 0.507260 0.257087 0.332430
Si Si2 0.320533 0.892989 0.264936
Si Si3 0.903833 0.090710 0.508002
Si Si4 0.743484 0.260926 0.171117
Si Si5 0.029751 0.389049 0.529504
Si Si6 0.940169 0.118457 0.722681
Si Si7 0.295095 0.039822 0.996224
Si Si8 0.646383 0.403203 0.463183
O O1 0.490238 0.437883 0.411081
O O2 0.626472 0.164548 0.257189
O O3 0.492384 0.387036 0.265687
O O4 0.406453 0.070100 0.402634
O O5 0.281639 0.934272 0.211598
O O6 0.406759 0.672717 0.222650
O O7 0.225790 0.768560 0.363184
O O8 0.349482 0.166712 0.282315
O O9 0.822186 0.164657 0.500084
O O10 0.948735 0.343889 0.518676
O O11 0.835133 0.949345 0.607908
O O12 0.752303 0.403469 0.091810
O O13 0.057748 0.688257 0.522643
O O14 0.000117 0.254639 0.621274
O O15 0.115727 0.183793 0.452814
O O16 0.206739 0.044293 0.995676
#
# Coordination Sequence:
#
# PCOD9140810 Si02
#       8
#     4   4   4   4   4   4   4   4
#     4  11  26  46  73 108 150 200 252 313 388 455
#     4  12  25  47  72 105 147 194 247 310 370 445
#     4  11  26  48  73 107 153 197 250 320 377 456
#     4  11  26  46  73 108 150 200 252 313 388 455
#     4  12  27  47  78 109 147 197 252 309 379 451
#     4  12  25  47  72 105 147 194 247 310 370 445
#     4  11  26  48  73 107 153 197 250 320 377 456
#     4  12  27  47  78 109 147 197 252 309 379 451
#
# _framework density 24.758859999999999
#
# number of rings (size 3 to 8) (size 9 to 14) (size 15 to 20)
#    0.000    0.500    2.500    4.500   10.500    1.000 
#    0.000    0.000    0.000    0.000    0.000    0.000 
#    0.000    0.000    0.000    0.000    0.000    0.000 
#
# Total GULP energy -89342.896797 kJ/mol
# GULP energy per Si atom -5583.931050 kJ/mol
# Density = 2.470251 g / cm^3
# Si number density = 24.758860 Si / 1000 Ang^3
#
#
#
# Elastic Constant Matrix: (Units=GPa)
#
#
# Indices 1 2 3 4 5 6 
#
# 1 149.2781 28.2945 40.8036 0.0042 14.7794 -0.0096
# 2 28.2945 85.0711 24.8287 0.0234 -9.7672 0.0396
# 3 40.8036 24.8287 87.8183 -0.0164 -2.0917 -0.0112
# 4 0.0042 0.0234 -0.0164 21.9134 -0.0053 -6.7830
# 5 14.7794 -9.7672 -2.0917 -0.0053 36.5829 0.0087
# 6 -0.0096 0.0396 -0.0112 -6.7830 0.0087 39.9197
#
#
#
# Elastic Compliance Matrix: (Units=1/GPa)
#
#
# Indices 1 2 3 4 5 6 
#
# 1 0.008484 -0.002320 -0.003387 -0.000001 -0.004241 0.000004
# 2 -0.002320 0.013836 -0.002727 -0.000021 0.004476 -0.000020
# 3 -0.003387 -0.002727 0.013766 0.000017 0.001427 0.000008
# 4 -0.000001 -0.000021 0.000017 0.048168 0.000001 0.008184
# 5 -0.004241 0.004476 0.001427 0.000001 0.030325 -0.000012
# 6 0.000004 -0.000020 0.000008 0.008184 -0.000012 0.026441
#
#
# Mechanical properties :
#
#
# Convention : Reuss Voigt Hill
#
# Bulk Modulus (GPa) = 52.03597 56.66900 54.35248
# Shear Modulus (GPa) = 30.43297 34.89927 32.66612
#
# Velocity S-wave (km/s) = 3.50976 3.75849 3.63626
# Velocity P-wave (km/s) = 6.12269 6.46321 6.29525
#
# Compressibility (1/GPa) = 0.01921748
#
# Stress axis : x y z
#
# Youngs Moduli (GPa) = 117.86341 72.27302 72.64258
#
# Poissons Ratio (x) = 0.16769 0.24605
# Poissons Ratio (y) = 0.27347 0.19812
# Poissons Ratio (z) = 0.39922 0.19711
#
# Static dielectric constant tensor:
#      x y z
#    x 1.945450 -0.000030 -0.065210 
#    y -0.000030 2.038340 0.000000 
#    z -0.065210 0.000000 2.130050 
# 
# From -- ./inp_files/26398.got.cif
#   From: 2010.05.17/outbox.cif.g08.bks.cpg/sg9_14_cif.got.tgz:26398.got - 2010.06.03 20:04:27.
