data_PCOD9140678
_publ_section_title
;
Structure prediction by ZEFSAII (Michael W. Deem and Ramdas Pophale) SiO2 
 PCOD9140678
Probable space group: C C
;
_chemical_formula_sum "Si O2"
_cell_formula_units_Z 32
_cell_length_a 11.011312
_cell_length_b 15.828386
_cell_length_c 9.235632
_cell_angle_alpha 90.000000
_cell_angle_beta 121.650278
_cell_angle_gamma 90.000000
_cell_volume 1370.275891
_symmetry_space_group_name_H-M "C C"
_symmetry_group_IT_number 9
_symmetry_cell_setting 'monoclinic'
loop_
_space_group_symop_operation_xyz
x,y,z
x,-y,1/2+z
1/2+x,1/2+y,z
1/2+x,1/2-y,1/2+z
loop_
_atom_site_type_symbol
_atom_site_label
_atom_site_fract_x
_atom_site_fract_y
_atom_site_fract_z
Si Si1 0.713280 0.494644 0.375000
Si Si2 0.901202 0.846187 0.579531
Si Si3 0.999748 0.580097 0.627115
Si Si4 0.524553 0.504257 0.509531
Si Si5 0.672695 0.753534 0.244772
Si Si6 0.324341 0.183616 0.061936
Si Si7 0.349211 0.338657 0.879864
Si Si8 0.075140 0.581262 0.354963
O O1 0.832188 0.563458 0.492807
O O2 0.562550 0.498664 0.364742
O O3 0.676082 0.506458 0.184282
O O4 0.766638 0.400732 0.447759
O O5 0.812485 0.780178 0.423651
O O6 0.833049 0.844102 0.696257
O O7 0.067860 0.823999 0.713142
O O8 0.913621 0.934124 0.497351
O O9 0.060359 0.670742 0.705930
O O10 0.082381 0.565374 0.528808
O O11 0.040976 0.508666 0.764930
O O12 0.475240 0.598975 0.505206
O O13 0.720115 0.733617 0.108390
O O14 0.450641 0.148314 0.241580
O O15 0.370674 0.247407 0.964283
O O16 0.212374 0.379932 0.867615
#
# Coordination Sequence:
#
# PCOD9140678 Si02
#       8
#     4   4   4   4   4   4   4   4
#     4  11  25  47  77 106 148 193 251 303 376 442
#     4  12  30  47  75 111 151 198 251 311 376 441
#     4  11  25  46  75 106 145 193 242 306 367 442
#     4  12  26  48  74 108 150 198 249 305 378 445
#     4  12  27  48  79 107 154 195 251 306 376 441
#     4  11  26  48  74 108 142 199 244 305 368 448
#     4  12  29  44  73 106 150 193 248 305 368 442
#     4  11  26  46  71 106 148 187 250 295 373 435
#
# _framework density 23.352961000000001
#
# number of rings (size 3 to 8) (size 9 to 14) (size 15 to 20)
#    0.000    0.500    3.750    3.000   10.500    2.000 
#    0.000    0.000    0.000    0.000    0.000    0.000 
#    0.000    0.000    0.000    0.000    0.000    0.000 
#
# Total GULP energy -89444.746881 kJ/mol
# GULP energy per Si atom -5590.296680 kJ/mol
# Density = 2.329981 g / cm^3
# Si number density = 23.352961 Si / 1000 Ang^3
#
#
#
# Elastic Constant Matrix: (Units=GPa)
#
#
# Indices 1 2 3 4 5 6 
#
# 1 70.7606 19.2682 -3.5214 0.0000 -14.9126 0.0000
# 2 19.2682 111.0026 0.8677 0.0000 5.4221 0.0000
# 3 -3.5214 0.8677 44.9861 0.0000 -3.5980 0.0000
# 4 0.0000 0.0000 0.0000 17.1655 0.0000 1.6637
# 5 -14.9126 5.4221 -3.5980 0.0000 45.6975 0.0000
# 6 0.0000 0.0000 0.0000 1.6637 0.0000 41.8884
#
#
#
# Elastic Compliance Matrix: (Units=1/GPa)
#
#
# Indices 1 2 3 4 5 6 
#
# 1 0.016303 -0.003129 0.001803 0.000000 0.005834 0.000000
# 2 -0.003129 0.009665 -0.000609 0.000000 -0.002216 0.000000
# 3 0.001803 -0.000609 0.022577 0.000000 0.002438 0.000000
# 4 0.000000 0.000000 0.000000 0.058482 0.000000 -0.002323
# 5 0.005834 -0.002216 0.002438 0.000000 0.024242 0.000000
# 6 0.000000 0.000000 0.000000 -0.002323 0.000000 0.023965
#
#
# Mechanical properties :
#
#
# Convention : Reuss Voigt Hill
#
# Bulk Modulus (GPa) = 22.38327 28.88648 25.63488
# Shear Modulus (GPa) = 28.73650 34.95927 31.84789
#
# Velocity S-wave (km/s) = 3.51170 3.87330 3.69692
# Velocity P-wave (km/s) = 5.10375 5.69207 5.40592
#
# Compressibility (1/GPa) = 0.04467622
#
# Stress axis : x y z
#
# Youngs Moduli (GPa) = 61.33722 103.46679 44.29292
#
# Poissons Ratio (x) = 0.32375 -0.07986
# Poissons Ratio (y) = 0.19193 0.02696
# Poissons Ratio (z) = -0.11060 0.06297
#
# Static dielectric constant tensor:
#      x y z
#    x 1.876090 0.000000 0.038110 
#    y 0.000000 1.903180 0.000000 
#    z 0.038110 0.000000 1.861150 
# 
# From -- ./inp_files/7661.got.cif
#   From: 2010.05.17/outbox.cif.g08.bks.cpg/sg9_4_cif.got.tgz:7661.got - 2010.06.03 20:04:27.
