data_PCOD9140493
_publ_section_title
;
Structure prediction by ZEFSAII (Michael W. Deem and Ramdas Pophale) SiO2 
 PCOD9140493
Probable space group: C C
;
_chemical_formula_sum "Si O2"
_cell_formula_units_Z 20
_cell_length_a 5.036233
_cell_length_b 15.919279
_cell_length_c 12.487007
_cell_angle_alpha 90.000000
_cell_angle_beta 58.388336
_cell_angle_gamma 90.000000
_cell_volume 852.576860
_symmetry_space_group_name_H-M "C C"
_symmetry_group_IT_number 9
_symmetry_cell_setting 'monoclinic'
loop_
_space_group_symop_operation_xyz
x,y,z
x,-y,1/2+z
1/2+x,1/2+y,z
1/2+x,1/2-y,1/2+z
loop_
_atom_site_type_symbol
_atom_site_label
_atom_site_fract_x
_atom_site_fract_y
_atom_site_fract_z
Si Si1 0.847860 0.764282 0.972360
Si Si2 0.181965 0.607698 0.185769
Si Si3 0.009008 0.067406 0.334432
Si Si4 0.803163 0.893048 0.421918
Si Si5 0.747097 0.276506 0.245317
O O1 0.977814 0.858983 0.929450
O O2 0.743595 0.744946 0.872227
O O3 0.057897 0.683373 0.958896
O O4 0.575289 0.774070 0.116877
O O5 0.413001 0.597025 0.236011
O O6 0.057692 0.703698 0.224098
O O7 0.879434 0.548597 0.253728
O O8 0.362752 0.603370 0.036442
O O9 0.768830 0.991349 0.405181
O O10 0.075951 0.865071 0.282733
#
# Coordination Sequence:
#
# PCOD9140493 Si02
#       5
#     4   4   4   4   4
#     4  11  25  47  71 108 149 202 254 312 380 459
#     4  11  25  51  68 113 150 195 258 323 369 466
#     4  11  28  46  75 108 156 192 263 320 376 461
#     4  12  26  46  78 107 151 207 250 320 392 450
#     4  11  24  46  74 104 150 204 251 309 389 450
#
# _framework density 23.458295
#
# number of rings (size 3 to 8) (size 9 to 14) (size 15 to 20)
#    0.000    0.800    4.000    2.400    5.600    0.000 
#    3.600    0.000    0.000    0.000    0.000    0.000 
#    0.000    0.000    0.000    0.000    0.000    0.000 
#
# Total GULP energy -55739.401380 kJ/mol
# GULP energy per Si atom -5573.940138 kJ/mol
# Density = 2.340490 g / cm^3
# Si number density = 23.458295 Si / 1000 Ang^3
#
#
#
# Elastic Constant Matrix: (Units=GPa)
#
#
# Indices 1 2 3 4 5 6 
#
# 1 65.0731 5.1225 30.0854 0.0000 -6.5936 0.0000
# 2 5.1225 113.3339 38.7704 0.0000 -13.1466 0.0000
# 3 30.0854 38.7704 156.5812 0.0000 -11.1052 0.0000
# 4 0.0000 0.0000 0.0000 26.1960 0.0000 1.2131
# 5 -6.5936 -13.1466 -11.1052 0.0000 42.1635 0.0000
# 6 0.0000 0.0000 0.0000 1.2131 0.0000 23.1409
#
#
#
# Elastic Compliance Matrix: (Units=1/GPa)
#
#
# Indices 1 2 3 4 5 6 
#
# 1 0.017037 0.000581 -0.003277 0.000000 0.001982 0.000000
# 2 0.000581 0.009909 -0.002384 0.000000 0.002553 0.000000
# 3 -0.003277 -0.002384 0.007660 0.000000 0.000762 0.000000
# 4 0.000000 0.000000 0.000000 0.038267 0.000000 -0.002006
# 5 0.001982 0.002553 0.000762 0.000000 0.025024 0.000000
# 6 0.000000 0.000000 0.000000 -0.002006 0.000000 0.043319
#
#
# Mechanical properties :
#
#
# Convention : Reuss Voigt Hill
#
# Bulk Modulus (GPa) = 40.90525 53.66050 47.28288
# Shear Modulus (GPa) = 31.34311 35.70075 33.52193
#
# Velocity S-wave (km/s) = 3.65926 3.90536 3.78431
# Velocity P-wave (km/s) = 5.94381 6.57726 6.26854
#
# Compressibility (1/GPa) = 0.02444674
#
# Stress axis : x y z
#
# Youngs Moduli (GPa) = 58.69422 100.91952 130.54141
#
# Poissons Ratio (x) = -0.05862 0.42776
# Poissons Ratio (y) = -0.03409 0.31122
# Poissons Ratio (z) = 0.19233 0.24060
#
# Static dielectric constant tensor:
#      x y z
#    x 1.962600 0.000000 -0.070410 
#    y 0.000000 2.069220 0.000000 
#    z -0.070410 0.000000 1.893780 
# 
# From -- ./inp_files/3605.got.cif
#   From: 2010.05.17/outbox.cif.g08.bks.cpg/sg9_2_cif.got.tgz:3605.got - 2010.06.03 20:04:27.
