data_PCOD9140508
_publ_section_title
;
Structure prediction by ZEFSAII (Michael W. Deem and Ramdas Pophale) SiO2 
 PCOD9140508
Probable space group: C C
;
_chemical_formula_sum "Si O2"
_cell_formula_units_Z 32
_cell_length_a 9.019052
_cell_length_b 11.869887
_cell_length_c 12.551805
_cell_angle_alpha 90.000000
_cell_angle_beta 71.288216
_cell_angle_gamma 90.000000
_cell_volume 1272.711056
_symmetry_space_group_name_H-M "C C"
_symmetry_group_IT_number 9
_symmetry_cell_setting 'monoclinic'
loop_
_space_group_symop_operation_xyz
x,y,z
x,-y,1/2+z
1/2+x,1/2+y,z
1/2+x,1/2-y,1/2+z
loop_
_atom_site_type_symbol
_atom_site_label
_atom_site_fract_x
_atom_site_fract_y
_atom_site_fract_z
Si Si1 0.205370 0.850693 0.973720
Si Si2 0.920596 0.558054 0.943501
Si Si3 0.242257 0.440214 0.905772
Si Si4 0.438020 0.358145 0.421386
Si Si5 0.180680 0.853685 0.740083
Si Si6 0.874515 0.831013 0.673108
Si Si7 0.286906 0.099242 0.758662
Si Si8 0.377687 0.705262 0.570283
O O1 0.126695 0.851635 0.874292
O O2 0.278349 0.970562 0.980638
O O3 0.344904 0.759650 0.930528
O O4 0.048157 0.829412 0.075705
O O5 0.897741 0.672579 0.011172
O O6 0.071777 0.494119 0.951335
O O7 0.920303 0.591419 0.818649
O O8 0.361948 0.543894 0.869638
O O9 0.289117 0.369197 0.000782
O O10 0.254744 0.374634 0.790547
O O11 0.391672 0.387642 0.554660
O O12 0.622763 0.362913 0.353437
O O13 0.275178 0.739857 0.695253
O O14 0.039517 0.848741 0.691529
O O15 0.268257 0.974389 0.715372
O O16 0.835708 0.698461 0.667666
#
# Coordination Sequence:
#
# PCOD9140508 Si02
#       8
#     4   4   4   4   4   4   4   4
#     4  11  25  48  72 111 154 192 254 320 375 452
#     4  11  24  46  78 103 153 194 245 322 370 440
#     4  12  25  51  76 111 159 197 250 324 378 458
#     4  12  27  48  78 116 154 202 258 318 384 456
#     4  11  26  46  77 108 148 210 249 309 396 439
#     4  12  26  48  78 112 148 207 252 310 392 451
#     4  11  24  51  77 109 154 195 260 320 370 465
#     4  12  25  48  76 108 152 199 250 311 381 455
#
# _framework density 25.143177999999999
#
# number of rings (size 3 to 8) (size 9 to 14) (size 15 to 20)
#    0.000    0.500    5.000    2.250    3.500    4.000 
#    0.000    0.000    0.000    0.000    0.000    0.000 
#    0.000    0.000    0.000    0.000    0.000    0.000 
#
# Total GULP energy -89575.107565 kJ/mol
# GULP energy per Si atom -5598.444223 kJ/mol
# Density = 2.508595 g / cm^3
# Si number density = 25.143178 Si / 1000 Ang^3
#
#
#
# Elastic Constant Matrix: (Units=GPa)
#
#
# Indices 1 2 3 4 5 6 
#
# 1 116.8890 38.6468 6.2823 0.0000 -4.8622 0.0000
# 2 38.6468 113.2474 13.5023 0.0000 -6.9710 0.0000
# 3 6.2823 13.5023 58.2883 0.0000 6.6091 0.0000
# 4 0.0000 0.0000 0.0000 36.1249 0.0000 3.4666
# 5 -4.8622 -6.9710 6.6091 0.0000 21.9830 0.0000
# 6 0.0000 0.0000 0.0000 3.4666 0.0000 42.0155
#
#
#
# Elastic Compliance Matrix: (Units=1/GPa)
#
#
# Indices 1 2 3 4 5 6 
#
# 1 0.009681 -0.003171 -0.000453 0.000000 0.001272 0.000000
# 2 -0.003171 0.010410 -0.002448 0.000000 0.003335 0.000000
# 3 -0.000453 -0.002448 0.018502 0.000000 -0.006439 0.000000
# 4 0.000000 0.000000 0.000000 0.027903 0.000000 -0.002302
# 5 0.001272 0.003335 -0.006439 0.000000 0.048765 0.000000
# 6 0.000000 0.000000 0.000000 -0.002302 0.000000 0.023991
#
#
# Mechanical properties :
#
#
# Convention : Reuss Voigt Hill
#
# Bulk Modulus (GPa) = 37.80952 45.03195 41.42073
# Shear Modulus (GPa) = 31.20885 35.35756 33.28321
#
# Velocity S-wave (km/s) = 3.52695 3.75407 3.64228
# Velocity P-wave (km/s) = 5.62638 6.06133 5.84790
#
# Compressibility (1/GPa) = 0.02644837
#
# Stress axis : x y z
#
# Youngs Moduli (GPa) = 103.29583 96.06462 54.04811
#
# Poissons Ratio (x) = 0.30466 0.02448
# Poissons Ratio (y) = 0.32760 0.13230
# Poissons Ratio (z) = 0.04679 0.23514
#
# Static dielectric constant tensor:
#      x y z
#    x 1.950720 0.000000 -0.040020 
#    y 0.000000 1.952700 0.000000 
#    z -0.040020 0.000000 2.098580 
# 
# From -- ./inp_files/22803.got.cif
#   From: 2010.05.17/outbox.cif.g08.bks.cpg/sg9_12_cif.got.tgz:22803.got - 2010.06.03 20:04:27.
