data_PCOD9140070
_publ_section_title
;
Structure prediction by ZEFSAII (Michael W. Deem and Ramdas Pophale) SiO2 
 PCOD9140070
Probable space group: C C
;
_chemical_formula_sum "Si O2"
_cell_formula_units_Z 32
_cell_length_a 18.807642
_cell_length_b 6.519240
_cell_length_c 10.659399
_cell_angle_alpha 90.000000
_cell_angle_beta 107.802743
_cell_angle_gamma 90.000000
_cell_volume 1244.380893
_symmetry_space_group_name_H-M "C C"
_symmetry_group_IT_number 9
_symmetry_cell_setting 'monoclinic'
loop_
_space_group_symop_operation_xyz
x,y,z
x,-y,1/2+z
1/2+x,1/2+y,z
1/2+x,1/2-y,1/2+z
loop_
_atom_site_type_symbol
_atom_site_label
_atom_site_fract_x
_atom_site_fract_y
_atom_site_fract_z
Si Si1 0.929020 0.812770 0.102180
Si Si2 0.524226 0.073985 0.703882
Si Si3 0.815175 0.797989 0.399379
Si Si4 0.118150 0.182620 0.063387
Si Si5 0.178639 0.576741 0.389914
Si Si6 0.246076 0.086804 0.757593
Si Si7 0.499326 0.426604 0.873032
Si Si8 0.328881 0.560849 0.156601
O O1 0.961153 0.586608 0.134350
O O2 0.960183 0.943327 0.239851
O O3 0.840602 0.846825 0.080708
O O4 0.960231 0.892876 0.986507
O O5 0.551096 0.229538 0.611077
O O6 0.504963 0.202286 0.816816
O O7 0.600686 0.955382 0.777937
O O8 0.808434 0.571628 0.340030
O O9 0.863253 0.811650 0.552892
O O10 0.733534 0.884754 0.399855
O O11 0.835467 0.952537 0.297871
O O12 0.160098 0.376281 0.024154
O O13 0.178877 0.050298 0.168151
O O14 0.077883 0.036398 0.940864
O O15 0.214198 0.780062 0.353172
O O16 0.275962 0.252396 0.674551
#
# Coordination Sequence:
#
# PCOD9140070 Si02
#       8
#     4   4   4   4   4   4   4   4
#     4  12  27  50  73 109 156 211 272 321 388 476
#     4  12  25  44  73 115 153 203 255 325 402 471
#     4  11  24  47  73 111 150 203 264 325 407 466
#     4  12  22  43  72 117 157 197 250 330 412 481
#     4  11  23  38  67 108 149 188 246 316 392 484
#     4  11  24  43  72 111 152 200 254 324 401 470
#     4  12  26  47  75 111 155 203 265 329 396 475
#     4  11  27  48  75 106 156 207 268 328 382 483
#
# _framework density 25.715596999999999
#
# number of rings (size 3 to 8) (size 9 to 14) (size 15 to 20)
#    0.000    0.500    3.750    4.500    3.500    2.000 
#    0.000    2.500    0.000    0.000    0.000    0.000 
#    0.000    0.000    0.000    0.000    0.000    0.000 
#
# Total GULP energy -89261.530004 kJ/mol
# GULP energy per Si atom -5578.845625 kJ/mol
# Density = 2.565707 g / cm^3
# Si number density = 25.715597 Si / 1000 Ang^3
#
#
#
# Elastic Constant Matrix: (Units=GPa)
#
#
# Indices 1 2 3 4 5 6 
#
# 1 100.9697 59.0115 52.7281 0.0000 -30.4017 0.0000
# 2 59.0115 134.8959 59.0835 0.0000 -2.5304 0.0000
# 3 52.7281 59.0835 141.9369 0.0000 -21.7202 0.0000
# 4 0.0000 0.0000 0.0000 53.1265 0.0000 -15.9083
# 5 -30.4017 -2.5304 -21.7202 0.0000 55.6064 0.0000
# 6 0.0000 0.0000 0.0000 -15.9083 0.0000 -24.4216
#
#
#
# Elastic Compliance Matrix: (Units=1/GPa)
#
#
# Indices 1 2 3 4 5 6 
#
# 1 0.017439 -0.006346 -0.002576 0.000000 0.008239 0.000000
# 2 -0.006346 0.011443 -0.003039 0.000000 -0.004136 0.000000
# 3 -0.002576 -0.003039 0.009605 0.000000 0.002205 0.000000
# 4 0.000000 0.000000 0.000000 0.015751 0.000000 -0.010260
# 5 0.008239 -0.004136 0.002205 0.000000 0.023161 0.000000
# 6 0.000000 0.000000 0.000000 -0.010260 0.000000 -0.034264
#
#
# Mechanical properties :
#
#
# Convention : Reuss Voigt Hill
#
# Bulk Modulus (GPa) = 68.65719 79.93876 74.29798
# Shear Modulus (GPa) = 69.53116 30.66088 50.09602
#
# Velocity S-wave (km/s) = 5.20550 3.45673 4.41849
# Velocity P-wave (km/s) = 7.93008 6.86186 7.41523
#
# Compressibility (1/GPa) = 0.01456512
#
# Stress axis : x y z
#
# Youngs Moduli (GPa) = 57.34293 87.39315 104.11720
#
# Poissons Ratio (x) = 0.55460 0.26819
# Poissons Ratio (y) = 0.36390 0.31636
# Poissons Ratio (z) = 0.14771 0.26555
#
# Static dielectric constant tensor:
#      x y z
#    x 2.445660 0.000000 0.345120 
#    y 0.000000 2.093810 0.000000 
#    z 0.345120 0.000000 2.257500 
# 
# From -- ./inp_files/20668.got.cif
#   From: 2010.05.17/outbox.cif.g08.bks.cpg/sg9_11_cif.got.tgz:20668.got - 2010.06.03 20:04:27.
