data_PCOD9140134
_publ_section_title
;
Structure prediction by ZEFSAII (Michael W. Deem and Ramdas Pophale) SiO2 
 PCOD9140134
Probable space group: C C
;
_chemical_formula_sum "Si O2"
_cell_formula_units_Z 32
_cell_length_a 14.801381
_cell_length_b 12.016802
_cell_length_c 10.564509
_cell_angle_alpha 90.000000
_cell_angle_beta 52.436037
_cell_angle_gamma 90.000000
_cell_volume 1489.479948
_symmetry_space_group_name_H-M "C C"
_symmetry_group_IT_number 9
_symmetry_cell_setting 'monoclinic'
loop_
_space_group_symop_operation_xyz
x,y,z
x,-y,1/2+z
1/2+x,1/2+y,z
1/2+x,1/2-y,1/2+z
loop_
_atom_site_type_symbol
_atom_site_label
_atom_site_fract_x
_atom_site_fract_y
_atom_site_fract_z
Si Si1 0.547800 0.320049 0.611740
Si Si2 0.180339 0.387327 0.937028
Si Si3 0.063295 0.559574 0.885472
Si Si4 0.014396 0.819036 0.930843
Si Si5 0.312396 0.544920 0.546131
Si Si6 0.837974 0.561421 0.495635
Si Si7 0.842125 0.196719 0.099067
Si Si8 0.197852 0.013574 0.364274
O O1 0.621123 0.209018 0.565132
O O2 0.526233 0.355568 0.773460
O O3 0.437570 0.286699 0.625005
O O4 0.618168 0.411018 0.474149
O O5 0.094744 0.488165 0.983515
O O6 0.222734 0.326155 0.773001
O O7 0.291140 0.428199 0.917291
O O8 0.025094 0.686805 0.937514
O O9 0.184280 0.552143 0.710458
O O10 0.961953 0.493918 0.903256
O O11 0.114469 0.881231 0.919051
O O12 0.889261 0.869940 0.061492
O O13 0.363579 0.421553 0.514123
O O14 0.841478 0.694469 0.513783
O O15 0.784140 0.532631 0.406424
O O16 0.762678 0.513162 0.677526
#
# Coordination Sequence:
#
# PCOD9140134 Si02
#       8
#     4   4   4   4   4   4   4   4
#     4  12  22  45  72 101 140 191 245 292 363 436
#     4  11  23  43  71 100 142 186 244 292 365 434
#     4  11  28  43  69 106 143 192 238 303 363 429
#     4  12  26  46  72 106 148 189 241 307 363 436
#     4  11  25  44  70 105 141 189 243 296 363 433
#     4  12  28  48  74 106 148 190 247 303 363 433
#     4  11  24  44  70 102 141 187 237 306 357 428
#     4  12  28  47  72 110 143 194 243 301 365 431
#
# _framework density 21.484009
#
# number of rings (size 3 to 8) (size 9 to 14) (size 15 to 20)
#    0.000    0.500    7.500    0.000    8.750    0.000 
#    0.000    2.500    0.000    0.000    0.000    0.000 
#    0.000    0.000    0.000    0.000    0.000    0.000 
#
# Total GULP energy -89398.679639 kJ/mol
# GULP energy per Si atom -5587.417477 kJ/mol
# Density = 2.143511 g / cm^3
# Si number density = 21.484009 Si / 1000 Ang^3
#
#
#
# Elastic Constant Matrix: (Units=GPa)
#
#
# Indices 1 2 3 4 5 6 
#
# 1 122.1155 40.2293 2.9709 0.0000 -10.9950 0.0000
# 2 40.2293 145.0422 3.8478 0.0000 -14.0257 0.0000
# 3 2.9709 3.8478 38.7486 0.0000 -9.4687 0.0000
# 4 0.0000 0.0000 0.0000 17.0277 0.0000 1.1709
# 5 -10.9950 -14.0257 -9.4687 0.0000 30.2133 0.0000
# 6 0.0000 0.0000 0.0000 1.1709 0.0000 36.5703
#
#
#
# Elastic Compliance Matrix: (Units=1/GPa)
#
#
# Indices 1 2 3 4 5 6 
#
# 1 0.009157 -0.002321 0.000086 0.000000 0.002282 0.000000
# 2 -0.002321 0.007808 0.000089 0.000000 0.002807 0.000000
# 3 0.000086 0.000089 0.027950 0.000000 0.008832 0.000000
# 4 0.000000 0.000000 0.000000 0.058857 0.000000 -0.001885
# 5 0.002282 0.002807 0.008832 0.000000 0.038000 0.000000
# 6 0.000000 0.000000 0.000000 -0.001885 0.000000 0.027405
#
#
# Mechanical properties :
#
#
# Convention : Reuss Voigt Hill
#
# Bulk Modulus (GPa) = 24.61762 44.44468 34.53115
# Shear Modulus (GPa) = 26.73645 34.01949 30.37797
#
# Velocity S-wave (km/s) = 3.53155 3.98361 3.76437
# Velocity P-wave (km/s) = 5.30213 6.47234 5.91624
#
# Compressibility (1/GPa) = 0.04062130
#
# Stress axis : x y z
#
# Youngs Moduli (GPa) = 109.20496 128.08084 35.77798
#
# Poissons Ratio (x) = 0.29734 -0.00308
# Poissons Ratio (y) = 0.25352 -0.00317
# Poissons Ratio (z) = -0.00939 -0.01136
#
# Static dielectric constant tensor:
#      x y z
#    x 1.769860 0.000000 0.021680 
#    y 0.000000 1.766440 0.000000 
#    z 0.021680 0.000000 1.860600 
# 
# From -- ./inp_files/18213.got.cif
#   From: 2010.05.17/outbox.cif.g08.bks.cpg/sg9_10_cif.got.tgz:18213.got - 2010.06.03 20:04:27.
