data_PCOD9140238
_publ_section_title
;
Structure prediction by ZEFSAII (Michael W. Deem and Ramdas Pophale) SiO2 
 PCOD9140238
Probable space group: C C
;
_chemical_formula_sum "Si O2"
_cell_formula_units_Z 32
_cell_length_a 8.391931
_cell_length_b 18.986942
_cell_length_c 13.232051
_cell_angle_alpha 90.000000
_cell_angle_beta 134.994670
_cell_angle_gamma 90.000000
_cell_volume 1490.972020
_symmetry_space_group_name_H-M "C C"
_symmetry_group_IT_number 9
_symmetry_cell_setting 'monoclinic'
loop_
_space_group_symop_operation_xyz
x,y,z
x,-y,1/2+z
1/2+x,1/2+y,z
1/2+x,1/2-y,1/2+z
loop_
_atom_site_type_symbol
_atom_site_label
_atom_site_fract_x
_atom_site_fract_y
_atom_site_fract_z
Si Si1 0.921740 0.486733 0.689670
Si Si2 0.651546 0.734305 0.956864
Si Si3 0.616273 0.530444 0.717818
Si Si4 0.388881 0.878598 0.050379
Si Si5 0.940144 0.612218 0.004963
Si Si6 0.665992 0.103492 0.467963
Si Si7 0.975116 0.115747 0.246947
Si Si8 0.662041 0.741741 0.194442
O O1 0.689006 0.498584 0.643673
O O2 0.977095 0.563558 0.668880
O O3 0.897764 0.435201 0.584727
O O4 0.084932 0.450058 0.844877
O O5 0.668805 0.815921 0.933402
O O6 0.384545 0.720916 0.837258
O O7 0.796990 0.683210 0.953433
O O8 0.721665 0.725688 0.104932
O O9 0.413660 0.584418 0.616176
O O10 0.524482 0.464694 0.739463
O O11 0.833613 0.567913 0.864891
O O12 0.469031 0.800335 0.110859
O O13 0.499676 0.898592 0.990863
O O14 0.118669 0.877054 0.914714
O O15 0.207230 0.625962 0.122993
O O16 0.088539 0.172444 0.221804
#
# Coordination Sequence:
#
# PCOD9140238 Si02
#       8
#     4   4   4   4   4   4   4   4
#     4  12  24  44  70 102 136 190 228 281 363 407
#     4  11  23  46  71 103 138 187 232 289 353 428
#     4  12  25  44  71 103 139 183 234 294 346 422
#     4  11  24  47  70 106 142 182 237 294 350 420
#     4  12  27  43  73 106 138 189 236 287 357 414
#     4  11  24  46  71 101 144 175 238 295 344 423
#     4  12  24  48  68 102 150 175 234 301 338 423
#     4  11  23  46  76  95 141 189 229 287 361 413
#
# _framework density 21.462510000000002
#
# number of rings (size 3 to 8) (size 9 to 14) (size 15 to 20)
#    0.000    0.500    5.000    4.500    1.750    5.000 
#    4.500    0.000    0.000    0.000    0.000    0.000 
#    0.000    0.000    0.000    0.000    0.000    0.000 
#
# Total GULP energy -89451.017826 kJ/mol
# GULP energy per Si atom -5590.688614 kJ/mol
# Density = 2.141366 g / cm^3
# Si number density = 21.462510 Si / 1000 Ang^3
#
#
#
# Elastic Constant Matrix: (Units=GPa)
#
#
# Indices 1 2 3 4 5 6 
#
# 1 49.7479 28.1484 32.4402 0.0000 20.8365 0.0000
# 2 28.1484 91.3463 25.0870 0.0000 7.4966 0.0000
# 3 32.4402 25.0870 99.1028 0.0000 19.1438 0.0000
# 4 0.0000 0.0000 0.0000 40.8632 0.0000 -1.4779
# 5 20.8365 7.4966 19.1438 0.0000 40.9014 0.0000
# 6 0.0000 0.0000 0.0000 -1.4779 0.0000 27.8038
#
#
#
# Elastic Compliance Matrix: (Units=1/GPa)
#
#
# Indices 1 2 3 4 5 6 
#
# 1 0.034233 -0.007629 -0.006790 0.000000 -0.012863 0.000000
# 2 -0.007629 0.013491 -0.001310 0.000000 0.002026 0.000000
# 3 -0.006790 -0.001310 0.013116 0.000000 -0.002440 0.000000
# 4 0.000000 0.000000 0.000000 0.024519 0.000000 0.001303
# 5 -0.012863 0.002026 -0.002440 0.000000 0.031773 0.000000
# 6 0.000000 0.000000 0.000000 0.001303 0.000000 0.036036
#
#
# Mechanical properties :
#
#
# Convention : Reuss Voigt Hill
#
# Bulk Modulus (GPa) = 34.03160 45.72759 39.87959
# Shear Modulus (GPa) = 25.71773 32.21510 28.96641
#
# Velocity S-wave (km/s) = 3.46535 3.87847 3.67771
# Velocity P-wave (km/s) = 5.64821 6.43496 6.05438
#
# Compressibility (1/GPa) = 0.02938445
#
# Stress axis : x y z
#
# Youngs Moduli (GPa) = 29.21153 74.12112 76.24309
#
# Poissons Ratio (x) = 0.56543 0.51768
# Poissons Ratio (y) = 0.22284 0.09985
# Poissons Ratio (z) = 0.19834 0.09707
#
# Static dielectric constant tensor:
#      x y z
#    x 1.774050 0.000000 -0.019130 
#    y 0.000000 1.779190 0.000000 
#    z -0.019130 0.000000 1.825760 
# 
# From -- ./inp_files/5630.got.cif
#   From: 2010.05.17/outbox.cif.g08.bks.cpg/sg9_3_cif.got.tgz:5630.got - 2010.06.03 20:04:27.
