data_PCOD9140847
_publ_section_title
;
Structure prediction by ZEFSAII (Michael W. Deem and Ramdas Pophale) SiO2 
 PCOD9140847
Probable space group: C C
;
_chemical_formula_sum "Si O2"
_cell_formula_units_Z 24
_cell_length_a 5.989296
_cell_length_b 20.468581
_cell_length_c 8.496672
_cell_angle_alpha 90.000000
_cell_angle_beta 116.837744
_cell_angle_gamma 90.000000
_cell_volume 929.432198
_symmetry_space_group_name_H-M "C C"
_symmetry_group_IT_number 9
_symmetry_cell_setting 'monoclinic'
loop_
_space_group_symop_operation_xyz
x,y,z
x,-y,1/2+z
1/2+x,1/2+y,z
1/2+x,1/2-y,1/2+z
loop_
_atom_site_type_symbol
_atom_site_label
_atom_site_fract_x
_atom_site_fract_y
_atom_site_fract_z
Si Si1 0.385530 0.125139 0.000000
Si Si2 0.019720 0.941055 0.956917
Si Si3 0.855756 0.127665 0.687931
Si Si4 0.184043 0.845911 0.758997
Si Si5 0.728508 0.784672 0.418794
Si Si6 0.543824 0.004146 0.663756
O O1 0.483033 0.182457 0.917609
O O2 0.103010 0.108483 0.864033
O O3 0.384875 0.145573 0.183486
O O4 0.533548 0.057234 0.040243
O O5 0.116991 0.913294 0.822151
O O6 0.765513 0.981488 0.851456
O O7 0.945873 0.878075 0.038548
O O8 0.251474 0.980582 0.108697
O O9 0.765936 0.191297 0.750650
O O10 0.644121 0.073285 0.636477
O O11 0.252376 0.792532 0.911790
O O12 0.941424 0.816032 0.595720
#
# Coordination Sequence:
#
# PCOD9140847 Si02
#       6
#     4   4   4   4   4   4
#     4  11  26  50  74 110 153 200 255 321 385 463
#     4  12  29  47  80 116 156 203 258 319 390 461
#     4  11  28  46  78 109 156 199 255 314 392 453
#     4  11  29  48  77 111 150 204 261 317 387 459
#     4  11  27  50  75 109 154 204 259 318 387 458
#     4  12  27  47  78 113 157 200 252 319 391 460
#
# _framework density 25.822217999999999
#
# number of rings (size 3 to 8) (size 9 to 14) (size 15 to 20)
#    0.000    0.667    3.333    1.000   16.333    1.333 
#    0.000    0.000    0.000    0.000    0.000    0.000 
#    0.000    0.000    0.000    0.000    0.000    0.000 
#
# Total GULP energy -67119.194600 kJ/mol
# GULP energy per Si atom -5593.266217 kJ/mol
# Density = 2.576345 g / cm^3
# Si number density = 25.822218 Si / 1000 Ang^3
#
#
#
# Elastic Constant Matrix: (Units=GPa)
#
#
# Indices 1 2 3 4 5 6 
#
# 1 113.2709 43.4746 69.4889 0.0000 11.4438 0.0000
# 2 43.4746 92.4071 24.0472 0.0000 -4.9639 0.0000
# 3 69.4889 24.0472 89.7319 0.0000 14.1747 0.0000
# 4 0.0000 0.0000 0.0000 52.2244 0.0000 -8.4782
# 5 11.4438 -4.9639 14.1747 0.0000 63.7161 0.0000
# 6 0.0000 0.0000 0.0000 -8.4782 0.0000 36.1737
#
#
#
# Elastic Compliance Matrix: (Units=1/GPa)
#
#
# Indices 1 2 3 4 5 6 
#
# 1 0.019185 -0.005643 -0.013194 0.000000 -0.000950 0.000000
# 2 -0.005643 0.013464 0.000452 0.000000 0.001962 0.000000
# 3 -0.013194 0.000452 0.021621 0.000000 -0.002405 0.000000
# 4 0.000000 0.000000 0.000000 0.019906 0.000000 0.004665
# 5 -0.000950 0.001962 -0.002405 0.000000 0.016553 0.000000
# 6 0.000000 0.000000 0.000000 0.004665 0.000000 0.028738
#
#
# Mechanical properties :
#
#
# Convention : Reuss Voigt Hill
#
# Bulk Modulus (GPa) = 57.14725 63.27014 60.20869
# Shear Modulus (GPa) = 30.85072 40.98280 35.91676
#
# Velocity S-wave (km/s) = 3.46024 3.98818 3.73356
# Velocity P-wave (km/s) = 6.17604 6.76482 6.47713
#
# Compressibility (1/GPa) = 0.01749866
#
# Stress axis : x y z
#
# Youngs Moduli (GPa) = 52.12477 74.26968 46.25158
#
# Poissons Ratio (x) = 0.41912 0.61026
# Poissons Ratio (y) = 0.29415 -0.02090
# Poissons Ratio (z) = 0.68775 -0.03356
#
# Static dielectric constant tensor:
#      x y z
#    x 2.041090 0.000000 -0.012560 
#    y 0.000000 1.968120 0.000000 
#    z -0.012560 0.000000 2.059400 
# 
# From -- ./inp_files/3805.got.cif
#   From: 2010.05.17/outbox.cif.g08.bks.cpg/sg9_2_cif.got.tgz:3805.got - 2010.06.03 20:04:27.
