data_PCOD9140457
_publ_section_title
;
Structure prediction by ZEFSAII (Michael W. Deem and Ramdas Pophale) SiO2 
 PCOD9140457
Probable space group: C C
;
_chemical_formula_sum "Si O2"
_cell_formula_units_Z 28
_cell_length_a 15.837240
_cell_length_b 9.100983
_cell_length_c 9.706158
_cell_angle_alpha 90.000000
_cell_angle_beta 129.901482
_cell_angle_gamma 90.000000
_cell_volume 1073.234517
_symmetry_space_group_name_H-M "C C"
_symmetry_group_IT_number 9
_symmetry_cell_setting 'monoclinic'
loop_
_space_group_symop_operation_xyz
x,y,z
x,-y,1/2+z
1/2+x,1/2+y,z
1/2+x,1/2-y,1/2+z
loop_
_atom_site_type_symbol
_atom_site_label
_atom_site_fract_x
_atom_site_fract_y
_atom_site_fract_z
Si Si1 0.626720 0.990512 0.797660
Si Si2 0.138364 0.822024 0.459112
Si Si3 0.775997 0.770317 0.332907
Si Si4 0.575765 0.184882 0.983233
Si Si5 0.401280 0.709224 0.677741
Si Si6 0.340444 0.742088 0.310238
Si Si7 0.837414 0.478128 0.106939
O O1 0.562754 0.109726 0.822230
O O2 0.569132 0.933346 0.599594
O O3 0.650102 0.843193 0.910204
O O4 0.734108 0.084861 0.865181
O O5 0.170018 0.808560 0.652157
O O6 0.222248 0.933251 0.475958
O O7 0.016179 0.871485 0.302925
O O8 0.832670 0.657435 0.496917
O O9 0.845008 0.810518 0.267696
O O10 0.469156 0.293281 0.892100
O O11 0.710067 0.215699 0.130275
O O12 0.346675 0.687423 0.472294
O O13 0.419856 0.885627 0.686342
O O14 0.343293 0.912102 0.266786
#
# Coordination Sequence:
#
# PCOD9140457 Si02
#       7
#     4   4   4   4   4   4   4
#     4  12  24  48  78 112 155 212 259 328 391 477
#     4  11  24  47  77 111 150 201 264 326 390 467
#     4  11  25  48  74 113 153 204 267 318 394 477
#     4  12  27  51  81 113 162 210 269 323 404 476
#     4  11  24  45  78 105 154 206 257 320 395 468
#     4  12  27  50  81 117 154 214 262 326 397 478
#     4  11  25  49  79 109 156 203 266 323 397 473
#
# _framework density 26.089359000000002
#
# number of rings (size 3 to 8) (size 9 to 14) (size 15 to 20)
#    0.000    0.571    4.286    4.286    0.000    2.286 
#    2.571    2.857    0.000    0.000    0.000    0.000 
#    0.000    0.000    0.000    0.000    0.000    0.000 
#
# Total GULP energy -78006.068965 kJ/mol
# GULP energy per Si atom -5571.862069 kJ/mol
# Density = 2.602998 g / cm^3
# Si number density = 26.089359 Si / 1000 Ang^3
#
#
#
# Elastic Constant Matrix: (Units=GPa)
#
#
# Indices 1 2 3 4 5 6 
#
# 1 146.7015 43.1640 45.0048 0.0000 3.3491 0.0000
# 2 43.1640 68.6068 35.6677 0.0000 -8.0432 0.0000
# 3 45.0048 35.6677 140.1706 0.0000 29.5192 0.0000
# 4 0.0000 0.0000 0.0000 40.9580 0.0000 -1.6435
# 5 3.3491 -8.0432 29.5192 0.0000 46.9025 0.0000
# 6 0.0000 0.0000 0.0000 -1.6435 0.0000 35.9969
#
#
#
# Elastic Compliance Matrix: (Units=1/GPa)
#
#
# Indices 1 2 3 4 5 6 
#
# 1 0.008678 -0.004756 -0.001468 0.000000 -0.000511 0.000000
# 2 -0.004756 0.021269 -0.005447 0.000000 0.007415 0.000000
# 3 -0.001468 -0.005447 0.010567 0.000000 -0.007480 0.000000
# 4 0.000000 0.000000 0.000000 0.024460 0.000000 0.001117
# 5 -0.000511 0.007415 -0.007480 0.000000 0.027336 0.000000
# 6 0.000000 0.000000 0.000000 0.001117 0.000000 0.027831
#
#
# Mechanical properties :
#
#
# Convention : Reuss Voigt Hill
#
# Bulk Modulus (GPa) = 58.23626 67.01690 62.62658
# Shear Modulus (GPa) = 33.51020 40.21428 36.86224
#
# Velocity S-wave (km/s) = 3.58780 3.93033 3.76296
# Velocity P-wave (km/s) = 6.28755 6.80734 6.55260
#
# Compressibility (1/GPa) = 0.01717143
#
# Stress axis : x y z
#
# Youngs Moduli (GPa) = 115.23150 47.01621 94.63698
#
# Poissons Ratio (x) = 0.22363 0.13896
# Poissons Ratio (y) = 0.54809 0.51545
# Poissons Ratio (z) = 0.16920 0.25608
#
# Static dielectric constant tensor:
#      x y z
#    x 2.217040 0.000000 0.162790 
#    y 0.000000 2.022820 0.000000 
#    z 0.162790 0.000000 2.178300 
# 
# From -- ./inp_files/19283.got.cif
#   From: 2010.05.17/outbox.cif.g08.bks.cpg/sg9_10_cif.got.tgz:19283.got - 2010.06.03 20:04:27.
