data_PCOD9140038
_publ_section_title
;
Structure prediction by ZEFSAII (Michael W. Deem and Ramdas Pophale) SiO2 
 PCOD9140038
Probable space group: C C
;
_chemical_formula_sum "Si O2"
_cell_formula_units_Z 32
_cell_length_a 9.845687
_cell_length_b 9.559134
_cell_length_c 17.765002
_cell_angle_alpha 90.000000
_cell_angle_beta 119.024320
_cell_angle_gamma 90.000000
_cell_volume 1461.998276
_symmetry_space_group_name_H-M "C C"
_symmetry_group_IT_number 9
_symmetry_cell_setting 'monoclinic'
loop_
_space_group_symop_operation_xyz
x,y,z
x,-y,1/2+z
1/2+x,1/2+y,z
1/2+x,1/2-y,1/2+z
loop_
_atom_site_type_symbol
_atom_site_label
_atom_site_fract_x
_atom_site_fract_y
_atom_site_fract_z
Si Si1 0.154970 0.681574 0.300080
Si Si2 0.507867 0.973658 0.366922
Si Si3 0.009085 0.375519 0.022379
Si Si4 0.641692 0.339529 0.914723
Si Si5 0.429745 0.635818 0.486753
Si Si6 0.948604 0.113353 0.093351
Si Si7 0.163286 0.351174 0.626636
Si Si8 0.136806 0.977125 0.272282
O O1 0.292641 0.696724 0.398439
O O2 0.202506 0.664421 0.225394
O O3 0.064448 0.828567 0.276665
O O4 0.061480 0.547945 0.304729
O O5 0.591108 0.823794 0.401789
O O6 0.321961 0.954839 0.316275
O O7 0.541002 0.081882 0.444531
O O8 0.822067 0.369756 0.975934
O O9 0.041381 0.225755 0.068201
O O10 0.094734 0.494896 0.092782
O O11 0.551310 0.415448 0.956966
O O12 0.600766 0.406534 0.824282
O O13 0.375358 0.503889 0.519710
O O14 0.524665 0.746930 0.562715
O O15 0.813414 0.170802 0.112879
O O16 0.069751 0.030131 0.176703
#
# Coordination Sequence:
#
# PCOD9140038 Si02
#       8
#     4   4   4   4   4   4   4   4
#     4  12  26  45  75 100 143 193 232 296 359 424
#     4  11  25  48  69 107 145 182 241 295 349 432
#     4  11  23  45  71 101 140 188 231 292 360 419
#     4  11  22  46  74  96 144 185 230 294 358 419
#     4  12  23  47  73  98 140 190 232 294 359 416
#     4  12  27  45  71 105 143 188 239 295 359 424
#     4  12  26  49  68 105 148 180 242 302 346 424
#     4  11  26  45  69 108 139 188 239 286 360 430
#
# _framework density 21.88785
#
# number of rings (size 3 to 8) (size 9 to 14) (size 15 to 20)
#    0.000    0.500    5.000    3.000    3.500    2.000 
#    6.750    0.000    0.000    0.000    0.000    0.000 
#    0.000    0.000    0.000    0.000    0.000    0.000 
#
# Total GULP energy -89386.735402 kJ/mol
# GULP energy per Si atom -5586.670963 kJ/mol
# Density = 2.183803 g / cm^3
# Si number density = 21.887850 Si / 1000 Ang^3
#
#
#
# Elastic Constant Matrix: (Units=GPa)
#
#
# Indices 1 2 3 4 5 6 
#
# 1 80.5995 24.4569 23.1082 0.0000 -17.0597 0.0000
# 2 24.4569 98.4968 44.1845 0.0000 -11.6075 0.0000
# 3 23.1082 44.1845 122.6765 0.0000 -10.9177 0.0000
# 4 0.0000 0.0000 0.0000 39.9215 0.0000 -0.7201
# 5 -17.0597 -11.6075 -10.9177 0.0000 28.1691 0.0000
# 6 0.0000 0.0000 0.0000 -0.7201 0.0000 33.0270
#
#
#
# Elastic Compliance Matrix: (Units=1/GPa)
#
#
# Indices 1 2 3 4 5 6 
#
# 1 0.015104 -0.002235 -0.001355 0.000000 0.007701 0.000000
# 2 -0.002235 0.012766 -0.003966 0.000000 0.002370 0.000000
# 3 -0.001355 -0.003966 0.009960 0.000000 0.001406 0.000000
# 4 0.000000 0.000000 0.000000 0.025059 0.000000 0.000546
# 5 0.007701 0.002370 0.001406 0.000000 0.041685 0.000000
# 6 0.000000 0.000000 0.000000 0.000546 0.000000 0.030290
#
#
# Mechanical properties :
#
#
# Convention : Reuss Voigt Hill
#
# Bulk Modulus (GPa) = 44.01728 53.91913 48.96820
# Shear Modulus (GPa) = 31.73630 34.22506 32.98068
#
# Velocity S-wave (km/s) = 3.81195 3.95860 3.88597
# Velocity P-wave (km/s) = 6.28718 6.75143 6.52344
#
# Compressibility (1/GPa) = 0.02271835
#
# Stress axis : x y z
#
# Youngs Moduli (GPa) = 66.20936 78.33342 100.39916
#
# Poissons Ratio (x) = 0.17508 0.13601
# Poissons Ratio (y) = 0.14798 0.39819
# Poissons Ratio (z) = 0.08969 0.31067
#
# Static dielectric constant tensor:
#      x y z
#    x 1.849800 0.000000 0.041700 
#    y 0.000000 1.802910 0.000000 
#    z 0.041700 0.000000 1.829360 
# 
# From -- ./inp_files/29917.got.cif
#   From: 2010.05.17/outbox.cif.g08.bks.cpg/sg9_15_cif.got.tgz:29917.got - 2010.06.03 20:04:27.
