data_PCOD9140433
_publ_section_title
;
Structure prediction by ZEFSAII (Michael W. Deem and Ramdas Pophale) SiO2 
 PCOD9140433
Probable space group: C C
;
_chemical_formula_sum "Si O2"
_cell_formula_units_Z 32
_cell_length_a 17.210827
_cell_length_b 14.731528
_cell_length_c 8.075452
_cell_angle_alpha 90.000000
_cell_angle_beta 139.886639
_cell_angle_gamma 90.000000
_cell_volume 1319.185428
_symmetry_space_group_name_H-M "C C"
_symmetry_group_IT_number 9
_symmetry_cell_setting 'monoclinic'
loop_
_space_group_symop_operation_xyz
x,y,z
x,-y,1/2+z
1/2+x,1/2+y,z
1/2+x,1/2-y,1/2+z
loop_
_atom_site_type_symbol
_atom_site_label
_atom_site_fract_x
_atom_site_fract_y
_atom_site_fract_z
Si Si1 0.983450 0.403427 0.572540
Si Si2 0.220716 0.409343 0.737173
Si Si3 0.421393 0.907588 0.117039
Si Si4 0.199822 0.098173 0.995817
Si Si5 0.966229 0.790316 0.612082
Si Si6 0.565139 0.449765 0.588331
Si Si7 0.333651 0.430908 0.607926
Si Si8 0.848531 0.259357 0.573838
O O1 0.892788 0.407805 0.266584
O O2 0.982643 0.496086 0.676652
O O3 0.941049 0.324191 0.626698
O O4 0.110297 0.394582 0.682835
O O5 0.219538 0.413866 0.538539
O O6 0.281185 0.504575 0.882078
O O7 0.312744 0.327307 0.912717
O O8 0.314679 0.905254 0.807167
O O9 0.493595 0.812493 0.209255
O O10 0.092668 0.095053 0.955111
O O11 0.229042 0.183445 0.927671
O O12 0.169412 0.017708 0.819408
O O13 0.883901 0.837493 0.616257
O O14 0.898747 0.777665 0.328153
O O15 0.059226 0.869905 0.715456
O O16 0.444953 0.511631 0.370539
#
# Coordination Sequence:
#
# PCOD9140433 Si02
#       8
#     4   4   4   4   4   4   4   4
#     4  12  26  49  76 103 154 203 256 320 392 456
#     4  12  25  44  73 105 142 204 248 310 396 454
#     4  11  25  50  68 107 149 199 257 321 373 466
#     4  11  25  42  72 105 146 196 250 311 393 446
#     4  11  24  45  72 104 153 195 244 328 375 445
#     4  12  22  44  73 108 145 201 246 321 388 449
#     4  12  23  45  72 108 156 183 265 319 370 458
#     4  11  26  47  72 108 153 193 260 322 375 476
#
# _framework density 24.257391999999999
#
# number of rings (size 3 to 8) (size 9 to 14) (size 15 to 20)
#    0.000    0.500    3.750    4.500    1.750    1.000 
#   13.500    0.000    0.000    0.000    0.000    0.000 
#    0.000    0.000    0.000    0.000    0.000    0.000 
#
# Total GULP energy -89370.535673 kJ/mol
# GULP energy per Si atom -5585.658480 kJ/mol
# Density = 2.420218 g / cm^3
# Si number density = 24.257392 Si / 1000 Ang^3
#
#
#
# Elastic Constant Matrix: (Units=GPa)
#
#
# Indices 1 2 3 4 5 6 
#
# 1 129.2465 40.4516 3.5648 0.0000 -6.2507 0.0000
# 2 40.4516 130.0914 4.6837 0.0000 1.3826 0.0000
# 3 3.5648 4.6837 35.7127 0.0000 4.1169 0.0000
# 4 0.0000 0.0000 0.0000 34.4473 0.0000 -5.0411
# 5 -6.2507 1.3826 4.1169 0.0000 35.1078 0.0000
# 6 0.0000 0.0000 0.0000 -5.0411 0.0000 46.3155
#
#
#
# Elastic Compliance Matrix: (Units=1/GPa)
#
#
# Indices 1 2 3 4 5 6 
#
# 1 0.008684 -0.002693 -0.000714 0.000000 0.001736 0.000000
# 2 -0.002693 0.008560 -0.000770 0.000000 -0.000726 0.000000
# 3 -0.000714 -0.000770 0.028571 0.000000 -0.003447 0.000000
# 4 0.000000 0.000000 0.000000 0.029500 0.000000 0.003211
# 5 0.001736 -0.000726 -0.003447 0.000000 0.029226 0.000000
# 6 0.000000 0.000000 0.000000 0.003211 0.000000 0.021941
#
#
# Mechanical properties :
#
#
# Convention : Reuss Voigt Hill
#
# Bulk Modulus (GPa) = 26.69458 43.60564 35.15011
# Shear Modulus (GPa) = 33.93965 39.59748 36.76857
#
# Velocity S-wave (km/s) = 3.74458 4.04467 3.89751
# Velocity P-wave (km/s) = 5.45201 6.31092 5.89712
#
# Compressibility (1/GPa) = 0.03746079
#
# Stress axis : x y z
#
# Youngs Moduli (GPa) = 115.15946 116.82658 35.00071
#
# Poissons Ratio (x) = 0.31460 0.02498
# Poissons Ratio (y) = 0.31011 0.02695
# Poissons Ratio (z) = 0.08219 0.08997
#
# Static dielectric constant tensor:
#      x y z
#    x 1.947820 0.000000 0.041370 
#    y 0.000000 1.902180 0.000000 
#    z 0.041370 0.000000 1.970510 
# 
# From -- ./inp_files/10914.got.cif
#   From: 2010.05.17/outbox.cif.g08.bks.cpg/sg9_6_cif.got.tgz:10914.got - 2010.06.03 20:04:27.
