data_PCOD9140809
_publ_section_title
;
Structure prediction by ZEFSAII (Michael W. Deem and Ramdas Pophale) SiO2 
 PCOD9140809
Probable space group: C C
;
_chemical_formula_sum "Si O2"
_cell_formula_units_Z 24
_cell_length_a 9.225108
_cell_length_b 21.163296
_cell_length_c 9.116633
_cell_angle_alpha 90.000000
_cell_angle_beta 31.884195
_cell_angle_gamma 90.000000
_cell_volume 940.136745
_symmetry_space_group_name_H-M "C C"
_symmetry_group_IT_number 9
_symmetry_cell_setting 'monoclinic'
loop_
_space_group_symop_operation_xyz
x,y,z
x,-y,1/2+z
1/2+x,1/2+y,z
1/2+x,1/2-y,1/2+z
loop_
_atom_site_type_symbol
_atom_site_label
_atom_site_fract_x
_atom_site_fract_y
_atom_site_fract_z
Si Si1 0.025180 0.024236 0.075080
Si Si2 0.541772 0.705020 0.580696
Si Si3 0.889845 0.133594 0.976105
Si Si4 0.530513 0.062488 0.045707
Si Si5 0.734963 0.212883 0.377106
Si Si6 0.561706 0.383290 0.800025
O O1 0.999612 0.052632 0.261691
O O2 0.039056 0.081409 0.947223
O O3 0.749773 0.984510 0.286292
O O4 0.284496 0.979237 0.827169
O O5 0.483882 0.644976 0.526090
O O6 0.793093 0.745690 0.304915
O O7 0.582346 0.675101 0.706011
O O8 0.675862 0.100366 0.050888
O O9 0.736363 0.180193 0.218333
O O10 0.387308 0.107190 0.047573
O O11 0.429923 0.225485 0.696075
O O12 0.916452 0.168353 0.324187
#
# Coordination Sequence:
#
# PCOD9140809 Si02
#       6
#     4   4   4   4   4   4
#     4  11  27  46  72 104 144 188 237 289 352 422
#     4  12  26  44  69 102 137 178 230 288 346 410
#     4  11  26  46  73 104 142 187 235 291 353 419
#     4  12  25  45  72 108 142 185 237 294 350 418
#     4  11  26  47  71 102 139 185 236 289 350 420
#     4  11  26  46  73 104 142 187 235 291 353 419
#
# _framework density 25.528203000000001
#
# number of rings (size 3 to 8) (size 9 to 14) (size 15 to 20)
#    0.000    0.667    0.000    6.000    0.000   16.000 
#    0.000    0.000    0.000    0.000    0.000    0.000 
#    0.000    0.000    0.000    0.000    0.000    0.000 
#
# Total GULP energy -67212.109379 kJ/mol
# GULP energy per Si atom -5601.009115 kJ/mol
# Density = 2.547010 g / cm^3
# Si number density = 25.528203 Si / 1000 Ang^3
#
#
#
# Elastic Constant Matrix: (Units=GPa)
#
#
# Indices 1 2 3 4 5 6 
#
# 1 114.9275 28.4704 20.4344 0.0000 1.6002 0.0000
# 2 28.4704 99.6189 35.5551 0.0000 -6.8588 0.0000
# 3 20.4344 35.5551 117.9649 0.0000 -13.0311 0.0000
# 4 0.0000 0.0000 0.0000 28.8031 0.0000 7.5551
# 5 1.6002 -6.8588 -13.0311 0.0000 36.4342 0.0000
# 6 0.0000 0.0000 0.0000 7.5551 0.0000 52.6245
#
#
#
# Elastic Compliance Matrix: (Units=1/GPa)
#
#
# Indices 1 2 3 4 5 6 
#
# 1 0.009507 -0.002427 -0.001054 0.000000 -0.001251 0.000000
# 2 -0.002427 0.011899 -0.003026 0.000000 0.001264 0.000000
# 3 -0.001054 -0.003026 0.009905 0.000000 0.003019 0.000000
# 4 0.000000 0.000000 0.000000 0.036077 0.000000 -0.005179
# 5 -0.001251 0.001264 0.003019 0.000000 0.028820 0.000000
# 6 0.000000 0.000000 0.000000 -0.005179 0.000000 0.019746
#
#
# Mechanical properties :
#
#
# Convention : Reuss Voigt Hill
#
# Bulk Modulus (GPa) = 54.65257 55.71455 55.18356
# Shear Modulus (GPa) = 37.01849 40.10912 38.56380
#
# Velocity S-wave (km/s) = 3.81215 3.96810 3.89091
# Velocity P-wave (km/s) = 6.38998 6.54725 6.46909
#
# Compressibility (1/GPa) = 0.01829740
#
# Stress axis : x y z
#
# Youngs Moduli (GPa) = 105.18386 84.03986 100.95637
#
# Poissons Ratio (x) = 0.20398 0.10636
# Poissons Ratio (y) = 0.25530 0.30553
# Poissons Ratio (z) = 0.11081 0.25433
#
# Static dielectric constant tensor:
#      x y z
#    x 1.987740 0.000000 0.032060 
#    y 0.000000 2.026060 0.000000 
#    z 0.032060 0.000000 2.001220 
# 
# From -- ./inp_files/6140.got.cif
#   From: 2010.05.17/outbox.cif.g08.bks.cpg/sg9_4_cif.got.tgz:6140.got - 2010.06.03 20:04:27.
