data_PCOD9140805
_publ_section_title
;
Structure prediction by ZEFSAII (Michael W. Deem and Ramdas Pophale) SiO2 
 PCOD9140805
Probable space group: C C
;
_chemical_formula_sum "Si O2"
_cell_formula_units_Z 32
_cell_length_a 24.154412
_cell_length_b 8.807349
_cell_length_c 8.383296
_cell_angle_alpha 90.000000
_cell_angle_beta 136.885782
_cell_angle_gamma 90.000000
_cell_volume 1218.895196
_symmetry_space_group_name_H-M "C C"
_symmetry_group_IT_number 9
_symmetry_cell_setting 'monoclinic'
loop_
_space_group_symop_operation_xyz
x,y,z
x,-y,1/2+z
1/2+x,1/2+y,z
1/2+x,1/2-y,1/2+z
loop_
_atom_site_type_symbol
_atom_site_label
_atom_site_fract_x
_atom_site_fract_y
_atom_site_fract_z
Si Si1 0.377950 0.134996 0.807640
Si Si2 0.217443 0.951324 0.571043
Si Si3 0.158355 0.810276 0.762554
Si Si4 0.478496 0.001322 0.789884
Si Si5 0.638790 0.182061 0.217675
Si Si6 0.477249 0.321856 0.413272
Si Si7 0.710190 0.968222 0.572375
Si Si8 0.386434 0.527773 0.440689
O O1 0.369364 0.315375 0.808207
O O2 0.303360 0.027648 0.703443
O O3 0.402589 0.103007 0.679744
O O4 0.454664 0.089950 0.080983
O O5 0.211908 0.873785 0.730775
O O6 0.173265 0.844916 0.345081
O O7 0.162457 0.100810 0.440005
O O8 0.188132 0.645904 0.880369
O O9 0.065692 0.837233 0.522034
O O10 0.473777 0.860498 0.908186
O O11 0.554872 0.115581 0.965983
O O12 0.644366 0.097196 0.401366
O O13 0.702197 0.120555 0.220030
O O14 0.456385 0.413670 0.529622
O O15 0.411871 0.401980 0.162584
O O16 0.797889 0.045980 0.751798
#
# Coordination Sequence:
#
# PCOD9140805 Si02
#       8
#     4   4   4   4   4   4   4   4
#     4  11  26  46  72 107 149 194 248 305 375 447
#     4  12  27  46  78 108 148 202 250 312 379 448
#     4  12  25  48  73 109 151 192 258 312 373 453
#     4  11  26  46  72 107 149 194 248 305 375 447
#     4  12  27  46  78 108 148 202 250 312 379 448
#     4  11  26  47  73 106 150 195 248 308 372 447
#     4  12  25  48  73 109 151 192 258 312 373 453
#     4  11  26  47  73 106 150 195 248 308 372 447
#
# _framework density 26.253281999999999
#
# number of rings (size 3 to 8) (size 9 to 14) (size 15 to 20)
#    0.000    0.500    2.500    4.500   10.500    1.000 
#    0.000    0.000    0.000    0.000    0.000    0.000 
#    0.000    0.000    0.000    0.000    0.000    0.000 
#
# Total GULP energy -89252.741663 kJ/mol
# GULP energy per Si atom -5578.296354 kJ/mol
# Density = 2.619353 g / cm^3
# Si number density = 26.253282 Si / 1000 Ang^3
#
#
#
# Elastic Constant Matrix: (Units=GPa)
#
#
# Indices 1 2 3 4 5 6 
#
# 1 84.9982 24.3907 13.4876 0.0000 23.0996 0.0000
# 2 24.3907 117.3209 24.1560 0.0000 -1.7291 0.0000
# 3 13.4876 24.1560 94.9170 0.0000 28.3202 0.0000
# 4 0.0000 0.0000 0.0000 46.6840 0.0000 -3.9310
# 5 23.0996 -1.7291 28.3202 0.0000 48.5757 0.0000
# 6 0.0000 0.0000 0.0000 -3.9310 0.0000 35.4118
#
#
#
# Elastic Compliance Matrix: (Units=1/GPa)
#
#
# Indices 1 2 3 4 5 6 
#
# 1 0.014664 -0.003385 0.001083 0.000000 -0.007725 0.000000
# 2 -0.003385 0.009940 -0.003189 0.000000 0.003823 0.000000
# 3 0.001083 -0.003189 0.013778 0.000000 -0.008661 0.000000
# 4 0.000000 0.000000 0.000000 0.021623 0.000000 0.002400
# 5 -0.007725 0.003823 -0.008661 0.000000 0.029445 0.000000
# 6 0.000000 0.000000 0.000000 0.002400 0.000000 0.028506
#
#
# Mechanical properties :
#
#
# Convention : Reuss Voigt Hill
#
# Bulk Modulus (GPa) = 36.49938 46.81162 41.65550
# Shear Modulus (GPa) = 36.21283 41.81444 39.01364
#
# Velocity S-wave (km/s) = 3.71801 3.99523 3.85911
# Velocity P-wave (km/s) = 5.68897 6.25716 5.97982
#
# Compressibility (1/GPa) = 0.02739773
#
# Stress axis : x y z
#
# Youngs Moduli (GPa) = 68.19417 100.59860 72.58209
#
# Poissons Ratio (x) = 0.34057 -0.07859
# Poissons Ratio (y) = 0.23086 0.23150
# Poissons Ratio (z) = -0.07384 0.32086
#
# Static dielectric constant tensor:
#      x y z
#    x 2.124070 0.000000 -0.013410 
#    y 0.000000 2.168980 0.000000 
#    z -0.013410 0.000000 2.077370 
# 
# From -- ./inp_files/12410.got.cif
#   From: 2010.05.17/outbox.cif.g08.bks.cpg/sg9_7_cif.got.tgz:12410.got - 2010.06.03 20:04:27.
