data_PCOD9140039
_publ_section_title
;
Structure prediction by ZEFSAII (Michael W. Deem and Ramdas Pophale) SiO2 
 PCOD9140039
Probable space group: C C
;
_chemical_formula_sum "Si O2"
_cell_formula_units_Z 32
_cell_length_a 18.041301
_cell_length_b 10.916390
_cell_length_c 14.402216
_cell_angle_alpha 90.000000
_cell_angle_beta 151.467454
_cell_angle_gamma 90.000000
_cell_volume 1354.856078
_symmetry_space_group_name_H-M "C C"
_symmetry_group_IT_number 9
_symmetry_cell_setting 'monoclinic'
loop_
_space_group_symop_operation_xyz
x,y,z
x,-y,1/2+z
1/2+x,1/2+y,z
1/2+x,1/2-y,1/2+z
loop_
_atom_site_type_symbol
_atom_site_label
_atom_site_fract_x
_atom_site_fract_y
_atom_site_fract_z
Si Si1 0.329000 0.900381 0.357860
Si Si2 0.665747 0.366667 0.376974
Si Si3 0.620066 0.990517 0.097195
Si Si4 0.885037 0.821401 0.455683
Si Si5 0.285715 0.698529 0.170018
Si Si6 0.536001 0.628635 0.303836
Si Si7 0.156611 0.874455 0.622281
Si Si8 0.493447 0.795769 0.808252
O O1 0.240493 0.878794 0.356859
O O2 0.489258 0.975717 0.528622
O O3 0.358326 0.778740 0.332337
O O4 0.214807 0.989159 0.173479
O O5 0.587153 0.496439 0.318429
O O6 0.556326 0.247375 0.275871
O O7 0.816275 0.334541 0.605524
O O8 0.670085 0.108214 0.094929
O O9 0.762954 0.930507 0.308641
O O10 0.570362 0.897489 0.959448
O O11 0.804791 0.710895 0.310326
O O12 0.931399 0.799429 0.612134
O O13 0.047452 0.859906 0.590598
O O14 0.417474 0.625086 0.259985
O O15 0.184608 0.789079 0.993931
O O16 0.041915 0.826137 0.416983
#
# Coordination Sequence:
#
# PCOD9140039 Si02
#       8
#     4   4   4   4   4   4   4   4
#     4  12  27  51  75 111 156 202 248 314 387 454
#     4  12  29  47  81 112 153 192 260 323 372 442
#     4  11  26  48  75 109 153 203 248 303 388 455
#     4  11  24  43  75 111 145 198 254 316 368 448
#     4  12  28  48  76 107 158 201 248 308 387 456
#     4  12  27  49  75 113 152 196 257 315 377 446
#     4  11  22  46  76 107 153 196 254 303 387 452
#     4  11  25  48  75 114 144 202 251 314 372 455
#
# _framework density 23.618746000000002
#
# number of rings (size 3 to 8) (size 9 to 14) (size 15 to 20)
#    0.000    0.500    2.500    6.000    7.000    2.000 
#    0.000    0.000    0.000    0.000    0.000    0.000 
#    0.000    0.000    0.000    0.000    0.000    0.000 
#
# Total GULP energy -89423.447345 kJ/mol
# GULP energy per Si atom -5588.965459 kJ/mol
# Density = 2.356499 g / cm^3
# Si number density = 23.618746 Si / 1000 Ang^3
#
#
#
# Elastic Constant Matrix: (Units=GPa)
#
#
# Indices 1 2 3 4 5 6 
#
# 1 141.4588 41.5624 13.9966 0.0000 17.8207 0.0000
# 2 41.5624 73.4423 29.0376 0.0000 3.5823 0.0000
# 3 13.9966 29.0376 69.0748 0.0000 2.2722 0.0000
# 4 0.0000 0.0000 0.0000 22.1256 0.0000 4.5022
# 5 17.8207 3.5823 2.2722 0.0000 41.2615 0.0000
# 6 0.0000 0.0000 0.0000 4.5022 0.0000 39.4140
#
#
#
# Elastic Compliance Matrix: (Units=1/GPa)
#
#
# Indices 1 2 3 4 5 6 
#
# 1 0.008950 -0.005067 0.000430 0.000000 -0.003449 0.000000
# 2 -0.005067 0.019243 -0.007093 0.000000 0.000908 0.000000
# 3 0.000430 -0.007093 0.017389 0.000000 -0.000527 0.000000
# 4 0.000000 0.000000 0.000000 0.046272 0.000000 -0.005286
# 5 -0.003449 0.000908 -0.000527 0.000000 0.025676 0.000000
# 6 0.000000 0.000000 0.000000 -0.005286 0.000000 0.025975
#
#
# Mechanical properties :
#
#
# Convention : Reuss Voigt Hill
#
# Bulk Modulus (GPa) = 45.20142 50.35214 47.77678
# Shear Modulus (GPa) = 28.67979 33.85217 31.26598
#
# Velocity S-wave (km/s) = 3.48843 3.78997 3.64232
# Velocity P-wave (km/s) = 5.95021 6.36528 6.16124
#
# Compressibility (1/GPa) = 0.02212320
#
# Stress axis : x y z
#
# Youngs Moduli (GPa) = 111.73413 51.96571 57.50771
#
# Poissons Ratio (x) = 0.26329 -0.02472
# Poissons Ratio (y) = 0.56611 0.40789
# Poissons Ratio (z) = -0.04803 0.36858
#
# Static dielectric constant tensor:
#      x y z
#    x 2.036740 0.000000 -0.039610 
#    y 0.000000 1.906030 0.000000 
#    z -0.039610 0.000000 1.893990 
# 
# From -- ./inp_files/26831.got.cif
#   From: 2010.05.17/outbox.cif.g08.bks.cpg/sg9_14_cif.got.tgz:26831.got - 2010.06.03 20:04:27.
