data_PCOD9140899
_publ_section_title
;
Structure prediction by ZEFSAII (Michael W. Deem and Ramdas Pophale) SiO2 
 PCOD9140899
Probable space group: C C
;
_chemical_formula_sum "Si O2"
_cell_formula_units_Z 32
_cell_length_a 21.784416
_cell_length_b 5.137706
_cell_length_c 10.453722
_cell_angle_alpha 90.000000
_cell_angle_beta 86.201221
_cell_angle_gamma 90.000000
_cell_volume 1167.430056
_symmetry_space_group_name_H-M "C C"
_symmetry_group_IT_number 9
_symmetry_cell_setting 'monoclinic'
loop_
_space_group_symop_operation_xyz
x,y,z
x,-y,1/2+z
1/2+x,1/2+y,z
1/2+x,1/2-y,1/2+z
loop_
_atom_site_type_symbol
_atom_site_label
_atom_site_fract_x
_atom_site_fract_y
_atom_site_fract_z
Si Si1 0.342180 0.529619 0.937160
Si Si2 0.714299 0.027280 0.090577
Si Si3 0.292217 0.136468 0.238507
Si Si4 0.690290 0.455161 0.418774
Si Si5 0.600594 0.889014 0.077676
Si Si6 0.406178 0.109188 0.588123
Si Si7 0.446560 0.198270 0.841974
Si Si8 0.060351 0.095997 0.450444
O O1 0.333764 0.784216 0.852791
O O2 0.380852 0.338013 0.845247
O O3 0.275493 0.451816 0.988796
O O4 0.386215 0.599410 0.051116
O O5 0.752139 0.885792 0.203197
O O6 0.706438 0.326168 0.025937
O O7 0.642608 0.019791 0.178453
O O8 0.241109 0.943397 0.303469
O O9 0.340380 0.026667 0.128726
O O10 0.669189 0.193130 0.501149
O O11 0.624422 0.538958 0.369702
O O12 0.562966 0.626815 0.060436
O O13 0.568386 0.120181 0.009082
O O14 0.451572 0.077268 0.701798
O O15 0.440176 0.993204 0.461280
O O16 0.501598 0.394859 0.868431
#
# Coordination Sequence:
#
# PCOD9140899 Si02
#       8
#     4   4   4   4   4   4   4   4
#     4  12  24  43  69 104 150 189 249 302 379 449
#     4   9  20  38  64 100 136 177 233 293 376 428
#     4  12  20  41  68 103 141 190 239 305 379 450
#     4   8  21  39  66  98 142 178 241 298 375 442
#     4   8  20  41  66 100 136 187 237 307 367 442
#     4  12  27  45  71 106 152 190 257 309 380 450
#     4  12  27  48  71 109 142 208 247 315 370 451
#     4   9  21  45  69  96 145 189 253 297 374 436
#
# _framework density 27.410636
#
# number of rings (size 3 to 8) (size 9 to 14) (size 15 to 20)
#    1.500    0.000    2.500    3.000    1.750    0.000 
#    2.250    2.500    0.000    0.000    0.000    0.000 
#    0.000    0.000    0.000    0.000    0.000    0.000 
#
# Total GULP energy -89199.938438 kJ/mol
# GULP energy per Si atom -5574.996152 kJ/mol
# Density = 2.734825 g / cm^3
# Si number density = 27.410636 Si / 1000 Ang^3
#
#
#
# Elastic Constant Matrix: (Units=GPa)
#
#
# Indices 1 2 3 4 5 6 
#
# 1 110.9313 33.1895 30.0524 0.0000 22.8111 0.0000
# 2 33.1895 123.2718 28.5444 0.0000 -0.4477 0.0000
# 3 30.0524 28.5444 124.4416 0.0000 2.8731 0.0000
# 4 0.0000 0.0000 0.0000 25.8501 0.0000 10.5991
# 5 22.8111 -0.4477 2.8731 0.0000 29.1525 0.0000
# 6 0.0000 0.0000 0.0000 10.5991 0.0000 38.6832
#
#
#
# Elastic Compliance Matrix: (Units=1/GPa)
#
#
# Indices 1 2 3 4 5 6 
#
# 1 0.012416 -0.002888 -0.002115 0.000000 -0.009551 0.000000
# 2 -0.002888 0.009242 -0.001481 0.000000 0.002547 0.000000
# 3 -0.002115 -0.001481 0.008869 0.000000 0.000758 0.000000
# 4 0.000000 0.000000 0.000000 0.043581 0.000000 -0.011941
# 5 -0.009551 0.002547 0.000758 0.000000 0.041740 0.000000
# 6 0.000000 0.000000 0.000000 -0.011941 0.000000 0.029123
#
#
# Mechanical properties :
#
#
# Convention : Reuss Voigt Hill
#
# Bulk Modulus (GPa) = 56.95521 60.24638 58.60079
# Shear Modulus (GPa) = 30.52665 36.52772 33.52719
#
# Velocity S-wave (km/s) = 3.34080 3.65446 3.50114
# Velocity P-wave (km/s) = 5.97536 6.31139 6.14567
#
# Compressibility (1/GPa) = 0.01755766
#
# Stress axis : x y z
#
# Youngs Moduli (GPa) = 80.54397 108.20318 112.75144
#
# Poissons Ratio (x) = 0.31245 0.23852
# Poissons Ratio (y) = 0.23258 0.16703
# Poissons Ratio (z) = 0.17039 0.16029
#
# Static dielectric constant tensor:
#      x y z
#    x 2.177860 0.000000 -0.050210 
#    y 0.000000 2.221510 0.000000 
#    z -0.050210 0.000000 2.263630 
# 
# From -- ./inp_files/20605.got.cif
#   From: 2010.05.17/outbox.cif.g08.bks.cpg/sg9_11_cif.got.tgz:20605.got - 2010.06.03 20:04:27.
