data_PCOD9140148
_publ_section_title
;
Structure prediction by ZEFSAII (Michael W. Deem and Ramdas Pophale) SiO2 
 PCOD9140148
Probable space group: C C
;
_chemical_formula_sum "Si O2"
_cell_formula_units_Z 28
_cell_length_a 8.252120
_cell_length_b 31.417360
_cell_length_c 4.880287
_cell_angle_alpha 90.000000
_cell_angle_beta 92.188300
_cell_angle_gamma 90.000000
_cell_volume 1264.339640
_symmetry_space_group_name_H-M "C C"
_symmetry_group_IT_number 9
_symmetry_cell_setting 'monoclinic'
loop_
_space_group_symop_operation_xyz
x,y,z
x,-y,1/2+z
1/2+x,1/2+y,z
1/2+x,1/2-y,1/2+z
loop_
_atom_site_type_symbol
_atom_site_label
_atom_site_fract_x
_atom_site_fract_y
_atom_site_fract_z
Si Si1 0.656070 0.107655 0.275130
Si Si2 0.308066 0.879596 0.492156
Si Si3 0.110985 0.096766 0.502970
Si Si4 0.717767 0.760354 0.258056
Si Si5 0.822692 0.147864 0.769360
Si Si6 0.344301 0.215036 0.763642
Si Si7 0.345205 0.528117 0.485735
O O1 0.681715 0.139330 0.533806
O O2 0.708324 0.061781 0.391167
O O3 0.479215 0.108864 0.136760
O O4 0.777020 0.122840 0.041645
O O5 0.254287 0.908475 0.232432
O O6 0.319306 0.832325 0.370403
O O7 0.282046 0.777637 0.952715
O O8 0.177524 0.115472 0.225559
O O9 0.982686 0.128716 0.640240
O O10 0.012552 0.053398 0.449213
O O11 0.532194 0.772115 0.302028
O O12 0.741998 0.746853 0.947435
O O13 0.825432 0.197837 0.826222
O O14 0.334318 0.486561 0.297217
#
# Coordination Sequence:
#
# PCOD9140148 Si02
#       7
#     4   4   4   4   4   4   4
#     4  11  23  44  72  98 130 180 224 271 333 399
#     4  12  25  45  67 100 141 175 230 279 333 397
#     4  11  25  42  72 103 131 180 219 271 337 413
#     4  12  27  45  65  96 135 181 231 290 342 381
#     4  11  23  44  68  93 132 182 233 269 328 408
#     4  12  28  44  64  96 137 182 227 293 337 384
#     4  11  23  46  72 102 136 170 218 271 332 414
#
# _framework density 22.145948000000001
#
# number of rings (size 3 to 8) (size 9 to 14) (size 15 to 20)
#    0.000    0.571    1.429    7.714    8.000    0.000 
#    0.000    4.286    0.000    0.000    0.000    0.000 
#    0.000    0.000    0.000    0.000    0.000    0.000 
#
# Total GULP energy -78442.284975 kJ/mol
# GULP energy per Si atom -5603.020355 kJ/mol
# Density = 2.209554 g / cm^3
# Si number density = 22.145948 Si / 1000 Ang^3
#
#
#
# Elastic Constant Matrix: (Units=GPa)
#
#
# Indices 1 2 3 4 5 6 
#
# 1 53.6869 16.8440 7.4682 0.0000 4.6544 0.0000
# 2 16.8440 72.1374 6.9832 0.0000 3.8052 0.0000
# 3 7.4682 6.9832 97.4418 0.0000 4.2903 0.0000
# 4 0.0000 0.0000 0.0000 49.0273 0.0000 1.3072
# 5 4.6544 3.8052 4.2903 0.0000 45.3420 0.0000
# 6 0.0000 0.0000 0.0000 1.3072 0.0000 20.0830
#
#
#
# Elastic Compliance Matrix: (Units=1/GPa)
#
#
# Indices 1 2 3 4 5 6 
#
# 1 0.020356 -0.004556 -0.001163 0.000000 -0.001597 0.000000
# 2 -0.004556 0.015032 -0.000696 0.000000 -0.000728 0.000000
# 3 -0.001163 -0.000696 0.010437 0.000000 -0.000810 0.000000
# 4 0.000000 0.000000 0.000000 0.020432 0.000000 -0.001330
# 5 -0.001597 -0.000728 -0.000810 0.000000 0.022356 0.000000
# 6 0.000000 0.000000 0.000000 -0.001330 0.000000 0.049880
#
#
# Mechanical properties :
#
#
# Convention : Reuss Voigt Hill
#
# Bulk Modulus (GPa) = 30.30819 31.76186 31.03503
# Shear Modulus (GPa) = 30.80269 35.68852 33.24561
#
# Velocity S-wave (km/s) = 3.73352 4.01872 3.87874
# Velocity P-wave (km/s) = 5.68339 5.99222 5.83985
#
# Compressibility (1/GPa) = 0.03299438
#
# Stress axis : x y z
#
# Youngs Moduli (GPa) = 49.12478 66.52433 95.81086
#
# Poissons Ratio (x) = 0.30311 0.11146
# Poissons Ratio (y) = 0.22383 0.06669
# Poissons Ratio (z) = 0.05715 0.04630
#
# Static dielectric constant tensor:
#      x y z
#    x 1.828790 0.000000 0.022110 
#    y 0.000000 1.788410 0.000000 
#    z 0.022110 0.000000 1.788550 
# 
# From -- ./inp_files/1158.got.cif
#   From: 2010.05.17/outbox.cif.g08.bks.cpg/sg9_1_cif.got.tgz:1158.got - 2010.06.03 20:04:27.
