data_PCOD9140513
_publ_section_title
;
Structure prediction by ZEFSAII (Michael W. Deem and Ramdas Pophale) SiO2 
 PCOD9140513
Probable space group: C C
;
_chemical_formula_sum "Si O2"
_cell_formula_units_Z 32
_cell_length_a 16.874383
_cell_length_b 8.846237
_cell_length_c 10.850380
_cell_angle_alpha 90.000000
_cell_angle_beta 124.596689
_cell_angle_gamma 90.000000
_cell_volume 1333.277418
_symmetry_space_group_name_H-M "C C"
_symmetry_group_IT_number 9
_symmetry_cell_setting 'monoclinic'
loop_
_space_group_symop_operation_xyz
x,y,z
x,-y,1/2+z
1/2+x,1/2+y,z
1/2+x,1/2-y,1/2+z
loop_
_atom_site_type_symbol
_atom_site_label
_atom_site_fract_x
_atom_site_fract_y
_atom_site_fract_z
Si Si1 0.197080 0.053767 0.808810
Si Si2 0.305781 0.709428 0.546938
Si Si3 0.498074 0.651557 0.562231
Si Si4 0.260013 0.740422 0.138439
Si Si5 0.868419 0.950654 0.335893
Si Si6 0.521011 0.997806 0.030666
Si Si7 0.338697 0.816832 0.969171
Si Si8 0.130968 0.476034 0.382025
O O1 0.225323 0.144385 0.710177
O O2 0.084335 0.086440 0.720746
O O3 0.236846 0.885516 0.835547
O O4 0.260641 0.129548 0.973244
O O5 0.397644 0.672590 0.544495
O O6 0.346442 0.678628 0.717511
O O7 0.217465 0.595668 0.446946
O O8 0.473198 0.527401 0.436078
O O9 0.517937 0.819667 0.532643
O O10 0.299587 0.589453 0.238916
O O11 0.338861 0.814492 0.118162
O O12 0.175264 0.677581 0.976768
O O13 0.851308 0.857812 0.444959
O O14 0.586909 0.955831 0.207523
O O15 0.560334 0.960954 0.928398
O O16 0.420578 0.918406 0.977471
#
# Coordination Sequence:
#
# PCOD9140513 Si02
#       8
#     4   4   4   4   4   4   4   4
#     4  12  26  48  78 116 158 205 274 337 404 478
#     4  11  24  46  79 103 160 201 256 321 413 463
#     4  12  25  50  75 115 157 209 258 335 403 482
#     4  11  25  48  77 103 162 208 254 329 404 476
#     4  11  26  47  75 103 154 210 260 319 402 477
#     4  12  27  46  83 119 154 205 273 329 406 484
#     4  12  30  45  79 114 156 203 269 330 401 483
#     4  11  25  48  80 111 153 213 264 320 411 485
#
# _framework density 24.001007000000001
#
# number of rings (size 3 to 8) (size 9 to 14) (size 15 to 20)
#    0.000    0.500    5.000    1.500   12.250    2.000 
#    0.000    0.000    0.000    0.000    0.000    0.000 
#    0.000    0.000    0.000    0.000    0.000    0.000 
#
# Total GULP energy -89472.451359 kJ/mol
# GULP energy per Si atom -5592.028210 kJ/mol
# Density = 2.394638 g / cm^3
# Si number density = 24.001007 Si / 1000 Ang^3
#
#
#
# Elastic Constant Matrix: (Units=GPa)
#
#
# Indices 1 2 3 4 5 6 
#
# 1 105.1529 14.4593 14.9326 0.0000 9.5525 0.0000
# 2 14.4593 107.5807 28.2632 0.0000 13.6797 0.0000
# 3 14.9326 28.2632 95.1551 0.0000 10.0955 0.0000
# 4 0.0000 0.0000 0.0000 32.2855 0.0000 5.7067
# 5 9.5525 13.6797 10.0955 0.0000 39.1422 0.0000
# 6 0.0000 0.0000 0.0000 5.7067 0.0000 29.1212
#
#
#
# Elastic Compliance Matrix: (Units=1/GPa)
#
#
# Indices 1 2 3 4 5 6 
#
# 1 0.009949 -0.000806 -0.001125 0.000000 -0.001856 0.000000
# 2 -0.000806 0.010461 -0.002687 0.000000 -0.002766 0.000000
# 3 -0.001125 -0.002687 0.011675 0.000000 -0.001797 0.000000
# 4 0.000000 0.000000 0.000000 0.032085 0.000000 -0.006287
# 5 -0.001856 -0.002766 -0.001797 0.000000 0.027431 0.000000
# 6 0.000000 0.000000 0.000000 -0.006287 0.000000 0.035571
#
#
# Mechanical properties :
#
#
# Convention : Reuss Voigt Hill
#
# Bulk Modulus (GPa) = 43.76536 47.02209 45.39372
# Shear Modulus (GPa) = 34.71612 36.79201 35.75406
#
# Velocity S-wave (km/s) = 3.80734 3.91952 3.86384
# Velocity P-wave (km/s) = 6.13206 6.33386 6.23378
#
# Compressibility (1/GPa) = 0.02284912
#
# Stress axis : x y z
#
# Youngs Moduli (GPa) = 100.51117 95.58948 85.65593
#
# Poissons Ratio (x) = 0.07700 0.09637
# Poissons Ratio (y) = 0.08097 0.23019
# Poissons Ratio (z) = 0.11308 0.25688
#
# Static dielectric constant tensor:
#      x y z
#    x 1.973090 0.000000 -0.026140 
#    y 0.000000 1.894180 0.000000 
#    z -0.026140 0.000000 1.990380 
# 
# From -- ./inp_files/17984.got.cif
#   From: 2010.05.17/outbox.cif.g08.bks.cpg/sg9_9_cif.got.tgz:17984.got - 2010.06.03 20:04:27.
