data_PCOD9140681
_publ_section_title
;
Structure prediction by ZEFSAII (Michael W. Deem and Ramdas Pophale) SiO2 
 PCOD9140681
Probable space group: C C
;
_chemical_formula_sum "Si O2"
_cell_formula_units_Z 32
_cell_length_a 5.526379
_cell_length_b 14.005611
_cell_length_c 16.991997
_cell_angle_alpha 90.000000
_cell_angle_beta 111.076175
_cell_angle_gamma 90.000000
_cell_volume 1227.204117
_symmetry_space_group_name_H-M "C C"
_symmetry_group_IT_number 9
_symmetry_cell_setting 'monoclinic'
loop_
_space_group_symop_operation_xyz
x,y,z
x,-y,1/2+z
1/2+x,1/2+y,z
1/2+x,1/2-y,1/2+z
loop_
_atom_site_type_symbol
_atom_site_label
_atom_site_fract_x
_atom_site_fract_y
_atom_site_fract_z
Si Si1 0.976050 0.608949 0.627040
Si Si2 0.683958 0.849964 0.902519
Si Si3 0.110682 0.351903 0.320180
Si Si4 0.664663 0.654905 0.972776
Si Si5 0.437803 0.676841 0.095580
Si Si6 0.885604 0.858223 0.772560
Si Si7 0.911228 0.030756 0.556683
Si Si8 0.783291 0.495246 0.880696
O O1 0.716132 0.545777 0.612954
O O2 0.114406 0.626191 0.727500
O O3 0.864053 0.712152 0.584950
O O4 0.205565 0.575924 0.594522
O O5 0.773457 0.747163 0.941187
O O6 0.642037 0.857056 0.803796
O O7 0.424605 0.893879 0.908637
O O8 0.881936 0.922311 0.967084
O O9 0.381618 0.348747 0.397690
O O10 0.008964 0.243229 0.312150
O O11 0.928948 0.432162 0.338778
O O12 0.777409 0.554833 0.959759
O O13 0.692752 0.678148 0.068613
O O14 0.399911 0.647674 0.181143
O O15 0.332776 0.580549 0.042337
O O16 0.018727 0.957836 0.812308
#
# Coordination Sequence:
#
# PCOD9140681 Si02
#       8
#     4   4   4   4   4   4   4   4
#     4  11  29  49  78 115 160 200 261 328 390 462
#     4  12  27  47  78 111 151 204 259 322 385 475
#     4  11  25  46  76 111 149 202 250 319 392 461
#     4  12  26  49  77 110 154 200 260 320 395 464
#     4  11  27  49  75 113 156 207 257 328 387 464
#     4  11  25  48  73 110 151 197 263 315 387 463
#     4  12  28  50  80 113 158 207 260 323 390 470
#     4  12  25  46  77 105 151 203 254 317 386 465
#
# _framework density 26.075530000000001
#
# number of rings (size 3 to 8) (size 9 to 14) (size 15 to 20)
#    0.000    0.500    3.750    3.000   10.500    2.000 
#    0.000    0.000    0.000    0.000    0.000    0.000 
#    0.000    0.000    0.000    0.000    0.000    0.000 
#
# Total GULP energy -89223.856422 kJ/mol
# GULP energy per Si atom -5576.491026 kJ/mol
# Density = 2.601618 g / cm^3
# Si number density = 26.075530 Si / 1000 Ang^3
#
#
#
# Elastic Constant Matrix: (Units=GPa)
#
#
# Indices 1 2 3 4 5 6 
#
# 1 76.4143 24.2270 42.5069 0.0000 -17.6964 0.0000
# 2 24.2270 112.1013 26.1933 0.0000 6.1375 0.0000
# 3 42.5069 26.1933 123.5726 0.0000 -47.5724 0.0000
# 4 0.0000 0.0000 0.0000 34.3563 0.0000 -14.9702
# 5 -17.6964 6.1375 -47.5724 0.0000 41.5713 0.0000
# 6 0.0000 0.0000 0.0000 -14.9702 0.0000 44.6035
#
#
#
# Elastic Compliance Matrix: (Units=1/GPa)
#
#
# Indices 1 2 3 4 5 6 
#
# 1 0.016955 -0.002875 -0.004077 0.000000 0.002976 0.000000
# 2 -0.002875 0.010988 -0.004354 0.000000 -0.007828 0.000000
# 3 -0.004077 -0.004354 0.017869 0.000000 0.019356 0.000000
# 4 0.000000 0.000000 0.000000 0.034093 0.000000 0.011443
# 5 0.002976 -0.007828 0.019356 0.000000 0.048628 0.000000
# 6 0.000000 0.000000 0.000000 0.011443 0.000000 0.026260
#
#
# Mechanical properties :
#
#
# Convention : Reuss Voigt Hill
#
# Bulk Modulus (GPa) = 43.10175 55.32694 49.21435
# Shear Modulus (GPa) = 27.00683 38.71696 32.86189
#
# Velocity S-wave (km/s) = 3.22174 3.85749 3.55386
# Velocity P-wave (km/s) = 5.51407 6.41127 5.97952
#
# Compressibility (1/GPa) = 0.02320091
#
# Stress axis : x y z
#
# Youngs Moduli (GPa) = 58.97886 91.01105 55.96149
#
# Poissons Ratio (x) = 0.26162 0.22817
# Poissons Ratio (y) = 0.16954 0.24365
# Poissons Ratio (z) = 0.24047 0.39625
#
# Static dielectric constant tensor:
#      x y z
#    x 2.289970 0.000000 0.010970 
#    y 0.000000 2.019160 0.000000 
#    z 0.010970 0.000000 2.099100 
# 
# From -- ./inp_files/28602.got.cif
#   From: 2010.05.17/outbox.cif.g08.bks.cpg/sg9_15_cif.got.tgz:28602.got - 2010.06.03 20:04:27.
