data_PCOD9140599
_publ_section_title
;
Structure prediction by ZEFSAII (Michael W. Deem and Ramdas Pophale) SiO2 
 PCOD9140599
Probable space group: C C
;
_chemical_formula_sum "Si O2"
_cell_formula_units_Z 32
_cell_length_a 5.155959
_cell_length_b 18.634884
_cell_length_c 13.408224
_cell_angle_alpha 90.000000
_cell_angle_beta 70.543132
_cell_angle_gamma 90.000000
_cell_volume 1214.701569
_symmetry_space_group_name_H-M "C C"
_symmetry_group_IT_number 9
_symmetry_cell_setting 'monoclinic'
loop_
_space_group_symop_operation_xyz
x,y,z
x,-y,1/2+z
1/2+x,1/2+y,z
1/2+x,1/2-y,1/2+z
loop_
_atom_site_type_symbol
_atom_site_label
_atom_site_fract_x
_atom_site_fract_y
_atom_site_fract_z
Si Si1 0.300970 0.264127 0.713340
Si Si2 0.498202 0.586989 0.128408
Si Si3 0.624409 0.030595 0.418045
Si Si4 0.223131 0.568593 0.696448
Si Si5 0.221776 0.082274 0.311498
Si Si6 0.810731 0.631015 0.598591
Si Si7 0.983039 0.615097 0.942305
Si Si8 0.688895 0.255594 0.853477
O O1 0.297037 0.347404 0.683605
O O2 0.365135 0.214019 0.611821
O O3 0.519397 0.248803 0.772045
O O4 0.008259 0.240833 0.794083
O O5 0.359219 0.509099 0.151729
O O6 0.719437 0.592197 0.192353
O O7 0.656572 0.607748 0.005966
O O8 0.643119 0.905322 0.318687
O O9 0.497896 0.098532 0.489295
O O10 0.943499 0.038665 0.363640
O O11 0.570028 0.958403 0.486663
O O12 0.941104 0.586690 0.674776
O O13 0.957894 0.462619 0.835188
O O14 0.176822 0.158974 0.371147
O O15 0.486487 0.617282 0.629934
O O16 0.067020 0.697620 0.946281
#
# Coordination Sequence:
#
# PCOD9140599 Si02
#       8
#     4   4   4   4   4   4   4   4
#     4  11  24  50  74 106 148 199 246 315 377 444
#     4  11  27  49  79 113 153 201 253 318 379 453
#     4  12  27  45  78 106 147 205 251 304 379 451
#     4  12  26  49  75 106 157 191 249 315 374 449
#     4  11  26  50  71 105 152 197 248 314 376 446
#     4  12  25  50  73 110 149 201 250 308 384 446
#     4  12  26  48  75 119 146 204 254 312 377 459
#     4  11  25  47  73 105 148 194 249 310 378 440
#
# _framework density 26.343917999999999
#
# number of rings (size 3 to 8) (size 9 to 14) (size 15 to 20)
#    0.000    0.500    5.000    2.250    3.500    2.000 
#    2.250    0.000    0.000    0.000    0.000    0.000 
#    0.000    0.000    0.000    0.000    0.000    0.000 
#
# Total GULP energy -89430.008225 kJ/mol
# GULP energy per Si atom -5589.375514 kJ/mol
# Density = 2.628396 g / cm^3
# Si number density = 26.343918 Si / 1000 Ang^3
#
#
#
# Elastic Constant Matrix: (Units=GPa)
#
#
# Indices 1 2 3 4 5 6 
#
# 1 69.3867 23.7191 36.0213 0.0000 -18.1488 0.0000
# 2 23.7191 171.9751 -3.3014 0.0000 4.7477 0.0000
# 3 36.0213 -3.3014 68.2983 0.0000 -18.0620 0.0000
# 4 0.0000 0.0000 0.0000 37.5908 0.0000 -12.5145
# 5 -18.1488 4.7477 -18.0620 0.0000 36.9732 0.0000
# 6 0.0000 0.0000 0.0000 -12.5145 0.0000 37.6706
#
#
#
# Elastic Compliance Matrix: (Units=1/GPa)
#
#
# Indices 1 2 3 4 5 6 
#
# 1 0.022737 -0.003516 -0.010439 0.000000 0.006512 0.000000
# 2 -0.003516 0.006380 0.001711 0.000000 -0.001709 0.000000
# 3 -0.010439 0.001711 0.021609 0.000000 0.005212 0.000000
# 4 0.000000 0.000000 0.000000 0.029910 0.000000 0.009936
# 5 0.006512 -0.001709 0.005212 0.000000 0.033009 0.000000
# 6 0.000000 0.000000 0.000000 0.009936 0.000000 0.029847
#
#
# Mechanical properties :
#
#
# Convention : Reuss Voigt Hill
#
# Bulk Modulus (GPa) = 38.11595 46.94868 42.53231
# Shear Modulus (GPa) = 28.29241 39.32831 33.81036
#
# Velocity S-wave (km/s) = 3.28069 3.86797 3.58637
# Velocity P-wave (km/s) = 5.37128 6.14886 5.77317
#
# Compressibility (1/GPa) = 0.02623574
#
# Stress axis : x y z
#
# Youngs Moduli (GPa) = 43.98174 156.74539 46.27795
#
# Poissons Ratio (x) = 0.55113 0.48311
# Poissons Ratio (y) = 0.15464 -0.07917
# Poissons Ratio (z) = 0.45914 -0.26815
#
# Static dielectric constant tensor:
#      x y z
#    x 2.057810 0.000000 0.093720 
#    y 0.000000 2.113480 0.000000 
#    z 0.093720 0.000000 2.168730 
# 
# From -- ./inp_files/22222.got.cif
#   From: 2010.05.17/outbox.cif.g08.bks.cpg/sg9_12_cif.got.tgz:22222.got - 2010.06.03 20:04:27.
