data_PCOD9140955
_publ_section_title
;
Structure prediction by ZEFSAII (Michael W. Deem and Ramdas Pophale) SiO2 
 PCOD9140955
Probable space group: C C
;
_chemical_formula_sum "Si O2"
_cell_formula_units_Z 32
_cell_length_a 21.579752
_cell_length_b 14.048620
_cell_length_c 9.422722
_cell_angle_alpha 90.000000
_cell_angle_beta 28.825967
_cell_angle_gamma 90.000000
_cell_volume 1377.334299
_symmetry_space_group_name_H-M "C C"
_symmetry_group_IT_number 9
_symmetry_cell_setting 'monoclinic'
loop_
_space_group_symop_operation_xyz
x,y,z
x,-y,1/2+z
1/2+x,1/2+y,z
1/2+x,1/2-y,1/2+z
loop_
_atom_site_type_symbol
_atom_site_label
_atom_site_fract_x
_atom_site_fract_y
_atom_site_fract_z
Si Si1 0.519390 0.383774 0.358560
Si Si2 0.043488 0.096781 0.292071
Si Si3 0.790046 0.337069 0.111332
Si Si4 0.670585 0.973782 0.206637
Si Si5 0.795731 0.647751 0.260154
Si Si6 0.867754 0.132521 0.885391
Si Si7 0.477433 0.982355 0.841754
Si Si8 0.864869 0.173794 0.427273
O O1 0.561563 0.490630 0.317941
O O2 0.419180 0.397737 0.434516
O O3 0.462743 0.321300 0.598898
O O4 0.645107 0.337654 0.041233
O O5 0.986513 0.155747 0.540166
O O6 0.930561 0.099192 0.402114
O O7 0.167844 0.131885 0.953348
O O8 0.805778 0.367159 0.912564
O O9 0.786209 0.224742 0.090473
O O10 0.914118 0.377803 0.947798
O O11 0.576970 0.999393 0.519646
O O12 0.569938 0.985982 0.282935
O O13 0.737827 0.872917 0.111272
O O14 0.784400 0.051597 0.975546
O O15 0.855868 0.552262 0.076671
O O16 0.854232 0.734060 0.049459
#
# Coordination Sequence:
#
# PCOD9140955 Si02
#       8
#     4   4   4   4   4   4   4   4
#     4  12  25  48  80 114 152 208 271 327 398 469
#     4  12  23  50  80 106 157 209 269 326 392 477
#     4  12  28  49  77 115 157 210 264 331 401 474
#     4  12  26  48  79 114 161 209 260 330 403 482
#     4  12  28  49  77 114 159 206 267 332 396 476
#     4  12  28  45  78 118 155 202 265 334 399 471
#     4  12  28  48  78 110 164 212 261 324 412 478
#     4  12  26  49  81 113 155 212 269 330 395 473
#
# _framework density 23.233286
#
# number of rings (size 3 to 8) (size 9 to 14) (size 15 to 20)
#    0.000    0.000    7.500    1.500    3.500    3.000 
#    0.000    0.000    0.000    0.000    0.000    0.000 
#    0.000    0.000    0.000    0.000    0.000    0.000 
#
# Total GULP energy -89219.305986 kJ/mol
# GULP energy per Si atom -5576.206624 kJ/mol
# Density = 2.318041 g / cm^3
# Si number density = 23.233286 Si / 1000 Ang^3
#
#
#
# Elastic Constant Matrix: (Units=GPa)
#
#
# Indices 1 2 3 4 5 6 
#
# 1 79.4483 13.6626 27.8753 0.0000 11.1709 0.0000
# 2 13.6626 78.4633 40.8097 0.0000 22.1267 0.0000
# 3 27.8753 40.8097 168.5878 0.0000 34.3339 0.0000
# 4 0.0000 0.0000 0.0000 24.5824 0.0000 -3.6376
# 5 11.1709 22.1267 34.3339 0.0000 36.4667 0.0000
# 6 0.0000 0.0000 0.0000 -3.6376 0.0000 18.4188
#
#
#
# Elastic Compliance Matrix: (Units=1/GPa)
#
#
# Indices 1 2 3 4 5 6 
#
# 1 0.013603 -0.000950 -0.001593 0.000000 -0.002090 0.000000
# 2 -0.000950 0.016167 -0.002249 0.000000 -0.007401 0.000000
# 3 -0.001593 -0.002249 0.007872 0.000000 -0.005558 0.000000
# 4 0.000000 0.000000 0.000000 0.041904 0.000000 0.008276
# 5 -0.002090 -0.007401 -0.005558 0.000000 0.037786 0.000000
# 6 0.000000 0.000000 0.000000 0.008276 0.000000 0.055927
#
#
# Mechanical properties :
#
#
# Convention : Reuss Voigt Hill
#
# Bulk Modulus (GPa) = 35.64342 54.57717 45.11030
# Shear Modulus (GPa) = 26.01493 32.17037 29.09265
#
# Velocity S-wave (km/s) = 3.34986 3.72515 3.54248
# Velocity P-wave (km/s) = 5.50790 6.48415 6.01586
#
# Compressibility (1/GPa) = 0.02805567
#
# Stress axis : x y z
#
# Youngs Moduli (GPa) = 73.51198 61.85358 127.04002
#
# Poissons Ratio (x) = 0.05879 0.20244
# Poissons Ratio (y) = 0.06987 0.28573
# Poissons Ratio (z) = 0.11714 0.13912
#
# Static dielectric constant tensor:
#      x y z
#    x 1.859330 0.000000 -0.015790 
#    y 0.000000 1.825320 0.000000 
#    z -0.015790 0.000000 1.867170 
# 
# From -- ./inp_files/11774.got.cif
#   From: 2010.05.17/outbox.cif.g08.bks.cpg/sg9_6_cif.got.tgz:11774.got - 2010.06.03 20:04:27.
