data_PCOD9140951
_publ_section_title
;
Structure prediction by ZEFSAII (Michael W. Deem and Ramdas Pophale) SiO2 
 PCOD9140951
Probable space group: C C
;
_chemical_formula_sum "Si O2"
_cell_formula_units_Z 32
_cell_length_a 14.551246
_cell_length_b 8.768757
_cell_length_c 23.687047
_cell_angle_alpha 90.000000
_cell_angle_beta 29.718311
_cell_angle_gamma 90.000000
_cell_volume 1498.303569
_symmetry_space_group_name_H-M "C C"
_symmetry_group_IT_number 9
_symmetry_cell_setting 'monoclinic'
loop_
_space_group_symop_operation_xyz
x,y,z
x,-y,1/2+z
1/2+x,1/2+y,z
1/2+x,1/2-y,1/2+z
loop_
_atom_site_type_symbol
_atom_site_label
_atom_site_fract_x
_atom_site_fract_y
_atom_site_fract_z
Si Si1 0.296560 0.659270 0.433600
Si Si2 0.404452 0.365659 0.001035
Si Si3 0.571145 0.637498 0.609768
Si Si4 0.880570 0.611328 0.642947
Si Si5 0.828286 0.585785 0.277944
Si Si6 0.875826 0.496619 0.882315
Si Si7 0.654859 0.421616 0.670994
Si Si8 0.803004 0.034888 0.166139
O O1 0.346868 0.593261 0.468190
O O2 0.279587 0.842795 0.448507
O O3 0.464646 0.632603 0.301251
O O4 0.101333 0.594795 0.517314
O O5 0.280540 0.220531 0.084706
O O6 0.363984 0.492699 0.069929
O O7 0.625055 0.336783 0.884191
O O8 0.486156 0.796009 0.675158
O O9 0.765036 0.637839 0.472679
O O10 0.604442 0.530013 0.645805
O O11 0.425559 0.563473 0.643704
O O12 0.830540 0.550964 0.731842
O O13 0.769929 0.513629 0.656383
O O14 0.830784 0.787607 0.662696
O O15 0.864926 0.528776 0.321371
O O16 0.087725 0.505252 0.787730
#
# Coordination Sequence:
#
# PCOD9140951 Si02
#       8
#     4   4   4   4   4   4   4   4
#     4  12  25  48  75 105 148 194 240 302 373 438
#     4  12  23  49  76 102 146 197 240 299 373 438
#     4  12  27  48  71 110 144 195 243 298 373 436
#     4  12  27  47  71 113 143 193 248 302 367 439
#     4  12  27  46  75 106 150 192 243 310 366 436
#     4  12  25  49  74 107 147 193 244 307 365 440
#     4  12  27  45  73 110 146 194 246 302 374 435
#     4  12  25  48  75 105 146 190 248 298 365 444
#
# _framework density 21.357486000000002
#
# number of rings (size 3 to 8) (size 9 to 14) (size 15 to 20)
#    0.000    0.000    6.250    3.000    3.500    1.000 
#    4.500    0.000    0.000    0.000    0.000    0.000 
#    0.000    0.000    0.000    0.000    0.000    0.000 
#
# Total GULP energy -89642.462081 kJ/mol
# GULP energy per Si atom -5602.653880 kJ/mol
# Density = 2.130888 g / cm^3
# Si number density = 21.357486 Si / 1000 Ang^3
#
#
#
# Elastic Constant Matrix: (Units=GPa)
#
#
# Indices 1 2 3 4 5 6 
#
# 1 84.7993 8.7402 21.6340 -0.0003 10.0314 -0.0001
# 2 8.7402 62.2375 9.3131 -0.0002 28.1373 -0.0001
# 3 21.6340 9.3131 98.7884 -0.0009 0.9379 0.0000
# 4 -0.0003 -0.0002 -0.0009 26.3170 0.0001 1.6798
# 5 10.0314 28.1373 0.9379 0.0001 47.6072 0.0000
# 6 -0.0001 -0.0001 0.0000 1.6798 0.0000 22.7944
#
#
#
# Elastic Compliance Matrix: (Units=1/GPa)
#
#
# Indices 1 2 3 4 5 6 
#
# 1 0.012818 -0.000260 -0.002759 0.000000 -0.002493 0.000000
# 2 -0.000260 0.022311 -0.001922 0.000000 -0.013094 0.000000
# 3 -0.002759 -0.001922 0.010894 0.000000 0.001503 0.000000
# 4 0.000000 0.000000 0.000000 0.038178 0.000000 -0.002814
# 5 -0.002493 -0.013094 0.001503 0.000000 0.029240 0.000000
# 6 0.000000 0.000000 0.000000 -0.002814 0.000000 0.044078
#
#
# Mechanical properties :
#
#
# Convention : Reuss Voigt Hill
#
# Bulk Modulus (GPa) = 27.66951 36.13329 31.90140
# Shear Modulus (GPa) = 27.86319 33.08623 30.47471
#
# Velocity S-wave (km/s) = 3.61586 3.94021 3.78151
# Velocity P-wave (km/s) = 5.51508 6.13640 5.83402
#
# Compressibility (1/GPa) = 0.03614086
#
# Stress axis : x y z
#
# Youngs Moduli (GPa) = 78.01463 44.82008 91.79572
#
# Poissons Ratio (x) = 0.01167 0.25325
# Poissons Ratio (y) = 0.02031 0.17644
# Poissons Ratio (z) = 0.21523 0.08615
#
# Static dielectric constant tensor:
#      x y z
#    x 1.735930 0.000000 -0.005510 
#    y 0.000000 1.759870 0.000000 
#    z -0.005510 0.000000 1.769770 
# 
# From -- ./inp_files/17741.got.cif
#   From: 2010.05.17/outbox.cif.g08.bks.cpg/sg9_9_cif.got.tgz:17741.got - 2010.06.03 20:04:27.
