data_PCOD9140295
_publ_section_title
;
Structure prediction by ZEFSAII (Michael W. Deem and Ramdas Pophale) SiO2 
 PCOD9140295
Probable space group: C C
;
_chemical_formula_sum "Si O2"
_cell_formula_units_Z 32
_cell_length_a 9.480667
_cell_length_b 15.139982
_cell_length_c 14.779860
_cell_angle_alpha 90.000000
_cell_angle_beta 40.802134
_cell_angle_gamma 90.000000
_cell_volume 1386.264607
_symmetry_space_group_name_H-M "C C"
_symmetry_group_IT_number 9
_symmetry_cell_setting 'monoclinic'
loop_
_space_group_symop_operation_xyz
x,y,z
x,-y,1/2+z
1/2+x,1/2+y,z
1/2+x,1/2-y,1/2+z
loop_
_atom_site_type_symbol
_atom_site_label
_atom_site_fract_x
_atom_site_fract_y
_atom_site_fract_z
Si Si1 0.592350 0.753699 0.978450
Si Si2 0.746858 0.160230 0.025930
Si Si3 0.052981 0.699378 0.708224
Si Si4 0.339874 0.608039 0.797249
Si Si5 0.181813 0.917129 0.967948
Si Si6 0.763787 0.718093 0.264804
Si Si7 0.289881 0.506902 0.602054
Si Si8 0.619699 0.938082 0.860040
O O1 0.380145 0.710690 0.037629
O O2 0.623651 0.847160 0.911025
O O3 0.801954 0.694071 0.856624
O O4 0.572896 0.773546 0.093815
O O5 0.901882 0.149261 0.863468
O O6 0.518717 0.207798 0.121914
O O7 0.688682 0.060170 0.081345
O O8 0.146210 0.781086 0.724634
O O9 0.178211 0.604033 0.657586
O O10 0.524666 0.599563 0.631265
O O11 0.189858 0.684149 0.829871
O O12 0.199250 0.520716 0.880207
O O13 0.225567 0.839205 0.874178
O O14 0.395699 0.948762 0.914157
O O15 0.045472 0.980350 0.967823
O O16 0.280745 0.450398 0.698641
#
# Coordination Sequence:
#
# PCOD9140295 Si02
#       8
#     4   4   4   4   4   4   4   4
#     4  12  29  48  74 113 155 196 248 316 371 442
#     4  12  28  47  79 109 148 198 254 301 378 449
#     4  12  28  48  75 111 155 193 250 311 379 438
#     4  11  25  44  74 108 144 194 249 301 371 446
#     4  11  24  45  79 101 154 190 252 305 372 443
#     4  12  24  47  77 108 142 199 246 307 366 452
#     4  11  25  49  72 113 146 197 247 309 368 451
#     4  11  23  48  72 107 154 189 248 308 371 441
#
# _framework density 23.083615999999999
#
# number of rings (size 3 to 8) (size 9 to 14) (size 15 to 20)
#    0.000    0.500    3.750    4.500    7.000    0.000 
#    6.750    0.000    0.000    0.000    0.000    0.000 
#    0.000    0.000    0.000    0.000    0.000    0.000 
#
# Total GULP energy -89140.714655 kJ/mol
# GULP energy per Si atom -5571.294666 kJ/mol
# Density = 2.303108 g / cm^3
# Si number density = 23.083616 Si / 1000 Ang^3
#
#
#
# Elastic Constant Matrix: (Units=GPa)
#
#
# Indices 1 2 3 4 5 6 
#
# 1 84.1926 27.5298 22.7405 -0.0026 12.1853 0.0009
# 2 27.5298 89.4796 33.1035 -0.0029 -0.8551 0.0012
# 3 22.7405 33.1035 78.1347 -0.0028 17.7575 0.0009
# 4 -0.0026 -0.0029 -0.0028 22.9533 0.0015 0.7534
# 5 12.1853 -0.8551 17.7575 0.0015 54.5978 -0.0004
# 6 0.0009 0.0012 0.0009 0.7534 -0.0004 25.5738
#
#
#
# Elastic Compliance Matrix: (Units=1/GPa)
#
#
# Indices 1 2 3 4 5 6 
#
# 1 0.013948 -0.003589 -0.001964 0.000001 -0.002530 0.000000
# 2 -0.003589 0.014425 -0.005723 0.000001 0.002888 0.000000
# 3 -0.001964 -0.005723 0.016970 0.000001 -0.005171 0.000000
# 4 0.000001 0.000001 0.000001 0.043609 -0.000002 -0.001285
# 5 -0.002530 0.002888 -0.005171 -0.000002 0.020607 0.000001
# 6 0.000000 0.000000 0.000000 -0.001285 0.000001 0.039140
#
#
# Mechanical properties :
#
#
# Convention : Reuss Voigt Hill
#
# Bulk Modulus (GPa) = 43.87798 46.50604 45.19201
# Shear Modulus (GPa) = 27.95669 31.85384 29.90527
#
# Velocity S-wave (km/s) = 3.48387 3.71878 3.60324
# Velocity P-wave (km/s) = 5.93571 6.21527 6.07710
#
# Compressibility (1/GPa) = 0.02279048
#
# Stress axis : x y z
#
# Youngs Moduli (GPa) = 71.69649 69.32460 58.92782
#
# Poissons Ratio (x) = 0.24880 0.11572
# Poissons Ratio (y) = 0.25731 0.33726
# Poissons Ratio (z) = 0.14080 0.39677
#
# Static dielectric constant tensor:
#      x y z
#    x 1.947890 0.000000 0.046970 
#    y 0.000000 1.958840 0.000000 
#    z 0.046970 0.000000 1.917650 
# 
# From -- ./inp_files/23648.got.cif
#   From: 2010.05.17/outbox.cif.g08.bks.cpg/sg9_12_cif.got.tgz:23648.got - 2010.06.03 20:04:27.
