data_PCOD9140024
_publ_section_title
;
Structure prediction by ZEFSAII (Michael W. Deem and Ramdas Pophale) SiO2 
 PCOD9140024
Probable space group: C C
;
_chemical_formula_sum "Si O2"
_cell_formula_units_Z 28
_cell_length_a 4.929147
_cell_length_b 31.356773
_cell_length_c 7.522026
_cell_angle_alpha 90.000000
_cell_angle_beta 73.656366
_cell_angle_gamma 90.000000
_cell_volume 1115.640446
_symmetry_space_group_name_H-M "C C"
_symmetry_group_IT_number 9
_symmetry_cell_setting 'monoclinic'
loop_
_space_group_symop_operation_xyz
x,y,z
x,-y,1/2+z
1/2+x,1/2+y,z
1/2+x,1/2-y,1/2+z
loop_
_atom_site_type_symbol
_atom_site_label
_atom_site_fract_x
_atom_site_fract_y
_atom_site_fract_z
Si Si1 0.945980 0.640248 0.551100
Si Si2 0.556955 0.038561 0.826541
Si Si3 0.334522 0.292264 0.823591
Si Si4 0.844095 0.159821 0.802201
Si Si5 0.366999 0.749894 0.700272
Si Si6 0.968602 0.918930 0.521231
Si Si7 0.603390 0.054561 0.413941
O O1 0.647019 0.661460 0.646063
O O2 0.153653 0.665524 0.381772
O O3 0.118695 0.639948 0.705939
O O4 0.892125 0.594268 0.475911
O O5 0.800143 0.049771 0.920102
O O6 0.292607 0.068135 0.930324
O O7 0.477091 0.988830 0.859262
O O8 0.673395 0.954605 0.106694
O O9 0.667881 0.291717 0.731473
O O10 0.171025 0.262332 0.716644
O O11 0.322490 0.269978 0.017019
O O12 0.766203 0.209456 0.842204
O O13 0.895389 0.128671 0.960375
O O14 0.853925 0.929335 0.738951
#
# Coordination Sequence:
#
# PCOD9140024 Si02
#       7
#     4   4   4   4   4   4   4
#     4  11  24  44  71 100 144 190 248 307 369 436
#     4  12  28  46  70 107 149 183 251 316 361 451
#     4  11  23  42  66 103 139 190 236 302 363 435
#     4  11  22  46  69  99 143 194 241 308 368 437
#     4  11  23  41  70  99 144 187 237 298 369 430
#     4  12  27  46  73 107 141 194 247 303 377 443
#     4  12  27  47  77 105 146 200 246 310 377 448
#
# _framework density 25.097695000000002
#
# number of rings (size 3 to 8) (size 9 to 14) (size 15 to 20)
#    0.000    0.571    4.286    4.286    2.000    5.714 
#    0.000    0.000    0.000    0.000    0.000    0.000 
#    0.000    0.000    0.000    0.000    0.000    0.000 
#
# Total GULP energy -78314.380523 kJ/mol
# GULP energy per Si atom -5593.884323 kJ/mol
# Density = 2.504057 g / cm^3
# Si number density = 25.097695 Si / 1000 Ang^3
#
#
#
# Elastic Constant Matrix: (Units=GPa)
#
#
# Indices 1 2 3 4 5 6 
#
# 1 102.5346 19.3354 11.8706 0.0000 -1.2992 0.0000
# 2 19.3354 104.3047 28.2538 0.0000 7.8847 0.0000
# 3 11.8706 28.2538 143.1887 0.0000 2.2484 0.0000
# 4 0.0000 0.0000 0.0000 36.6361 0.0000 -7.0324
# 5 -1.2992 7.8847 2.2484 0.0000 23.3102 0.0000
# 6 0.0000 0.0000 0.0000 -7.0324 0.0000 18.3974
#
#
#
# Elastic Compliance Matrix: (Units=1/GPa)
#
#
# Indices 1 2 3 4 5 6 
#
# 1 0.010174 -0.001845 -0.000499 0.000000 0.001239 0.000000
# 2 -0.001845 0.010713 -0.001905 0.000000 -0.003543 0.000000
# 3 -0.000499 -0.001905 0.007403 0.000000 -0.000097 0.000000
# 4 0.000000 0.000000 0.000000 0.029457 0.000000 0.011260
# 5 0.001239 -0.003543 -0.000097 0.000000 0.044176 0.000000
# 6 0.000000 0.000000 0.000000 0.011260 0.000000 0.058660
#
#
# Mechanical properties :
#
#
# Convention : Reuss Voigt Hill
#
# Bulk Modulus (GPa) = 50.52490 52.10530 51.31510
# Shear Modulus (GPa) = 28.46120 35.03996 31.75058
#
# Velocity S-wave (km/s) = 3.37117 3.74055 3.56065
# Velocity P-wave (km/s) = 5.94374 6.28186 6.11513
#
# Compressibility (1/GPa) = 0.01979222
#
# Stress axis : x y z
#
# Youngs Moduli (GPa) = 98.28883 93.34320 135.08686
#
# Poissons Ratio (x) = 0.17217 0.06740
# Poissons Ratio (y) = 0.18130 0.25739
# Poissons Ratio (z) = 0.04904 0.17785
#
# Static dielectric constant tensor:
#      x y z
#    x 1.875880 0.000000 -0.031310 
#    y 0.000000 2.070080 0.000000 
#    z -0.031310 0.000000 2.031990 
# 
# From -- ./inp_files/4234.got.cif
#   From: 2010.05.17/outbox.cif.g08.bks.cpg/sg9_3_cif.got.tgz:4234.got - 2010.06.03 20:04:27.
