data_PCOD9140241
_publ_section_title
;
Structure prediction by ZEFSAII (Michael W. Deem and Ramdas Pophale) SiO2 
 PCOD9140241
Probable space group: C C
;
_chemical_formula_sum "Si O2"
_cell_formula_units_Z 32
_cell_length_a 14.213777
_cell_length_b 18.947908
_cell_length_c 9.109197
_cell_angle_alpha 90.000000
_cell_angle_beta 143.345634
_cell_angle_gamma 90.000000
_cell_volume 1464.587344
_symmetry_space_group_name_H-M "C C"
_symmetry_group_IT_number 9
_symmetry_cell_setting 'monoclinic'
loop_
_space_group_symop_operation_xyz
x,y,z
x,-y,1/2+z
1/2+x,1/2+y,z
1/2+x,1/2-y,1/2+z
loop_
_atom_site_type_symbol
_atom_site_label
_atom_site_fract_x
_atom_site_fract_y
_atom_site_fract_z
Si Si1 0.094440 0.521324 0.370280
Si Si2 0.800380 0.284618 0.848221
Si Si3 0.371151 0.026617 0.829675
Si Si4 0.126100 0.269998 0.391442
Si Si5 0.655833 0.642359 0.630782
Si Si6 0.155052 0.899083 0.472137
Si Si7 0.335447 0.632737 0.748216
Si Si8 0.839957 0.095141 0.087858
O O1 0.172635 0.598315 0.485328
O O2 0.236379 0.472375 0.494421
O O3 0.029075 0.490532 0.439274
O O4 0.937128 0.515988 0.075868
O O5 0.659472 0.277493 0.788343
O O6 0.774962 0.349587 0.711336
O O7 0.811767 0.214806 0.760881
O O8 0.949251 0.293467 0.140476
O O9 0.307150 0.105852 0.746151
O O10 0.228895 0.975955 0.598325
O O11 0.145577 0.222888 0.560869
O O12 0.240926 0.336106 0.516125
O O13 0.657599 0.625685 0.806137
O O14 0.503498 0.602559 0.375768
O O15 0.981301 0.885116 0.323403
O O16 0.366472 0.598063 0.946629
#
# Coordination Sequence:
#
# PCOD9140241 Si02
#       8
#     4   4   4   4   4   4   4   4
#     4  12  26  46  71 104 137 183 234 289 342 408
#     4  11  23  46  74  99 137 185 228 280 347 418
#     4  12  28  45  69 103 140 182 232 291 344 406
#     4  11  23  46  72 101 133 187 230 280 347 413
#     4  12  27  45  68 108 142 178 230 289 345 409
#     4  12  27  46  71 103 141 183 231 287 343 409
#     4  11  25  46  71 102 138 186 231 276 350 413
#     4  11  25  46  72 100 142 184 230 280 346 420
#
# _framework density 21.849157000000002
#
# number of rings (size 3 to 8) (size 9 to 14) (size 15 to 20)
#    0.000    0.500    6.250    1.500    8.750    3.000 
#    2.250    0.000    0.000    0.000    0.000    0.000 
#    0.000    0.000    0.000    0.000    0.000    0.000 
#
# Total GULP energy -89402.499100 kJ/mol
# GULP energy per Si atom -5587.656194 kJ/mol
# Density = 2.179943 g / cm^3
# Si number density = 21.849157 Si / 1000 Ang^3
#
#
#
# Elastic Constant Matrix: (Units=GPa)
#
#
# Indices 1 2 3 4 5 6 
#
# 1 97.0330 30.7166 18.2464 0.0000 2.5902 0.0000
# 2 30.7166 61.5743 31.4173 0.0000 -6.8788 0.0000
# 3 18.2464 31.4173 58.4665 0.0000 -12.2481 0.0000
# 4 0.0000 0.0000 0.0000 30.9515 0.0000 1.7217
# 5 2.5902 -6.8788 -12.2481 0.0000 34.0563 0.0000
# 6 0.0000 0.0000 0.0000 1.7217 0.0000 24.4142
#
#
#
# Elastic Compliance Matrix: (Units=1/GPa)
#
#
# Indices 1 2 3 4 5 6 
#
# 1 0.012470 -0.005852 -0.001291 0.000000 -0.002595 0.000000
# 2 -0.005852 0.025123 -0.011374 0.000000 0.001429 0.000000
# 3 -0.001291 -0.011374 0.025045 0.000000 0.006808 0.000000
# 4 0.000000 0.000000 0.000000 0.032436 0.000000 -0.002287
# 5 -0.002595 0.001429 0.006808 0.000000 0.032298 0.000000
# 6 0.000000 0.000000 0.000000 -0.002287 0.000000 0.041121
#
#
# Mechanical properties :
#
#
# Convention : Reuss Voigt Hill
#
# Bulk Modulus (GPa) = 39.05644 41.98157 40.51900
# Shear Modulus (GPa) = 23.35776 26.99730 25.17753
#
# Velocity S-wave (km/s) = 3.27317 3.51895 3.39829
# Velocity P-wave (km/s) = 5.67443 5.98053 5.82949
#
# Compressibility (1/GPa) = 0.02560397
#
# Stress axis : x y z
#
# Youngs Moduli (GPa) = 80.19064 39.80396 39.92838
#
# Poissons Ratio (x) = 0.23294 0.05153
# Poissons Ratio (y) = 0.46929 0.45416
# Poissons Ratio (z) = 0.10349 0.45274
#
# Static dielectric constant tensor:
#      x y z
#    x 1.801120 0.000000 0.023900 
#    y 0.000000 1.799160 0.000000 
#    z 0.023900 0.000000 1.794610 
# 
# From -- ./inp_files/9961.got.cif
#   From: 2010.05.17/outbox.cif.g08.bks.cpg/sg9_5_cif.got.tgz:9961.got - 2010.06.03 20:04:27.
