data_PCOD9140359
_publ_section_title
;
Structure prediction by ZEFSAII (Michael W. Deem and Ramdas Pophale) SiO2 
 PCOD9140359
Probable space group: C C
;
_chemical_formula_sum "Si O2"
_cell_formula_units_Z 32
_cell_length_a 8.234178
_cell_length_b 22.781657
_cell_length_c 14.430451
_cell_angle_alpha 90.000000
_cell_angle_beta 148.433943
_cell_angle_gamma 90.000000
_cell_volume 1417.054599
_symmetry_space_group_name_H-M "C C"
_symmetry_group_IT_number 9
_symmetry_cell_setting 'monoclinic'
loop_
_space_group_symop_operation_xyz
x,y,z
x,-y,1/2+z
1/2+x,1/2+y,z
1/2+x,1/2-y,1/2+z
loop_
_atom_site_type_symbol
_atom_site_label
_atom_site_fract_x
_atom_site_fract_y
_atom_site_fract_z
Si Si1 0.442470 0.507835 0.501640
Si Si2 0.324814 0.189589 0.780359
Si Si3 0.915715 0.443276 0.865898
Si Si4 0.199724 0.682994 0.150469
Si Si5 0.676675 0.419456 0.935282
Si Si6 0.213047 0.804240 0.574116
Si Si7 0.650839 0.890607 0.298316
Si Si8 0.589436 0.812683 0.940207
O O1 0.701170 0.471188 0.682753
O O2 0.553278 0.546543 0.467519
O O3 0.219093 0.458059 0.351232
O O4 0.256124 0.541965 0.491841
O O5 0.354270 0.254292 0.749838
O O6 0.410670 0.138306 0.751907
O O7 0.961453 0.181775 0.627358
O O8 0.560473 0.184136 0.980150
O O9 0.784540 0.461608 0.903120
O O10 0.914530 0.372883 0.874687
O O11 0.417527 0.627430 0.277857
O O12 0.903311 0.681571 0.074210
O O13 0.989526 0.386204 0.120369
O O14 0.469795 0.797919 0.778793
O O15 0.025671 0.743648 0.472108
O O16 0.966074 0.855223 0.466407
#
# Coordination Sequence:
#
# PCOD9140359 Si02
#       8
#     4   4   4   4   4   4   4   4
#     4  12  27  54  71 109 151 197 258 322 362 449
#     4  11  24  45  75 106 157 192 244 307 383 451
#     4  12  28  49  79 107 150 201 258 309 380 443
#     4  11  24  46  72 112 148 199 242 308 381 454
#     4  12  29  49  78 109 149 202 257 312 382 445
#     4  11  24  42  73 107 154 189 243 306 377 445
#     4  12  26  46  74 106 144 200 243 316 372 448
#     4  11  24  45  72 112 151 196 241 310 375 453
#
# _framework density 22.582051
#
# number of rings (size 3 to 8) (size 9 to 14) (size 15 to 20)
#    0.000    0.500    2.500    6.750    7.000    0.000 
#    2.250    0.000    0.000    0.000    0.000    0.000 
#    0.000    0.000    0.000    0.000    0.000    0.000 
#
# Total GULP energy -89441.740070 kJ/mol
# GULP energy per Si atom -5590.108754 kJ/mol
# Density = 2.253065 g / cm^3
# Si number density = 22.582051 Si / 1000 Ang^3
#
#
#
# Elastic Constant Matrix: (Units=GPa)
#
#
# Indices 1 2 3 4 5 6 
#
# 1 108.1784 51.7137 37.3107 0.0001 -1.5393 -0.0001
# 2 51.7137 109.7294 48.5909 0.0000 -5.4331 0.0000
# 3 37.3107 48.5909 134.2070 0.0009 -26.0255 -0.0004
# 4 0.0001 0.0000 0.0009 109.6617 0.0002 -39.4830
# 5 -1.5393 -5.4331 -26.0255 0.0002 39.8018 -0.0001
# 6 -0.0001 0.0000 -0.0004 -39.4830 -0.0001 57.7145
#
#
#
# Elastic Compliance Matrix: (Units=1/GPa)
#
#
# Indices 1 2 3 4 5 6 
#
# 1 0.012271 -0.005026 -0.001870 0.000000 -0.001434 0.000000
# 2 -0.005026 0.012966 -0.003426 0.000000 -0.000665 0.000000
# 3 -0.001870 -0.003426 0.010429 0.000000 0.006279 0.000000
# 4 0.000000 0.000000 0.000000 0.012099 0.000000 0.008277
# 5 -0.001434 -0.000665 0.006279 0.000000 0.029084 0.000000
# 6 0.000000 0.000000 0.000000 0.008277 0.000000 0.022989
#
#
# Mechanical properties :
#
#
# Convention : Reuss Voigt Hill
#
# Bulk Modulus (GPa) = 66.56749 69.70503 68.13626
# Shear Modulus (GPa) = 39.84345 55.73557 47.78951
#
# Velocity S-wave (km/s) = 4.20502 4.97342 4.60527
# Velocity P-wave (km/s) = 7.28823 7.99465 7.64960
#
# Compressibility (1/GPa) = 0.01502235
#
# Stress axis : x y z
#
# Youngs Moduli (GPa) = 81.49148 77.12241 95.88478
#
# Poissons Ratio (x) = 0.38764 0.17929
# Poissons Ratio (y) = 0.40960 0.32852
# Poissons Ratio (z) = 0.15237 0.26423
#
# Static dielectric constant tensor:
#      x y z
#    x 1.889610 0.000000 0.012940 
#    y 0.000000 1.838850 0.000000 
#    z 0.012940 0.000000 1.832720 
# 
# From -- ./inp_files/23845.got.cif
#   From: 2010.05.17/outbox.cif.g08.bks.cpg/sg9_12_cif.got.tgz:23845.got - 2010.06.03 20:04:27.
