data_PCOD9140715
_publ_section_title
;
Structure prediction by ZEFSAII (Michael W. Deem and Ramdas Pophale) SiO2 
 PCOD9140715
Probable space group: C C
;
_chemical_formula_sum "Si O2"
_cell_formula_units_Z 24
_cell_length_a 6.988289
_cell_length_b 17.272761
_cell_length_c 8.647396
_cell_angle_alpha 90.000000
_cell_angle_beta 74.916664
_cell_angle_gamma 90.000000
_cell_volume 1007.840942
_symmetry_space_group_name_H-M "C C"
_symmetry_group_IT_number 9
_symmetry_cell_setting 'monoclinic'
loop_
_space_group_symop_operation_xyz
x,y,z
x,-y,1/2+z
1/2+x,1/2+y,z
1/2+x,1/2-y,1/2+z
loop_
_atom_site_type_symbol
_atom_site_label
_atom_site_fract_x
_atom_site_fract_y
_atom_site_fract_z
Si Si1 0.011310 0.037081 0.486130
Si Si2 0.485528 0.100632 0.860690
Si Si3 0.654696 0.340264 0.201344
Si Si4 0.774062 0.759900 0.387552
Si Si5 0.350955 0.103495 0.223346
Si Si6 0.750353 0.950111 0.749651
O O1 0.046706 0.093563 0.622921
O O2 0.216478 0.043287 0.347989
O O3 0.915402 0.960130 0.580819
O O4 0.853021 0.065648 0.391407
O O5 0.332714 0.123859 0.760493
O O6 0.613595 0.175938 0.878370
O O7 0.634654 0.032288 0.782713
O O8 0.372019 0.078503 0.042625
O O9 0.488552 0.298957 0.337704
O O10 0.734037 0.279121 0.060035
O O11 0.762972 0.688746 0.267612
O O12 0.573252 0.106892 0.244924
#
# Coordination Sequence:
#
# PCOD9140715 Si02
#       6
#     4   4   4   4   4   4
#     4  11  28  46  75 109 150 197 254 311 378 445
#     4  12  27  48  77 110 153 196 253 312 381 452
#     4  11  27  46  77 108 149 197 253 309 376 452
#     4  11  25  48  70 113 147 198 247 309 376 448
#     4  11  28  47  77 112 148 201 249 313 381 450
#     4  12  27  49  76 110 155 195 258 312 378 453
#
# _framework density 23.813282000000001
#
# number of rings (size 3 to 8) (size 9 to 14) (size 15 to 20)
#    0.000    0.667    5.000    0.000   11.667    4.000 
#    0.000    0.000    0.000    0.000    0.000    0.000 
#    0.000    0.000    0.000    0.000    0.000    0.000 
#
# Total GULP energy -67258.130040 kJ/mol
# GULP energy per Si atom -5604.844170 kJ/mol
# Density = 2.375908 g / cm^3
# Si number density = 23.813282 Si / 1000 Ang^3
#
#
#
# Elastic Constant Matrix: (Units=GPa)
#
#
# Indices 1 2 3 4 5 6 
#
# 1 152.5993 28.2719 42.6860 0.0000 11.0578 0.0000
# 2 28.2719 87.2324 23.3053 0.0000 -7.8249 0.0000
# 3 42.6860 23.3053 82.1146 0.0000 -13.5989 0.0000
# 4 0.0000 0.0000 0.0000 32.9482 0.0000 4.1112
# 5 11.0578 -7.8249 -13.5989 0.0000 55.2324 0.0000
# 6 0.0000 0.0000 0.0000 4.1112 0.0000 32.5603
#
#
#
# Elastic Compliance Matrix: (Units=1/GPa)
#
#
# Indices 1 2 3 4 5 6 
#
# 1 0.008306 -0.001811 -0.004297 0.000000 -0.002978 0.000000
# 2 -0.001811 0.012845 -0.002442 0.000000 0.001581 0.000000
# 3 -0.004297 -0.002442 0.015836 0.000000 0.004413 0.000000
# 4 0.000000 0.000000 0.000000 0.030837 0.000000 -0.003894
# 5 -0.002978 0.001581 0.004413 0.000000 0.020012 0.000000
# 6 0.000000 0.000000 0.000000 -0.003894 0.000000 0.031204
#
#
# Mechanical properties :
#
#
# Convention : Reuss Voigt Hill
#
# Bulk Modulus (GPa) = 50.28577 56.71919 53.50248
# Shear Modulus (GPa) = 35.02154 39.32705 37.17430
#
# Velocity S-wave (km/s) = 3.83910 4.06824 3.95533
# Velocity P-wave (km/s) = 6.38859 6.77772 6.58603
#
# Compressibility (1/GPa) = 0.01988634
#
# Stress axis : x y z
#
# Youngs Moduli (GPa) = 120.38885 77.85175 63.14783
#
# Poissons Ratio (x) = 0.14100 0.27135
# Poissons Ratio (y) = 0.21805 0.15422
# Poissons Ratio (z) = 0.51731 0.19013
#
# Static dielectric constant tensor:
#      x y z
#    x 1.876590 0.000000 -0.032100 
#    y 0.000000 1.911770 0.000000 
#    z -0.032100 0.000000 1.891190 
# 
# From -- ./inp_files/3674.got.cif
#   From: 2010.05.17/outbox.cif.g08.bks.cpg/sg9_2_cif.got.tgz:3674.got - 2010.06.03 20:04:27.
