data_PCOD9140906
_publ_section_title
;
Structure prediction by ZEFSAII (Michael W. Deem and Ramdas Pophale) SiO2 
 PCOD9140906
Probable space group: C C
;
_chemical_formula_sum "Si O2"
_cell_formula_units_Z 32
_cell_length_a 10.847010
_cell_length_b 12.108772
_cell_length_c 10.342614
_cell_angle_alpha 90.000000
_cell_angle_beta 89.056838
_cell_angle_gamma 90.000000
_cell_volume 1358.255946
_symmetry_space_group_name_H-M "C C"
_symmetry_group_IT_number 9
_symmetry_cell_setting 'monoclinic'
loop_
_space_group_symop_operation_xyz
x,y,z
x,-y,1/2+z
1/2+x,1/2+y,z
1/2+x,1/2-y,1/2+z
loop_
_atom_site_type_symbol
_atom_site_label
_atom_site_fract_x
_atom_site_fract_y
_atom_site_fract_z
Si Si1 0.959400 0.235967 0.004260
Si Si2 0.255821 0.984985 0.723202
Si Si3 0.664076 0.032220 0.866515
Si Si4 0.408174 0.015014 0.462128
Si Si5 0.499928 0.532225 0.818832
Si Si6 0.204602 0.735960 0.681081
Si Si7 0.865013 0.878272 0.973727
Si Si8 0.798998 0.121732 0.211625
O O1 0.843352 0.193775 0.092294
O O2 0.082003 0.250011 0.092666
O O3 0.933214 0.354985 0.947766
O O4 0.979164 0.146238 0.892190
O O5 0.332004 0.027473 0.842660
O O6 0.230770 0.854986 0.737567
O O7 0.331994 0.999996 0.592662
O O8 0.122584 0.039264 0.734592
O O9 0.541417 0.039255 0.950750
O O10 0.832008 0.811143 0.842677
O O11 0.670120 0.937671 0.751420
O O12 0.684839 0.146233 0.793155
O O13 0.493888 0.437679 0.933930
O O14 0.394967 0.482781 0.724870
O O15 0.320660 0.693772 0.593058
O O16 0.769038 0.982781 0.960479
#
# Coordination Sequence:
#
# PCOD9140906 Si02
#       8
#     4   4   4   4   4   4   4   4
#     4  12  21  42  71  97 135 183 227 281 352 404
#     4  12  28  45  66 103 147 177 224 288 351 410
#     4   9  22  43  65  95 127 180 229 276 328 418
#     4  12  28  45  66 103 147 177 224 288 351 410
#     4   9  22  43  65  95 127 180 229 276 328 418
#     4  12  21  42  71  97 135 183 227 281 352 404
#     4   8  20  39  70  91 126 173 236 280 321 401
#     4   8  20  39  70  91 126 173 236 280 321 401
#
# _framework density 23.559625
#
# number of rings (size 3 to 8) (size 9 to 14) (size 15 to 20)
#    1.500    0.000    2.500    2.250    3.500    5.000 
#    0.000    2.500    0.000    0.000    0.000    0.000 
#    0.000    0.000    0.000    0.000    0.000    0.000 
#
# Total GULP energy -89247.261291 kJ/mol
# GULP energy per Si atom -5577.953831 kJ/mol
# Density = 2.350600 g / cm^3
# Si number density = 23.559625 Si / 1000 Ang^3
#
#
#
# Elastic Constant Matrix: (Units=GPa)
#
#
# Indices 1 2 3 4 5 6 
#
# 1 78.8169 -16.3564 40.2229 0.0000 -20.3870 0.0000
# 2 -16.3564 72.7064 12.3371 0.0000 -11.1202 0.0000
# 3 40.2229 12.3371 119.5373 0.0000 -34.2203 0.0000
# 4 0.0000 0.0000 0.0000 40.3487 0.0000 -2.3706
# 5 -20.3870 -11.1202 -34.2203 0.0000 55.7265 0.0000
# 6 0.0000 0.0000 0.0000 -2.3706 0.0000 15.3831
#
#
#
# Elastic Compliance Matrix: (Units=1/GPa)
#
#
# Indices 1 2 3 4 5 6 
#
# 1 0.017640 0.005523 -0.005269 0.000000 0.004320 0.000000
# 2 0.005523 0.015979 -0.002446 0.000000 0.003707 0.000000
# 3 -0.005269 -0.002446 0.011768 0.000000 0.004811 0.000000
# 4 0.000000 0.000000 0.000000 0.025010 0.000000 0.003854
# 5 0.004320 0.003707 0.004811 0.000000 0.023219 0.000000
# 6 0.000000 0.000000 0.000000 0.003854 0.000000 0.065600
#
#
# Mechanical properties :
#
#
# Convention : Reuss Voigt Hill
#
# Bulk Modulus (GPa) = 24.38870 38.16309 31.27589
# Shear Modulus (GPa) = 28.20573 37.94879 33.07726
#
# Velocity S-wave (km/s) = 3.46382 4.01778 3.75104
# Velocity P-wave (km/s) = 5.13535 6.14468 5.66254
#
# Compressibility (1/GPa) = 0.04100260
#
# Stress axis : x y z
#
# Youngs Moduli (GPa) = 56.68847 62.58387 84.97439
#
# Poissons Ratio (x) = -0.34567 0.44774
# Poissons Ratio (y) = -0.31311 0.20788
# Poissons Ratio (z) = 0.29870 0.15311
#
# Static dielectric constant tensor:
#      x y z
#    x 2.009910 0.000000 0.046980 
#    y 0.000000 1.849730 0.000000 
#    z 0.046980 0.000000 2.000930 
# 
# From -- ./inp_files/16276.got.cif
#   From: 2010.05.17/outbox.cif.g08.bks.cpg/sg9_9_cif.got.tgz:16276.got - 2010.06.03 20:04:27.
