data_PCOD9140509
_publ_section_title
;
Structure prediction by ZEFSAII (Michael W. Deem and Ramdas Pophale) SiO2 
 PCOD9140509
Probable space group: C C
;
_chemical_formula_sum "Si O2"
_cell_formula_units_Z 32
_cell_length_a 8.738660
_cell_length_b 11.449737
_cell_length_c 15.027072
_cell_angle_alpha 90.000000
_cell_angle_beta 58.898356
_cell_angle_gamma 90.000000
_cell_volume 1287.408740
_symmetry_space_group_name_H-M "C C"
_symmetry_group_IT_number 9
_symmetry_cell_setting 'monoclinic'
loop_
_space_group_symop_operation_xyz
x,y,z
x,-y,1/2+z
1/2+x,1/2+y,z
1/2+x,1/2-y,1/2+z
loop_
_atom_site_type_symbol
_atom_site_label
_atom_site_fract_x
_atom_site_fract_y
_atom_site_fract_z
Si Si1 0.965250 0.084902 0.395830
Si Si2 0.097972 0.861712 0.156715
Si Si3 0.138758 0.388342 0.700788
Si Si4 0.386274 0.981297 0.628653
Si Si5 0.726796 0.741525 0.081992
Si Si6 0.119707 0.538216 0.393784
Si Si7 0.179520 0.303888 0.281564
Si Si8 0.525073 0.453906 0.540667
O O1 0.844064 0.163236 0.498605
O O2 0.827973 0.055364 0.358065
O O3 0.124638 0.174165 0.327896
O O4 0.019428 0.973482 0.437620
O O5 0.182399 0.734834 0.141282
O O6 0.201050 0.947986 0.193561
O O7 0.889335 0.830623 0.230626
O O8 0.119271 0.934172 0.058692
O O9 0.080751 0.378967 0.821140
O O10 0.326274 0.455337 0.640752
O O11 0.995764 0.455536 0.684026
O O12 0.505459 0.048504 0.518327
O O13 0.344716 0.855342 0.597959
O O14 0.623084 0.801808 0.194706
O O15 0.614509 0.664858 0.046837
O O16 0.087622 0.407890 0.363932
#
# Coordination Sequence:
#
# PCOD9140509 Si02
#       8
#     4   4   4   4   4   4   4   4
#     4  12  25  46  75 111 151 196 253 320 371 453
#     4  11  26  46  74 105 148 199 240 308 378 446
#     4  12  24  48  74 107 148 197 243 317 375 447
#     4  11  25  50  73 106 153 195 252 311 377 450
#     4  11  24  49  73 107 151 202 242 314 381 448
#     4  12  27  46  75 113 147 195 262 313 378 454
#     4  12  25  47  74 107 155 195 249 308 383 444
#     4  11  24  46  78 108 147 197 245 303 383 446
#
# _framework density 24.85613
#
# number of rings (size 3 to 8) (size 9 to 14) (size 15 to 20)
#    0.000    0.500    6.250    0.750    3.500    3.000 
#    2.250    0.000    0.000    0.000    0.000    0.000 
#    0.000    0.000    0.000    0.000    0.000    0.000 
#
# Total GULP energy -89547.924594 kJ/mol
# GULP energy per Si atom -5596.745287 kJ/mol
# Density = 2.479956 g / cm^3
# Si number density = 24.856130 Si / 1000 Ang^3
#
#
#
# Elastic Constant Matrix: (Units=GPa)
#
#
# Indices 1 2 3 4 5 6 
#
# 1 95.3159 31.6920 23.8060 0.0000 32.1143 0.0000
# 2 31.6920 106.3673 14.2017 0.0000 16.0967 0.0000
# 3 23.8060 14.2017 99.7446 0.0000 15.7175 0.0000
# 4 0.0000 0.0000 0.0000 20.7459 0.0000 -2.6478
# 5 32.1143 16.0967 15.7175 0.0000 37.6139 0.0000
# 6 0.0000 0.0000 0.0000 -2.6478 0.0000 51.2879
#
#
#
# Elastic Compliance Matrix: (Units=1/GPa)
#
#
# Indices 1 2 3 4 5 6 
#
# 1 0.015680 -0.002714 -0.001530 0.000000 -0.011586 0.000000
# 2 -0.002714 0.010583 -0.000547 0.000000 -0.001983 0.000000
# 3 -0.001530 -0.000547 0.010947 0.000000 -0.003034 0.000000
# 4 0.000000 0.000000 0.000000 0.048522 0.000000 0.002505
# 5 -0.011586 -0.001983 -0.003034 0.000000 0.038595 0.000000
# 6 0.000000 0.000000 0.000000 0.002505 0.000000 0.019627
#
#
# Mechanical properties :
#
#
# Convention : Reuss Voigt Hill
#
# Bulk Modulus (GPa) = 36.19502 48.98081 42.58791
# Shear Modulus (GPa) = 30.72309 37.37809 34.05059
#
# Velocity S-wave (km/s) = 3.51955 3.88206 3.70524
# Velocity P-wave (km/s) = 5.57761 6.31208 5.95618
#
# Compressibility (1/GPa) = 0.02762811
#
# Stress axis : x y z
#
# Youngs Moduli (GPa) = 63.77674 94.48974 91.35176
#
# Poissons Ratio (x) = 0.25645 0.13978
# Poissons Ratio (y) = 0.17309 0.04993
# Poissons Ratio (z) = 0.09759 0.05164
#
# Static dielectric constant tensor:
#      x y z
#    x 1.967610 0.000000 -0.017240 
#    y 0.000000 1.977560 0.000000 
#    z -0.017240 0.000000 2.017200 
# 
# From -- ./inp_files/22724.got.cif
#   From: 2010.05.17/outbox.cif.g08.bks.cpg/sg9_12_cif.got.tgz:22724.got - 2010.06.03 20:04:27.
