data_PCOD9140140
_publ_section_title
;
Structure prediction by ZEFSAII (Michael W. Deem and Ramdas Pophale) SiO2 
 PCOD9140140
Probable space group: C C
;
_chemical_formula_sum "Si O2"
_cell_formula_units_Z 32
_cell_length_a 14.156234
_cell_length_b 11.018482
_cell_length_c 14.150328
_cell_angle_alpha 90.000000
_cell_angle_beta 39.387984
_cell_angle_gamma 90.000000
_cell_volume 1400.601144
_symmetry_space_group_name_H-M "C C"
_symmetry_group_IT_number 9
_symmetry_cell_setting 'monoclinic'
loop_
_space_group_symop_operation_xyz
x,y,z
x,-y,1/2+z
1/2+x,1/2+y,z
1/2+x,1/2-y,1/2+z
loop_
_atom_site_type_symbol
_atom_site_label
_atom_site_fract_x
_atom_site_fract_y
_atom_site_fract_z
Si Si1 0.324440 0.715463 0.905630
Si Si2 0.699339 0.575177 0.170205
Si Si3 0.132726 0.596655 0.917267
Si Si4 0.660384 0.700566 0.693968
Si Si5 0.526658 0.656098 0.135883
Si Si6 0.364549 0.742499 0.620546
Si Si7 0.136502 0.076657 0.439509
Si Si8 0.674227 0.173115 0.379510
O O1 0.256599 0.600925 0.903754
O O2 0.500922 0.715405 0.766783
O O3 0.241981 0.829701 0.917129
O O4 0.274928 0.712863 0.052103
O O5 0.718598 0.435261 0.130312
O O6 0.560660 0.627323 0.219173
O O7 0.823112 0.680074 0.059430
O O8 0.695061 0.566608 0.287455
O O9 0.209431 0.685214 0.779902
O O10 0.109318 0.459569 0.904552
O O11 0.983653 0.659552 0.071914
O O12 0.645162 0.736056 0.814578
O O13 0.351466 0.660461 0.253090
O O14 0.611756 0.546666 0.015202
O O15 0.598461 0.775666 0.032999
O O16 0.471430 0.627721 0.546449
#
# Coordination Sequence:
#
# PCOD9140140 Si02
#       8
#     4   4   4   4   4   4   4   4
#     4  11  23  46  71 105 130 197 241 290 358 441
#     4  12  26  44  77 104 147 188 243 293 375 436
#     4  11  24  45  74 100 148 182 252 296 369 433
#     4  12  26  44  74 104 143 187 241 298 367 438
#     4  12  27  49  73 105 155 195 240 306 379 432
#     4  11  23  43  73 102 133 195 236 301 356 434
#     4  11  23  47  76  99 149 189 243 301 356 445
#     4  12  28  48  70 111 151 191 242 319 372 433
#
# _framework density 22.847332999999999
#
# number of rings (size 3 to 8) (size 9 to 14) (size 15 to 20)
#    0.000    0.500    6.250    3.000    5.250    0.000 
#    2.250    0.000    0.000    0.000    0.000    0.000 
#    0.000    0.000    0.000    0.000    0.000    0.000 
#
# Total GULP energy -89174.230295 kJ/mol
# GULP energy per Si atom -5573.389393 kJ/mol
# Density = 2.279533 g / cm^3
# Si number density = 22.847333 Si / 1000 Ang^3
#
#
#
# Elastic Constant Matrix: (Units=GPa)
#
#
# Indices 1 2 3 4 5 6 
#
# 1 93.0561 8.7769 12.1216 0.0000 -9.9579 0.0000
# 2 8.7769 103.6681 12.4990 0.0000 -11.8980 0.0000
# 3 12.1216 12.4990 80.8444 0.0000 -7.5669 0.0000
# 4 0.0000 0.0000 0.0000 25.5575 0.0000 -1.5025
# 5 -9.9579 -11.8980 -7.5669 0.0000 26.6184 0.0000
# 6 0.0000 0.0000 0.0000 -1.5025 0.0000 23.1114
#
#
#
# Elastic Compliance Matrix: (Units=1/GPa)
#
#
# Indices 1 2 3 4 5 6 
#
# 1 0.011347 -0.000379 -0.001296 0.000000 0.003707 0.000000
# 2 -0.000379 0.010291 -0.001147 0.000000 0.004132 0.000000
# 3 -0.001296 -0.001147 0.012993 0.000000 0.002696 0.000000
# 4 0.000000 0.000000 0.000000 0.039277 0.000000 0.002553
# 5 0.003707 0.004132 0.002696 0.000000 0.041568 0.000000
# 6 0.000000 0.000000 0.000000 0.002553 0.000000 0.043435
#
#
# Mechanical properties :
#
#
# Convention : Reuss Voigt Hill
#
# Bulk Modulus (GPa) = 34.49796 38.26261 36.38029
# Shear Modulus (GPa) = 28.69949 31.33555 30.01752
#
# Velocity S-wave (km/s) = 3.54805 3.70742 3.62861
# Velocity P-wave (km/s) = 5.64952 5.92537 5.78909
#
# Compressibility (1/GPa) = 0.02898722
#
# Stress axis : x y z
#
# Youngs Moduli (GPa) = 88.12545 97.17407 76.96172
#
# Poissons Ratio (x) = 0.03683 0.09973
# Poissons Ratio (y) = 0.03340 0.08831
# Poissons Ratio (z) = 0.11419 0.11150
#
# Static dielectric constant tensor:
#      x y z
#    x 1.867820 0.000000 0.007030 
#    y 0.000000 1.913070 0.000000 
#    z 0.007030 0.000000 1.929880 
# 
# From -- ./inp_files/25847.got.cif
#   From: 2010.05.17/outbox.cif.g08.bks.cpg/sg9_13_cif.got.tgz:25847.got - 2010.06.03 20:04:27.
