data_PCOD9140759
_publ_section_title
;
Structure prediction by ZEFSAII (Michael W. Deem and Ramdas Pophale) SiO2 
 PCOD9140759
Probable space group: C C
;
_chemical_formula_sum "Si O2"
_cell_formula_units_Z 16
_cell_length_a 7.122129
_cell_length_b 11.979911
_cell_length_c 12.613171
_cell_angle_alpha 90.000000
_cell_angle_beta 146.631217
_cell_angle_gamma 90.000000
_cell_volume 591.930574
_symmetry_space_group_name_H-M "C C"
_symmetry_group_IT_number 9
_symmetry_cell_setting 'monoclinic'
loop_
_space_group_symop_operation_xyz
x,y,z
x,-y,1/2+z
1/2+x,1/2+y,z
1/2+x,1/2-y,1/2+z
loop_
_atom_site_type_symbol
_atom_site_label
_atom_site_fract_x
_atom_site_fract_y
_atom_site_fract_z
Si Si1 0.511590 0.570663 0.539200
Si Si2 0.749257 0.842498 0.355618
Si Si3 0.128312 0.117968 0.827944
Si Si4 0.379967 0.369946 0.760273
O O1 0.457588 0.437210 0.518325
O O2 0.495353 0.628824 0.645484
O O3 0.280920 0.623867 0.338183
O O4 0.888302 0.594806 0.673207
O O5 0.643725 0.728352 0.361036
O O6 0.924263 0.821902 0.325262
O O7 0.531154 0.140009 0.029257
O O8 0.056638 0.987437 0.818419
#
# Coordination Sequence:
#
# PCOD9140759 Si02
#       4
#     4   4   4   4
#     4  11  25  49  79 118 161 204 272 328 388 493
#     4  11  26  52  83 118 162 212 266 333 406 469
#     4  11  25  53  80 116 163 210 268 334 391 488
#     4  11  26  52  82 120 162 210 268 333 405 470
#
# _framework density 27.030197999999999
#
# number of rings (size 3 to 8) (size 9 to 14) (size 15 to 20)
#    0.000    1.000    0.000    7.500    7.000    0.000 
#   13.500    7.500    0.000    0.000    0.000    0.000 
#    0.000    0.000    0.000    0.000    0.000    0.000 
#
# Total GULP energy -44897.235971 kJ/mol
# GULP energy per Si atom -5612.154496 kJ/mol
# Density = 2.696868 g / cm^3
# Si number density = 27.030198 Si / 1000 Ang^3
#
#
#
# Elastic Constant Matrix: (Units=GPa)
#
#
# Indices 1 2 3 4 5 6 
#
# 1 191.9599 72.6080 57.9034 0.0029 -33.8000 0.0016
# 2 72.6080 156.8318 55.9869 0.0004 -5.0826 0.0010
# 3 57.9034 55.9869 90.5948 0.0108 -27.2358 0.0065
# 4 0.0029 0.0004 0.0108 52.1732 0.0051 10.1627
# 5 -33.8000 -5.0826 -27.2358 0.0051 62.7152 0.0027
# 6 0.0016 0.0010 0.0065 10.1627 0.0027 54.6370
#
#
#
# Elastic Compliance Matrix: (Units=1/GPa)
#
#
# Indices 1 2 3 4 5 6 
#
# 1 0.007330 -0.002471 -0.002335 0.000000 0.002736 0.000000
# 2 -0.002471 0.009187 -0.004917 0.000001 -0.002723 0.000000
# 3 -0.002335 -0.004917 0.017334 -0.000004 0.005871 -0.000002
# 4 0.000000 0.000001 -0.000004 0.019887 -0.000003 -0.003699
# 5 0.002736 -0.002723 0.005871 -0.000003 0.019749 -0.000001
# 6 0.000000 0.000000 -0.000002 -0.003699 -0.000001 0.018991
#
#
# Mechanical properties :
#
#
# Convention : Reuss Voigt Hill
#
# Bulk Modulus (GPa) = 69.41898 90.26478 79.84188
# Shear Modulus (GPa) = 42.83488 50.76429 46.79958
#
# Velocity S-wave (km/s) = 3.98515 4.33836 4.16550
# Velocity P-wave (km/s) = 6.84931 7.65256 7.26205
#
# Compressibility (1/GPa) = 0.01440528
#
# Stress axis : x y z
#
# Youngs Moduli (GPa) = 136.41733 108.84502 57.68949
#
# Poissons Ratio (x) = 0.26900 0.13472
# Poissons Ratio (y) = 0.33714 0.28364
# Poissons Ratio (z) = 0.31858 0.53515
#
# Static dielectric constant tensor:
#      x y z
#    x 2.102650 0.000000 -0.075720 
#    y 0.000000 2.133560 0.000000 
#    z -0.075720 0.000000 2.147800 
# 
# From -- ./inp_files/22503.got.cif
#   From: 2010.05.17/outbox.cif.g08.bks.cpg/sg9_12_cif.got.tgz:22503.got - 2010.06.03 20:04:27.
