data_PCOD9140696
_publ_section_title
;
Structure prediction by ZEFSAII (Michael W. Deem and Ramdas Pophale) SiO2 
 PCOD9140696
Probable space group: C C
;
_chemical_formula_sum "Si O2"
_cell_formula_units_Z 28
_cell_length_a 8.645575
_cell_length_b 10.404112
_cell_length_c 13.764196
_cell_angle_alpha 90.000000
_cell_angle_beta 74.242481
_cell_angle_gamma 90.000000
_cell_volume 1191.555324
_symmetry_space_group_name_H-M "C C"
_symmetry_group_IT_number 9
_symmetry_cell_setting 'monoclinic'
loop_
_space_group_symop_operation_xyz
x,y,z
x,-y,1/2+z
1/2+x,1/2+y,z
1/2+x,1/2-y,1/2+z
loop_
_atom_site_type_symbol
_atom_site_label
_atom_site_fract_x
_atom_site_fract_y
_atom_site_fract_z
Si Si1 0.873530 0.937389 0.724080
Si Si2 0.744477 0.432373 0.675039
Si Si3 0.718323 0.284504 0.136845
Si Si4 0.095882 0.719656 0.949178
Si Si5 0.094552 0.562784 0.432126
Si Si6 0.301054 0.348521 0.071483
Si Si7 0.410064 0.803658 0.804451
O O1 0.842869 0.802788 0.673816
O O2 0.747627 0.944844 0.833155
O O3 0.055166 0.938425 0.730517
O O4 0.835620 0.048354 0.650456
O O5 0.771696 0.295127 0.618057
O O6 0.865892 0.426490 0.745577
O O7 0.022319 0.420312 0.446755
O O8 0.678061 0.221592 0.040916
O O9 0.551226 0.273151 0.226715
O O10 0.769909 0.432094 0.116901
O O11 0.961972 0.829494 0.978876
O O12 0.237468 0.738952 0.848073
O O13 0.159182 0.606604 0.525202
O O14 0.975776 0.658818 0.398288
#
# Coordination Sequence:
#
# PCOD9140696 Si02
#       7
#     4   4   4   4   4   4   4
#     4  11  25  48  71 102 144 191 229 299 354 421
#     4  12  24  45  73 103 144 180 237 293 358 416
#     4  11  25  47  72 102 143 181 234 291 358 418
#     4  12  24  45  72 103 142 180 232 298 345 425
#     4  11  27  45  73 103 143 188 241 287 357 426
#     4  12  26  44  73 109 141 190 237 288 363 419
#     4  11  27  46  70 106 141 184 238 296 355 423
#
# _framework density 23.498699999999999
#
# number of rings (size 3 to 8) (size 9 to 14) (size 15 to 20)
#    0.000    0.571    4.286    2.571    4.000    5.714 
#    0.000    0.000    0.000    0.000    0.000    0.000 
#    0.000    0.000    0.000    0.000    0.000    0.000 
#
# Total GULP energy -78330.705165 kJ/mol
# GULP energy per Si atom -5595.050369 kJ/mol
# Density = 2.344522 g / cm^3
# Si number density = 23.498700 Si / 1000 Ang^3
#
#
#
# Elastic Constant Matrix: (Units=GPa)
#
#
# Indices 1 2 3 4 5 6 
#
# 1 97.8852 14.4944 16.6010 0.0000 3.8790 0.0000
# 2 14.4944 114.9088 26.2182 0.0000 -3.4725 0.0000
# 3 16.6010 26.2182 79.4931 0.0000 -9.1270 0.0000
# 4 0.0000 0.0000 0.0000 37.0907 0.0000 3.0009
# 5 3.8790 -3.4725 -9.1270 0.0000 44.9390 0.0000
# 6 0.0000 0.0000 0.0000 3.0009 0.0000 35.2740
#
#
#
# Elastic Compliance Matrix: (Units=1/GPa)
#
#
# Indices 1 2 3 4 5 6 
#
# 1 0.010767 -0.000920 -0.002109 0.000000 -0.001429 0.000000
# 2 -0.000920 0.009490 -0.002912 0.000000 0.000221 0.000000
# 3 -0.002109 -0.002912 0.014309 0.000000 0.002863 0.000000
# 4 0.000000 0.000000 0.000000 0.027148 0.000000 -0.002310
# 5 -0.001429 0.000221 0.002863 0.000000 0.022974 0.000000
# 6 0.000000 0.000000 0.000000 -0.002310 0.000000 0.028546
#
#
# Mechanical properties :
#
#
# Convention : Reuss Voigt Hill
#
# Bulk Modulus (GPa) = 44.08605 45.21271 44.64938
# Shear Modulus (GPa) = 37.68530 39.12565 38.40547
#
# Velocity S-wave (km/s) = 4.00899 4.08488 4.04712
# Velocity P-wave (km/s) = 6.34280 6.44443 6.39382
#
# Compressibility (1/GPa) = 0.02268291
#
# Stress axis : x y z
#
# Youngs Moduli (GPa) = 92.87986 105.37643 69.88397
#
# Poissons Ratio (x) = 0.09695 0.14739
# Poissons Ratio (y) = 0.08545 0.20353
# Poissons Ratio (z) = 0.19589 0.30689
#
# Static dielectric constant tensor:
#      x y z
#    x 1.877900 0.000000 -0.035250 
#    y 0.000000 1.882530 0.000000 
#    z -0.035250 0.000000 1.906990 
# 
# From -- ./inp_files/23012.got.cif
#   From: 2010.05.17/outbox.cif.g08.bks.cpg/sg9_12_cif.got.tgz:23012.got - 2010.06.03 20:04:27.
