data_PCOD9140677
_publ_section_title
;
Structure prediction by ZEFSAII (Michael W. Deem and Ramdas Pophale) SiO2 
 PCOD9140677
Probable space group: C C
;
_chemical_formula_sum "Si O2"
_cell_formula_units_Z 20
_cell_length_a 7.214817
_cell_length_b 12.513755
_cell_length_c 7.851998
_cell_angle_alpha 90.000000
_cell_angle_beta 90.493231
_cell_angle_gamma 90.000000
_cell_volume 708.887072
_symmetry_space_group_name_H-M "C C"
_symmetry_group_IT_number 9
_symmetry_cell_setting 'monoclinic'
loop_
_space_group_symop_operation_xyz
x,y,z
x,-y,1/2+z
1/2+x,1/2+y,z
1/2+x,1/2-y,1/2+z
loop_
_atom_site_type_symbol
_atom_site_label
_atom_site_fract_x
_atom_site_fract_y
_atom_site_fract_z
Si Si1 0.366810 0.245700 0.698340
Si Si2 0.360256 0.134570 0.031410
Si Si3 0.287631 0.921585 0.911197
Si Si4 0.280385 0.334371 0.186370
Si Si5 0.369175 0.460035 0.876455
O O1 0.329272 0.184168 0.521805
O O2 0.586447 0.221456 0.731535
O O3 0.342583 0.372933 0.722453
O O4 0.270055 0.187544 0.860571
O O5 0.284103 0.088899 0.208449
O O6 0.429762 0.245942 0.121022
O O7 0.421635 0.022040 0.951746
O O8 0.077775 0.954811 0.950456
O O9 0.336081 0.418617 0.327513
O O10 0.248178 0.408679 0.023144
#
# Coordination Sequence:
#
# PCOD9140677 Si02
#       5
#     4   4   4   4   4
#     4  11  27  50  71 116 151 204 259 315 384 461
#     4  11  25  46  74 110 147 205 253 317 379 451
#     4  12  24  49  79 105 159 198 257 315 387 456
#     4  11  27  48  74 110 155 197 260 313 385 452
#     4  11  27  49  76 115 152 204 255 322 385 454
#
# _framework density 28.213241
#
# number of rings (size 3 to 8) (size 9 to 14) (size 15 to 20)
#    0.000    0.800    4.000    1.200    5.600    0.000 
#   14.400    0.000    0.000    0.000    0.000    0.000 
#    0.000    0.000    0.000    0.000    0.000    0.000 
#
# Total GULP energy -55781.947290 kJ/mol
# GULP energy per Si atom -5578.194729 kJ/mol
# Density = 2.814903 g / cm^3
# Si number density = 28.213241 Si / 1000 Ang^3
#
#
#
# Elastic Constant Matrix: (Units=GPa)
#
#
# Indices 1 2 3 4 5 6 
#
# 1 57.3071 24.2002 3.3534 0.0000 7.3250 0.0000
# 2 24.2002 165.6944 20.4460 0.0000 9.2231 0.0000
# 3 3.3534 20.4460 155.4505 0.0000 5.7782 0.0000
# 4 0.0000 0.0000 0.0000 25.2898 0.0000 21.3944
# 5 7.3250 9.2231 5.7782 0.0000 22.7919 0.0000
# 6 0.0000 0.0000 0.0000 21.3944 0.0000 25.8375
#
#
#
# Elastic Compliance Matrix: (Units=1/GPa)
#
#
# Indices 1 2 3 4 5 6 
#
# 1 0.019170 -0.002526 0.000111 0.000000 -0.005167 0.000000
# 2 -0.002526 0.006589 -0.000750 0.000000 -0.001664 0.000000
# 3 0.000111 -0.000750 0.006581 0.000000 -0.001400 0.000000
# 4 0.000000 0.000000 0.000000 0.132024 0.000000 -0.109321
# 5 -0.005167 -0.001664 -0.001400 0.000000 0.046564 0.000000
# 6 0.000000 0.000000 0.000000 -0.109321 0.000000 0.129225
#
#
# Mechanical properties :
#
#
# Convention : Reuss Voigt Hill
#
# Bulk Modulus (GPa) = 38.44665 52.71678 45.58171
# Shear Modulus (GPa) = 14.07832 36.81400 25.44616
#
# Velocity S-wave (km/s) = 2.23625 3.61619 3.00646
# Velocity P-wave (km/s) = 4.50827 6.01344 5.31441
#
# Compressibility (1/GPa) = 0.02601007
#
# Stress axis : x y z
#
# Youngs Moduli (GPa) = 52.16348 151.75964 151.94631
#
# Poissons Ratio (x) = 0.38334 -0.01683
# Poissons Ratio (y) = 0.13176 0.11401
# Poissons Ratio (z) = -0.00578 0.11387
#
# Static dielectric constant tensor:
#      x y z
#    x 2.330170 0.000000 -0.027460 
#    y 0.000000 2.227940 0.000000 
#    z -0.027460 0.000000 2.155690 
# 
# From -- ./inp_files/4680.got.cif
#   From: 2010.05.17/outbox.cif.g08.bks.cpg/sg9_3_cif.got.tgz:4680.got - 2010.06.03 20:04:27.
