data_PCOD9140042
_publ_section_title
;
Structure prediction by ZEFSAII (Michael W. Deem and Ramdas Pophale) SiO2 
 PCOD9140042
Probable space group: C C
;
_chemical_formula_sum "Si O2"
_cell_formula_units_Z 32
_cell_length_a 22.157250
_cell_length_b 12.026990
_cell_length_c 15.916958
_cell_angle_alpha 90.000000
_cell_angle_beta 18.306285
_cell_angle_gamma 90.000000
_cell_volume 1332.281857
_symmetry_space_group_name_H-M "C C"
_symmetry_group_IT_number 9
_symmetry_cell_setting 'monoclinic'
loop_
_space_group_symop_operation_xyz
x,y,z
x,-y,1/2+z
1/2+x,1/2+y,z
1/2+x,1/2-y,1/2+z
loop_
_atom_site_type_symbol
_atom_site_label
_atom_site_fract_x
_atom_site_fract_y
_atom_site_fract_z
Si Si1 0.982850 0.178924 0.485960
Si Si2 0.892377 0.702700 0.373988
Si Si3 0.461184 0.266580 0.448147
Si Si4 0.915086 0.010311 0.440019
Si Si5 0.609939 0.808954 0.024162
Si Si6 0.166392 0.143508 0.417588
Si Si7 0.744839 0.155718 0.529699
Si Si8 0.342033 0.997361 0.316136
O O1 0.813991 0.257268 0.740926
O O2 0.879502 0.083480 0.569581
O O3 0.110923 0.134972 0.393603
O O4 0.109343 0.258449 0.259068
O O5 0.994855 0.680638 0.327286
O O6 0.900874 0.604646 0.294519
O O7 0.675703 0.713604 0.695440
O O8 0.980039 0.812980 0.214411
O O9 0.404183 0.382862 0.478748
O O10 0.298647 0.254964 0.732787
O O11 0.781033 0.050433 0.541604
O O12 0.138300 0.039200 0.125014
O O13 0.663492 0.861150 0.043996
O O14 0.450885 0.714846 0.248139
O O15 0.503426 0.903971 0.110207
O O16 0.274118 0.037945 0.314229
#
# Coordination Sequence:
#
# PCOD9140042 Si02
#       8
#     4   4   4   4   4   4   4   4
#     4  12  23  41  72 103 139 187 233 292 367 417
#     4  11  22  47  66  98 142 183 229 301 346 420
#     4  11  26  44  71  98 140 184 240 286 358 429
#     4  11  24  45  67 104 141 179 241 296 353 428
#     4  12  25  46  73 105 141 193 239 288 362 433
#     4  12  23  42  74  99 143 184 236 295 364 413
#     4  12  24  46  72 100 151 186 231 304 354 427
#     4  11  25  45  69 105 143 180 243 296 356 431
#
# _framework density 24.018941999999999
#
# number of rings (size 3 to 8) (size 9 to 14) (size 15 to 20)
#    0.000    0.500    7.500    0.750    3.500    2.000 
#    0.000    5.000    0.000    0.000    0.000    0.000 
#    0.000    0.000    0.000    0.000    0.000    0.000 
#
# Total GULP energy -89493.300754 kJ/mol
# GULP energy per Si atom -5593.331297 kJ/mol
# Density = 2.396427 g / cm^3
# Si number density = 24.018942 Si / 1000 Ang^3
#
#
#
# Elastic Constant Matrix: (Units=GPa)
#
#
# Indices 1 2 3 4 5 6 
#
# 1 135.8394 36.3207 10.3863 0.0002 -8.0435 0.0000
# 2 36.3207 65.2261 14.3577 -0.0003 -12.5276 -0.0001
# 3 10.3863 14.3577 91.7372 0.0003 11.0585 0.0003
# 4 0.0002 -0.0003 0.0003 1.8603 -0.0003 -14.8823
# 5 -8.0435 -12.5276 11.0585 -0.0003 22.6435 -0.0001
# 6 0.0000 -0.0001 0.0003 -14.8823 -0.0001 45.3699
#
#
#
# Elastic Compliance Matrix: (Units=1/GPa)
#
#
# Indices 1 2 3 4 5 6 
#
# 1 0.008663 -0.004616 -0.000342 0.000001 0.000690 0.000000
# 2 -0.004616 0.021173 -0.004256 -0.000004 0.012153 -0.000001
# 3 -0.000342 -0.004256 0.012649 0.000003 -0.008653 0.000001
# 4 0.000001 -0.000004 0.000003 -0.330965 -0.000008 -0.108564
# 5 0.000690 0.012153 -0.008653 -0.000008 0.055358 -0.000002
# 6 0.000000 -0.000001 0.000001 -0.108564 -0.000002 -0.013570
#
#
# Mechanical properties :
#
#
# Convention : Reuss Voigt Hill
#
# Bulk Modulus (GPa) = 41.56836 46.10357 43.83596
# Shear Modulus (GPa) = -22.70181 29.42392 3.36106
#
# Velocity S-wave (km/s) = -3.07768 3.50384 1.18422
# Velocity P-wave (km/s) = 2.17130 5.96704 4.48999
#
# Compressibility (1/GPa) = 0.02405676
#
# Stress axis : x y z
#
# Youngs Moduli (GPa) = 115.43511 47.23064 79.06018
#
# Poissons Ratio (x) = 0.21802 0.02700
# Poissons Ratio (y) = 0.53286 0.33648
# Poissons Ratio (z) = 0.03942 0.20102
#
# Static dielectric constant tensor:
#      x y z
#    x 1.987540 0.000000 0.031830 
#    y 0.000000 1.931350 0.000000 
#    z 0.031830 0.000000 1.918100 
# 
# From -- ./inp_files/11705.got.cif
#   From: 2010.05.17/outbox.cif.g08.bks.cpg/sg9_6_cif.got.tgz:11705.got - 2010.06.03 20:04:27.
