data_PCOD9140663
_publ_section_title
;
Structure prediction by ZEFSAII (Michael W. Deem and Ramdas Pophale) SiO2 
 PCOD9140663
Probable space group: C C
;
_chemical_formula_sum "Si O2"
_cell_formula_units_Z 24
_cell_length_a 7.818987
_cell_length_b 6.595687
_cell_length_c 19.765405
_cell_angle_alpha 90.000000
_cell_angle_beta 81.385489
_cell_angle_gamma 90.000000
_cell_volume 1007.833748
_symmetry_space_group_name_H-M "C C"
_symmetry_group_IT_number 9
_symmetry_cell_setting 'monoclinic'
loop_
_space_group_symop_operation_xyz
x,y,z
x,-y,1/2+z
1/2+x,1/2+y,z
1/2+x,1/2-y,1/2+z
loop_
_atom_site_type_symbol
_atom_site_label
_atom_site_fract_x
_atom_site_fract_y
_atom_site_fract_z
Si Si1 0.263590 0.689491 0.614180
Si Si2 0.197611 0.645059 0.210948
Si Si3 0.362777 0.030047 0.800130
Si Si4 0.581954 0.723626 0.391069
Si Si5 0.343771 0.409603 0.480033
Si Si6 0.387387 0.867220 0.093692
O O1 0.369158 0.894224 0.602073
O O2 0.301727 0.557091 0.545255
O O3 0.291600 0.561441 0.680731
O O4 0.056170 0.720352 0.621256
O O5 0.284898 0.782052 0.262914
O O6 0.218409 0.778666 0.141583
O O7 0.011090 0.579232 0.248026
O O8 0.449799 0.127312 0.861439
O O9 0.217777 0.868789 0.829527
O O10 0.485700 0.529368 0.428678
O O11 0.686467 0.846948 0.441557
O O12 0.399692 0.205866 0.515944
#
# Coordination Sequence:
#
# PCOD9140663 Si02
#       6
#     4   4   4   4   4   4
#     4  11  25  45  78 108 146 187 237 313 364 426
#     4  11  26  50  74 109 146 189 248 298 368 429
#     4  12  28  48  74 104 148 197 242 296 356 435
#     4  12  28  48  74 104 148 197 242 296 356 435
#     4  11  26  46  74 109 146 189 248 298 368 429
#     4  11  25  45  78 108 146 187 237 313 364 426
#
# _framework density 23.813451000000001
#
# number of rings (size 3 to 8) (size 9 to 14) (size 15 to 20)
#    0.000    0.667    1.667    4.000    9.333    6.667 
#    0.000    0.000    0.000    0.000    0.000    0.000 
#    0.000    0.000    0.000    0.000    0.000    0.000 
#
# Total GULP energy -67214.492401 kJ/mol
# GULP energy per Si atom -5601.207700 kJ/mol
# Density = 2.375925 g / cm^3
# Si number density = 23.813451 Si / 1000 Ang^3
#
#
#
# Elastic Constant Matrix: (Units=GPa)
#
#
# Indices 1 2 3 4 5 6 
#
# 1 81.8061 29.1001 13.8669 0.0000 0.3536 0.0000
# 2 29.1001 89.6729 20.5279 0.0000 3.7289 0.0000
# 3 13.8669 20.5279 70.2477 0.0000 4.5274 0.0000
# 4 0.0000 0.0000 0.0000 32.0241 0.0000 -6.7622
# 5 0.3536 3.7289 4.5274 0.0000 35.7223 0.0000
# 6 0.0000 0.0000 0.0000 -6.7622 0.0000 41.5554
#
#
#
# Elastic Compliance Matrix: (Units=1/GPa)
#
#
# Indices 1 2 3 4 5 6 
#
# 1 0.013981 -0.004200 -0.001565 0.000000 0.000498 0.000000
# 2 -0.004200 0.013236 -0.002977 0.000000 -0.000963 0.000000
# 3 -0.001565 -0.002977 0.015520 0.000000 -0.001641 0.000000
# 4 0.000000 0.000000 0.000000 0.032338 0.000000 0.005262
# 5 0.000498 -0.000963 -0.001641 0.000000 0.028297 0.000000
# 6 0.000000 0.000000 0.000000 0.005262 0.000000 0.024921
#
#
# Mechanical properties :
#
#
# Convention : Reuss Voigt Hill
#
# Bulk Modulus (GPa) = 39.59677 40.96850 40.28264
# Shear Modulus (GPa) = 32.42699 33.74248 33.08474
#
# Velocity S-wave (km/s) = 3.69414 3.76832 3.73142
# Velocity P-wave (km/s) = 5.90420 6.01456 5.95964
#
# Compressibility (1/GPa) = 0.02525458
#
# Stress axis : x y z
#
# Youngs Moduli (GPa) = 71.52579 75.55197 64.43359
#
# Poissons Ratio (x) = 0.31728 0.10082
# Poissons Ratio (y) = 0.30037 0.19181
# Poissons Ratio (z) = 0.11192 0.22490
#
# Static dielectric constant tensor:
#      x y z
#    x 1.917490 0.000000 -0.001850 
#    y 0.000000 1.900340 0.000000 
#    z -0.001850 0.000000 1.901460 
# 
# From -- ./inp_files/31912.got.cif
#   From: 2010.05.17/outbox.cif.g08.bks.cpg/sg9_16_cif.got.tgz:31912.got - 2010.06.03 20:04:27.
