data_PCOD9140138
_publ_section_title
;
Structure prediction by ZEFSAII (Michael W. Deem and Ramdas Pophale) SiO2 
 PCOD9140138
Probable space group: C C
;
_chemical_formula_sum "Si O2"
_cell_formula_units_Z 28
_cell_length_a 29.635150
_cell_length_b 5.017445
_cell_length_c 24.431091
_cell_angle_alpha 90.000000
_cell_angle_beta 163.489027
_cell_angle_gamma 90.000000
_cell_volume 1032.416907
_symmetry_space_group_name_H-M "C C"
_symmetry_group_IT_number 9
_symmetry_cell_setting 'monoclinic'
loop_
_space_group_symop_operation_xyz
x,y,z
x,-y,1/2+z
1/2+x,1/2+y,z
1/2+x,1/2-y,1/2+z
loop_
_atom_site_type_symbol
_atom_site_label
_atom_site_fract_x
_atom_site_fract_y
_atom_site_fract_z
Si Si1 0.959200 0.791434 0.004450
Si Si2 0.282501 0.092674 0.025956
Si Si3 0.274732 0.197861 0.140437
Si Si4 0.229680 0.382450 0.302742
Si Si5 0.062056 0.918675 0.537847
Si Si6 0.920762 0.106062 0.126779
Si Si7 0.192513 0.303038 0.603205
O O1 0.069205 0.537364 0.134228
O O2 0.848742 0.861857 0.925390
O O3 0.857678 0.805261 0.829589
O O4 0.071754 0.033795 0.115467
O O5 0.306176 0.223631 0.113488
O O6 0.327459 0.337411 0.037793
O O7 0.395336 0.839426 0.142730
O O8 0.100183 0.979685 0.817895
O O9 0.432124 0.232956 0.359834
O O10 0.164762 0.419643 0.041193
O O11 0.205615 0.909191 0.070233
O O12 0.221579 0.260013 0.230681
O O13 0.329177 0.267223 0.468407
O O14 0.085339 0.162213 0.523799
#
# Coordination Sequence:
#
# PCOD9140138 Si02
#       7
#     4   4   4   4   4   4   4
#     4  11  24  44  69 113 158 198 247 315 396 478
#     4  12  29  59  79 121 154 224 272 348 390 491
#     4  11  26  47  77 107 158 200 264 324 399 468
#     4  12  26  45  77 112 159 205 258 327 388 483
#     4  11  24  43  73 115 155 199 253 317 408 468
#     4  12  30  53  87 112 166 212 286 327 413 462
#     4  11  23  43  72 114 152 202 246 320 398 478
#
# _framework density 27.120826999999998
#
# number of rings (size 3 to 8) (size 9 to 14) (size 15 to 20)
#    0.000    0.571    2.857    4.286    6.000    0.000 
#    2.571    0.000    0.000    0.000    0.000    0.000 
#    0.000    0.000    0.000    0.000    0.000    0.000 
#
# Total GULP energy -78195.686387 kJ/mol
# GULP energy per Si atom -5585.406170 kJ/mol
# Density = 2.705910 g / cm^3
# Si number density = 27.120827 Si / 1000 Ang^3
#
#
#
# Elastic Constant Matrix: (Units=GPa)
#
#
# Indices 1 2 3 4 5 6 
#
# 1 98.2211 30.5674 38.7604 0.0042 9.8008 0.0008
# 2 30.5674 146.4474 29.0642 0.0066 15.9656 0.0036
# 3 38.7604 29.0642 114.4146 0.0098 7.5296 0.0031
# 4 0.0042 0.0066 0.0098 90.2788 0.0064 16.3970
# 5 9.8008 15.9656 7.5296 0.0064 53.7841 0.0017
# 6 0.0008 0.0036 0.0031 16.3970 0.0017 49.3220
#
#
#
# Elastic Compliance Matrix: (Units=1/GPa)
#
#
# Indices 1 2 3 4 5 6 
#
# 1 0.012271 -0.001705 -0.003644 0.000000 -0.001220 0.000000
# 2 -0.001705 0.007625 -0.001242 0.000000 -0.001779 0.000000
# 3 -0.003644 -0.001242 0.010317 -0.000001 -0.000412 0.000000
# 4 0.000000 0.000000 -0.000001 0.011789 -0.000001 -0.003919
# 5 -0.001220 -0.001779 -0.000412 -0.000001 0.019401 0.000000
# 6 0.000000 0.000000 0.000000 -0.003919 0.000000 0.021578
#
#
# Mechanical properties :
#
#
# Convention : Reuss Voigt Hill
#
# Bulk Modulus (GPa) = 58.71615 61.76303 60.23959
# Shear Modulus (GPa) = 49.09669 56.05638 52.57654
#
# Velocity S-wave (km/s) = 4.25937 4.55126 4.40773
# Velocity P-wave (km/s) = 6.77396 7.10221 6.94002
#
# Compressibility (1/GPa) = 0.01703109
#
# Stress axis : x y z
#
# Youngs Moduli (GPa) = 81.49010 131.15179 96.92577
#
# Poissons Ratio (x) = 0.22364 0.35317
# Poissons Ratio (y) = 0.13896 0.12040
# Poissons Ratio (z) = 0.29693 0.16291
#
# Static dielectric constant tensor:
#      x y z
#    x 1.908460 -0.000040 -0.315150 
#    y -0.000040 0.730050 -0.000050 
#    z -0.315150 -0.000050 1.657010 
# 
# From -- ./inp_files/36156.got.cif
#   From: 2010.05.17/outbox.cif.g08.bks.cpg/sg9_19_cif.got.tgz:36156.got - 2010.06.03 20:04:27.
