data_PCOD9140557
_publ_section_title
;
Structure prediction by ZEFSAII (Michael W. Deem and Ramdas Pophale) SiO2 
 PCOD9140557
Probable space group: C C
;
_chemical_formula_sum "Si O2"
_cell_formula_units_Z 20
_cell_length_a 7.475991
_cell_length_b 16.300715
_cell_length_c 7.446715
_cell_angle_alpha 90.000000
_cell_angle_beta 78.580332
_cell_angle_gamma 90.000000
_cell_volume 889.521199
_symmetry_space_group_name_H-M "C C"
_symmetry_group_IT_number 9
_symmetry_cell_setting 'monoclinic'
loop_
_space_group_symop_operation_xyz
x,y,z
x,-y,1/2+z
1/2+x,1/2+y,z
1/2+x,1/2-y,1/2+z
loop_
_atom_site_type_symbol
_atom_site_label
_atom_site_fract_x
_atom_site_fract_y
_atom_site_fract_z
Si Si1 0.281960 0.609387 0.010000
Si Si2 0.320951 0.745151 0.278718
Si Si3 0.183734 0.082629 0.898255
Si Si4 0.940329 0.512169 0.120414
Si Si5 0.159215 0.648466 0.635777
O O1 0.281105 0.697465 0.103508
O O2 0.122156 0.559308 0.141691
O O3 0.479904 0.569950 0.005114
O O4 0.250828 0.614099 0.800539
O O5 0.193444 0.825544 0.319176
O O6 0.287493 0.685928 0.455892
O O7 0.526274 0.778462 0.226248
O O8 0.251437 0.010189 0.755756
O O9 0.358286 0.075690 0.994136
O O10 0.027928 0.421708 0.073375
#
# Coordination Sequence:
#
# PCOD9140557 Si02
#       5
#     4   4   4   4   4
#     4  12  26  47  77 106 151 200 245 305 379 441
#     4  11  24  48  70 109 148 187 253 308 364 436
#     4  11  26  45  72 111 141 197 245 306 373 431
#     4  11  24  49  69 107 152 181 259 302 359 448
#     4  11  26  47  74 107 148 201 246 309 369 444
#
# _framework density 22.484006000000001
#
# number of rings (size 3 to 8) (size 9 to 14) (size 15 to 20)
#    0.000    0.800    6.000    1.200    5.600    0.000 
#    7.200    0.000    0.000    0.000    0.000    0.000 
#    0.000    0.000    0.000    0.000    0.000    0.000 
#
# Total GULP energy -55674.403109 kJ/mol
# GULP energy per Si atom -5567.440311 kJ/mol
# Density = 2.243283 g / cm^3
# Si number density = 22.484006 Si / 1000 Ang^3
#
#
#
# Elastic Constant Matrix: (Units=GPa)
#
#
# Indices 1 2 3 4 5 6 
#
# 1 61.1907 98.9397 93.6227 0.0000 31.0239 0.0000
# 2 98.9397 37.9884 -22.4010 0.0000 -33.8711 0.0000
# 3 93.6227 -22.4010 30.2736 0.0000 -36.3549 0.0000
# 4 0.0000 0.0000 0.0000 30.1594 0.0000 -3.6141
# 5 31.0239 -33.8711 -36.3549 0.0000 -7.8231 0.0000
# 6 0.0000 0.0000 0.0000 -3.6141 0.0000 41.3984
#
#
#
# Elastic Compliance Matrix: (Units=1/GPa)
#
#
# Indices 1 2 3 4 5 6 
#
# 1 0.005835 0.000071 0.001433 0.000000 0.016176 0.000000
# 2 0.000071 0.010736 -0.007257 0.000000 -0.012477 0.000000
# 3 0.001433 -0.007257 0.010301 0.000000 -0.010767 0.000000
# 4 0.000000 0.000000 0.000000 0.033508 0.000000 0.002925
# 5 0.016176 -0.012477 -0.010767 0.000000 0.040378 0.000000
# 6 0.000000 0.000000 0.000000 0.002925 0.000000 0.024411
#
#
# Mechanical properties :
#
#
# Convention : Reuss Voigt Hill
#
# Bulk Modulus (GPa) = 65.08788 52.19728 58.64258
# Shear Modulus (GPa) = 35.26135 10.03304 22.64719
#
# Velocity S-wave (km/s) = 3.96446 2.11471 3.17718
# Velocity P-wave (km/s) = 7.06875 5.40632 6.29268
#
# Compressibility (1/GPa) = 0.01536384
#
# Stress axis : x y z
#
# Youngs Moduli (GPa) = 171.38178 93.14518 97.07702
#
# Poissons Ratio (x) = -0.00658 -0.13908
# Poissons Ratio (y) = -0.01210 0.70452
# Poissons Ratio (z) = -0.24554 0.67599
#
# Static dielectric constant tensor:
#      x y z
#    x 1.785810 0.000000 -0.050050 
#    y 0.000000 1.745390 0.000000 
#    z -0.050050 0.000000 2.841020 
# 
# From -- ./inp_files/4890.got.cif
#   From: 2010.05.17/outbox.cif.g08.bks.cpg/sg9_3_cif.got.tgz:4890.got - 2010.06.03 20:04:27.
