data_PCOD9140019
_publ_section_title
;
Structure prediction by ZEFSAII (Michael W. Deem and Ramdas Pophale) SiO2 
 PCOD9140019
Probable space group: C C
;
_chemical_formula_sum "Si O2"
_cell_formula_units_Z 28
_cell_length_a 5.471003
_cell_length_b 20.090331
_cell_length_c 11.404785
_cell_angle_alpha 90.000000
_cell_angle_beta 75.983203
_cell_angle_gamma 90.000000
_cell_volume 1216.223812
_symmetry_space_group_name_H-M "C C"
_symmetry_group_IT_number 9
_symmetry_cell_setting 'monoclinic'
loop_
_space_group_symop_operation_xyz
x,y,z
x,-y,1/2+z
1/2+x,1/2+y,z
1/2+x,1/2-y,1/2+z
loop_
_atom_site_type_symbol
_atom_site_label
_atom_site_fract_x
_atom_site_fract_y
_atom_site_fract_z
Si Si1 0.667920 0.866303 0.223300
Si Si2 0.560186 0.569161 0.227198
Si Si3 0.086545 0.850784 0.499709
Si Si4 0.350498 0.458963 0.388241
Si Si5 0.606005 0.624331 0.479920
Si Si6 0.950976 0.468818 0.084188
Si Si7 0.126801 0.278700 0.421561
O O1 0.682861 0.902816 0.347151
O O2 0.465496 0.907278 0.173083
O O3 0.644162 0.791958 0.277565
O O4 0.905722 0.873548 0.109852
O O5 0.498159 0.621770 0.135343
O O6 0.393053 0.504195 0.268939
O O7 0.540567 0.601615 0.356353
O O8 0.817543 0.532871 0.156859
O O9 0.346288 0.809270 0.481636
O O10 0.082845 0.919077 0.420183
O O11 0.864557 0.808925 0.465360
O O12 0.209993 0.501613 0.502888
O O13 0.806910 0.568031 0.495034
O O14 0.658658 0.701785 0.452328
#
# Coordination Sequence:
#
# PCOD9140019 Si02
#       7
#     4   4   4   4   4   4   4
#     4  11  24  47  70 106 146 197 241 310 366 445
#     4  12  23  44  72 110 145 183 251 307 380 442
#     4  11  26  51  74 108 146 203 243 311 371 439
#     4  11  22  45  75 111 145 190 246 314 385 441
#     4  12  28  45  72 111 145 202 247 306 372 449
#     4  12  24  45  78 109 150 189 249 316 386 438
#     4  11  29  49  75 103 151 200 257 296 370 446
#
# _framework density 23.022078
#
# number of rings (size 3 to 8) (size 9 to 14) (size 15 to 20)
#    0.000    0.571    2.857    5.143    6.000    1.143 
#    0.000    0.000    0.000    0.000    0.000    0.000 
#    0.000    0.000    0.000    0.000    0.000    0.000 
#
# Total GULP energy -77971.495795 kJ/mol
# GULP energy per Si atom -5569.392557 kJ/mol
# Density = 2.296968 g / cm^3
# Si number density = 23.022078 Si / 1000 Ang^3
#
#
#
# Elastic Constant Matrix: (Units=GPa)
#
#
# Indices 1 2 3 4 5 6 
#
# 1 61.6393 28.8868 18.9918 0.0000 -10.5478 0.0000
# 2 28.8868 113.2853 33.2352 0.0000 -13.1712 0.0000
# 3 18.9918 33.2352 92.9429 0.0000 0.9437 0.0000
# 4 0.0000 0.0000 0.0000 38.3893 0.0000 -3.8598
# 5 -10.5478 -13.1712 0.9437 0.0000 29.7357 0.0000
# 6 0.0000 0.0000 0.0000 -3.8598 0.0000 3.5639
#
#
#
# Elastic Compliance Matrix: (Units=1/GPa)
#
#
# Indices 1 2 3 4 5 6 
#
# 1 0.019698 -0.003560 -0.002808 0.000000 0.005500 0.000000
# 2 -0.003560 0.011141 -0.003295 0.000000 0.003777 0.000000
# 3 -0.002808 -0.003295 0.012540 0.000000 -0.002853 0.000000
# 4 0.000000 0.000000 0.000000 0.029232 0.000000 0.031659
# 5 0.005500 0.003777 -0.002853 0.000000 0.037344 0.000000
# 6 0.000000 0.000000 0.000000 0.031659 0.000000 0.314876
#
#
# Mechanical properties :
#
#
# Convention : Reuss Voigt Hill
#
# Bulk Modulus (GPa) = 41.57300 47.78833 44.68067
# Shear Modulus (GPa) = 11.05771 26.78804 18.92288
#
# Velocity S-wave (km/s) = 2.19397 3.41483 2.87007
# Velocity P-wave (km/s) = 4.95127 6.02916 5.51661
#
# Compressibility (1/GPa) = 0.02405407
#
# Stress axis : x y z
#
# Youngs Moduli (GPa) = 50.76689 89.76167 79.74354
#
# Poissons Ratio (x) = 0.31951 0.22392
# Poissons Ratio (y) = 0.18071 0.26273
# Poissons Ratio (z) = 0.14255 0.29574
#
# Static dielectric constant tensor:
#      x y z
#    x 1.918040 0.000000 -0.026900 
#    y 0.000000 1.993140 0.000000 
#    z -0.026900 0.000000 1.893960 
# 
# From -- ./inp_files/13307.got.cif
#   From: 2010.05.17/outbox.cif.g08.bks.cpg/sg9_7_cif.got.tgz:13307.got - 2010.06.03 20:04:27.
