data_PCOD9140355
_publ_section_title
;
Structure prediction by ZEFSAII (Michael W. Deem and Ramdas Pophale) SiO2 
 PCOD9140355
Probable space group: C C
;
_chemical_formula_sum "Si O2"
_cell_formula_units_Z 32
_cell_length_a 9.659435
_cell_length_b 19.249802
_cell_length_c 15.928625
_cell_angle_alpha 90.000000
_cell_angle_beta 150.416513
_cell_angle_gamma 90.000000
_cell_volume 1462.216604
_symmetry_space_group_name_H-M "C C"
_symmetry_group_IT_number 9
_symmetry_cell_setting 'monoclinic'
loop_
_space_group_symop_operation_xyz
x,y,z
x,-y,1/2+z
1/2+x,1/2+y,z
1/2+x,1/2-y,1/2+z
loop_
_atom_site_type_symbol
_atom_site_label
_atom_site_fract_x
_atom_site_fract_y
_atom_site_fract_z
Si Si1 0.020240 0.173885 0.769970
Si Si2 0.621954 0.540361 0.031514
Si Si3 0.373369 0.181754 0.127012
Si Si4 0.036731 0.178986 0.445081
Si Si5 0.904747 0.325586 0.309002
Si Si6 0.610653 0.546805 0.369046
Si Si7 0.109087 0.532374 0.867628
Si Si8 0.655343 0.960191 0.056470
O O1 0.208800 0.161501 0.786637
O O2 0.852152 0.244825 0.662835
O O3 0.814058 0.108766 0.670280
O O4 0.219053 0.184648 0.955412
O O5 0.733087 0.617872 0.101604
O O6 0.792937 0.487717 0.179556
O O7 0.687958 0.515580 0.972949
O O8 0.299150 0.532616 0.885328
O O9 0.706353 0.168922 0.291725
O O10 0.217267 0.180177 0.625693
O O11 0.125298 0.116907 0.430271
O O12 0.055767 0.252887 0.408193
O O13 0.109419 0.390721 0.405605
O O14 0.299488 0.526902 0.175951
O O15 0.831018 0.545558 0.409780
O O16 0.203266 0.474857 0.983874
#
# Coordination Sequence:
#
# PCOD9140355 Si02
#       8
#     4   4   4   4   4   4   4   4
#     4  11  24  43  68 100 138 178 227 275 339 405
#     4  12  25  45  70  98 136 176 225 276 342 396
#     4  11  24  42  70  99 137 181 223 277 340 405
#     4  11  24  42  70  99 137 181 223 277 340 405
#     4  11  24  43  68 100 138 178 227 275 339 405
#     4  12  25  45  70  98 136 176 225 276 342 396
#     4  12  27  45  68 102 135 179 225 282 332 402
#     4  12  27  45  68 102 135 179 225 282 332 402
#
# _framework density 21.884582999999999
#
# number of rings (size 3 to 8) (size 9 to 14) (size 15 to 20)
#    0.000    0.500    2.500    7.500    7.000    1.000 
#    0.000    0.000    0.000    0.000    0.000    0.000 
#    0.000    0.000    0.000    0.000    0.000    0.000 
#
# Total GULP energy -89509.908960 kJ/mol
# GULP energy per Si atom -5594.369310 kJ/mol
# Density = 2.183477 g / cm^3
# Si number density = 21.884583 Si / 1000 Ang^3
#
#
#
# Elastic Constant Matrix: (Units=GPa)
#
#
# Indices 1 2 3 4 5 6 
#
# 1 69.6329 37.1096 11.1608 -0.0091 6.5763 -0.0016
# 2 37.1096 114.8881 25.1339 -0.0270 4.8014 -0.0055
# 3 11.1608 25.1339 69.3772 -0.0388 -8.8479 -0.0086
# 4 -0.0091 -0.0270 -0.0388 36.5724 -0.0162 -3.2725
# 5 6.5763 4.8014 -8.8479 -0.0162 30.2645 0.0000
# 6 -0.0016 -0.0055 -0.0086 -3.2725 0.0000 36.7657
#
#
#
# Elastic Compliance Matrix: (Units=1/GPa)
#
#
# Indices 1 2 3 4 5 6 
#
# 1 0.017717 -0.005280 -0.001373 -0.000002 -0.003414 -0.000001
# 2 -0.005280 0.011228 -0.003427 0.000003 -0.001636 0.000001
# 3 -0.001373 -0.003427 0.016603 0.000018 0.005696 0.000005
# 4 -0.000002 0.000003 0.000018 0.027563 0.000020 0.002453
# 5 -0.003414 -0.001636 0.005696 0.000020 0.035708 0.000003
# 6 -0.000001 0.000001 0.000005 0.002453 0.000003 0.027418
#
#
# Mechanical properties :
#
#
# Convention : Reuss Voigt Hill
#
# Bulk Modulus (GPa) = 39.38748 44.52298 41.95523
# Shear Modulus (GPa) = 30.32920 32.75346 31.54133
#
# Velocity S-wave (km/s) = 3.72677 3.87285 3.80051
# Velocity P-wave (km/s) = 6.04610 6.35509 6.20252
#
# Compressibility (1/GPa) = 0.02538878
#
# Stress axis : x y z
#
# Youngs Moduli (GPa) = 56.44235 89.06659 60.23132
#
# Poissons Ratio (x) = 0.47025 0.08268
# Poissons Ratio (y) = 0.29800 0.20640
# Poissons Ratio (z) = 0.07748 0.30521
#
# Static dielectric constant tensor:
#      x y z
#    x 1.759350 0.000000 -0.032720 
#    y 0.000000 1.789250 0.000000 
#    z -0.032720 0.000000 1.798210 
# 
# From -- ./inp_files/10101.got.cif
#   From: 2010.05.17/outbox.cif.g08.bks.cpg/sg9_6_cif.got.tgz:10101.got - 2010.06.03 20:04:27.
