data_PCOD9140350
_publ_section_title
;
Structure prediction by ZEFSAII (Michael W. Deem and Ramdas Pophale) SiO2 
 PCOD9140350
Probable space group: C C
;
_chemical_formula_sum "Si O2"
_cell_formula_units_Z 32
_cell_length_a 26.276100
_cell_length_b 5.977864
_cell_length_c 8.985765
_cell_angle_alpha 90.000000
_cell_angle_beta 120.901107
_cell_angle_gamma 90.000000
_cell_volume 1211.091932
_symmetry_space_group_name_H-M "C C"
_symmetry_group_IT_number 9
_symmetry_cell_setting 'monoclinic'
loop_
_space_group_symop_operation_xyz
x,y,z
x,-y,1/2+z
1/2+x,1/2+y,z
1/2+x,1/2-y,1/2+z
loop_
_atom_site_type_symbol
_atom_site_label
_atom_site_fract_x
_atom_site_fract_y
_atom_site_fract_z
Si Si1 0.352830 0.444421 0.427870
Si Si2 0.836892 0.692829 0.112545
Si Si3 0.633981 0.847508 0.658907
Si Si4 0.703542 0.442010 0.486064
Si Si5 0.535030 0.814151 0.897756
Si Si6 0.935636 0.337553 0.249234
Si Si7 0.025636 0.079586 0.572937
Si Si8 0.222502 0.291388 0.302692
O O1 0.349534 0.390422 0.249570
O O2 0.348355 0.701256 0.468888
O O3 0.409830 0.331674 0.588570
O O4 0.292932 0.327174 0.404694
O O5 0.881208 0.493939 0.213337
O O6 0.769486 0.620553 0.031560
O O7 0.659369 0.740189 0.850965
O O8 0.583337 0.655776 0.560026
O O9 0.591688 0.055497 0.547583
O O10 0.695286 0.974620 0.706749
O O11 0.694775 0.695264 0.414528
O O12 0.704693 0.408847 0.663493
O O13 0.539353 0.650035 0.761951
O O14 0.487002 0.995081 0.773077
O O15 0.514620 0.673522 0.010109
O O16 0.967645 0.208935 0.430412
#
# Coordination Sequence:
#
# PCOD9140350 Si02
#       8
#     4   4   4   4   4   4   4   4
#     4  11  24  42  66  99 139 183 229 278 337 406
#     4  11  24  42  66  99 139 183 229 278 337 406
#     4  11  24  44  68 100 136 175 226 282 340 403
#     4  11  24  42  67 100 138 183 228 278 339 406
#     4  11  26  46  72 101 135 181 232 289 349 411
#     4  11  24  44  70 102 140 179 232 284 348 403
#     4  11  26  46  72 101 135 181 232 289 349 411
#     4  11  24  42  67 100 138 183 228 278 339 406
#
# _framework density 26.422438
#
# number of rings (size 3 to 8) (size 9 to 14) (size 15 to 20)
#    0.000    1.000    2.500    3.000    0.000   13.000 
#    0.000    0.000    0.000    0.000    0.000    0.000 
#    0.000    0.000    0.000    0.000    0.000    0.000 
#
# Total GULP energy -89387.818358 kJ/mol
# GULP energy per Si atom -5586.738647 kJ/mol
# Density = 2.636230 g / cm^3
# Si number density = 26.422438 Si / 1000 Ang^3
#
#
#
# Elastic Constant Matrix: (Units=GPa)
#
#
# Indices 1 2 3 4 5 6 
#
# 1 60.9816 23.2749 40.7480 0.0000 17.2079 0.0000
# 2 23.2749 60.7575 47.8391 0.0000 -10.8588 0.0000
# 3 40.7480 47.8391 152.8916 0.0000 20.8336 0.0000
# 4 0.0000 0.0000 0.0000 53.7793 0.0000 1.3033
# 5 17.2079 -10.8588 20.8336 0.0000 41.7007 0.0000
# 6 0.0000 0.0000 0.0000 1.3033 0.0000 28.3100
#
#
#
# Elastic Compliance Matrix: (Units=1/GPa)
#
#
# Indices 1 2 3 4 5 6 
#
# 1 0.024930 -0.010319 -0.001768 0.000000 -0.012092 0.000000
# 2 -0.010319 0.030575 -0.009101 0.000000 0.016767 0.000000
# 3 -0.001768 -0.009101 0.010820 0.000000 -0.007046 0.000000
# 4 0.000000 0.000000 0.000000 0.018615 0.000000 -0.000857
# 5 -0.012092 0.016767 -0.007046 0.000000 0.036856 0.000000
# 6 0.000000 0.000000 0.000000 -0.000857 0.000000 0.035363
#
#
# Mechanical properties :
#
#
# Convention : Reuss Voigt Hill
#
# Bulk Modulus (GPa) = 41.75738 55.37276 48.56507
# Shear Modulus (GPa) = 24.09430 35.60924 29.85177
#
# Velocity S-wave (km/s) = 3.02302 3.67507 3.36488
# Velocity P-wave (km/s) = 5.29367 6.24583 5.78936
#
# Compressibility (1/GPa) = 0.02394786
#
# Stress axis : x y z
#
# Youngs Moduli (GPa) = 40.11190 32.70674 92.42558
#
# Poissons Ratio (x) = 0.33752 0.16339
# Poissons Ratio (y) = 0.41393 0.84118
# Poissons Ratio (z) = 0.07091 0.29767
#
# Static dielectric constant tensor:
#      x y z
#    x 2.071360 0.000000 -0.011600 
#    y 0.000000 2.086040 0.000000 
#    z -0.011600 0.000000 1.971110 
# 
# From -- ./inp_files/21360.got.cif
#   From: 2010.05.17/outbox.cif.g08.bks.cpg/sg9_11_cif.got.tgz:21360.got - 2010.06.03 20:04:27.
