data_PCOD9140676
_publ_section_title
;
Structure prediction by ZEFSAII (Michael W. Deem and Ramdas Pophale) SiO2 
 PCOD9140676
Probable space group: C C
;
_chemical_formula_sum "Si O2"
_cell_formula_units_Z 32
_cell_length_a 15.118999
_cell_length_b 11.295213
_cell_length_c 8.947864
_cell_angle_alpha 90.000000
_cell_angle_beta 62.369728
_cell_angle_gamma 90.000000
_cell_volume 1353.786886
_symmetry_space_group_name_H-M "C C"
_symmetry_group_IT_number 9
_symmetry_cell_setting 'monoclinic'
loop_
_space_group_symop_operation_xyz
x,y,z
x,-y,1/2+z
1/2+x,1/2+y,z
1/2+x,1/2-y,1/2+z
loop_
_atom_site_type_symbol
_atom_site_label
_atom_site_fract_x
_atom_site_fract_y
_atom_site_fract_z
Si Si1 0.705260 0.952558 0.233840
Si Si2 0.040209 0.151283 0.148658
Si Si3 0.527901 0.400514 0.322729
Si Si4 0.326864 0.097266 0.821936
Si Si5 0.362120 0.729524 0.757716
Si Si6 0.247386 0.901056 0.066457
Si Si7 0.985235 0.359228 0.409975
Si Si8 0.217935 0.329914 0.915094
O O1 0.789789 0.868294 0.240266
O O2 0.592421 0.913215 0.368529
O O3 0.717508 0.089223 0.269022
O O4 0.716492 0.925241 0.049683
O O5 0.002371 0.239141 0.306442
O O6 0.039863 0.031909 0.247228
O O7 0.996549 0.110130 0.021134
O O8 0.127700 0.239759 0.018646
O O9 0.450183 0.331555 0.281293
O O10 0.641475 0.356473 0.209065
O O11 0.316083 0.073667 0.656301
O O12 0.427428 0.062987 0.829668
O O13 0.308873 0.237797 0.849958
O O14 0.242180 0.021604 0.973692
O O15 0.295379 0.805820 0.921586
O O16 0.412142 0.820794 0.600856
#
# Coordination Sequence:
#
# PCOD9140676 Si02
#       8
#     4   4   4   4   4   4   4   4
#     4  11  28  47  75 106 152 198 255 321 388 447
#     4  11  25  46  74 106 152 201 252 320 386 455
#     4  12  24  45  72 109 151 201 259 318 381 461
#     4  12  25  47  77 111 152 200 259 316 384 469
#     4  12  27  45  76 112 153 202 259 312 397 460
#     4  12  26  47  77 111 153 200 257 320 385 459
#     4  11  26  49  72 110 154 200 257 320 385 466
#     4  11  25  48  75 107 153 198 252 317 388 457
#
# _framework density 23.637397
#
# number of rings (size 3 to 8) (size 9 to 14) (size 15 to 20)
#    0.000    0.500    3.750    3.000    3.500    8.000 
#    0.000    0.000    0.000    0.000    0.000    0.000 
#    0.000    0.000    0.000    0.000    0.000    0.000 
#
# Total GULP energy -89377.766872 kJ/mol
# GULP energy per Si atom -5586.110429 kJ/mol
# Density = 2.358360 g / cm^3
# Si number density = 23.637397 Si / 1000 Ang^3
#
#
#
# Elastic Constant Matrix: (Units=GPa)
#
#
# Indices 1 2 3 4 5 6 
#
# 1 81.0141 25.3118 8.9387 0.0000 8.0984 0.0000
# 2 25.3118 101.1914 12.8261 0.0000 -1.3606 0.0000
# 3 8.9387 12.8261 78.8255 0.0000 11.0654 0.0000
# 4 0.0000 0.0000 0.0000 114.6559 0.0000 101.3089
# 5 8.0984 -1.3606 11.0654 0.0000 28.8776 0.0000
# 6 0.0000 0.0000 0.0000 101.3089 0.0000 100.7661
#
#
#
# Elastic Compliance Matrix: (Units=1/GPa)
#
#
# Indices 1 2 3 4 5 6 
#
# 1 0.013863 -0.003461 -0.000465 0.000000 -0.003873 0.000000
# 2 -0.003461 0.010992 -0.001696 0.000000 0.002138 0.000000
# 3 -0.000465 -0.001696 0.013747 0.000000 -0.005217 0.000000
# 4 0.000000 0.000000 0.000000 0.078117 0.000000 -0.078538
# 5 -0.003873 0.002138 -0.005217 0.000000 0.037815 0.000000
# 6 0.000000 0.000000 0.000000 -0.078538 0.000000 0.088885
#
#
# Mechanical properties :
#
#
# Convention : Reuss Voigt Hill
#
# Bulk Modulus (GPa) = 36.55290 39.46490 38.00890
# Shear Modulus (GPa) = 18.95494 63.12353 41.03924
#
# Velocity S-wave (km/s) = 2.83486 5.17329 4.17129
# Velocity P-wave (km/s) = 5.11985 7.23990 6.27013
#
# Compressibility (1/GPa) = 0.02735761
#
# Stress axis : x y z
#
# Youngs Moduli (GPa) = 72.13303 90.97773 72.74099
#
# Poissons Ratio (x) = 0.31486 0.03385
# Poissons Ratio (y) = 0.24964 0.12339
# Poissons Ratio (z) = 0.03356 0.15432
#
# Static dielectric constant tensor:
#      x y z
#    x 1.993660 0.000000 -0.047750 
#    y 0.000000 1.739330 0.000000 
#    z -0.047750 0.000000 1.888460 
# 
# From -- ./inp_files/9253.got.cif
#   From: 2010.05.17/outbox.cif.g08.bks.cpg/sg9_5_cif.got.tgz:9253.got - 2010.06.03 20:04:27.
