data_PCOD9140935
_publ_section_title
;
Structure prediction by ZEFSAII (Michael W. Deem and Ramdas Pophale) SiO2 
 PCOD9140935
Probable space group: C C
;
_chemical_formula_sum "Si O2"
_cell_formula_units_Z 32
_cell_length_a 14.261532
_cell_length_b 14.709535
_cell_length_c 12.044839
_cell_angle_alpha 90.000000
_cell_angle_beta 31.130723
_cell_angle_gamma 90.000000
_cell_volume 1306.322126
_symmetry_space_group_name_H-M "C C"
_symmetry_group_IT_number 9
_symmetry_cell_setting 'monoclinic'
loop_
_space_group_symop_operation_xyz
x,y,z
x,-y,1/2+z
1/2+x,1/2+y,z
1/2+x,1/2-y,1/2+z
loop_
_atom_site_type_symbol
_atom_site_label
_atom_site_fract_x
_atom_site_fract_y
_atom_site_fract_z
Si Si1 0.582320 0.965777 0.584180
Si Si2 0.574171 0.342959 0.583849
Si Si3 0.665248 0.443315 0.958913
Si Si4 0.188966 0.340823 0.070759
Si Si5 0.812365 0.342453 0.133713
Si Si6 0.200223 0.663946 0.169308
Si Si7 0.530292 0.564032 0.821783
Si Si8 0.352395 0.410315 0.113495
O O1 0.382074 0.935813 0.745168
O O2 0.649151 0.894384 0.611898
O O3 0.720494 0.955230 0.339764
O O4 0.576784 0.067419 0.646309
O O5 0.631501 0.449664 0.523252
O O6 0.609364 0.259859 0.633038
O O7 0.702140 0.312466 0.352068
O O8 0.359089 0.347904 0.814351
O O9 0.565585 0.399484 0.165420
O O10 0.546241 0.402152 0.979558
O O11 0.240804 0.341419 0.150082
O O12 0.751086 0.269085 0.103468
O O13 0.723387 0.437351 0.186318
O O14 0.025618 0.347790 0.923892
O O15 0.389222 0.628654 0.028152
O O16 0.419107 0.473098 0.943369
#
# Coordination Sequence:
#
# PCOD9140935 Si02
#       8
#     4   4   4   4   4   4   4   4
#     4  12  26  45  75 107 138 198 244 299 363 457
#     4  12  25  46  67 111 145 191 236 313 366 434
#     4  12  25  46  78 103 146 192 248 297 372 443
#     4  12  26  47  74 106 155 189 256 308 372 440
#     4  12  25  40  75 103 141 181 237 314 367 416
#     4  12  24  42  67 107 139 179 235 298 364 425
#     4  12  23  45  70 101 143 185 242 301 361 436
#     4  12  24  47  72 102 147 199 236 300 367 451
#
# _framework density 24.496255000000001
#
# number of rings (size 3 to 8) (size 9 to 14) (size 15 to 20)
#    0.000    0.000    8.750    1.500    3.500    1.000 
#    2.250    2.500    0.000    0.000    0.000    0.000 
#    0.000    0.000    0.000    0.000    0.000    0.000 
#
# Total GULP energy -89080.626911 kJ/mol
# GULP energy per Si atom -5567.539182 kJ/mol
# Density = 2.444050 g / cm^3
# Si number density = 24.496255 Si / 1000 Ang^3
#
#
#
# Elastic Constant Matrix: (Units=GPa)
#
#
# Indices 1 2 3 4 5 6 
#
# 1 101.8924 10.1718 33.4963 -0.0006 2.2924 0.0005
# 2 10.1718 52.5500 -20.5764 -0.0007 9.0523 0.0006
# 3 33.4963 -20.5764 118.6860 -0.0007 -19.8619 0.0006
# 4 -0.0006 -0.0007 -0.0007 8.5659 0.0005 -7.1705
# 5 2.2924 9.0523 -19.8619 0.0005 46.8150 -0.0004
# 6 0.0005 0.0006 0.0006 -7.1705 -0.0004 37.3542
#
#
#
# Elastic Compliance Matrix: (Units=1/GPa)
#
#
# Indices 1 2 3 4 5 6 
#
# 1 0.011579 -0.003589 -0.004164 0.000000 -0.001640 0.000000
# 2 -0.003589 0.021834 0.004436 0.000002 -0.002164 0.000000
# 3 -0.004164 0.004436 0.011045 0.000001 0.004032 0.000000
# 4 0.000000 0.000002 0.000001 0.139092 -0.000001 0.026700
# 5 -0.001640 -0.002164 0.004032 -0.000001 0.023570 0.000000
# 6 0.000000 0.000000 0.000000 0.026700 0.000000 0.031896
#
#
# Mechanical properties :
#
#
# Convention : Reuss Voigt Hill
#
# Bulk Modulus (GPa) = 26.43951 35.47907 30.95929
# Shear Modulus (GPa) = 19.36049 35.21614 27.28832
#
# Velocity S-wave (km/s) = 2.81436 3.79570 3.34125
# Velocity P-wave (km/s) = 4.62358 5.80730 5.24892
#
# Compressibility (1/GPa) = 0.03782218
#
# Stress axis : x y z
#
# Youngs Moduli (GPa) = 86.36694 45.79994 90.54079
#
# Poissons Ratio (x) = 0.16439 0.37705
# Poissons Ratio (y) = 0.31000 -0.40166
# Poissons Ratio (z) = 0.35967 -0.20318
#
# Static dielectric constant tensor:
#      x y z
#    x 2.066220 0.000000 0.038470 
#    y 0.000000 2.208060 0.000000 
#    z 0.038470 0.000000 1.914290 
# 
# From -- ./inp_files/18539.got.cif
#   From: 2010.05.17/outbox.cif.g08.bks.cpg/sg9_10_cif.got.tgz:18539.got - 2010.06.03 20:04:27.
