data_PCOD9140779
_publ_section_title
;
Structure prediction by ZEFSAII (Michael W. Deem and Ramdas Pophale) SiO2 
 PCOD9140779
Probable space group: C C
;
_chemical_formula_sum "Si O2"
_cell_formula_units_Z 24
_cell_length_a 9.317391
_cell_length_b 13.169956
_cell_length_c 17.904611
_cell_angle_alpha 90.000000
_cell_angle_beta 152.401817
_cell_angle_gamma 90.000000
_cell_volume 1017.831231
_symmetry_space_group_name_H-M "C C"
_symmetry_group_IT_number 9
_symmetry_cell_setting 'monoclinic'
loop_
_space_group_symop_operation_xyz
x,y,z
x,-y,1/2+z
1/2+x,1/2+y,z
1/2+x,1/2-y,1/2+z
loop_
_atom_site_type_symbol
_atom_site_label
_atom_site_fract_x
_atom_site_fract_y
_atom_site_fract_z
Si Si1 0.787450 0.149973 0.647990
Si Si2 0.677609 0.060388 0.759688
Si Si3 0.297816 0.108607 0.136108
Si Si4 0.692224 0.689933 0.629694
Si Si5 0.957817 0.350010 0.404068
Si Si6 0.110487 0.438202 0.924925
O O1 0.711109 0.105994 0.693112
O O2 0.814891 0.271145 0.655313
O O3 0.545591 0.117366 0.472944
O O4 0.125332 0.108810 0.779514
O O5 0.406011 0.120571 0.676461
O O6 0.574746 0.942871 0.716051
O O7 0.986911 0.079124 0.949771
O O8 0.343843 0.064138 0.240195
O O9 0.877324 0.713008 0.791697
O O10 0.596569 0.785114 0.535217
O O11 0.389047 0.626200 0.515659
O O12 0.159254 0.445115 0.469834
#
# Coordination Sequence:
#
# PCOD9140779 Si02
#       6
#     4   4   4   4   4   4
#     4  11  28  48  80 117 155 203 260 328 380 463
#     4  12  29  46  80 116 151 206 259 321 388 463
#     4  12  26  52  77 112 159 201 255 319 393 453
#     4  11  26  50  77 115 155 208 254 325 386 463
#     4  11  26  49  80 112 157 208 255 324 389 455
#     4  11  25  51  78 110 157 208 255 315 394 459
#
# _framework density 23.579549
#
# number of rings (size 3 to 8) (size 9 to 14) (size 15 to 20)
#    0.000    0.667    3.333    2.000    9.333    0.000 
#    6.000    0.000    0.000    0.000    0.000    0.000 
#    0.000    0.000    0.000    0.000    0.000    0.000 
#
# Total GULP energy -67187.334172 kJ/mol
# GULP energy per Si atom -5598.944514 kJ/mol
# Density = 2.352588 g / cm^3
# Si number density = 23.579549 Si / 1000 Ang^3
#
#
#
# Elastic Constant Matrix: (Units=GPa)
#
#
# Indices 1 2 3 4 5 6 
#
# 1 175.0448 69.5954 68.5906 0.0049 -40.5645 -0.0022
# 2 69.5954 157.2458 62.9421 0.0041 -30.0847 -0.0021
# 3 68.5906 62.9421 92.6586 0.0213 -21.0407 -0.0026
# 4 0.0049 0.0041 0.0213 108.7961 0.0237 -41.1749
# 5 -40.5645 -30.0847 -21.0407 0.0237 38.3844 -0.0086
# 6 -0.0022 -0.0021 -0.0026 -41.1749 -0.0086 59.6225
#
#
#
# Elastic Compliance Matrix: (Units=1/GPa)
#
#
# Indices 1 2 3 4 5 6 
#
# 1 0.009569 -0.001006 -0.004891 -0.000001 0.006642 0.000001
# 2 -0.001006 0.009446 -0.004833 0.000000 0.003690 0.000001
# 3 -0.004891 -0.004833 0.017889 -0.000004 0.000848 -0.000002
# 4 -0.000001 0.000000 -0.000004 0.012444 -0.000009 0.008594
# 5 0.006642 0.003690 0.000848 -0.000009 0.036429 0.000000
# 6 0.000001 0.000001 -0.000002 0.008594 0.000000 0.022707
#
#
# Mechanical properties :
#
#
# Convention : Reuss Voigt Hill
#
# Bulk Modulus (GPa) = 64.76133 91.91169 78.33651
# Shear Modulus (GPa) = 37.01146 56.28202 46.64674
#
# Velocity S-wave (km/s) = 3.96617 4.89089 4.45260
# Velocity P-wave (km/s) = 6.96410 8.42368 7.72843
#
# Compressibility (1/GPa) = 0.01544131
#
# Stress axis : x y z
#
# Youngs Moduli (GPa) = 104.50500 105.86946 55.89966
#
# Poissons Ratio (x) = 0.10654 0.27343
# Poissons Ratio (y) = 0.10516 0.27019
# Poissons Ratio (z) = 0.51118 0.51171
#
# Static dielectric constant tensor:
#      x y z
#    x 1.870960 0.000010 0.006650 
#    y 0.000010 0.781360 0.000010 
#    z 0.006650 0.000010 1.904640 
# 
# From -- ./inp_files/29455.got.cif
#   From: 2010.05.17/outbox.cif.g08.bks.cpg/sg9_15_cif.got.tgz:29455.got - 2010.06.03 20:04:27.
