data_PCOD9140456
_publ_section_title
;
Structure prediction by ZEFSAII (Michael W. Deem and Ramdas Pophale) SiO2 
 PCOD9140456
Probable space group: C C
;
_chemical_formula_sum "Si O2"
_cell_formula_units_Z 28
_cell_length_a 20.151122
_cell_length_b 5.478299
_cell_length_c 11.055031
_cell_angle_alpha 90.000000
_cell_angle_beta 121.395343
_cell_angle_gamma 90.000000
_cell_volume 1041.731619
_symmetry_space_group_name_H-M "C C"
_symmetry_group_IT_number 9
_symmetry_cell_setting 'monoclinic'
loop_
_space_group_symop_operation_xyz
x,y,z
x,-y,1/2+z
1/2+x,1/2+y,z
1/2+x,1/2-y,1/2+z
loop_
_atom_site_type_symbol
_atom_site_label
_atom_site_fract_x
_atom_site_fract_y
_atom_site_fract_z
Si Si1 0.669660 0.104354 0.191960
Si Si2 0.030362 0.863803 0.368288
Si Si3 0.466294 0.588619 0.554380
Si Si4 0.417710 0.949150 0.329494
Si Si5 0.828401 0.129331 0.063878
Si Si6 0.659401 0.930162 0.945385
Si Si7 0.265344 0.103687 0.302229
O O1 0.626365 0.059179 0.277500
O O2 0.717377 0.354352 0.247591
O O3 0.720887 0.856770 0.236359
O O4 0.629605 0.110579 0.022757
O O5 0.122554 0.820282 0.456493
O O6 0.013385 0.974274 0.220358
O O7 0.977877 0.614125 0.313572
O O8 0.004786 0.964480 0.473888
O O9 0.455112 0.861540 0.491554
O O10 0.380156 0.503541 0.511922
O O11 0.383884 0.713826 0.225339
O O12 0.339849 0.094203 0.287065
O O13 0.795372 0.372005 0.968591
O O14 0.751274 0.976997 0.022015
#
# Coordination Sequence:
#
# PCOD9140456 Si02
#       7
#     4   4   4   4   4   4   4
#     4  11  27  48  78 114 163 210 277 344 424 498
#     4  12  30  51  81 118 172 221 283 356 439 522
#     4  12  27  52  81 120 164 226 291 345 434 523
#     4  12  24  45  82 114 161 218 281 350 427 514
#     4  11  24  48  83 119 162 216 287 353 421 519
#     4  11  28  49  76 119 163 214 276 352 428 499
#     4  11  24  45  77 118 155 211 275 350 403 495
#
# _framework density 26.878323000000002
#
# number of rings (size 3 to 8) (size 9 to 14) (size 15 to 20)
#    0.000    0.571    4.286    2.571    6.000    1.143 
#    5.143    0.000    0.000    0.000    0.000    0.000 
#    0.000    0.000    0.000    0.000    0.000    0.000 
#
# Total GULP energy -78259.365606 kJ/mol
# GULP energy per Si atom -5589.954686 kJ/mol
# Density = 2.681715 g / cm^3
# Si number density = 26.878323 Si / 1000 Ang^3
#
#
#
# Elastic Constant Matrix: (Units=GPa)
#
#
# Indices 1 2 3 4 5 6 
#
# 1 147.8155 39.9586 75.1595 0.0000 -34.8264 0.0000
# 2 39.9586 98.1839 33.1599 0.0000 -4.5963 0.0000
# 3 75.1595 33.1599 143.1009 0.0000 -34.1656 0.0000
# 4 0.0000 0.0000 0.0000 38.5521 0.0000 -1.9880
# 5 -34.8264 -4.5963 -34.1656 0.0000 41.6469 0.0000
# 6 0.0000 0.0000 0.0000 -1.9880 0.0000 53.1293
#
#
#
# Elastic Compliance Matrix: (Units=1/GPa)
#
#
# Indices 1 2 3 4 5 6 
#
# 1 0.010715 -0.002878 -0.003603 0.000000 0.005687 0.000000
# 2 -0.002878 0.011863 -0.001865 0.000000 -0.002627 0.000000
# 3 -0.003603 -0.001865 0.010625 0.000000 0.005498 0.000000
# 4 0.000000 0.000000 0.000000 0.025989 0.000000 0.000972
# 5 0.005687 -0.002627 0.005498 0.000000 0.032987 0.000000
# 6 0.000000 0.000000 0.000000 0.000972 0.000000 0.018858
#
#
# Mechanical properties :
#
#
# Convention : Reuss Voigt Hill
#
# Bulk Modulus (GPa) = 60.56181 76.18403 68.37292
# Shear Modulus (GPa) = 37.52833 42.72048 40.12441
#
# Velocity S-wave (km/s) = 3.74067 3.99106 3.86789
# Velocity P-wave (km/s) = 6.42165 7.04582 6.74096
#
# Compressibility (1/GPa) = 0.01651206
#
# Stress axis : x y z
#
# Youngs Moduli (GPa) = 93.32659 84.29649 94.11568
#
# Poissons Ratio (x) = 0.24257 0.33912
# Poissons Ratio (y) = 0.26856 0.17550
# Poissons Ratio (z) = 0.33628 0.15719
#
# Static dielectric constant tensor:
#      x y z
#    x 2.053250 0.000000 -0.004630 
#    y 0.000000 2.166930 0.000000 
#    z -0.004630 0.000000 2.228220 
# 
# From -- ./inp_files/19866.got.cif
#   From: 2010.05.17/outbox.cif.g08.bks.cpg/sg9_10_cif.got.tgz:19866.got - 2010.06.03 20:04:27.
