data_PCOD9140904
_publ_section_title
;
Structure prediction by ZEFSAII (Michael W. Deem and Ramdas Pophale) SiO2 
 PCOD9140904
Probable space group: C C
;
_chemical_formula_sum "Si O2"
_cell_formula_units_Z 28
_cell_length_a 11.949849
_cell_length_b 13.970087
_cell_length_c 8.099658
_cell_angle_alpha 90.000000
_cell_angle_beta 54.742191
_cell_angle_gamma 90.000000
_cell_volume 1104.123992
_symmetry_space_group_name_H-M "C C"
_symmetry_group_IT_number 9
_symmetry_cell_setting 'monoclinic'
loop_
_space_group_symop_operation_xyz
x,y,z
x,-y,1/2+z
1/2+x,1/2+y,z
1/2+x,1/2-y,1/2+z
loop_
_atom_site_type_symbol
_atom_site_label
_atom_site_fract_x
_atom_site_fract_y
_atom_site_fract_z
Si Si1 0.370610 0.402493 0.995290
Si Si2 0.434957 0.902351 0.697509
Si Si3 0.919681 0.268166 0.193397
Si Si4 0.574874 0.062334 0.745921
Si Si5 0.140304 0.802870 0.253779
Si Si6 0.758096 0.221907 0.865982
Si Si7 0.140946 0.096740 0.410287
O O1 0.388510 0.312592 0.858001
O O2 0.516817 0.447847 0.915359
O O3 0.232644 0.456610 0.063039
O O4 0.325339 0.362149 0.211926
O O5 0.544169 0.903550 0.457983
O O6 0.383100 0.797393 0.789269
O O7 0.289942 0.948202 0.758547
O O8 0.490490 0.965992 0.795476
O O9 0.775790 0.311160 0.251149
O O10 0.011287 0.354761 0.185984
O O11 0.009848 0.214411 0.977745
O O12 0.181296 0.710908 0.103500
O O13 0.123856 0.882689 0.122108
O O14 0.662659 0.291752 0.832966
#
# Coordination Sequence:
#
# PCOD9140904 Si02
#       7
#     4   4   4   4   4   4   4
#     4  12  21  40  71 101 129 174 236 287 330 389
#     4   9  24  43  62  93 132 185 218 262 349 421
#     4  12  21  38  63 110 126 167 227 301 319 387
#     4  12  25  41  67  97 138 178 224 282 344 408
#     4   9  22  34  62  99 137 160 219 285 338 382
#     4   8  20  39  66  96 133 174 221 268 344 402
#     4   8  21  41  63  90 133 182 213 269 342 411
#
# _framework density 25.359470000000002
#
# number of rings (size 3 to 8) (size 9 to 14) (size 15 to 20)
#    1.714    0.000    2.857    1.714    6.000    1.143 
#    0.000    1.429    0.000    0.000    0.000    0.000 
#    0.000    0.000    0.000    0.000    0.000    0.000 
#
# Total GULP energy -78132.260729 kJ/mol
# GULP energy per Si atom -5580.875766 kJ/mol
# Density = 2.530175 g / cm^3
# Si number density = 25.359470 Si / 1000 Ang^3
#
#
#
# Elastic Constant Matrix: (Units=GPa)
#
#
# Indices 1 2 3 4 5 6 
#
# 1 159.2554 15.0174 33.3681 0.0000 -27.5321 0.0000
# 2 15.0174 44.7736 17.0352 0.0000 -3.7371 0.0000
# 3 33.3681 17.0352 93.9577 0.0000 -20.0379 0.0000
# 4 0.0000 0.0000 0.0000 18.6916 0.0000 -2.3335
# 5 -27.5321 -3.7371 -20.0379 0.0000 42.1422 0.0000
# 6 0.0000 0.0000 0.0000 -2.3335 0.0000 20.4801
#
#
#
# Elastic Compliance Matrix: (Units=1/GPa)
#
#
# Indices 1 2 3 4 5 6 
#
# 1 0.007435 -0.001590 -0.001498 0.000000 0.004004 0.000000
# 2 -0.001590 0.024329 -0.004015 0.000000 -0.000790 0.000000
# 3 -0.001498 -0.004015 0.012930 0.000000 0.004813 0.000000
# 4 0.000000 0.000000 0.000000 0.054272 0.000000 0.006184
# 5 0.004004 -0.000790 0.004813 0.000000 0.028564 0.000000
# 6 0.000000 0.000000 0.000000 0.006184 0.000000 0.049533
#
#
# Mechanical properties :
#
#
# Convention : Reuss Voigt Hill
#
# Bulk Modulus (GPa) = 32.79951 47.64753 40.22352
# Shear Modulus (GPa) = 24.82237 31.76717 28.29477
#
# Velocity S-wave (km/s) = 3.13201 3.54315 3.34391
# Velocity P-wave (km/s) = 5.10306 5.96391 5.55020
#
# Compressibility (1/GPa) = 0.03048826
#
# Stress axis : x y z
#
# Youngs Moduli (GPa) = 134.49338 41.10249 77.34182
#
# Poissons Ratio (x) = 0.06533 0.11589
# Poissons Ratio (y) = 0.21378 0.31053
# Poissons Ratio (z) = 0.20153 0.16503
#
# Static dielectric constant tensor:
#      x y z
#    x 2.177020 0.000000 -0.052910 
#    y 0.000000 2.068220 0.000000 
#    z -0.052910 0.000000 1.963380 
# 
# From -- ./inp_files/7538.got.cif
#   From: 2010.05.17/outbox.cif.g08.bks.cpg/sg9_4_cif.got.tgz:7538.got - 2010.06.03 20:04:27.
