data_PCOD9140760
_publ_section_title
;
Structure prediction by ZEFSAII (Michael W. Deem and Ramdas Pophale) SiO2 
 PCOD9140760
Probable space group: C C
;
_chemical_formula_sum "Si O2"
_cell_formula_units_Z 28
_cell_length_a 13.617108
_cell_length_b 9.932964
_cell_length_c 13.055958
_cell_angle_alpha 90.000000
_cell_angle_beta 141.328125
_cell_angle_gamma 90.000000
_cell_volume 1103.455583
_symmetry_space_group_name_H-M "C C"
_symmetry_group_IT_number 9
_symmetry_cell_setting 'monoclinic'
loop_
_space_group_symop_operation_xyz
x,y,z
x,-y,1/2+z
1/2+x,1/2+y,z
1/2+x,1/2-y,1/2+z
loop_
_atom_site_type_symbol
_atom_site_label
_atom_site_fract_x
_atom_site_fract_y
_atom_site_fract_z
Si Si1 0.826130 0.204668 0.022410
Si Si2 0.922166 0.361226 0.740813
Si Si3 0.777870 0.992184 0.826908
Si Si4 0.651536 0.555762 0.322571
Si Si5 0.332457 0.194263 0.930366
Si Si6 0.579163 0.599807 0.968015
Si Si7 0.591548 0.098427 0.988118
O O1 0.727025 0.189011 0.046535
O O2 0.001922 0.147629 0.173015
O O3 0.805750 0.352232 0.960133
O O4 0.734233 0.105533 0.871177
O O5 0.895792 0.335163 0.597469
O O6 0.749358 0.367598 0.651389
O O7 0.012014 0.236231 0.863766
O O8 0.007187 0.500019 0.838899
O O9 0.769728 0.845723 0.871956
O O10 0.677498 0.993234 0.642540
O O11 0.954292 0.030734 0.938818
O O12 0.699297 0.419414 0.302582
O O13 0.607448 0.502144 0.398627
O O14 0.463490 0.179461 0.949386
#
# Coordination Sequence:
#
# PCOD9140760 Si02
#       7
#     4   4   4   4   4   4   4
#     4  12  29  50  78 115 164 207 272 332 406 481
#     4  11  27  49  82 119 166 208 271 338 409 483
#     4  12  28  48  83 116 157 211 276 332 407 488
#     4  11  28  50  78 112 162 208 267 334 401 475
#     4  11  29  50  85 117 161 215 275 336 408 484
#     4  11  25  49  80 115 162 210 267 333 409 478
#     4  12  28  48  80 116 160 209 266 335 404 481
#
# _framework density 25.374834
#
# number of rings (size 3 to 8) (size 9 to 14) (size 15 to 20)
#    0.000    0.571    1.429    3.429   20.000    0.000 
#    0.000    0.000    0.000    0.000    0.000    0.000 
#    0.000    0.000    0.000    0.000    0.000    0.000 
#
# Total GULP energy -78496.388382 kJ/mol
# GULP energy per Si atom -5606.884884 kJ/mol
# Density = 2.531708 g / cm^3
# Si number density = 25.374834 Si / 1000 Ang^3
#
#
#
# Elastic Constant Matrix: (Units=GPa)
#
#
# Indices 1 2 3 4 5 6 
#
# 1 88.2856 11.5232 7.5358 0.0000 8.0730 0.0000
# 2 11.5232 116.5138 12.1179 0.0000 4.7405 0.0000
# 3 7.5358 12.1179 91.2189 0.0000 5.4544 0.0000
# 4 0.0000 0.0000 0.0000 40.6306 0.0000 8.2222
# 5 8.0730 4.7405 5.4544 0.0000 37.6917 0.0000
# 6 0.0000 0.0000 0.0000 8.2222 0.0000 39.2864
#
#
#
# Elastic Compliance Matrix: (Units=1/GPa)
#
#
# Indices 1 2 3 4 5 6 
#
# 1 0.011725 -0.000994 -0.000700 0.000000 -0.002285 0.000000
# 2 -0.000994 0.008820 -0.001045 0.000000 -0.000745 0.000000
# 3 -0.000700 -0.001045 0.011240 0.000000 -0.001345 0.000000
# 4 0.000000 0.000000 0.000000 0.025701 0.000000 -0.005379
# 5 -0.002285 -0.000745 -0.001345 0.000000 0.027309 0.000000
# 6 0.000000 0.000000 0.000000 -0.005379 0.000000 0.026580
#
#
# Mechanical properties :
#
#
# Convention : Reuss Voigt Hill
#
# Bulk Modulus (GPa) = 38.01230 39.81911 38.91570
# Shear Modulus (GPa) = 39.80224 41.17782 40.49003
#
# Velocity S-wave (km/s) = 3.96482 4.03275 3.99893
# Velocity P-wave (km/s) = 5.99771 6.11641 6.05735
#
# Compressibility (1/GPa) = 0.02630728
#
# Stress axis : x y z
#
# Youngs Moduli (GPa) = 85.28567 113.37907 88.97010
#
# Poissons Ratio (x) = 0.11268 0.06228
# Poissons Ratio (y) = 0.08476 0.09298
# Poissons Ratio (z) = 0.05970 0.11848
#
# Static dielectric constant tensor:
#      x y z
#    x 1.995130 0.000000 0.007470 
#    y 0.000000 1.933060 0.000000 
#    z 0.007470 0.000000 2.042570 
# 
# From -- ./inp_files/25761.got.cif
#   From: 2010.05.17/outbox.cif.g08.bks.cpg/sg9_13_cif.got.tgz:25761.got - 2010.06.03 20:04:27.
