data_PCOD9140239
_publ_section_title
;
Structure prediction by ZEFSAII (Michael W. Deem and Ramdas Pophale) SiO2 
 PCOD9140239
Probable space group: C C
;
_chemical_formula_sum "Si O2"
_cell_formula_units_Z 32
_cell_length_a 9.275616
_cell_length_b 10.560467
_cell_length_c 13.658583
_cell_angle_alpha 90.000000
_cell_angle_beta 107.663469
_cell_angle_gamma 90.000000
_cell_volume 1274.848008
_symmetry_space_group_name_H-M "C C"
_symmetry_group_IT_number 9
_symmetry_cell_setting 'monoclinic'
loop_
_space_group_symop_operation_xyz
x,y,z
x,-y,1/2+z
1/2+x,1/2+y,z
1/2+x,1/2-y,1/2+z
loop_
_atom_site_type_symbol
_atom_site_label
_atom_site_fract_x
_atom_site_fract_y
_atom_site_fract_z
Si Si1 0.356640 0.124031 0.272360
Si Si2 0.556074 0.309256 0.406209
Si Si3 0.349814 0.753569 0.051865
Si Si4 0.527151 0.049946 0.934829
Si Si5 0.543922 0.406670 0.922431
Si Si6 0.374099 0.192660 0.074914
Si Si7 0.824804 0.041317 0.559989
Si Si8 0.560487 0.218764 0.768864
O O1 0.507918 0.208044 0.316192
O O2 0.353798 0.092120 0.157564
O O3 0.205938 0.203243 0.263413
O O4 0.379395 0.012789 0.355924
O O5 0.438099 0.275097 0.469313
O O6 0.550836 0.455781 0.373953
O O7 0.721830 0.299352 0.482568
O O8 0.334045 0.607597 0.089914
O O9 0.457208 0.815895 0.155951
O O10 0.201919 0.840592 0.994901
O O11 0.606159 0.107793 0.853530
O O12 0.491244 0.144742 0.016981
O O13 0.646033 0.951268 0.002396
O O14 0.476563 0.310218 0.829224
O O15 0.431133 0.435136 0.987922
O O16 0.379006 0.332380 0.127446
#
# Coordination Sequence:
#
# PCOD9140239 Si02
#       8
#     4   4   4   4   4   4   4   4
#     4  12  27  47  79 112 148 211 256 314 399 458
#     4  11  24  45  72 103 153 193 255 320 372 467
#     4  11  24  43  75 107 149 201 251 314 387 461
#     4  12  27  51  75 110 161 201 259 327 381 467
#     4  11  23  46  71 103 150 198 248 317 387 453
#     4  12  26  47  72 113 150 203 257 320 391 460
#     4  11  23  49  69 101 153 196 251 326 378 447
#     4  12  24  46  73 111 146 203 253 306 391 461
#
# _framework density 25.101030999999999
#
# number of rings (size 3 to 8) (size 9 to 14) (size 15 to 20)
#    0.000    0.500    6.250    1.500    3.500    1.000 
#    9.000    0.000    0.000    0.000    0.000    0.000 
#    0.000    0.000    0.000    0.000    0.000    0.000 
#
# Total GULP energy -89238.836462 kJ/mol
# GULP energy per Si atom -5577.427279 kJ/mol
# Density = 2.504390 g / cm^3
# Si number density = 25.101031 Si / 1000 Ang^3
#
#
#
# Elastic Constant Matrix: (Units=GPa)
#
#
# Indices 1 2 3 4 5 6 
#
# 1 108.7242 18.3877 29.7091 0.0000 2.9131 0.0000
# 2 18.3877 117.3376 12.4670 0.0000 -1.8722 0.0000
# 3 29.7091 12.4670 78.9547 0.0000 -2.8356 0.0000
# 4 0.0000 0.0000 0.0000 23.8870 0.0000 -0.2280
# 5 2.9131 -1.8722 -2.8356 0.0000 25.1025 0.0000
# 6 0.0000 0.0000 0.0000 -0.2280 0.0000 37.3796
#
#
#
# Elastic Compliance Matrix: (Units=1/GPa)
#
#
# Indices 1 2 3 4 5 6 
#
# 1 0.010501 -0.001268 -0.003814 0.000000 -0.001744 0.000000
# 2 -0.001268 0.008827 -0.000891 0.000000 0.000705 0.000000
# 3 -0.003814 -0.000891 0.014313 0.000000 0.001993 0.000000
# 4 0.000000 0.000000 0.000000 0.041866 0.000000 0.000255
# 5 -0.001744 0.000705 0.001993 0.000000 0.040317 0.000000
# 6 0.000000 0.000000 0.000000 0.000255 0.000000 0.026754
#
#
# Mechanical properties :
#
#
# Convention : Reuss Voigt Hill
#
# Bulk Modulus (GPa) = 46.09465 47.34932 46.72199
# Shear Modulus (GPa) = 30.91081 33.57066 32.24074
#
# Velocity S-wave (km/s) = 3.51302 3.66105 3.58779
# Velocity P-wave (km/s) = 5.90411 6.06428 5.98473
#
# Compressibility (1/GPa) = 0.02169449
#
# Stress axis : x y z
#
# Youngs Moduli (GPa) = 95.23012 113.28749 69.86756
#
# Poissons Ratio (x) = 0.14367 0.26645
# Poissons Ratio (y) = 0.12077 0.06227
# Poissons Ratio (z) = 0.36317 0.10097
#
# Static dielectric constant tensor:
#      x y z
#    x 2.013390 0.000000 0.016580 
#    y 0.000000 2.232610 0.000000 
#    z 0.016580 0.000000 2.007850 
# 
# From -- ./inp_files/22915.got.cif
#   From: 2010.05.17/outbox.cif.g08.bks.cpg/sg9_12_cif.got.tgz:22915.got - 2010.06.03 20:04:27.
