data_PCOD9140793
_publ_section_title
;
Structure prediction by ZEFSAII (Michael W. Deem and Ramdas Pophale) SiO2 
 PCOD9140793
Probable space group: C C
;
_chemical_formula_sum "Si O2"
_cell_formula_units_Z 32
_cell_length_a 9.531671
_cell_length_b 27.620711
_cell_length_c 9.545360
_cell_angle_alpha 90.000000
_cell_angle_beta 30.549177
_cell_angle_gamma 90.000000
_cell_volume 1277.312836
_symmetry_space_group_name_H-M "C C"
_symmetry_group_IT_number 9
_symmetry_cell_setting 'monoclinic'
loop_
_space_group_symop_operation_xyz
x,y,z
x,-y,1/2+z
1/2+x,1/2+y,z
1/2+x,1/2-y,1/2+z
loop_
_atom_site_type_symbol
_atom_site_label
_atom_site_fract_x
_atom_site_fract_y
_atom_site_fract_z
Si Si1 0.547070 0.851364 0.425970
Si Si2 0.328879 0.922690 0.811724
Si Si3 0.631639 0.987452 0.962640
Si Si4 0.292430 0.897058 0.147248
Si Si5 0.838086 0.163241 0.143676
Si Si6 0.830685 0.060542 0.550129
Si Si7 0.403211 0.718605 0.792278
Si Si8 0.585592 0.716258 0.199129
O O1 0.531737 0.881582 0.583895
O O2 0.644853 0.890865 0.226313
O O3 0.771214 0.811837 0.279820
O O4 0.264090 0.824958 0.624895
O O5 0.199797 0.906790 0.067620
O O6 0.472963 0.974200 0.697544
O O7 0.123709 0.925300 0.858517
O O8 0.843695 0.961349 0.884704
O O9 0.432352 0.945713 0.080607
O O10 0.735527 0.019624 0.743997
O O11 0.526487 0.854621 0.943233
O O12 0.028117 0.884058 0.464684
O O13 0.979029 0.194586 0.143713
O O14 0.880609 0.191074 0.960005
O O15 0.709449 0.734414 0.484992
O O16 0.807396 0.759389 0.994724
#
# Coordination Sequence:
#
# PCOD9140793 Si02
#       8
#     4   4   4   4   4   4   4   4
#     4  11  26  45  67 107 138 194 241 300 370 430
#     4  11  26  44  71 103 150 190 249 302 357 444
#     4  11  26  45  68 112 142 205 238 304 364 432
#     4  12  26  47  76 106 152 190 242 301 362 441
#     4  12  26  47  74 108 143 189 242 299 372 432
#     4  11  26  44  74  99 156 189 254 299 365 440
#     4  12  25  44  73 103 140 184 242 302 366 436
#     4  12  27  48  75 104 147 187 242 303 368 445
#
# _framework density 25.052593000000002
#
# number of rings (size 3 to 8) (size 9 to 14) (size 15 to 20)
#    0.000    0.500    2.500    4.500   10.500    0.000 
#    0.000    0.000    0.000    0.000    0.000    0.000 
#    0.000    0.000    0.000    0.000    0.000    0.000 
#
# Total GULP energy -89655.804742 kJ/mol
# GULP energy per Si atom -5603.487796 kJ/mol
# Density = 2.499557 g / cm^3
# Si number density = 25.052593 Si / 1000 Ang^3
#
#
#
# Elastic Constant Matrix: (Units=GPa)
#
#
# Indices 1 2 3 4 5 6 
#
# 1 126.5585 47.6151 13.8419 0.0000 6.1204 0.0000
# 2 47.6151 91.5868 3.7562 0.0000 19.3983 0.0000
# 3 13.8419 3.7562 55.3691 0.0000 0.5917 0.0000
# 4 0.0000 0.0000 0.0000 7.0061 0.0000 -3.3094
# 5 6.1204 19.3983 0.5917 0.0000 30.2325 0.0000
# 6 0.0000 0.0000 0.0000 -3.3094 0.0000 9.8182
#
#
#
# Elastic Compliance Matrix: (Units=1/GPa)
#
#
# Indices 1 2 3 4 5 6 
#
# 1 0.010136 -0.005503 -0.002177 0.000000 0.001521 0.000000
# 2 -0.005503 0.015656 0.000409 0.000000 -0.008939 0.000000
# 3 -0.002177 0.000409 0.018579 0.000000 -0.000185 0.000000
# 4 0.000000 0.000000 0.000000 0.169763 0.000000 0.057222
# 5 0.001521 -0.008939 -0.000185 0.000000 0.038509 0.000000
# 6 0.000000 0.000000 0.000000 0.057222 0.000000 0.121139
#
#
# Mechanical properties :
#
#
# Convention : Reuss Voigt Hill
#
# Bulk Modulus (GPa) = 33.52301 44.88229 39.20265
# Shear Modulus (GPa) = 12.55440 23.29811 17.92625
#
# Velocity S-wave (km/s) = 2.24100 3.05285 2.67787
# Velocity P-wave (km/s) = 4.48400 5.51186 5.02428
#
# Compressibility (1/GPa) = 0.02983026
#
# Stress axis : x y z
#
# Youngs Moduli (GPa) = 98.65548 63.87318 53.82398
#
# Poissons Ratio (x) = 0.35147 0.11717
# Poissons Ratio (y) = 0.54287 -0.02202
# Poissons Ratio (z) = 0.21477 -0.02613
#
# Static dielectric constant tensor:
#      x y z
#    x 1.947200 0.000000 -0.009740 
#    y 0.000000 2.031280 0.000000 
#    z -0.009740 0.000000 1.973850 
# 
# From -- ./inp_files/6439.got.cif
#   From: 2010.05.17/outbox.cif.g08.bks.cpg/sg9_4_cif.got.tgz:6439.got - 2010.06.03 20:04:27.
