data_PCOD9140205
_publ_section_title
;
Structure prediction by ZEFSAII (Michael W. Deem and Ramdas Pophale) SiO2 
 PCOD9140205
Probable space group: C C
;
_chemical_formula_sum "Si O2"
_cell_formula_units_Z 32
_cell_length_a 14.065906
_cell_length_b 13.661715
_cell_length_c 7.848641
_cell_angle_alpha 90.000000
_cell_angle_beta 112.465762
_cell_angle_gamma 90.000000
_cell_volume 1393.766906
_symmetry_space_group_name_H-M "C C"
_symmetry_group_IT_number 9
_symmetry_cell_setting 'monoclinic'
loop_
_space_group_symop_operation_xyz
x,y,z
x,-y,1/2+z
1/2+x,1/2+y,z
1/2+x,1/2-y,1/2+z
loop_
_atom_site_type_symbol
_atom_site_label
_atom_site_fract_x
_atom_site_fract_y
_atom_site_fract_z
Si Si1 0.605600 0.556310 0.794070
Si Si2 0.946331 0.534042 0.852495
Si Si3 0.475799 0.389754 0.521625
Si Si4 0.814984 0.398558 0.565860
Si Si5 0.336933 0.674457 0.627673
Si Si6 0.125106 0.385883 0.961188
Si Si7 0.549059 0.259560 0.113442
Si Si8 0.532120 0.807011 0.228226
O O1 0.520590 0.478234 0.670822
O O2 0.619129 0.642970 0.666918
O O3 0.560313 0.607294 0.930952
O O4 0.720488 0.534979 0.935377
O O5 0.059007 0.484708 0.933007
O O6 0.950858 0.605217 0.692206
O O7 0.867815 0.447374 0.762993
O O8 0.902578 0.595437 0.979494
O O9 0.375005 0.373649 0.332597
O O10 0.481120 0.293388 0.637214
O O11 0.791599 0.285806 0.596731
O O12 0.245010 0.606232 0.498518
O O13 0.436421 0.692270 0.574638
O O14 0.075211 0.314619 0.785097
O O15 0.112812 0.336326 0.138897
O O16 0.567839 0.208890 0.946024
#
# Coordination Sequence:
#
# PCOD9140205 Si02
#       8
#     4   4   4   4   4   4   4   4
#     4  11  23  45  72 106 143 189 250 317 374 456
#     4  12  24  40  71 109 146 187 256 309 374 462
#     4  11  24  47  71 104 152 193 251 319 383 460
#     4  12  22  41  74 107 142 194 247 320 383 440
#     4  11  23  47  73  99 155 205 243 316 397 451
#     4  12  24  49  69 106 154 197 246 320 386 464
#     4  11  23  46  74 103 146 192 253 318 377 459
#     4  12  23  45  72 102 146 193 240 315 384 438
#
# _framework density 22.959361999999999
#
# number of rings (size 3 to 8) (size 9 to 14) (size 15 to 20)
#    0.000    0.500    7.500    1.500    0.000    0.000 
#    9.000    0.000    0.000    0.000    0.000    0.000 
#    0.000    0.000    0.000    0.000    0.000    0.000 
#
# Total GULP energy -89171.662591 kJ/mol
# GULP energy per Si atom -5573.228912 kJ/mol
# Density = 2.290711 g / cm^3
# Si number density = 22.959362 Si / 1000 Ang^3
#
#
#
# Elastic Constant Matrix: (Units=GPa)
#
#
# Indices 1 2 3 4 5 6 
#
# 1 73.0619 19.3887 54.9145 0.0000 11.1142 0.0000
# 2 19.3887 99.9187 37.4222 0.0000 10.8679 0.0000
# 3 54.9145 37.4222 110.3433 0.0000 -1.3010 0.0000
# 4 0.0000 0.0000 0.0000 35.3718 0.0000 -10.3483
# 5 11.1142 10.8679 -1.3010 0.0000 38.3628 0.0000
# 6 0.0000 0.0000 0.0000 -10.3483 0.0000 19.5152
#
#
#
# Elastic Compliance Matrix: (Units=1/GPa)
#
#
# Indices 1 2 3 4 5 6 
#
# 1 0.023788 0.000767 -0.012187 0.000000 -0.007522 0.000000
# 2 0.000767 0.011945 -0.004477 0.000000 -0.003758 0.000000
# 3 -0.012187 -0.004477 0.016709 0.000000 0.005366 0.000000
# 4 0.000000 0.000000 0.000000 0.033462 0.000000 0.017744
# 5 -0.007522 -0.003758 0.005366 0.000000 0.029493 0.000000
# 6 0.000000 0.000000 0.000000 0.017744 0.000000 0.060651
#
#
# Mechanical properties :
#
#
# Convention : Reuss Voigt Hill
#
# Bulk Modulus (GPa) = 48.43240 56.30828 52.37034
# Shear Modulus (GPa) = 23.28553 30.08986 26.68770
#
# Velocity S-wave (km/s) = 3.18812 3.62411 3.41308
# Velocity P-wave (km/s) = 5.89005 6.48773 6.19610
#
# Compressibility (1/GPa) = 0.02064733
#
# Stress axis : x y z
#
# Youngs Moduli (GPa) = 42.03807 83.71845 59.84657
#
# Poissons Ratio (x) = -0.06419 0.72936
# Poissons Ratio (y) = -0.03223 0.26792
# Poissons Ratio (z) = 0.51233 0.37480
#
# Static dielectric constant tensor:
#      x y z
#    x 1.867620 0.000000 0.042740 
#    y 0.000000 1.930050 0.000000 
#    z 0.042740 0.000000 1.943370 
# 
# From -- ./inp_files/9617.got.cif
#   From: 2010.05.17/outbox.cif.g08.bks.cpg/sg9_5_cif.got.tgz:9617.got - 2010.06.03 20:04:27.
