data_PCOD9140707
_publ_section_title
;
Structure prediction by ZEFSAII (Michael W. Deem and Ramdas Pophale) SiO2 
 PCOD9140707
Probable space group: C C
;
_chemical_formula_sum "Si O2"
_cell_formula_units_Z 24
_cell_length_a 19.236185
_cell_length_b 5.242897
_cell_length_c 9.752531
_cell_angle_alpha 90.000000
_cell_angle_beta 117.880392
_cell_angle_gamma 90.000000
_cell_volume 869.407493
_symmetry_space_group_name_H-M "C C"
_symmetry_group_IT_number 9
_symmetry_cell_setting 'monoclinic'
loop_
_space_group_symop_operation_xyz
x,y,z
x,-y,1/2+z
1/2+x,1/2+y,z
1/2+x,1/2-y,1/2+z
loop_
_atom_site_type_symbol
_atom_site_label
_atom_site_fract_x
_atom_site_fract_y
_atom_site_fract_z
Si Si1 0.626080 0.172685 0.772170
Si Si2 0.362574 0.471297 0.659387
Si Si3 0.453251 0.134823 0.588026
Si Si4 0.268991 0.332615 0.835506
Si Si5 0.988196 0.848496 0.966906
Si Si6 0.653568 0.475811 0.062982
O O1 0.539141 0.070266 0.733404
O O2 0.628533 0.262340 0.614017
O O3 0.695808 0.971003 0.841964
O O4 0.651300 0.404576 0.899861
O O5 0.310118 0.484641 0.747540
O O6 0.330348 0.663256 0.517116
O O7 0.451228 0.480506 0.799008
O O8 0.372989 0.807811 0.097012
O O9 0.471907 0.419209 0.552791
O O10 0.446064 0.916341 0.466428
O O11 0.232827 0.100231 0.715348
O O12 0.080313 0.801888 0.045231
#
# Coordination Sequence:
#
# PCOD9140707 Si02
#       6
#     4   4   4   4   4   4
#     4  11  25  47  78 112 154 217 278 336 410 503
#     4  12  26  48  76 118 158 204 264 344 414 476
#     4  11  25  50  80 114 154 211 271 332 401 492
#     4  12  26  50  72 114 158 206 270 336 420 476
#     4  11  25  50  80 114 154 211 271 332 401 492
#     4  11  25  47  78 112 154 217 278 336 410 503
#
# _framework density 27.605004999999998
#
# number of rings (size 3 to 8) (size 9 to 14) (size 15 to 20)
#    0.000    0.667    6.667    0.000    2.333    2.667 
#    9.000    0.000    0.000    0.000    0.000    0.000 
#    0.000    0.000    0.000    0.000    0.000    0.000 
#
# Total GULP energy -66887.568639 kJ/mol
# GULP energy per Si atom -5573.964053 kJ/mol
# Density = 2.754218 g / cm^3
# Si number density = 27.605005 Si / 1000 Ang^3
#
#
#
# Elastic Constant Matrix: (Units=GPa)
#
#
# Indices 1 2 3 4 5 6 
#
# 1 96.7656 26.4600 31.4635 0.0000 -8.2560 0.0000
# 2 26.4600 86.6427 23.4659 0.0000 -9.8129 0.0000
# 3 31.4635 23.4659 150.9870 0.0000 -15.0609 0.0000
# 4 0.0000 0.0000 0.0000 18.3509 0.0000 -3.2861
# 5 -8.2560 -9.8129 -15.0609 0.0000 47.9535 0.0000
# 6 0.0000 0.0000 0.0000 -3.2861 0.0000 36.3385
#
#
#
# Elastic Compliance Matrix: (Units=1/GPa)
#
#
# Indices 1 2 3 4 5 6 
#
# 1 0.011851 -0.003006 -0.001920 0.000000 0.000822 0.000000
# 2 -0.003006 0.012988 -0.001217 0.000000 0.001758 0.000000
# 3 -0.001920 -0.001217 0.007386 0.000000 0.001740 0.000000
# 4 0.000000 0.000000 0.000000 0.055390 0.000000 0.005009
# 5 0.000822 0.001758 0.001740 0.000000 0.021901 0.000000
# 6 0.000000 0.000000 0.000000 0.005009 0.000000 0.027972
#
#
# Mechanical properties :
#
#
# Convention : Reuss Voigt Hill
#
# Bulk Modulus (GPa) = 50.15348 55.24156 52.69752
# Shear Modulus (GPa) = 31.96502 37.39565 34.68033
#
# Velocity S-wave (km/s) = 3.40655 3.68458 3.54829
# Velocity P-wave (km/s) = 5.80349 6.17708 5.99320
#
# Compressibility (1/GPa) = 0.01993880
#
# Stress axis : x y z
#
# Youngs Moduli (GPa) = 84.38289 76.99222 135.39223
#
# Poissons Ratio (x) = 0.23143 0.26000
# Poissons Ratio (y) = 0.25365 0.16475
# Poissons Ratio (z) = 0.16204 0.09369
#
# Static dielectric constant tensor:
#      x y z
#    x 2.369210 0.000000 -0.052830 
#    y 0.000000 2.173820 0.000000 
#    z -0.052830 0.000000 2.321330 
# 
# From -- ./inp_files/20638.got.cif
#   From: 2010.05.17/outbox.cif.g08.bks.cpg/sg9_11_cif.got.tgz:20638.got - 2010.06.03 20:04:27.
