data_PCOD9140435
_publ_section_title
;
Structure prediction by ZEFSAII (Michael W. Deem and Ramdas Pophale) SiO2 
 PCOD9140435
Probable space group: C C
;
_chemical_formula_sum "Si O2"
_cell_formula_units_Z 32
_cell_length_a 18.408578
_cell_length_b 14.844538
_cell_length_c 12.178402
_cell_angle_alpha 90.000000
_cell_angle_beta 27.216544
_cell_angle_gamma 90.000000
_cell_volume 1522.055200
_symmetry_space_group_name_H-M "C C"
_symmetry_group_IT_number 9
_symmetry_cell_setting 'monoclinic'
loop_
_space_group_symop_operation_xyz
x,y,z
x,-y,1/2+z
1/2+x,1/2+y,z
1/2+x,1/2-y,1/2+z
loop_
_atom_site_type_symbol
_atom_site_label
_atom_site_fract_x
_atom_site_fract_y
_atom_site_fract_z
Si Si1 0.781290 0.595299 0.093230
Si Si2 0.449136 0.423892 0.348536
Si Si3 0.281866 0.670338 0.874433
Si Si4 0.755394 0.141660 0.312336
Si Si5 0.797529 0.379463 0.829271
Si Si6 0.949702 0.109909 0.432759
Si Si7 0.450443 0.744702 0.237673
Si Si8 0.039626 0.467980 0.655404
O O1 0.790293 0.622199 0.207756
O O2 0.601483 0.577773 0.298799
O O3 0.843526 0.675450 0.931580
O O4 0.901007 0.513221 0.912767
O O5 0.396011 0.378119 0.307326
O O6 0.374813 0.370787 0.550717
O O7 0.385380 0.524893 0.451701
O O8 0.639270 0.426339 0.087937
O O9 0.290732 0.776560 0.879308
O O10 0.331135 0.649660 0.682428
O O11 0.115180 0.619221 0.111402
O O12 0.609403 0.208046 0.478843
O O13 0.852708 0.185482 0.282145
O O14 0.672841 0.045298 0.454553
O O15 0.952156 0.432112 0.663647
O O16 0.995238 0.183652 0.281893
#
# Coordination Sequence:
#
# PCOD9140435 Si02
#       8
#     4   4   4   4   4   4   4   4
#     4  11  24  45  72 107 137 186 243 292 356 428
#     4  12  27  46  66 105 148 186 230 292 368 426
#     4  12  26  46  71 107 142 190 239 300 361 423
#     4  11  26  46  70 110 145 190 239 294 370 423
#     4  12  26  47  74 104 145 186 241 298 362 429
#     4  12  23  46  73 102 141 186 243 291 352 428
#     4  11  24  46  77 102 142 190 244 295 347 439
#     4  11  26  46  69 107 142 188 239 300 362 426
#
# _framework density 21.024204000000001
#
# number of rings (size 3 to 8) (size 9 to 14) (size 15 to 20)
#    0.000    0.500    6.250    1.500    3.500    2.000 
#    0.000    0.000    0.000    0.000    0.000    0.000 
#    0.000    0.000    0.000    0.000    0.000    0.000 
#
# Total GULP energy -89443.616630 kJ/mol
# GULP energy per Si atom -5590.226039 kJ/mol
# Density = 2.097635 g / cm^3
# Si number density = 21.024204 Si / 1000 Ang^3
#
#
#
# Elastic Constant Matrix: (Units=GPa)
#
#
# Indices 1 2 3 4 5 6 
#
# 1 70.0884 14.1134 3.4726 -0.0001 -14.0157 0.0000
# 2 14.1134 65.6334 -4.4368 -0.0001 6.0035 0.0000
# 3 3.4726 -4.4368 56.6362 -0.0002 1.7048 0.0001
# 4 -0.0001 -0.0001 -0.0002 69.9846 0.0001 -3.9969
# 5 -14.0157 6.0035 1.7048 0.0001 27.3667 0.0000
# 6 0.0000 0.0000 0.0001 -3.9969 0.0000 37.6912
#
#
#
# Elastic Compliance Matrix: (Units=1/GPa)
#
#
# Indices 1 2 3 4 5 6 
#
# 1 0.017315 -0.004757 -0.001736 0.000000 0.010020 0.000000
# 2 -0.004757 0.016955 0.001809 0.000000 -0.006268 0.000000
# 3 -0.001736 0.001809 0.017977 0.000000 -0.002406 0.000000
# 4 0.000000 0.000000 0.000000 0.014376 0.000000 0.001524
# 5 0.010020 -0.006268 -0.002406 0.000000 0.043197 0.000000
# 6 0.000000 0.000000 0.000000 0.001524 0.000000 0.026693
#
#
# Mechanical properties :
#
#
# Convention : Reuss Voigt Hill
#
# Bulk Modulus (GPa) = 23.32201 24.29515 23.80858
# Shear Modulus (GPa) = 31.21582 38.95575 35.08578
#
# Velocity S-wave (km/s) = 3.85743 4.30920 4.08956
# Velocity P-wave (km/s) = 5.56388 6.02825 5.80072
#
# Compressibility (1/GPa) = 0.04287795
#
# Stress axis : x y z
#
# Youngs Moduli (GPa) = 57.75241 58.98053 55.62638
#
# Poissons Ratio (x) = 0.28058 0.09657
# Poissons Ratio (y) = 0.27474 -0.10061
# Poissons Ratio (z) = 0.10026 -0.10667
#
# Static dielectric constant tensor:
#      x y z
#    x 1.737430 0.000000 -0.030220 
#    y 0.000000 1.740170 0.000000 
#    z -0.030220 0.000000 1.745370 
# 
# From -- ./inp_files/7410.got.cif
#   From: 2010.05.17/outbox.cif.g08.bks.cpg/sg9_4_cif.got.tgz:7410.got - 2010.06.03 20:04:27.
