data_PCOD9140753
_publ_section_title
;
Structure prediction by ZEFSAII (Michael W. Deem and Ramdas Pophale) SiO2 
 PCOD9140753
Probable space group: C C
;
_chemical_formula_sum "Si O2"
_cell_formula_units_Z 32
_cell_length_a 6.435607
_cell_length_b 17.275874
_cell_length_c 14.317089
_cell_angle_alpha 90.000000
_cell_angle_beta 126.656889
_cell_angle_gamma 90.000000
_cell_volume 1276.969450
_symmetry_space_group_name_H-M "C C"
_symmetry_group_IT_number 9
_symmetry_cell_setting 'monoclinic'
loop_
_space_group_symop_operation_xyz
x,y,z
x,-y,1/2+z
1/2+x,1/2+y,z
1/2+x,1/2-y,1/2+z
loop_
_atom_site_type_symbol
_atom_site_label
_atom_site_fract_x
_atom_site_fract_y
_atom_site_fract_z
Si Si1 0.703310 0.028111 0.557030
Si Si2 0.912852 0.726065 0.503524
Si Si3 0.111196 0.630941 0.229586
Si Si4 0.656629 0.404358 0.845890
Si Si5 0.601750 0.734769 0.876757
Si Si6 0.621870 0.847932 0.523951
Si Si7 0.133358 0.380047 0.219454
Si Si8 0.743846 0.499097 0.679358
O O1 0.633199 0.939144 0.525694
O O2 0.973962 0.037296 0.574408
O O3 0.435885 0.068521 0.457563
O O4 0.751271 0.061412 0.673540
O O5 0.695456 0.687386 0.377985
O O6 0.843787 0.809933 0.522477
O O7 0.147675 0.732471 0.493906
O O8 0.954775 0.676002 0.607649
O O9 0.379158 0.583997 0.320407
O O10 0.054892 0.693567 0.294456
O O11 0.156383 0.671308 0.142511
O O12 0.882666 0.568007 0.156791
O O13 0.659406 0.448555 0.747668
O O14 0.364578 0.674112 0.817270
O O15 0.855397 0.687984 0.916591
O O16 0.957141 0.432012 0.241378
#
# Coordination Sequence:
#
# PCOD9140753 Si02
#       8
#     4   4   4   4   4   4   4   4
#     4  11  28  47  73 112 158 204 268 330 407 485
#     4  11  27  48  72 116 154 212 265 331 401 482
#     4  12  26  50  78 113 162 213 270 339 411 480
#     4  11  25  49  75 108 156 205 266 331 407 476
#     4  12  28  47  79 117 153 216 268 337 404 495
#     4  12  27  44  77 111 159 203 266 329 406 484
#     4  11  28  49  77 115 159 204 276 329 411 482
#     4  12  25  48  79 108 157 215 257 340 401 484
#
# _framework density 25.059332000000001
#
# number of rings (size 3 to 8) (size 9 to 14) (size 15 to 20)
#    0.000    0.500    5.000    0.750   10.500    5.000 
#    0.000    0.000    0.000    0.000    0.000    0.000 
#    0.000    0.000    0.000    0.000    0.000    0.000 
#
# Total GULP energy -89322.891432 kJ/mol
# GULP energy per Si atom -5582.680715 kJ/mol
# Density = 2.500230 g / cm^3
# Si number density = 25.059332 Si / 1000 Ang^3
#
#
#
# Elastic Constant Matrix: (Units=GPa)
#
#
# Indices 1 2 3 4 5 6 
#
# 1 117.0905 45.1319 32.5687 0.0000 8.8535 0.0000
# 2 45.1319 127.1431 22.9264 0.0000 -0.0502 0.0000
# 3 32.5687 22.9264 66.8080 0.0000 2.0089 0.0000
# 4 0.0000 0.0000 0.0000 34.0740 0.0000 7.5203
# 5 8.8535 -0.0502 2.0089 0.0000 46.7398 0.0000
# 6 0.0000 0.0000 0.0000 7.5203 0.0000 45.3593
#
#
#
# Elastic Compliance Matrix: (Units=1/GPa)
#
#
# Indices 1 2 3 4 5 6 
#
# 1 0.011093 -0.003170 -0.004262 0.000000 -0.001921 0.000000
# 2 -0.003170 0.009291 -0.001663 0.000000 0.000682 0.000000
# 3 -0.004262 -0.001663 0.017615 0.000000 0.000048 0.000000
# 4 0.000000 0.000000 0.000000 0.030463 0.000000 -0.005051
# 5 -0.001921 0.000682 0.000048 0.000000 0.021758 0.000000
# 6 0.000000 0.000000 0.000000 -0.005051 0.000000 0.022884
#
#
# Mechanical properties :
#
#
# Convention : Reuss Voigt Hill
#
# Bulk Modulus (GPa) = 50.48468 56.92174 53.70321
# Shear Modulus (GPa) = 36.25904 39.26226 37.76065
#
# Velocity S-wave (km/s) = 3.80798 3.96254 3.88603
# Velocity P-wave (km/s) = 6.28682 6.61058 6.45073
#
# Compressibility (1/GPa) = 0.01980799
#
# Stress axis : x y z
#
# Youngs Moduli (GPa) = 90.14663 107.63593 56.76821
#
# Poissons Ratio (x) = 0.34119 0.24196
# Poissons Ratio (y) = 0.28575 0.09443
# Poissons Ratio (z) = 0.38423 0.17905
#
# Static dielectric constant tensor:
#      x y z
#    x 2.030420 0.000000 0.039410 
#    y 0.000000 2.040750 0.000000 
#    z 0.039410 0.000000 2.082790 
# 
# From -- ./inp_files/22112.got.cif
#   From: 2010.05.17/outbox.cif.g08.bks.cpg/sg9_12_cif.got.tgz:22112.got - 2010.06.03 20:04:27.
