data_PCOD9140032
_publ_section_title
;
Structure prediction by ZEFSAII (Michael W. Deem and Ramdas Pophale) SiO2 
 PCOD9140032
Probable space group: C C
;
_chemical_formula_sum "Si O2"
_cell_formula_units_Z 32
_cell_length_a 9.430771
_cell_length_b 15.479106
_cell_length_c 10.092241
_cell_angle_alpha 90.000000
_cell_angle_beta 111.805621
_cell_angle_gamma 90.000000
_cell_volume 1367.851407
_symmetry_space_group_name_H-M "C C"
_symmetry_group_IT_number 9
_symmetry_cell_setting 'monoclinic'
loop_
_space_group_symop_operation_xyz
x,y,z
x,-y,1/2+z
1/2+x,1/2+y,z
1/2+x,1/2-y,1/2+z
loop_
_atom_site_type_symbol
_atom_site_label
_atom_site_fract_x
_atom_site_fract_y
_atom_site_fract_z
Si Si1 0.100260 0.632216 0.449040
Si Si2 0.094916 0.329114 0.431309
Si Si3 0.086635 0.053162 0.680970
Si Si4 0.176850 0.478664 0.636754
Si Si5 0.844900 0.241691 0.852409
Si Si6 0.891018 0.775906 0.060175
Si Si7 0.934087 0.041919 0.897006
Si Si8 0.432810 0.982733 0.228587
O O1 0.203084 0.571117 0.577558
O O2 0.233150 0.692742 0.436218
O O3 0.972753 0.696864 0.460585
O O4 0.000768 0.563875 0.332788
O O5 0.197282 0.393338 0.558418
O O6 0.187864 0.257327 0.380808
O O7 0.972280 0.290021 0.489551
O O8 0.020805 0.395952 0.302257
O O9 0.258633 0.037326 0.694391
O O10 0.015636 0.147794 0.627271
O O11 0.060662 0.031661 0.825974
O O12 0.989797 0.988383 0.557296
O O13 0.289211 0.484296 0.800359
O O14 0.996387 0.489637 0.607463
O O15 0.845249 0.258548 0.692623
O O16 0.892366 0.142032 0.882710
#
# Coordination Sequence:
#
# PCOD9140032 Si02
#       8
#     4   4   4   4   4   4   4   4
#     4  11  24  44  73  99 148 191 237 304 372 428
#     4  11  25  44  76 106 143 197 247 299 378 440
#     4  11  26  43  72 105 147 184 245 302 366 441
#     4  11  22  46  72  99 143 196 241 295 370 444
#     4  11  24  44  70 107 145 187 246 307 363 436
#     4  11  25  46  70 109 150 189 243 311 370 438
#     4  11  23  47  70 104 144 193 236 301 369 441
#     4  11  25  44  71 103 140 191 245 299 362 448
#
# _framework density 23.394354
#
# number of rings (size 3 to 8) (size 9 to 14) (size 15 to 20)
#    0.000    1.000    3.750    2.250    8.750    1.000 
#    0.000    1.250    0.000    0.000    0.000    0.000 
#    0.000    0.000    0.000    0.000    0.000    0.000 
#
# Total GULP energy -89371.195522 kJ/mol
# GULP energy per Si atom -5585.699720 kJ/mol
# Density = 2.334111 g / cm^3
# Si number density = 23.394354 Si / 1000 Ang^3
#
#
#
# Elastic Constant Matrix: (Units=GPa)
#
#
# Indices 1 2 3 4 5 6 
#
# 1 160.1238 35.7556 9.6358 0.0000 -5.2665 0.0000
# 2 35.7556 66.4180 15.5291 0.0000 -3.2495 0.0000
# 3 9.6358 15.5291 34.3056 0.0000 -10.2779 0.0000
# 4 0.0000 0.0000 0.0000 20.7641 0.0000 -6.8462
# 5 -5.2665 -3.2495 -10.2779 0.0000 45.0904 0.0000
# 6 0.0000 0.0000 0.0000 -6.8462 0.0000 41.0303
#
#
#
# Elastic Compliance Matrix: (Units=1/GPa)
#
#
# Indices 1 2 3 4 5 6 
#
# 1 0.007113 -0.003772 -0.000132 0.000000 0.000529 0.000000
# 2 -0.003772 0.018852 -0.007727 0.000000 -0.000843 0.000000
# 3 -0.000132 -0.007727 0.034896 0.000000 0.007382 0.000000
# 4 0.000000 0.000000 0.000000 0.050964 0.000000 0.008504
# 5 0.000529 -0.000843 0.007382 0.000000 0.023861 0.000000
# 6 0.000000 0.000000 0.000000 0.008504 0.000000 0.025791
#
#
# Mechanical properties :
#
#
# Convention : Reuss Voigt Hill
#
# Bulk Modulus (GPa) = 26.59638 42.52095 34.55867
# Shear Modulus (GPa) = 25.34557 34.70542 30.02549
#
# Velocity S-wave (km/s) = 3.29508 3.85580 3.58641
# Velocity P-wave (km/s) = 5.08627 6.16750 5.65280
#
# Compressibility (1/GPa) = 0.03759910
#
# Stress axis : x y z
#
# Youngs Moduli (GPa) = 140.58989 53.04355 28.65646
#
# Poissons Ratio (x) = 0.20011 0.00378
# Poissons Ratio (y) = 0.53037 0.22143
# Poissons Ratio (z) = 0.01852 0.40987
#
# Static dielectric constant tensor:
#      x y z
#    x 1.985440 0.000000 -0.070040 
#    y 0.000000 1.843360 0.000000 
#    z -0.070040 0.000000 1.951540 
# 
# From -- ./inp_files/14669.got.cif
#   From: 2010.05.17/outbox.cif.g08.bks.cpg/sg9_8_cif.got.tgz:14669.got - 2010.06.03 20:04:27.
