data_PCOD9140159
_publ_section_title
;
Structure prediction by ZEFSAII (Michael W. Deem and Ramdas Pophale) SiO2 
 PCOD9140159
Probable space group: C C
;
_chemical_formula_sum "Si O2"
_cell_formula_units_Z 32
_cell_length_a 9.504898
_cell_length_b 11.459749
_cell_length_c 19.898052
_cell_angle_alpha 90.000000
_cell_angle_beta 140.468465
_cell_angle_gamma 90.000000
_cell_volume 1379.537335
_symmetry_space_group_name_H-M "C C"
_symmetry_group_IT_number 9
_symmetry_cell_setting 'monoclinic'
loop_
_space_group_symop_operation_xyz
x,y,z
x,-y,1/2+z
1/2+x,1/2+y,z
1/2+x,1/2-y,1/2+z
loop_
_atom_site_type_symbol
_atom_site_label
_atom_site_fract_x
_atom_site_fract_y
_atom_site_fract_z
Si Si1 0.935660 0.756848 0.486780
Si Si2 0.647780 0.756590 0.249510
Si Si3 0.336355 0.694973 0.548697
Si Si4 0.514482 0.447831 0.623688
Si Si5 0.690349 0.829676 0.738325
Si Si6 0.154061 0.049431 0.422315
Si Si7 0.839646 0.531203 0.632448
Si Si8 0.083417 0.201778 0.834358
O O1 0.778167 0.783182 0.365634
O O2 0.866944 0.628056 0.485093
O O3 0.182226 0.755179 0.547955
O O4 0.909255 0.850109 0.536005
O O5 0.583136 0.621713 0.215519
O O6 0.438697 0.839724 0.169154
O O7 0.823039 0.783364 0.254297
O O8 0.364844 0.560480 0.577930
O O9 0.569729 0.762380 0.633175
O O10 0.210669 0.712105 0.432551
O O11 0.723605 0.495791 0.658855
O O12 0.653486 0.740497 0.786495
O O13 0.941362 0.871144 0.827227
O O14 0.545912 0.945523 0.696979
O O15 0.168389 0.021189 0.507211
O O16 0.146293 0.929327 0.378614
#
# Coordination Sequence:
#
# PCOD9140159 Si02
#       8
#     4   4   4   4   4   4   4   4
#     4  11  26  47  68 103 148 186 233 302 358 426
#     4  11  24  43  71 102 136 190 238 282 370 418
#     4  11  26  46  70 104 143 188 238 292 366 424
#     4  12  25  47  72 101 145 186 235 295 351 430
#     4  12  25  44  73 105 140 187 240 293 357 422
#     4  12  26  45  71 108 143 186 247 295 351 433
#     4  12  23  46  74 100 140 192 235 294 356 423
#     4  11  23  44  71 101 137 187 236 295 353 426
#
# _framework density 23.196183000000001
#
# number of rings (size 3 to 8) (size 9 to 14) (size 15 to 20)
#    0.000    0.500    6.250    1.500    5.250    1.000 
#    2.250    0.000    0.000    0.000    0.000    0.000 
#    0.000    0.000    0.000    0.000    0.000    0.000 
#
# Total GULP energy -89612.307460 kJ/mol
# GULP energy per Si atom -5600.769216 kJ/mol
# Density = 2.314339 g / cm^3
# Si number density = 23.196183 Si / 1000 Ang^3
#
#
#
# Elastic Constant Matrix: (Units=GPa)
#
#
# Indices 1 2 3 4 5 6 
#
# 1 44.6996 14.1645 19.8580 0.0000 7.3288 0.0000
# 2 14.1645 124.3170 24.6969 0.0000 20.4617 0.0000
# 3 19.8580 24.6969 96.8640 0.0000 4.4551 0.0000
# 4 0.0000 0.0000 0.0000 46.7340 0.0000 5.5919
# 5 7.3288 20.4617 4.4551 0.0000 22.0166 0.0000
# 6 0.0000 0.0000 0.0000 5.5919 0.0000 33.2670
#
#
#
# Elastic Compliance Matrix: (Units=1/GPa)
#
#
# Indices 1 2 3 4 5 6 
#
# 1 0.025889 -0.000877 -0.004770 0.000000 -0.006838 0.000000
# 2 -0.000877 0.009941 -0.001962 0.000000 -0.008550 0.000000
# 3 -0.004770 -0.001962 0.011754 0.000000 0.001032 0.000000
# 4 0.000000 0.000000 0.000000 0.021837 0.000000 -0.003671
# 5 -0.006838 -0.008550 0.001032 0.000000 0.055434 0.000000
# 6 0.000000 0.000000 0.000000 -0.003671 0.000000 0.030677
#
#
# Mechanical properties :
#
#
# Convention : Reuss Voigt Hill
#
# Bulk Modulus (GPa) = 30.89406 42.59105 36.74255
# Shear Modulus (GPa) = 27.54254 34.21424 30.87839
#
# Velocity S-wave (km/s) = 3.44957 3.84473 3.65250
# Velocity P-wave (km/s) = 5.40495 6.17336 5.80189
#
# Compressibility (1/GPa) = 0.03236868
#
# Stress axis : x y z
#
# Youngs Moduli (GPa) = 38.62580 100.59554 85.07592
#
# Poissons Ratio (x) = 0.08820 0.40577
# Poissons Ratio (y) = 0.03387 0.16688
# Poissons Ratio (z) = 0.18423 0.19732
#
# Static dielectric constant tensor:
#      x y z
#    x 1.874580 0.000000 -0.032460 
#    y 0.000000 1.849560 0.000000 
#    z -0.032460 0.000000 1.874000 
# 
# From -- ./inp_files/16476.got.cif
#   From: 2010.05.17/outbox.cif.g08.bks.cpg/sg9_9_cif.got.tgz:16476.got - 2010.06.03 20:04:27.
