data_PCOD9140640
_publ_section_title
;
Structure prediction by ZEFSAII (Michael W. Deem and Ramdas Pophale) SiO2 
 PCOD9140640
Probable space group: C C
;
_chemical_formula_sum "Si O2"
_cell_formula_units_Z 32
_cell_length_a 29.072575
_cell_length_b 9.072192
_cell_length_c 8.187505
_cell_angle_alpha 90.000000
_cell_angle_beta 39.854266
_cell_angle_gamma 90.000000
_cell_volume 1383.868858
_symmetry_space_group_name_H-M "C C"
_symmetry_group_IT_number 9
_symmetry_cell_setting 'monoclinic'
loop_
_space_group_symop_operation_xyz
x,y,z
x,-y,1/2+z
1/2+x,1/2+y,z
1/2+x,1/2-y,1/2+z
loop_
_atom_site_type_symbol
_atom_site_label
_atom_site_fract_x
_atom_site_fract_y
_atom_site_fract_z
Si Si1 0.073090 0.673426 0.920230
Si Si2 0.863727 0.918721 0.570716
Si Si3 0.868967 0.768771 0.197072
Si Si4 0.729129 0.414072 0.163791
Si Si5 0.583783 0.677661 0.887350
Si Si6 0.727202 0.727623 0.029237
Si Si7 0.513359 0.085135 0.743216
Si Si8 0.518386 0.571987 0.737929
O O1 0.155758 0.674672 0.749186
O O2 0.059868 0.619518 0.775295
O O3 0.049620 0.842666 0.997093
O O4 0.017933 0.586514 0.187969
O O5 0.876429 0.852177 0.353881
O O6 0.795766 0.833703 0.830140
O O7 0.935606 0.890129 0.479276
O O8 0.856248 0.096748 0.603927
O O9 0.800130 0.663521 0.400787
O O10 0.935648 0.659717 0.975601
O O11 0.661661 0.359682 0.241243
O O12 0.719567 0.354295 0.373942
O O13 0.733856 0.591546 0.136903
O O14 0.566732 0.620269 0.755532
O O15 0.559495 0.844791 0.969797
O O16 0.529317 0.596207 0.160973
#
# Coordination Sequence:
#
# PCOD9140640 Si02
#       8
#     4   4   4   4   4   4   4   4
#     4  12  26  46  69 102 139 182 234 292 350 414
#     4  11  25  45  69 104 141 184 230 288 350 418
#     4  11  26  46  71 102 144 183 233 289 347 422
#     4  11  25  45  69 104 141 184 230 288 350 418
#     4  12  23  43  71 101 135 182 232 287 348 415
#     4  11  26  46  71 102 144 183 233 289 347 422
#     4  12  26  46  69 102 139 182 234 292 350 414
#     4  12  23  43  71 101 135 182 232 287 348 415
#
# _framework density 23.123578999999999
#
# number of rings (size 3 to 8) (size 9 to 14) (size 15 to 20)
#    0.000    0.500    5.000    3.000    3.500    1.000 
#    0.000    0.000    0.000    0.000    0.000    0.000 
#    0.000    0.000    0.000    0.000    0.000    0.000 
#
# Total GULP energy -89485.726663 kJ/mol
# GULP energy per Si atom -5592.857916 kJ/mol
# Density = 2.307095 g / cm^3
# Si number density = 23.123579 Si / 1000 Ang^3
#
#
#
# Elastic Constant Matrix: (Units=GPa)
#
#
# Indices 1 2 3 4 5 6 
#
# 1 63.2631 34.5676 27.0078 0.0000 -9.6593 0.0000
# 2 34.5676 96.9169 49.5874 0.0000 -10.8764 0.0000
# 3 27.0078 49.5874 120.8316 0.0000 -34.4705 0.0000
# 4 0.0000 0.0000 0.0000 46.7511 0.0000 4.6839
# 5 -9.6593 -10.8764 -34.4705 0.0000 47.4724 0.0000
# 6 0.0000 0.0000 0.0000 4.6839 0.0000 29.8752
#
#
#
# Elastic Compliance Matrix: (Units=1/GPa)
#
#
# Indices 1 2 3 4 5 6 
#
# 1 0.020084 -0.006228 -0.001482 0.000000 0.001584 0.000000
# 2 -0.006228 0.015040 -0.005245 0.000000 -0.001630 0.000000
# 3 -0.001482 -0.005245 0.013030 0.000000 0.007958 0.000000
# 4 0.000000 0.000000 0.000000 0.021731 0.000000 -0.003407
# 5 0.001584 -0.001630 0.007958 0.000000 0.026792 0.000000
# 6 0.000000 0.000000 0.000000 -0.003407 0.000000 0.034007
#
#
# Mechanical properties :
#
#
# Convention : Reuss Voigt Hill
#
# Bulk Modulus (GPa) = 44.95312 55.92635 50.43973
# Shear Modulus (GPa) = 30.48618 36.14298 33.31458
#
# Velocity S-wave (km/s) = 3.63492 3.95781 3.79980
# Velocity P-wave (km/s) = 6.09093 6.71745 6.41185
#
# Compressibility (1/GPa) = 0.02224540
#
# Stress axis : x y z
#
# Youngs Moduli (GPa) = 49.79030 66.48855 76.74625
#
# Poissons Ratio (x) = 0.41407 0.11370
# Poissons Ratio (y) = 0.31008 0.40255
# Poissons Ratio (z) = 0.07376 0.34875
#
# Static dielectric constant tensor:
#      x y z
#    x 1.839020 0.000000 0.027610 
#    y 0.000000 1.824410 0.000000 
#    z 0.027610 0.000000 1.877200 
# 
# From -- ./inp_files/12427.got.cif
#   From: 2010.05.17/outbox.cif.g08.bks.cpg/sg9_7_cif.got.tgz:12427.got - 2010.06.03 20:04:27.
