data_PCOD9140267
_publ_section_title
;
Structure prediction by ZEFSAII (Michael W. Deem and Ramdas Pophale) SiO2 
 PCOD9140267
Probable space group: C C
;
_chemical_formula_sum "Si O2"
_cell_formula_units_Z 32
_cell_length_a 7.490319
_cell_length_b 11.533553
_cell_length_c 14.912913
_cell_angle_alpha 90.000000
_cell_angle_beta 73.564776
_cell_angle_gamma 90.000000
_cell_volume 1235.685684
_symmetry_space_group_name_H-M "C C"
_symmetry_group_IT_number 9
_symmetry_cell_setting 'monoclinic'
loop_
_space_group_symop_operation_xyz
x,y,z
x,-y,1/2+z
1/2+x,1/2+y,z
1/2+x,1/2-y,1/2+z
loop_
_atom_site_type_symbol
_atom_site_label
_atom_site_fract_x
_atom_site_fract_y
_atom_site_fract_z
Si Si1 0.262130 0.365233 0.372180
Si Si2 0.904772 0.810587 0.751077
Si Si3 0.995197 0.461422 0.557703
Si Si4 0.883837 0.716932 0.562394
Si Si5 0.132147 0.862653 0.388766
Si Si6 0.642698 0.617160 0.377263
Si Si7 0.452440 0.710925 0.570555
Si Si8 0.687671 0.967325 0.208676
O O1 0.171376 0.427606 0.470475
O O2 0.476820 0.397739 0.335929
O O3 0.275340 0.226155 0.376950
O O4 0.133710 0.400556 0.307208
O O5 0.946281 0.737373 0.656067
O O6 0.772974 0.731370 0.831764
O O7 0.791142 0.919567 0.730108
O O8 0.072284 0.860002 0.786829
O O9 0.877582 0.342220 0.569585
O O10 0.046854 0.487366 0.653695
O O11 0.919396 0.583026 0.533547
O O12 0.659217 0.729104 0.584398
O O13 0.009122 0.805679 0.485937
O O14 0.215315 0.990490 0.392379
O O15 0.477976 0.649631 0.470563
O O16 0.329880 0.623420 0.643991
#
# Coordination Sequence:
#
# PCOD9140267 Si02
#       8
#     4   4   4   4   4   4   4   4
#     4  11  23  47  67 102 139 184 230 290 350 410
#     4  12  26  45  73 107 137 187 238 282 355 418
#     4  11  25  47  70 102 141 183 235 286 349 415
#     4  12  25  47  71 104 141 185 236 287 349 418
#     4  12  25  47  72  99 146 182 227 294 348 409
#     4  11  25  45  68 101 142 179 237 284 350 413
#     4  11  25  47  68 102 140 183 232 287 350 412
#     4  12  24  45  75  97 144 181 231 292 347 415
#
# _framework density 25.896553999999998
#
# number of rings (size 3 to 8) (size 9 to 14) (size 15 to 20)
#    0.000    0.500    5.000    3.750    1.750    3.000 
#    4.500    0.000    0.000    0.000    0.000    0.000 
#    0.000    0.000    0.000    0.000    0.000    0.000 
#
# Total GULP energy -89562.531535 kJ/mol
# GULP energy per Si atom -5597.658221 kJ/mol
# Density = 2.583761 g / cm^3
# Si number density = 25.896554 Si / 1000 Ang^3
#
#
#
# Elastic Constant Matrix: (Units=GPa)
#
#
# Indices 1 2 3 4 5 6 
#
# 1 65.0023 9.8684 13.7555 0.0000 5.1450 0.0000
# 2 9.8684 211.7408 22.4278 0.0000 -18.6641 0.0000
# 3 13.7555 22.4278 93.5510 0.0000 10.4458 0.0000
# 4 0.0000 0.0000 0.0000 48.3677 0.0000 3.0114
# 5 5.1450 -18.6641 10.4458 0.0000 30.0620 0.0000
# 6 0.0000 0.0000 0.0000 3.0114 0.0000 34.8797
#
#
#
# Elastic Compliance Matrix: (Units=1/GPa)
#
#
# Indices 1 2 3 4 5 6 
#
# 1 0.016107 -0.000778 -0.001894 0.000000 -0.002581 0.000000
# 2 -0.000778 0.005277 -0.001593 0.000000 0.003963 0.000000
# 3 -0.001894 -0.001593 0.011885 0.000000 -0.004795 0.000000
# 4 0.000000 0.000000 0.000000 0.020787 0.000000 -0.001795
# 5 -0.002581 0.003963 -0.004795 0.000000 0.037833 0.000000
# 6 0.000000 0.000000 0.000000 -0.001795 0.000000 0.028825
#
#
# Mechanical properties :
#
#
# Convention : Reuss Voigt Hill
#
# Bulk Modulus (GPa) = 40.42003 51.37748 45.89876
# Shear Modulus (GPa) = 36.36630 44.27806 40.32218
#
# Velocity S-wave (km/s) = 3.75145 4.13946 3.95023
# Velocity P-wave (km/s) = 5.86572 6.53678 6.21032
#
# Compressibility (1/GPa) = 0.02474021
#
# Stress axis : x y z
#
# Youngs Moduli (GPa) = 62.08407 189.49865 84.13854
#
# Poissons Ratio (x) = 0.14736 0.15933
# Poissons Ratio (y) = 0.04828 0.13406
# Poissons Ratio (z) = 0.11757 0.30192
#
# Static dielectric constant tensor:
#      x y z
#    x 2.035340 0.000000 0.020310 
#    y 0.000000 2.068300 0.000000 
#    z 0.020310 0.000000 2.086880 
# 
# From -- ./inp_files/22885.got.cif
#   From: 2010.05.17/outbox.cif.g08.bks.cpg/sg9_12_cif.got.tgz:22885.got - 2010.06.03 20:04:27.
