data_PCOD9140819
_publ_section_title
;
Structure prediction by ZEFSAII (Michael W. Deem and Ramdas Pophale) SiO2 
 PCOD9140819
Probable space group: C C
;
_chemical_formula_sum "Si O2"
_cell_formula_units_Z 32
_cell_length_a 19.383387
_cell_length_b 5.891922
_cell_length_c 11.915309
_cell_angle_alpha 90.000000
_cell_angle_beta 109.447575
_cell_angle_gamma 90.000000
_cell_volume 1283.154732
_symmetry_space_group_name_H-M "C C"
_symmetry_group_IT_number 9
_symmetry_cell_setting 'monoclinic'
loop_
_space_group_symop_operation_xyz
x,y,z
x,-y,1/2+z
1/2+x,1/2+y,z
1/2+x,1/2-y,1/2+z
loop_
_atom_site_type_symbol
_atom_site_label
_atom_site_fract_x
_atom_site_fract_y
_atom_site_fract_z
Si Si1 0.981270 0.296766 0.457190
Si Si2 0.236707 0.738767 0.151161
Si Si3 0.674763 0.113403 0.763473
Si Si4 0.424679 0.267136 0.147624
Si Si5 0.604630 0.542017 0.063456
Si Si6 0.321187 0.347905 0.486300
Si Si7 0.849322 0.509623 0.306133
Si Si8 0.563402 0.162585 0.345686
O O1 0.960092 0.390406 0.569342
O O2 0.904026 0.296687 0.351473
O O3 0.024275 0.067867 0.511166
O O4 0.027669 0.461975 0.401991
O O5 0.220695 0.487804 0.183906
O O6 0.160100 0.838121 0.073771
O O7 0.268798 0.902857 0.264891
O O8 0.298734 0.758994 0.092369
O O9 0.628934 0.326177 0.689467
O O10 0.738962 0.113576 0.891316
O O11 0.613898 0.938663 0.775740
O O12 0.372011 0.147694 0.208258
O O13 0.497822 0.318752 0.260380
O O14 0.376394 0.451194 0.053451
O O15 0.611554 0.702970 0.960450
O O16 0.356141 0.185623 0.412235
#
# Coordination Sequence:
#
# PCOD9140819 Si02
#       8
#     4   4   4   4   4   4   4   4
#     4  11  26  48  74 109 152 201 254 318 383 462
#     4  12  27  46  76 109 152 196 254 322 384 465
#     4  12  26  50  74 116 153 200 263 320 393 466
#     4  11  26  47  74 112 153 206 256 319 386 469
#     4  12  26  47  76 110 149 206 251 320 391 461
#     4  12  26  46  81 110 155 206 255 325 387 469
#     4  11  26  49  75 115 155 203 259 320 393 470
#     4  11  27  47  78 113 153 200 260 320 381 472
#
# _framework density 24.938534000000001
#
# number of rings (size 3 to 8) (size 9 to 14) (size 15 to 20)
#    0.000    0.500    1.250    6.000    8.750    3.000 
#    2.250    0.000    0.000    0.000    0.000    0.000 
#    0.000    0.000    0.000    0.000    0.000    0.000 
#
# Total GULP energy -89355.961619 kJ/mol
# GULP energy per Si atom -5584.747601 kJ/mol
# Density = 2.488177 g / cm^3
# Si number density = 24.938534 Si / 1000 Ang^3
#
#
#
# Elastic Constant Matrix: (Units=GPa)
#
#
# Indices 1 2 3 4 5 6 
#
# 1 107.5697 39.0243 49.7501 0.0000 5.5588 0.0000
# 2 39.0243 62.9289 49.4763 0.0000 14.5936 0.0000
# 3 49.7501 49.4763 119.4429 0.0000 21.7609 0.0000
# 4 0.0000 0.0000 0.0000 56.9131 0.0000 17.1050
# 5 5.5588 14.5936 21.7609 0.0000 67.5210 0.0000
# 6 0.0000 0.0000 0.0000 17.1050 0.0000 11.4265
#
#
#
# Elastic Compliance Matrix: (Units=1/GPa)
#
#
# Indices 1 2 3 4 5 6 
#
# 1 0.012772 -0.005701 -0.003178 0.000000 0.001205 0.000000
# 2 -0.005701 0.026386 -0.008076 0.000000 -0.002631 0.000000
# 3 -0.003178 -0.008076 0.013466 0.000000 -0.002333 0.000000
# 4 0.000000 0.000000 0.000000 0.031941 0.000000 -0.047815
# 5 0.001205 -0.002631 -0.002333 0.000000 0.016031 0.000000
# 6 0.000000 0.000000 0.000000 -0.047815 0.000000 0.159094
#
#
# Mechanical properties :
#
#
# Convention : Reuss Voigt Hill
#
# Bulk Modulus (GPa) = 53.43466 62.93808 58.18637
# Shear Modulus (GPa) = 16.67566 37.28485 26.98026
#
# Velocity S-wave (km/s) = 2.58867 3.87081 3.29275
# Velocity P-wave (km/s) = 5.51435 6.72827 6.15133
#
# Compressibility (1/GPa) = 0.01871444
#
# Stress axis : x y z
#
# Youngs Moduli (GPa) = 78.29608 37.89884 74.26175
#
# Poissons Ratio (x) = 0.21608 0.23597
# Poissons Ratio (y) = 0.44640 0.59971
# Poissons Ratio (z) = 0.24879 0.30606
#
# Static dielectric constant tensor:
#      x y z
#    x 1.940940 0.000000 0.008040 
#    y 0.000000 1.988720 0.000000 
#    z 0.008040 0.000000 2.023100 
# 
# From -- ./inp_files/19856.got.cif
#   From: 2010.05.17/outbox.cif.g08.bks.cpg/sg9_10_cif.got.tgz:19856.got - 2010.06.03 20:04:27.
