data_PCOD9140816
_publ_section_title
;
Structure prediction by ZEFSAII (Michael W. Deem and Ramdas Pophale) SiO2 
 PCOD9140816
Probable space group: C C
;
_chemical_formula_sum "Si O2"
_cell_formula_units_Z 32
_cell_length_a 13.031912
_cell_length_b 13.893924
_cell_length_c 9.281703
_cell_angle_alpha 90.000000
_cell_angle_beta 55.363040
_cell_angle_gamma 90.000000
_cell_volume 1382.735517
_symmetry_space_group_name_H-M "C C"
_symmetry_group_IT_number 9
_symmetry_cell_setting 'monoclinic'
loop_
_space_group_symop_operation_xyz
x,y,z
x,-y,1/2+z
1/2+x,1/2+y,z
1/2+x,1/2-y,1/2+z
loop_
_atom_site_type_symbol
_atom_site_label
_atom_site_fract_x
_atom_site_fract_y
_atom_site_fract_z
Si Si1 0.692460 0.385557 0.343770
Si Si2 0.852097 0.061711 0.420499
Si Si3 0.632219 0.181791 0.468696
Si Si4 0.678670 0.114440 0.137083
Si Si5 0.519037 0.438289 0.060350
Si Si6 0.426188 0.898672 0.329095
Si Si7 0.738913 0.681792 0.512155
Si Si8 0.444940 0.898675 0.651759
O O1 0.611910 0.288486 0.420350
O O2 0.617670 0.482884 0.423546
O O3 0.789324 0.366494 0.393269
O O4 0.759880 0.385579 0.135484
O O5 0.769315 0.146044 0.413871
O O6 0.935569 0.094052 0.490421
O O7 0.753463 0.982886 0.557309
O O8 0.935565 0.999998 0.240425
O O9 0.611250 0.114419 0.345369
O O10 0.534599 0.165417 0.673227
O O11 0.581806 0.133498 0.087584
O O12 0.759217 0.211512 0.060503
O O13 0.601818 0.353955 0.066977
O O14 0.435563 0.905472 0.490427
O O15 0.435560 0.999999 0.240430
O O16 0.836535 0.665418 0.307624
#
# Coordination Sequence:
#
# PCOD9140816 Si02
#       8
#     4   4   4   4   4   4   4   4
#     4  11  26  47  73 103 140 188 233 287 357 420
#     4  12  26  45  71 103 143 186 235 289 352 419
#     4  11  26  47  73 104 141 185 234 291 351 423
#     4  11  26  47  73 103 140 188 233 287 357 420
#     4  12  26  45  71 103 143 186 235 289 352 419
#     4  12  26  44  71 101 138 181 234 288 348 412
#     4  11  26  47  73 104 141 185 234 291 351 423
#     4  12  26  44  71 101 138 181 234 288 348 412
#
# _framework density 23.142533
#
# number of rings (size 3 to 8) (size 9 to 14) (size 15 to 20)
#    0.000    0.500    5.000    2.250    7.000    2.000 
#    0.000    0.000    0.000    0.000    0.000    0.000 
#    0.000    0.000    0.000    0.000    0.000    0.000 
#
# Total GULP energy -89473.517206 kJ/mol
# GULP energy per Si atom -5592.094825 kJ/mol
# Density = 2.308986 g / cm^3
# Si number density = 23.142533 Si / 1000 Ang^3
#
#
#
# Elastic Constant Matrix: (Units=GPa)
#
#
# Indices 1 2 3 4 5 6 
#
# 1 120.4728 -14.5155 13.7855 0.0000 34.2776 0.0000
# 2 -14.5155 70.6733 -4.9964 0.0000 0.1360 0.0000
# 3 13.7855 -4.9964 115.8807 0.0000 31.5740 0.0000
# 4 0.0000 0.0000 0.0000 18.7898 0.0000 9.9705
# 5 34.2776 0.1360 31.5740 0.0000 46.0661 0.0000
# 6 0.0000 0.0000 0.0000 9.9705 0.0000 18.9255
#
#
#
# Elastic Compliance Matrix: (Units=1/GPa)
#
#
# Indices 1 2 3 4 5 6 
#
# 1 0.011024 0.002371 0.001264 0.000000 -0.009076 0.000000
# 2 0.002371 0.014715 0.001039 0.000000 -0.002520 0.000000
# 3 0.001264 0.001039 0.010798 0.000000 -0.008344 0.000000
# 4 0.000000 0.000000 0.000000 0.073871 0.000000 -0.038918
# 5 -0.009076 -0.002520 -0.008344 0.000000 0.034188 0.000000
# 6 0.000000 0.000000 0.000000 -0.038918 0.000000 0.073342
#
#
# Mechanical properties :
#
#
# Convention : Reuss Voigt Hill
#
# Bulk Modulus (GPa) = 21.79406 32.84157 27.31782
# Shear Modulus (GPa) = 22.33290 37.60649 29.96970
#
# Velocity S-wave (km/s) = 3.10984 4.03550 3.60252
# Velocity P-wave (km/s) = 4.72574 5.99462 5.39759
#
# Compressibility (1/GPa) = 0.04588405
#
# Stress axis : x y z
#
# Youngs Moduli (GPa) = 90.71031 67.95832 92.61368
#
# Poissons Ratio (x) = -0.16113 -0.11704
# Poissons Ratio (y) = -0.21508 -0.09622
# Poissons Ratio (z) = -0.11464 -0.07061
#
# Static dielectric constant tensor:
#      x y z
#    x 2.096750 0.000000 -0.165870 
#    y 0.000000 2.049300 0.000000 
#    z -0.165870 0.000000 1.944700 
# 
# From -- ./inp_files/7530.got.cif
#   From: 2010.05.17/outbox.cif.g08.bks.cpg/sg9_4_cif.got.tgz:7530.got - 2010.06.03 20:04:27.
