data_PCOD9140834
_publ_section_title
;
Structure prediction by ZEFSAII (Michael W. Deem and Ramdas Pophale) SiO2 
 PCOD9140834
Probable space group: C C
;
_chemical_formula_sum "Si O2"
_cell_formula_units_Z 32
_cell_length_a 13.827394
_cell_length_b 5.111161
_cell_length_c 17.069257
_cell_angle_alpha 90.000000
_cell_angle_beta 89.236760
_cell_angle_gamma 90.000000
_cell_volume 1206.246267
_symmetry_space_group_name_H-M "C C"
_symmetry_group_IT_number 9
_symmetry_cell_setting 'monoclinic'
loop_
_space_group_symop_operation_xyz
x,y,z
x,-y,1/2+z
1/2+x,1/2+y,z
1/2+x,1/2-y,1/2+z
loop_
_atom_site_type_symbol
_atom_site_label
_atom_site_fract_x
_atom_site_fract_y
_atom_site_fract_z
Si Si1 0.166270 0.062068 0.009210
Si Si2 0.722700 0.237632 0.228980
Si Si3 0.500057 0.895133 0.710344
Si Si4 0.711414 0.389026 0.854047
Si Si5 0.010340 0.334903 0.373871
Si Si6 0.776653 0.059326 0.062571
Si Si7 0.972120 0.739258 0.039918
Si Si8 0.879778 0.070732 0.817771
O O1 0.198572 0.322350 0.053732
O O2 0.240407 0.815855 0.017064
O O3 0.176890 0.109867 0.915880
O O4 0.065255 0.935154 0.037975
O O5 0.614535 0.142005 0.214986
O O6 0.707650 0.528133 0.262618
O O7 0.778367 0.178248 0.149372
O O8 0.790444 0.111806 0.294399
O O9 0.474290 0.932384 0.619750
O O10 0.436816 0.646859 0.738420
O O11 0.478207 0.068469 0.787973
O O12 0.625552 0.184109 0.868828
O O13 0.821220 0.300232 0.861217
O O14 0.982566 0.433026 0.460590
O O15 0.959407 0.050759 0.373177
O O16 0.875695 0.914389 0.040276
#
# Coordination Sequence:
#
# PCOD9140834 Si02
#       8
#     4   4   4   4   4   4   4   4
#     4  11  29  51  79 115 165 207 265 339 397 478
#     4  12  26  47  77 110 155 204 269 325 404 476
#     4  12  25  49  77 114 157 210 266 335 404 481
#     4  11  26  48  78 111 153 209 264 329 407 475
#     4  11  26  49  79 114 158 209 271 334 404 479
#     4  12  28  51  80 117 159 213 266 328 407 479
#     4  11  27  53  76 119 164 211 273 339 401 487
#     4  12  25  46  76 108 151 207 262 331 402 477
#
# _framework density 26.528578
#
# number of rings (size 3 to 8) (size 9 to 14) (size 15 to 20)
#    0.000    0.500    5.000    1.500    7.000    3.000 
#    2.250    0.000    0.000    0.000    0.000    0.000 
#    0.000    0.000    0.000    0.000    0.000    0.000 
#
# Total GULP energy -89402.330945 kJ/mol
# GULP energy per Si atom -5587.645684 kJ/mol
# Density = 2.646820 g / cm^3
# Si number density = 26.528578 Si / 1000 Ang^3
#
#
#
# Elastic Constant Matrix: (Units=GPa)
#
#
# Indices 1 2 3 4 5 6 
#
# 1 148.9850 29.2932 41.3763 0.0000 -20.1082 0.0000
# 2 29.2932 75.7159 48.5661 0.0000 4.6398 0.0000
# 3 41.3763 48.5661 172.1940 0.0000 -10.6350 0.0000
# 4 0.0000 0.0000 0.0000 31.3859 0.0000 3.0608
# 5 -20.1082 4.6398 -10.6350 0.0000 33.2978 0.0000
# 6 0.0000 0.0000 0.0000 3.0608 0.0000 27.3855
#
#
#
# Elastic Compliance Matrix: (Units=1/GPa)
#
#
# Indices 1 2 3 4 5 6 
#
# 1 0.008213 -0.002963 -0.000822 0.000000 0.005110 0.000000
# 2 -0.002963 0.017672 -0.004626 0.000000 -0.005729 0.000000
# 3 -0.000822 -0.004626 0.007466 0.000000 0.002533 0.000000
# 4 0.000000 0.000000 0.000000 0.032213 0.000000 -0.003600
# 5 0.005110 -0.005729 0.002533 0.000000 0.034725 0.000000
# 6 0.000000 0.000000 0.000000 -0.003600 0.000000 0.036918
#
#
# Mechanical properties :
#
#
# Convention : Reuss Voigt Hill
#
# Bulk Modulus (GPa) = 60.50288 70.59623 65.54955
# Shear Modulus (GPa) = 31.34036 36.92448 34.13242
#
# Velocity S-wave (km/s) = 3.44085 3.73483 3.59085
# Velocity P-wave (km/s) = 6.21628 6.72813 6.47726
#
# Compressibility (1/GPa) = 0.01652814
#
# Stress axis : x y z
#
# Youngs Moduli (GPa) = 121.76297 56.58643 133.93816
#
# Poissons Ratio (x) = 0.16768 0.11011
# Poissons Ratio (y) = 0.36081 0.61961
# Poissons Ratio (z) = 0.10010 0.26178
#
# Static dielectric constant tensor:
#      x y z
#    x 1.979040 0.000000 0.048960 
#    y 0.000000 2.294410 0.000000 
#    z 0.048960 0.000000 2.184630 
# 
# From -- ./inp_files/30403.got.cif
#   From: 2010.05.17/outbox.cif.g08.bks.cpg/sg9_16_cif.got.tgz:30403.got - 2010.06.03 20:04:27.
