data_PCOD9140418
_publ_section_title
;
Structure prediction by ZEFSAII (Michael W. Deem and Ramdas Pophale) SiO2 
 PCOD9140418
Probable space group: C C
;
_chemical_formula_sum "Si O2"
_cell_formula_units_Z 32
_cell_length_a 10.807175
_cell_length_b 8.887944
_cell_length_c 21.807836
_cell_angle_alpha 90.000000
_cell_angle_beta 142.550496
_cell_angle_gamma 90.000000
_cell_volume 1273.719873
_symmetry_space_group_name_H-M "C C"
_symmetry_group_IT_number 9
_symmetry_cell_setting 'monoclinic'
loop_
_space_group_symop_operation_xyz
x,y,z
x,-y,1/2+z
1/2+x,1/2+y,z
1/2+x,1/2-y,1/2+z
loop_
_atom_site_type_symbol
_atom_site_label
_atom_site_fract_x
_atom_site_fract_y
_atom_site_fract_z
Si Si1 0.834770 0.059753 0.337460
Si Si2 0.032263 0.162042 0.815678
Si Si3 0.784217 0.262320 0.603971
Si Si4 0.262177 0.898157 0.060101
Si Si5 0.230774 0.571862 0.477592
Si Si6 0.847665 0.232250 0.971816
Si Si7 0.814670 0.596849 0.817937
Si Si8 0.975674 0.630043 0.758689
O O1 0.772575 0.224772 0.291270
O O2 0.022126 0.101971 0.455528
O O3 0.923006 0.947696 0.320956
O O4 0.648165 0.978547 0.297357
O O5 0.866752 0.232992 0.704135
O O6 0.152218 0.290958 0.902571
O O7 0.177147 0.072707 0.824251
O O8 0.823100 0.429735 0.596001
O O9 0.856360 0.141655 0.582858
O O10 0.540081 0.239853 0.505596
O O11 0.342784 0.808680 0.150743
O O12 0.355446 0.835333 0.034506
O O13 0.361915 0.441665 0.497849
O O14 0.036530 0.470565 0.423182
O O15 0.626703 0.244433 0.853228
O O16 0.831350 0.549805 0.752272
#
# Coordination Sequence:
#
# PCOD9140418 Si02
#       8
#     4   4   4   4   4   4   4   4
#     4  12  24  50  75 101 153 192 241 314 365 436
#     4  12  28  48  74 109 147 193 250 308 366 442
#     4  12  26  44  72 107 141 193 242 300 375 431
#     4  12  24  45  78 102 144 204 236 301 377 430
#     4  11  25  42  68 103 144 190 240 302 358 439
#     4  11  24  45  69 103 145 186 244 302 360 435
#     4  11  25  47  72 104 148 187 239 309 367 430
#     4  11  24  47  74 107 146 193 246 300 368 437
#
# _framework density 25.123263999999999
#
# number of rings (size 3 to 8) (size 9 to 14) (size 15 to 20)
#    0.000    0.500    5.000    4.500    1.750    4.000 
#    0.000    0.000    0.000    0.000    0.000    0.000 
#    0.000    0.000    0.000    0.000    0.000    0.000 
#
# Total GULP energy -89393.295295 kJ/mol
# GULP energy per Si atom -5587.080956 kJ/mol
# Density = 2.506608 g / cm^3
# Si number density = 25.123264 Si / 1000 Ang^3
#
#
#
# Elastic Constant Matrix: (Units=GPa)
#
#
# Indices 1 2 3 4 5 6 
#
# 1 168.5596 53.4257 23.5524 0.0000 -6.4767 0.0000
# 2 53.4257 95.5406 23.9820 0.0000 -15.5049 0.0000
# 3 23.5524 23.9820 127.9658 0.0000 -27.5796 0.0000
# 4 0.0000 0.0000 0.0000 30.1041 0.0000 2.2481
# 5 -6.4767 -15.5049 -27.5796 0.0000 36.0851 0.0000
# 6 0.0000 0.0000 0.0000 2.2481 0.0000 40.2459
#
#
#
# Elastic Compliance Matrix: (Units=1/GPa)
#
#
# Indices 1 2 3 4 5 6 
#
# 1 0.007286 -0.004041 -0.000809 0.000000 -0.001047 0.000000
# 2 -0.004041 0.013670 -0.000848 0.000000 0.004500 0.000000
# 3 -0.000809 -0.000848 0.009593 0.000000 0.006822 0.000000
# 4 0.000000 0.000000 0.000000 0.033357 0.000000 -0.001863
# 5 -0.001047 0.004500 0.006822 0.000000 0.034672 0.000000
# 6 0.000000 0.000000 0.000000 -0.001863 0.000000 0.024951
#
#
# Mechanical properties :
#
#
# Convention : Reuss Voigt Hill
#
# Bulk Modulus (GPa) = 52.21599 65.99846 59.10722
# Shear Modulus (GPa) = 35.38297 40.69409 38.03853
#
# Velocity S-wave (km/s) = 3.75690 4.02901 3.89533
# Velocity P-wave (km/s) = 6.29668 6.92610 6.61887
#
# Compressibility (1/GPa) = 0.01915122
#
# Stress axis : x y z
#
# Youngs Moduli (GPa) = 137.24236 73.15390 104.24463
#
# Poissons Ratio (x) = 0.29564 0.08438
# Poissons Ratio (y) = 0.55464 0.08842
# Poissons Ratio (z) = 0.11109 0.06205
#
# Static dielectric constant tensor:
#      x y z
#    x 2.053360 0.000000 -0.032450 
#    y 0.000000 1.984020 0.000000 
#    z -0.032450 0.000000 2.064010 
# 
# From -- ./inp_files/35319.got.cif
#   From: 2010.05.17/outbox.cif.g08.bks.cpg/sg9_18_cif.got.tgz:35319.got - 2010.06.03 20:04:27.
