data_PCOD9140643
_publ_section_title
;
Structure prediction by ZEFSAII (Michael W. Deem and Ramdas Pophale) SiO2 
 PCOD9140643
Probable space group: C C
;
_chemical_formula_sum "Si O2"
_cell_formula_units_Z 32
_cell_length_a 14.462161
_cell_length_b 9.253141
_cell_length_c 20.616607
_cell_angle_alpha 90.000000
_cell_angle_beta 29.657685
_cell_angle_gamma 90.000000
_cell_volume 1365.162003
_symmetry_space_group_name_H-M "C C"
_symmetry_group_IT_number 9
_symmetry_cell_setting 'monoclinic'
loop_
_space_group_symop_operation_xyz
x,y,z
x,-y,1/2+z
1/2+x,1/2+y,z
1/2+x,1/2-y,1/2+z
loop_
_atom_site_type_symbol
_atom_site_label
_atom_site_fract_x
_atom_site_fract_y
_atom_site_fract_z
Si Si1 0.272970 0.992957 0.042590
Si Si2 0.486457 0.255935 0.850203
Si Si3 0.347319 0.459991 0.841579
Si Si4 0.184035 0.242029 0.488646
Si Si5 0.703927 0.999111 0.165978
Si Si6 0.107651 0.028218 0.858923
Si Si7 0.620175 0.860354 0.854989
Si Si8 0.405385 0.881316 0.744644
O O1 0.265463 0.884492 0.984949
O O2 0.412958 0.908899 0.004447
O O3 0.065258 0.012511 0.194019
O O4 0.377693 0.142141 0.961781
O O5 0.330488 0.324710 0.899277
O O6 0.628358 0.163834 0.719619
O O7 0.587370 0.391829 0.822790
O O8 0.274325 0.598406 0.926551
O O9 0.251238 0.414918 0.833032
O O10 0.228379 0.186135 0.390063
O O11 0.984095 0.273744 0.642128
O O12 0.678381 0.060196 0.253613
O O13 0.572022 0.081003 0.193273
O O14 0.918527 0.010549 0.015908
O O15 0.105103 0.195058 0.841543
O O16 0.309639 0.016772 0.769934
#
# Coordination Sequence:
#
# PCOD9140643 Si02
#       8
#     4   4   4   4   4   4   4   4
#     4  11  25  49  72 106 153 193 256 320 381 453
#     4  11  25  45  70 111 149 201 252 316 378 461
#     4  12  27  46  77 108 153 199 257 317 386 458
#     4  12  26  46  80 109 151 206 256 310 392 448
#     4  11  26  48  73 108 155 198 259 312 391 451
#     4  12  29  46  77 107 153 201 257 318 385 463
#     4  11  27  46  73 112 148 202 259 314 385 462
#     4  12  27  48  80 109 156 200 260 315 386 458
#
# _framework density 23.440441
#
# number of rings (size 3 to 8) (size 9 to 14) (size 15 to 20)
#    0.000    0.500    3.750    3.750    7.000    3.000 
#    0.000    0.000    0.000    0.000    0.000    0.000 
#    0.000    0.000    0.000    0.000    0.000    0.000 
#
# Total GULP energy -89358.325368 kJ/mol
# GULP energy per Si atom -5584.895336 kJ/mol
# Density = 2.338709 g / cm^3
# Si number density = 23.440441 Si / 1000 Ang^3
#
#
#
# Elastic Constant Matrix: (Units=GPa)
#
#
# Indices 1 2 3 4 5 6 
#
# 1 86.5798 30.3150 35.1519 -0.0001 -11.4133 0.0000
# 2 30.3150 131.5265 3.5929 -0.0002 9.3617 0.0000
# 3 35.1519 3.5929 62.5749 -0.0006 4.6685 0.0000
# 4 -0.0001 -0.0002 -0.0006 27.9423 0.0001 -4.7172
# 5 -11.4133 9.3617 4.6685 0.0001 29.1198 0.0000
# 6 0.0000 0.0000 0.0000 -4.7172 0.0000 32.2718
#
#
#
# Elastic Compliance Matrix: (Units=1/GPa)
#
#
# Indices 1 2 3 4 5 6 
#
# 1 0.019363 -0.004935 -0.011415 0.000000 0.011006 0.000000
# 2 -0.004935 0.009043 0.002646 0.000000 -0.005265 0.000000
# 3 -0.011415 0.002646 0.022913 0.000000 -0.008998 0.000000
# 4 0.000000 0.000000 0.000000 0.036693 0.000000 0.005364
# 5 0.011006 -0.005265 -0.008998 0.000000 0.041790 0.000000
# 6 0.000000 0.000000 0.000000 0.005364 0.000000 0.031771
#
#
# Mechanical properties :
#
#
# Convention : Reuss Voigt Hill
#
# Bulk Modulus (GPa) = 41.82225 46.53344 44.17784
# Shear Modulus (GPa) = 25.38692 31.97487 28.68090
#
# Velocity S-wave (km/s) = 3.29453 3.69737 3.50174
# Velocity P-wave (km/s) = 5.68793 6.17432 5.93611
#
# Compressibility (1/GPa) = 0.02391072
#
# Stress axis : x y z
#
# Youngs Moduli (GPa) = 51.64408 110.58429 43.64364
#
# Poissons Ratio (x) = 0.54568 0.49820
# Poissons Ratio (y) = 0.25484 -0.11546
# Poissons Ratio (z) = 0.58953 -0.29256
#
# Static dielectric constant tensor:
#      x y z
#    x 1.919160 0.000000 0.010440 
#    y 0.000000 1.991080 0.000000 
#    z 0.010440 0.000000 1.907810 
# 
# From -- ./inp_files/33706.got.cif
#   From: 2010.05.17/outbox.cif.g08.bks.cpg/sg9_17_cif.got.tgz:33706.got - 2010.06.03 20:04:27.
