data_PCOD9140321
_publ_section_title
;
Structure prediction by ZEFSAII (Michael W. Deem and Ramdas Pophale) SiO2 
 PCOD9140321
Probable space group: C C
;
_chemical_formula_sum "Si O2"
_cell_formula_units_Z 32
_cell_length_a 12.240643
_cell_length_b 15.596704
_cell_length_c 9.449554
_cell_angle_alpha 90.000000
_cell_angle_beta 53.729412
_cell_angle_gamma 90.000000
_cell_volume 1454.482320
_symmetry_space_group_name_H-M "C C"
_symmetry_group_IT_number 9
_symmetry_cell_setting 'monoclinic'
loop_
_space_group_symop_operation_xyz
x,y,z
x,-y,1/2+z
1/2+x,1/2+y,z
1/2+x,1/2-y,1/2+z
loop_
_atom_site_type_symbol
_atom_site_label
_atom_site_fract_x
_atom_site_fract_y
_atom_site_fract_z
Si Si1 0.997180 0.696373 0.403630
Si Si2 0.733048 0.333643 0.270296
Si Si3 0.164682 0.667473 0.720543
Si Si4 0.054499 0.979322 0.296394
Si Si5 0.956016 0.371613 0.625627
Si Si6 0.711254 0.644855 0.103392
Si Si7 0.875170 0.944335 0.182752
Si Si8 0.609548 0.043405 0.501249
O O1 0.855189 0.708983 0.591951
O O2 0.103294 0.771143 0.358097
O O3 0.968348 0.681144 0.260495
O O4 0.057672 0.608381 0.421711
O O5 0.683192 0.423365 0.243097
O O6 0.777303 0.352332 0.397441
O O7 0.150899 0.761043 0.667686
O O8 0.314047 0.642077 0.662233
O O9 0.135036 0.597290 0.623351
O O10 0.064083 0.661439 0.928640
O O11 0.971917 0.928215 0.241011
O O12 0.103122 0.068927 0.192399
O O13 0.957915 0.002573 0.501936
O O14 0.000751 0.469725 0.616915
O O15 0.812925 0.368286 0.656125
O O16 0.747086 0.998503 0.339875
#
# Coordination Sequence:
#
# PCOD9140321 Si02
#       8
#     4   4   4   4   4   4   4   4
#     4  12  29  47  77 111 152 193 252 313 383 444
#     4  12  30  50  76 108 154 200 249 313 383 455
#     4  11  25  45  76 108 146 195 248 310 361 453
#     4  12  27  46  74 108 155 194 249 310 381 445
#     4  11  27  44  75 107 146 188 249 305 374 438
#     4  12  28  48  74 106 146 197 249 303 379 442
#     4  11  25  43  76 110 149 194 250 307 375 444
#     4  11  23  49  76 108 150 199 246 303 380 453
#
# _framework density 22.000954
#
# number of rings (size 3 to 8) (size 9 to 14) (size 15 to 20)
#    0.000    0.500    3.750    3.000   10.500    2.000 
#    0.000    0.000    0.000    0.000    0.000    0.000 
#    0.000    0.000    0.000    0.000    0.000    0.000 
#
# Total GULP energy -89600.703986 kJ/mol
# GULP energy per Si atom -5600.043999 kJ/mol
# Density = 2.195088 g / cm^3
# Si number density = 22.000954 Si / 1000 Ang^3
#
#
#
# Elastic Constant Matrix: (Units=GPa)
#
#
# Indices 1 2 3 4 5 6 
#
# 1 74.5182 1.4160 26.0522 0.0000 16.7303 0.0000
# 2 1.4160 89.4789 15.4360 0.0000 -0.5965 0.0000
# 3 26.0522 15.4360 119.5855 0.0000 8.5049 0.0000
# 4 0.0000 0.0000 0.0000 19.7592 0.0000 4.4258
# 5 16.7303 -0.5965 8.5049 0.0000 42.7138 0.0000
# 6 0.0000 0.0000 0.0000 4.4258 0.0000 29.6926
#
#
#
# Elastic Compliance Matrix: (Units=1/GPa)
#
#
# Indices 1 2 3 4 5 6 
#
# 1 0.015732 0.000243 -0.003064 0.000000 -0.005548 0.000000
# 2 0.000243 0.011443 -0.001557 0.000000 0.000375 0.000000
# 3 -0.003064 -0.001557 0.009278 0.000000 -0.000669 0.000000
# 4 0.000000 0.000000 0.000000 0.052357 0.000000 -0.007804
# 5 -0.005548 0.000375 -0.000669 0.000000 0.025723 0.000000
# 6 0.000000 0.000000 0.000000 -0.007804 0.000000 0.034842
#
#
# Mechanical properties :
#
#
# Convention : Reuss Voigt Hill
#
# Bulk Modulus (GPa) = 36.10467 41.04343 38.57405
# Shear Modulus (GPa) = 29.87510 34.47835 32.17673
#
# Velocity S-wave (km/s) = 3.68897 3.96299 3.82843
# Velocity P-wave (km/s) = 5.88139 6.29573 6.09208
#
# Compressibility (1/GPa) = 0.02769725
#
# Stress axis : x y z
#
# Youngs Moduli (GPa) = 63.56547 87.38963 107.77935
#
# Poissons Ratio (x) = -0.02120 0.33023
# Poissons Ratio (y) = -0.01542 0.16777
# Poissons Ratio (z) = 0.19476 0.13603
#
# Static dielectric constant tensor:
#      x y z
#    x 1.812710 0.000000 -0.009260 
#    y 0.000000 1.787920 0.000000 
#    z -0.009260 0.000000 1.778310 
# 
# From -- ./inp_files/7547.got.cif
#   From: 2010.05.17/outbox.cif.g08.bks.cpg/sg9_4_cif.got.tgz:7547.got - 2010.06.03 20:04:27.
