data_PCOD9140763
_publ_section_title
;
Structure prediction by ZEFSAII (Michael W. Deem and Ramdas Pophale) SiO2 
 PCOD9140763
Probable space group: C C
;
_chemical_formula_sum "Si O2"
_cell_formula_units_Z 24
_cell_length_a 14.688597
_cell_length_b 7.686382
_cell_length_c 18.853904
_cell_angle_alpha 90.000000
_cell_angle_beta 156.500904
_cell_angle_gamma 90.000000
_cell_volume 848.765062
_symmetry_space_group_name_H-M "C C"
_symmetry_group_IT_number 9
_symmetry_cell_setting 'monoclinic'
loop_
_space_group_symop_operation_xyz
x,y,z
x,-y,1/2+z
1/2+x,1/2+y,z
1/2+x,1/2-y,1/2+z
loop_
_atom_site_type_symbol
_atom_site_label
_atom_site_fract_x
_atom_site_fract_y
_atom_site_fract_z
Si Si1 0.214900 0.914910 0.931640
Si Si2 0.778864 0.823885 0.711909
Si Si3 0.150458 0.056641 0.091209
Si Si4 0.052171 0.398030 0.966494
Si Si5 0.193910 0.415206 0.799063
Si Si6 0.852086 0.025927 0.054603
O O1 0.083781 0.979074 0.766845
O O2 0.014578 0.899004 0.848204
O O3 0.433357 0.025752 0.111592
O O4 0.308471 0.718249 0.992631
O O5 0.606586 0.982083 0.572250
O O6 0.744751 0.782807 0.770770
O O7 0.722278 0.643742 0.631522
O O8 0.287527 0.113012 0.259060
O O9 0.187078 0.216584 0.065092
O O10 0.786221 0.890571 0.945018
O O11 0.159303 0.499257 0.976613
O O12 0.379062 0.559105 0.906276
#
# Coordination Sequence:
#
# PCOD9140763 Si02
#       6
#     4   4   4   4   4   4
#     4  11  25  49  85 128 174 234 291 359 442 519
#     4  11  27  55  89 124 176 239 294 361 448 528
#     4  12  27  50  83 129 173 226 295 362 433 530
#     4  11  27  49  84 123 171 234 300 356 439 525
#     4  12  29  48  91 127 174 235 295 363 445 525
#     4  11  25  49  84 123 174 230 291 361 435 525
#
# _framework density 28.276375999999999
#
# number of rings (size 3 to 8) (size 9 to 14) (size 15 to 20)
#    0.000    0.667    3.333    2.000   11.667    0.000 
#    3.000    0.000    0.000    0.000    0.000    0.000 
#    0.000    0.000    0.000    0.000    0.000    0.000 
#
# Total GULP energy -67142.946915 kJ/mol
# GULP energy per Si atom -5595.245576 kJ/mol
# Density = 2.821202 g / cm^3
# Si number density = 28.276376 Si / 1000 Ang^3
#
#
#
# Elastic Constant Matrix: (Units=GPa)
#
#
# Indices 1 2 3 4 5 6 
#
# 1 129.2406 22.5866 64.7207 -0.0014 -23.2025 0.0010
# 2 22.5866 136.4025 72.5594 0.0078 -12.1538 -0.0003
# 3 64.7207 72.5594 267.2128 0.0210 -12.7072 0.0006
# 4 -0.0014 0.0078 0.0210 49.1828 0.0014 -4.7240
# 5 -23.2025 -12.1538 -12.7072 0.0014 54.6917 -0.0006
# 6 0.0010 -0.0003 0.0006 -4.7240 -0.0006 30.6134
#
#
#
# Elastic Compliance Matrix: (Units=1/GPa)
#
#
# Indices 1 2 3 4 5 6 
#
# 1 0.009430 -0.000145 -0.002079 0.000001 0.003485 0.000000
# 2 -0.000145 0.008675 -0.002257 0.000000 0.001342 0.000000
# 3 -0.002079 -0.002257 0.004846 -0.000002 -0.000257 0.000000
# 4 0.000001 0.000000 -0.000002 0.020638 -0.000001 0.003185
# 5 0.003485 0.001342 -0.000257 -0.000001 0.020001 0.000000
# 6 0.000000 0.000000 0.000000 0.003185 0.000000 0.033157
#
#
# Mechanical properties :
#
#
# Convention : Reuss Voigt Hill
#
# Bulk Modulus (GPa) = 71.47928 94.73214 83.10571
# Shear Modulus (GPa) = 45.30127 51.76353 48.53240
#
# Velocity S-wave (km/s) = 4.00695 4.28323 4.14739
# Velocity P-wave (km/s) = 6.83676 7.61816 7.23801
#
# Compressibility (1/GPa) = 0.01399007
#
# Stress axis : x y z
#
# Youngs Moduli (GPa) = 106.04954 115.26947 206.33914
#
# Poissons Ratio (x) = 0.01672 0.42893
# Poissons Ratio (y) = 0.01539 0.46566
# Poissons Ratio (z) = 0.22045 0.26014
#
# Static dielectric constant tensor:
#      x y z
#    x 2.231840 0.000000 -0.035010 
#    y 0.000000 2.146370 0.000000 
#    z -0.035010 0.000000 2.246390 
# 
# From -- ./inp_files/35789.got.cif
#   From: 2010.05.17/outbox.cif.g08.bks.cpg/sg9_18_cif.got.tgz:35789.got - 2010.06.03 20:04:27.
