data_PCOD9140001
_publ_section_title
;
Structure prediction by ZEFSAII (Michael W. Deem and Ramdas Pophale) SiO2 
 PCOD9140001
Probable space group: C C
;
_chemical_formula_sum "Si O2"
_cell_formula_units_Z 20
_cell_length_a 8.647670
_cell_length_b 10.572965
_cell_length_c 8.013154
_cell_angle_alpha 90.000000
_cell_angle_beta 89.156915
_cell_angle_gamma 90.000000
_cell_volume 732.575472
_symmetry_space_group_name_H-M "C C"
_symmetry_group_IT_number 9
_symmetry_cell_setting 'monoclinic'
loop_
_space_group_symop_operation_xyz
x,y,z
x,-y,1/2+z
1/2+x,1/2+y,z
1/2+x,1/2-y,1/2+z
loop_
_atom_site_type_symbol
_atom_site_label
_atom_site_fract_x
_atom_site_fract_y
_atom_site_fract_z
Si Si1 0.655790 0.422800 0.970420
Si Si2 0.930309 0.746976 0.556138
Si Si3 0.939549 0.950712 0.268832
Si Si4 0.604596 0.008282 0.622026
Si Si5 0.403987 0.114407 0.885242
O O1 0.552925 0.433095 0.808089
O O2 0.752591 0.556620 0.973290
O O3 0.789825 0.322481 0.965814
O O4 0.535986 0.387817 0.118951
O O5 0.940876 0.872864 0.443228
O O6 0.880900 0.727861 0.754223
O O7 0.077924 0.650157 0.543769
O O8 0.769867 0.988318 0.208356
O O9 0.463582 0.007886 0.754130
O O10 0.553754 0.893400 0.503553
#
# Coordination Sequence:
#
# PCOD9140001 Si02
#       5
#     4   4   4   4   4
#     4  11  22  44  80 107 154 209 256 328 394 472
#     4   9  23  44  70 109 154 205 255 321 402 478
#     4  12  23  43  78 116 151 198 275 330 386 465
#     4   9  20  40  71 106 145 205 257 315 385 479
#     4   9  18  45  71 100 150 209 245 310 405 460
#
# _framework density 27.300941000000002
#
# number of rings (size 3 to 8) (size 9 to 14) (size 15 to 20)
#    1.200    0.800    2.000    1.200    0.000    1.600 
#    0.000   18.000    0.000    0.000    0.000    0.000 
#    0.000    0.000    0.000    0.000    0.000    0.000 
#
# Total GULP energy -55675.452538 kJ/mol
# GULP energy per Si atom -5567.545254 kJ/mol
# Density = 2.723880 g / cm^3
# Si number density = 27.300941 Si / 1000 Ang^3
#
#
#
# Elastic Constant Matrix: (Units=GPa)
#
#
# Indices 1 2 3 4 5 6 
#
# 1 212.4664 48.9916 57.1269 0.0000 37.5322 0.0000
# 2 48.9916 89.1745 33.7862 0.0000 8.6883 0.0000
# 3 57.1269 33.7862 119.1659 0.0000 2.5117 0.0000
# 4 0.0000 0.0000 0.0000 29.8334 0.0000 7.2257
# 5 37.5322 8.6883 2.5117 0.0000 65.1618 0.0000
# 6 0.0000 0.0000 0.0000 7.2257 0.0000 40.3581
#
#
#
# Elastic Compliance Matrix: (Units=1/GPa)
#
#
# Indices 1 2 3 4 5 6 
#
# 1 0.006469 -0.002332 -0.002370 0.000000 -0.003324 0.000000
# 2 -0.002332 0.013561 -0.002719 0.000000 -0.000360 0.000000
# 3 -0.002370 -0.002719 0.010271 0.000000 0.001332 0.000000
# 4 0.000000 0.000000 0.000000 0.035039 0.000000 -0.006273
# 5 -0.003324 -0.000360 0.001332 0.000000 0.017257 0.000000
# 6 0.000000 0.000000 0.000000 -0.006273 0.000000 0.025901
#
#
# Mechanical properties :
#
#
# Convention : Reuss Voigt Hill
#
# Bulk Modulus (GPa) = 64.69261 77.84623 71.26942
# Shear Modulus (GPa) = 38.91295 45.79748 42.35522
#
# Velocity S-wave (km/s) = 3.77945 4.10018 3.94308
# Velocity P-wave (km/s) = 6.54166 7.14082 6.84779
#
# Compressibility (1/GPa) = 0.01545771
#
# Stress axis : x y z
#
# Youngs Moduli (GPa) = 154.59170 73.74352 97.36580
#
# Poissons Ratio (x) = 0.17198 0.23073
# Poissons Ratio (y) = 0.36053 0.26475
# Poissons Ratio (z) = 0.36634 0.20052
#
# Static dielectric constant tensor:
#      x y z
#    x 2.062690 0.000000 0.019100 
#    y 0.000000 2.193560 0.000000 
#    z 0.019100 0.000000 2.201670 
# 
# From -- ./inp_files/4859.got.cif
#   From: 2010.05.17/outbox.cif.g08.bks.cpg/sg9_3_cif.got.tgz:4859.got - 2010.06.03 20:04:27.
