data_PCOD9140354
_publ_section_title
;
Structure prediction by ZEFSAII (Michael W. Deem and Ramdas Pophale) SiO2 
 PCOD9140354
Probable space group: C C
;
_chemical_formula_sum "Si O2"
_cell_formula_units_Z 28
_cell_length_a 6.516388
_cell_length_b 22.926100
_cell_length_c 7.742707
_cell_angle_alpha 90.000000
_cell_angle_beta 88.505992
_cell_angle_gamma 90.000000
_cell_volume 1156.331302
_symmetry_space_group_name_H-M "C C"
_symmetry_group_IT_number 9
_symmetry_cell_setting 'monoclinic'
loop_
_space_group_symop_operation_xyz
x,y,z
x,-y,1/2+z
1/2+x,1/2+y,z
1/2+x,1/2-y,1/2+z
loop_
_atom_site_type_symbol
_atom_site_label
_atom_site_fract_x
_atom_site_fract_y
_atom_site_fract_z
Si Si1 0.414640 0.207221 0.301870
Si Si2 0.130041 0.944290 0.236215
Si Si3 0.009695 0.399180 0.024990
Si Si4 0.250277 0.777460 0.448736
Si Si5 0.937135 0.130990 0.043373
Si Si6 0.123438 0.679566 0.815296
Si Si7 0.908782 0.060081 0.382560
O O1 0.387495 0.143614 0.391283
O O2 0.641478 0.223951 0.362245
O O3 0.243735 0.258655 0.336658
O O4 0.417732 0.216076 0.095447
O O5 0.006331 0.928052 0.066067
O O6 0.074521 0.905964 0.405137
O O7 0.038662 0.006606 0.297806
O O8 0.361497 0.934355 0.160748
O O9 0.154725 0.356138 0.136984
O O10 0.163235 0.443667 0.923349
O O11 0.380680 0.809544 0.300880
O O12 0.057360 0.808670 0.539391
O O13 0.716565 0.137704 0.959499
O O14 0.927187 0.108100 0.234677
#
# Coordination Sequence:
#
# PCOD9140354 Si02
#       7
#     4   4   4   4   4   4   4
#     4  11  25  43  70 114 153 204 254 309 380 476
#     4  12  26  49  77 109 148 198 264 323 389 462
#     4  12  26  48  77 111 155 206 250 322 392 450
#     4  11  24  42  70 109 153 203 253 306 383 466
#     4  11  24  47  73 108 154 195 250 323 381 458
#     4  11  24  43  73 109 153 201 250 309 385 468
#     4  12  27  50  76 108 148 199 263 324 388 458
#
# _framework density 24.214513
#
# number of rings (size 3 to 8) (size 9 to 14) (size 15 to 20)
#    0.000    0.571    5.714    1.714    2.000    3.429 
#    2.571    0.000    0.000    0.000    0.000    0.000 
#    0.000    0.000    0.000    0.000    0.000    0.000 
#
# Total GULP energy -77957.099263 kJ/mol
# GULP energy per Si atom -5568.364233 kJ/mol
# Density = 2.415940 g / cm^3
# Si number density = 24.214513 Si / 1000 Ang^3
#
#
#
# Elastic Constant Matrix: (Units=GPa)
#
#
# Indices 1 2 3 4 5 6 
#
# 1 111.0194 30.6949 19.6851 0.0000 -22.0000 0.0000
# 2 30.6949 37.3117 -0.7942 0.0000 -2.6416 0.0000
# 3 19.6851 -0.7942 90.5953 0.0000 8.4489 0.0000
# 4 0.0000 0.0000 0.0000 29.7720 0.0000 -6.0940
# 5 -22.0000 -2.6416 8.4489 0.0000 48.3909 0.0000
# 6 0.0000 0.0000 0.0000 -6.0940 0.0000 34.2129
#
#
#
# Elastic Compliance Matrix: (Units=1/GPa)
#
#
# Indices 1 2 3 4 5 6 
#
# 1 0.014033 -0.011169 -0.003746 0.000000 0.006424 0.000000
# 2 -0.011169 0.035796 0.003082 0.000000 -0.003662 0.000000
# 3 -0.003746 0.003082 0.012221 0.000000 -0.003669 0.000000
# 4 0.000000 0.000000 0.000000 0.034860 0.000000 0.006209
# 5 0.006424 -0.003662 -0.003669 0.000000 0.024026 0.000000
# 6 0.000000 0.000000 0.000000 0.006209 0.000000 0.030335
#
#
# Mechanical properties :
#
#
# Convention : Reuss Voigt Hill
#
# Bulk Modulus (GPa) = 26.05264 37.56646 31.80955
# Shear Modulus (GPa) = 26.63382 35.09787 30.86585
#
# Velocity S-wave (km/s) = 3.32009 3.81130 3.57414
# Velocity P-wave (km/s) = 5.04775 5.90895 5.49525
#
# Compressibility (1/GPa) = 0.03838383
#
# Stress axis : x y z
#
# Youngs Moduli (GPa) = 71.26189 27.93611 81.82480
#
# Poissons Ratio (x) = 0.31202 0.30653
# Poissons Ratio (y) = 0.79593 -0.25220
# Poissons Ratio (z) = 0.26696 -0.08610
#
# Static dielectric constant tensor:
#      x y z
#    x 2.043400 0.000000 0.001420 
#    y 0.000000 2.083860 0.000000 
#    z 0.001420 0.000000 2.020410 
# 
# From -- ./inp_files/4157.got.cif
#   From: 2010.05.17/outbox.cif.g08.bks.cpg/sg9_3_cif.got.tgz:4157.got - 2010.06.03 20:04:27.
