data_PCOD9140627
_publ_section_title
;
Structure prediction by ZEFSAII (Michael W. Deem and Ramdas Pophale) SiO2 
 PCOD9140627
Probable space group: C C
;
_chemical_formula_sum "Si O2"
_cell_formula_units_Z 28
_cell_length_a 11.875867
_cell_length_b 14.107168
_cell_length_c 14.646178
_cell_angle_alpha 90.000000
_cell_angle_beta 29.597246
_cell_angle_gamma 90.000000
_cell_volume 1211.904956
_symmetry_space_group_name_H-M "C C"
_symmetry_group_IT_number 9
_symmetry_cell_setting 'monoclinic'
loop_
_space_group_symop_operation_xyz
x,y,z
x,-y,1/2+z
1/2+x,1/2+y,z
1/2+x,1/2-y,1/2+z
loop_
_atom_site_type_symbol
_atom_site_label
_atom_site_fract_x
_atom_site_fract_y
_atom_site_fract_z
Si Si1 0.803100 0.332570 0.842970
Si Si2 0.183923 0.669218 0.336436
Si Si3 0.614006 0.563692 0.307613
Si Si4 0.638295 0.081846 0.562013
Si Si5 0.143621 0.879017 0.411774
Si Si6 0.234279 0.929664 0.076227
Si Si7 0.240352 0.633603 0.962780
O O1 0.743887 0.364085 0.782022
O O2 0.713719 0.226442 0.919063
O O3 0.078623 0.336473 0.660757
O O4 0.711103 0.405967 0.984431
O O5 0.168508 0.649898 0.455010
O O6 0.163262 0.781660 0.341325
O O7 0.969946 0.616828 0.441696
O O8 0.424709 0.631345 0.130044
O O9 0.352994 0.592858 0.476085
O O10 0.612638 0.467846 0.367708
O O11 0.718253 0.533649 0.135247
O O12 0.393701 0.102594 0.778897
O O13 0.653885 0.974711 0.508922
O O14 0.009604 0.879658 0.275625
#
# Coordination Sequence:
#
# PCOD9140627 Si02
#       7
#     4   4   4   4   4   4   4
#     4  12  25  46  72 115 149 196 246 315 376 442
#     4  12  26  44  77 108 144 199 241 305 378 434
#     4  11  27  49  73 108 150 192 252 302 376 448
#     4  11  26  50  67 110 150 190 250 306 362 461
#     4  12  25  46  75 108 147 188 253 304 365 446
#     4  11  26  44  76 111 148 194 247 319 368 438
#     4  11  25  43  76 110 152 189 251 311 373 443
#
# _framework density 23.104122
#
# number of rings (size 3 to 8) (size 9 to 14) (size 15 to 20)
#    0.000    0.571    5.714    0.000   14.000    0.000 
#    2.571    0.000    3.143    0.000    0.000    0.000 
#    0.000    0.000    0.000    0.000    0.000    0.000 
#
# Total GULP energy -78142.796883 kJ/mol
# GULP energy per Si atom -5581.628349 kJ/mol
# Density = 2.305154 g / cm^3
# Si number density = 23.104122 Si / 1000 Ang^3
#
#
#
# Elastic Constant Matrix: (Units=GPa)
#
#
# Indices 1 2 3 4 5 6 
#
# 1 85.1495 9.9474 37.8005 -0.0008 -18.4862 -0.0059
# 2 9.9474 67.8039 35.5231 -0.0320 10.2009 0.0033
# 3 37.8005 35.5231 180.6123 -0.0277 -33.0591 -0.0045
# 4 -0.0008 -0.0320 -0.0277 39.4309 0.0227 3.9031
# 5 -18.4862 10.2009 -33.0591 0.0227 31.8570 0.0006
# 6 -0.0059 0.0033 -0.0045 3.9031 0.0006 26.0987
#
#
#
# Elastic Compliance Matrix: (Units=1/GPa)
#
#
# Indices 1 2 3 4 5 6 
#
# 1 0.014275 -0.002855 -0.000917 -0.000008 0.008246 0.000004
# 2 -0.002855 0.020568 -0.006119 0.000021 -0.014593 -0.000007
# 3 -0.000917 -0.006119 0.008880 -0.000005 0.010643 0.000003
# 4 -0.000008 0.000021 -0.000005 0.025742 -0.000035 -0.003850
# 5 0.008246 -0.014593 0.010643 -0.000035 0.051892 0.000010
# 6 0.000004 -0.000007 0.000003 -0.003850 0.000010 0.038892
#
#
# Mechanical properties :
#
#
# Convention : Reuss Voigt Hill
#
# Bulk Modulus (GPa) = 41.76646 55.56750 48.66698
# Shear Modulus (GPa) = 26.59420 36.16363 31.37892
#
# Velocity S-wave (km/s) = 3.39641 3.96061 3.68931
# Velocity P-wave (km/s) = 5.78770 6.70957 6.26562
#
# Compressibility (1/GPa) = 0.02394266
#
# Stress axis : x y z
#
# Youngs Moduli (GPa) = 70.05367 48.61817 112.61134
#
# Poissons Ratio (x) = 0.13878 0.10324
# Poissons Ratio (y) = 0.19997 0.68907
# Poissons Ratio (z) = 0.06422 0.29750
#
# Static dielectric constant tensor:
#      x y z
#    x 1.892770 -0.000010 -0.016240 
#    y -0.000010 1.895920 0.000010 
#    z -0.016240 0.000010 1.915450 
# 
# From -- ./inp_files/24890.got.cif
#   From: 2010.05.17/outbox.cif.g08.bks.cpg/sg9_13_cif.got.tgz:24890.got - 2010.06.03 20:04:27.
