data_PCOD9140605
_publ_section_title
;
Structure prediction by ZEFSAII (Michael W. Deem and Ramdas Pophale) SiO2 
 PCOD9140605
Probable space group: C C
;
_chemical_formula_sum "Si O2"
_cell_formula_units_Z 28
_cell_length_a 20.753934
_cell_length_b 7.776609
_cell_length_c 9.520630
_cell_angle_alpha 90.000000
_cell_angle_beta 41.825587
_cell_angle_gamma 90.000000
_cell_volume 1024.694754
_symmetry_space_group_name_H-M "C C"
_symmetry_group_IT_number 9
_symmetry_cell_setting 'monoclinic'
loop_
_space_group_symop_operation_xyz
x,y,z
x,-y,1/2+z
1/2+x,1/2+y,z
1/2+x,1/2-y,1/2+z
loop_
_atom_site_type_symbol
_atom_site_label
_atom_site_fract_x
_atom_site_fract_y
_atom_site_fract_z
Si Si1 0.566920 0.378440 0.975070
Si Si2 0.302171 0.825444 0.112245
Si Si3 0.578231 0.983887 0.499484
Si Si4 0.961295 0.036356 0.911406
Si Si5 0.408497 0.836049 0.403690
Si Si6 0.742326 0.732304 0.993144
Si Si7 0.196360 0.622383 0.065619
O O1 0.503082 0.518195 0.998289
O O2 0.665788 0.353152 0.725103
O O3 0.522034 0.185199 0.037022
O O4 0.552522 0.429509 0.160088
O O5 0.221245 0.798112 0.363872
O O6 0.258705 0.777530 0.029209
O O7 0.383853 0.682398 0.007216
O O8 0.347847 0.009892 0.069529
O O9 0.661281 0.891993 0.461650
O O10 0.515380 0.096207 0.705402
O O11 0.608731 0.097248 0.318031
O O12 0.912058 0.851520 0.963213
O O13 0.349882 0.827141 0.352972
O O14 0.746343 0.937479 0.008224
#
# Coordination Sequence:
#
# PCOD9140605 Si02
#       7
#     4   4   4   4   4   4   4
#     4  11  28  51  78 116 157 215 259 328 412 472
#     4  12  27  49  79 116 157 214 255 340 398 465
#     4  11  25  48  78 116 151 213 259 328 392 485
#     4  12  27  52  79 112 166 203 268 328 404 476
#     4  12  27  45  79 117 153 202 277 321 395 478
#     4  11  26  49  76 118 156 206 270 320 404 476
#     4  11  24  50  77 109 166 203 262 321 405 466
#
# _framework density 27.325213000000002
#
# number of rings (size 3 to 8) (size 9 to 14) (size 15 to 20)
#    0.000    0.571    4.286    2.571    6.000    2.286 
#    2.571    0.000    0.000    0.000    0.000    0.000 
#    0.000    0.000    0.000    0.000    0.000    0.000 
#
# Total GULP energy -78368.447649 kJ/mol
# GULP energy per Si atom -5597.746261 kJ/mol
# Density = 2.726302 g / cm^3
# Si number density = 27.325213 Si / 1000 Ang^3
#
#
#
# Elastic Constant Matrix: (Units=GPa)
#
#
# Indices 1 2 3 4 5 6 
#
# 1 56.0463 0.3110 14.4114 0.0000 5.2435 0.0000
# 2 0.3110 131.4553 21.4761 0.0000 -17.7354 0.0000
# 3 14.4114 21.4761 98.7918 0.0000 7.5231 0.0000
# 4 0.0000 0.0000 0.0000 40.7927 0.0000 -6.1739
# 5 5.2435 -17.7354 7.5231 0.0000 36.1151 0.0000
# 6 0.0000 0.0000 0.0000 -6.1739 0.0000 40.9806
#
#
#
# Elastic Compliance Matrix: (Units=1/GPa)
#
#
# Indices 1 2 3 4 5 6 
#
# 1 0.018706 0.000090 -0.002586 0.000000 -0.002133 0.000000
# 2 0.000090 0.008604 -0.002240 0.000000 0.004679 0.000000
# 3 -0.002586 -0.002240 0.011220 0.000000 -0.003062 0.000000
# 4 0.000000 0.000000 0.000000 0.025086 0.000000 0.003779
# 5 -0.002133 0.004679 -0.003062 0.000000 0.030934 0.000000
# 6 0.000000 0.000000 0.000000 0.003779 0.000000 0.024971
#
#
# Mechanical properties :
#
#
# Convention : Reuss Voigt Hill
#
# Bulk Modulus (GPa) = 34.41261 39.85449 37.13355
# Shear Modulus (GPa) = 36.05442 40.25067 38.15255
#
# Velocity S-wave (km/s) = 3.63637 3.84216 3.74068
# Velocity P-wave (km/s) = 5.50018 5.85661 5.68119
#
# Compressibility (1/GPa) = 0.02905912
#
# Stress axis : x y z
#
# Youngs Moduli (GPa) = 53.45760 116.22344 89.12955
#
# Poissons Ratio (x) = -0.01052 0.23050
# Poissons Ratio (y) = -0.00484 0.19964
# Poissons Ratio (z) = 0.13825 0.26033
#
# Static dielectric constant tensor:
#      x y z
#    x 2.129070 0.000000 -0.027050 
#    y 0.000000 2.125750 0.000000 
#    z -0.027050 0.000000 2.141990 
# 
# From -- ./inp_files/11308.got.cif
#   From: 2010.05.17/outbox.cif.g08.bks.cpg/sg9_6_cif.got.tgz:11308.got - 2010.06.03 20:04:27.
