data_PCOD9140789
_publ_section_title
;
Structure prediction by ZEFSAII (Michael W. Deem and Ramdas Pophale) SiO2 
 PCOD9140789
Probable space group: C C
;
_chemical_formula_sum "Si O2"
_cell_formula_units_Z 32
_cell_length_a 12.701879
_cell_length_b 7.011183
_cell_length_c 14.141676
_cell_angle_alpha 90.000000
_cell_angle_beta 90.214487
_cell_angle_gamma 90.000000
_cell_volume 1259.380933
_symmetry_space_group_name_H-M "C C"
_symmetry_group_IT_number 9
_symmetry_cell_setting 'monoclinic'
loop_
_space_group_symop_operation_xyz
x,y,z
x,-y,1/2+z
1/2+x,1/2+y,z
1/2+x,1/2-y,1/2+z
loop_
_atom_site_type_symbol
_atom_site_label
_atom_site_fract_x
_atom_site_fract_y
_atom_site_fract_z
Si Si1 0.379880 0.712839 0.669740
Si Si2 0.404653 0.279649 0.881696
Si Si3 0.434548 0.171203 0.379248
Si Si4 0.069549 0.513767 0.124300
Si Si5 0.904126 0.785195 0.595391
Si Si6 0.107627 0.952334 0.376463
Si Si7 0.734067 0.271671 0.226853
Si Si8 0.720234 0.771717 0.024162
O O1 0.472098 0.839391 0.621082
O O2 0.404255 0.499153 0.634370
O O3 0.381751 0.751404 0.782386
O O4 0.265440 0.760421 0.628274
O O5 0.513837 0.395611 0.880246
O O6 0.326272 0.310948 0.793733
O O7 0.427431 0.054688 0.883342
O O8 0.324690 0.324854 0.966281
O O9 0.640026 0.050204 0.534668
O O10 0.404469 0.256608 0.481977
O O11 0.551747 0.247297 0.366379
O O12 0.006089 0.317932 0.141347
O O13 0.150028 0.611954 0.196394
O O14 0.799421 0.682891 0.633301
O O15 0.182776 0.945075 0.285712
O O16 0.671597 0.414655 0.473184
#
# Coordination Sequence:
#
# PCOD9140789 Si02
#       8
#     4   4   4   4   4   4   4   4
#     4  12  27  54  83 121 178 228 281 356 427 508
#     4  11  27  55  84 125 179 219 286 359 416 507
#     4  12  26  54  83 121 170 217 283 358 413 505
#     4  12  26  52  78 124 178 214 286 350 410 524
#     4  12  27  54  83 121 178 228 281 356 427 508
#     4  11  25  53  83 118 173 220 285 349 431 502
#     4  11  26  51  84 127 166 225 287 337 428 517
#     4  11  26  51  84 127 166 225 287 337 428 517
#
# _framework density 25.409307999999999
#
# number of rings (size 3 to 8) (size 9 to 14) (size 15 to 20)
#    0.000    0.500    3.750    3.000    0.000    1.000 
#    6.750   17.500    0.000    0.000    0.000    0.000 
#    0.000    0.000    0.000    0.000    0.000    0.000 
#
# Total GULP energy -89418.356865 kJ/mol
# GULP energy per Si atom -5588.647304 kJ/mol
# Density = 2.535148 g / cm^3
# Si number density = 25.409308 Si / 1000 Ang^3
#
#
#
# Elastic Constant Matrix: (Units=GPa)
#
#
# Indices 1 2 3 4 5 6 
#
# 1 146.7222 63.0658 61.8280 0.0000 -0.3931 0.0000
# 2 63.0658 151.1608 31.6461 0.0000 -3.9705 0.0000
# 3 61.8280 31.6461 149.8447 0.0000 -4.8361 0.0000
# 4 0.0000 0.0000 0.0000 23.9855 0.0000 -0.5636
# 5 -0.3931 -3.9705 -4.8361 0.0000 53.8273 0.0000
# 6 0.0000 0.0000 0.0000 -0.5636 0.0000 54.3460
#
#
#
# Elastic Compliance Matrix: (Units=1/GPa)
#
#
# Indices 1 2 3 4 5 6 
#
# 1 0.009636 -0.003345 -0.003285 0.000000 -0.000472 0.000000
# 2 -0.003345 0.008090 -0.000311 0.000000 0.000544 0.000000
# 3 -0.003285 -0.000311 0.008117 0.000000 0.000682 0.000000
# 4 0.000000 0.000000 0.000000 0.041702 0.000000 0.000432
# 5 -0.000472 0.000544 0.000682 0.000000 0.018676 0.000000
# 6 0.000000 0.000000 0.000000 0.000432 0.000000 0.018405
#
#
# Mechanical properties :
#
#
# Convention : Reuss Voigt Hill
#
# Bulk Modulus (GPa) = 83.59896 84.53418 84.06657
# Shear Modulus (GPa) = 40.81787 45.84429 43.33108
#
# Velocity S-wave (km/s) = 4.01236 4.25223 4.13404
# Velocity P-wave (km/s) = 7.37819 7.57957 7.47956
#
# Compressibility (1/GPa) = 0.01196187
#
# Stress axis : x y z
#
# Youngs Moduli (GPa) = 103.77336 123.60257 123.20384
#
# Poissons Ratio (x) = 0.41346 0.40471
# Poissons Ratio (y) = 0.34713 0.03830
# Poissons Ratio (z) = 0.34088 0.03842
#
# Static dielectric constant tensor:
#      x y z
#    x 2.014150 0.000000 0.006150 
#    y 0.000000 2.013450 0.000000 
#    z 0.006150 0.000000 2.157110 
# 
# From -- ./inp_files/29833.got.cif
#   From: 2010.05.17/outbox.cif.g08.bks.cpg/sg9_15_cif.got.tgz:29833.got - 2010.06.03 20:04:27.
