data_PCOD9140880
_publ_section_title
;
Structure prediction by ZEFSAII (Michael W. Deem and Ramdas Pophale) SiO2 
 PCOD9140880
Probable space group: C C
;
_chemical_formula_sum "Si O2"
_cell_formula_units_Z 28
_cell_length_a 4.934223
_cell_length_b 13.383011
_cell_length_c 16.988087
_cell_angle_alpha 90.000000
_cell_angle_beta 76.138284
_cell_angle_gamma 90.000000
_cell_volume 1089.133708
_symmetry_space_group_name_H-M "C C"
_symmetry_group_IT_number 9
_symmetry_cell_setting 'monoclinic'
loop_
_space_group_symop_operation_xyz
x,y,z
x,-y,1/2+z
1/2+x,1/2+y,z
1/2+x,1/2-y,1/2+z
loop_
_atom_site_type_symbol
_atom_site_label
_atom_site_fract_x
_atom_site_fract_y
_atom_site_fract_z
Si Si1 0.329270 0.017146 0.922110
Si Si2 0.772775 0.183309 0.296648
Si Si3 0.285599 0.602004 0.001463
Si Si4 0.833159 0.198380 0.742560
Si Si5 0.135069 0.015111 0.766365
Si Si6 0.386348 0.180442 0.479875
Si Si7 0.620508 0.925108 0.115629
O O1 0.526771 0.237916 0.784152
O O2 0.327156 0.001667 0.829644
O O3 0.202584 0.915128 0.967406
O O4 0.111815 0.102096 0.959421
O O5 0.596401 0.184942 0.389931
O O6 0.560807 0.214821 0.241281
O O7 0.935887 0.079930 0.270336
O O8 0.243111 0.531916 0.080043
O O9 0.110985 0.543647 0.947045
O O10 0.216012 0.718680 0.006662
O O11 0.805103 0.142032 0.661430
O O12 0.942945 0.112056 0.792124
O O13 0.338910 0.042840 0.681164
O O14 0.540070 0.144868 0.547929
#
# Coordination Sequence:
#
# PCOD9140880 Si02
#       7
#     4   4   4   4   4   4   4
#     4  11  27  49  81 119 155 211 279 328 406 492
#     4  12  29  50  87 118 161 220 280 328 416 487
#     4  11  28  52  82 113 162 218 259 339 416 486
#     4  12  29  52  80 122 160 215 276 347 398 500
#     4  12  28  51  84 118 166 211 273 348 407 493
#     4  11  28  55  80 119 164 213 275 339 406 498
#     4  11  29  53  82 121 170 210 278 347 419 486
#
# _framework density 25.708506
#
# number of rings (size 3 to 8) (size 9 to 14) (size 15 to 20)
#    0.000    0.571    1.429    3.429   12.000    6.857 
#    0.000    0.000    6.286    0.000    0.000    0.000 
#    0.000    0.000    0.000    0.000    0.000    0.000 
#
# Total GULP energy -78473.034847 kJ/mol
# GULP energy per Si atom -5605.216775 kJ/mol
# Density = 2.564999 g / cm^3
# Si number density = 25.708506 Si / 1000 Ang^3
#
#
#
# Elastic Constant Matrix: (Units=GPa)
#
#
# Indices 1 2 3 4 5 6 
#
# 1 128.3528 26.9110 43.4448 0.0000 10.8770 0.0000
# 2 26.9110 147.4957 31.5252 0.0000 11.0162 0.0000
# 3 43.4448 31.5252 95.7351 0.0000 13.0167 0.0000
# 4 0.0000 0.0000 0.0000 45.1134 0.0000 -2.7134
# 5 10.8770 11.0162 13.0167 0.0000 42.4327 0.0000
# 6 0.0000 0.0000 0.0000 -2.7134 0.0000 51.1603
#
#
#
# Elastic Compliance Matrix: (Units=1/GPa)
#
#
# Indices 1 2 3 4 5 6 
#
# 1 0.009345 -0.000810 -0.003837 0.000000 -0.001008 0.000000
# 2 -0.000810 0.007423 -0.001923 0.000000 -0.001130 0.000000
# 3 -0.003837 -0.001923 0.013168 0.000000 -0.002556 0.000000
# 4 0.000000 0.000000 0.000000 0.022237 0.000000 0.001179
# 5 -0.001008 -0.001130 -0.002556 0.000000 0.024903 0.000000
# 6 0.000000 0.000000 0.000000 0.001179 0.000000 0.019609
#
#
# Mechanical properties :
#
#
# Convention : Reuss Voigt Hill
#
# Bulk Modulus (GPa) = 59.53950 63.92729 61.73339
# Shear Modulus (GPa) = 43.31881 45.72148 44.52015
#
# Velocity S-wave (km/s) = 4.10933 4.22175 4.16592
# Velocity P-wave (km/s) = 6.76204 6.97742 6.87057
#
# Compressibility (1/GPa) = 0.01679557
#
# Stress axis : x y z
#
# Youngs Moduli (GPa) = 107.00926 134.71576 75.94327
#
# Poissons Ratio (x) = 0.10906 0.29140
# Poissons Ratio (y) = 0.08663 0.14607
# Poissons Ratio (z) = 0.41061 0.25911
#
# Static dielectric constant tensor:
#      x y z
#    x 1.960770 0.000000 -0.008860 
#    y 0.000000 2.028180 0.000000 
#    z -0.008860 0.000000 2.031110 
# 
# From -- ./inp_files/32061.got.cif
#   From: 2010.05.17/outbox.cif.g08.bks.cpg/sg9_17_cif.got.tgz:32061.got - 2010.06.03 20:04:27.
