data_PCOD9140522
_publ_section_title
;
Structure prediction by ZEFSAII (Michael W. Deem and Ramdas Pophale) SiO2 
 PCOD9140522
Probable space group: C C
;
_chemical_formula_sum "Si O2"
_cell_formula_units_Z 32
_cell_length_a 5.122406
_cell_length_b 23.286185
_cell_length_c 10.785264
_cell_angle_alpha 90.000000
_cell_angle_beta 70.365336
_cell_angle_gamma 90.000000
_cell_volume 1211.676990
_symmetry_space_group_name_H-M "C C"
_symmetry_group_IT_number 9
_symmetry_cell_setting 'monoclinic'
loop_
_space_group_symop_operation_xyz
x,y,z
x,-y,1/2+z
1/2+x,1/2+y,z
1/2+x,1/2-y,1/2+z
loop_
_atom_site_type_symbol
_atom_site_label
_atom_site_fract_x
_atom_site_fract_y
_atom_site_fract_z
Si Si1 0.072040 0.544068 0.125000
Si Si2 0.614122 0.399100 0.863035
Si Si3 0.325840 0.822464 0.044785
Si Si4 0.339048 0.167650 0.910666
Si Si5 0.688697 0.080676 0.610421
Si Si6 0.574729 0.249510 0.286912
Si Si7 0.891811 0.852439 0.679762
Si Si8 0.361386 0.400593 0.355637
O O1 0.014349 0.477164 0.154820
O O2 0.308471 0.582463 0.157607
O O3 0.804304 0.573380 0.228626
O O4 0.173336 0.556381 0.968703
O O5 0.760450 0.372932 0.958298
O O6 0.454190 0.350085 0.814459
O O7 0.384035 0.437426 0.964372
O O8 0.394887 0.771335 0.934859
O O9 0.547226 0.858180 0.096908
O O10 0.085182 0.796463 0.172377
O O11 0.328310 0.222789 0.825789
O O12 0.651949 0.153784 0.895395
O O13 0.158342 0.117322 0.866257
O O14 0.148290 0.171479 0.061899
O O15 0.858533 0.083706 0.712192
O O16 0.637854 0.190674 0.204337
#
# Coordination Sequence:
#
# PCOD9140522 Si02
#       8
#     4   4   4   4   4   4   4   4
#     4  11  27  48  76 104 151 208 257 329 393 470
#     4  12  25  49  74 108 150 199 262 326 389 474
#     4  12  27  48  71 114 152 198 260 322 396 475
#     4  11  24  47  73 112 152 199 257 319 391 476
#     4  12  28  48  74 111 153 200 266 328 393 472
#     4  12  23  47  73 106 155 199 252 322 394 469
#     4  11  24  47  71 108 147 198 259 313 398 465
#     4  11  26  48  74 113 152 199 269 321 394 467
#
# _framework density 26.409680000000002
#
# number of rings (size 3 to 8) (size 9 to 14) (size 15 to 20)
#    0.000    0.500    6.250    0.750    3.500    4.000 
#    4.500    0.000    0.000    0.000    0.000    0.000 
#    0.000    0.000    0.000    0.000    0.000    0.000 
#
# Total GULP energy -89138.932875 kJ/mol
# GULP energy per Si atom -5571.183305 kJ/mol
# Density = 2.634957 g / cm^3
# Si number density = 26.409680 Si / 1000 Ang^3
#
#
#
# Elastic Constant Matrix: (Units=GPa)
#
#
# Indices 1 2 3 4 5 6 
#
# 1 63.4351 24.2038 30.6649 0.0000 3.0261 0.0000
# 2 24.2038 122.2501 52.1702 0.0000 -4.5517 0.0000
# 3 30.6649 52.1702 177.5677 0.0000 -11.1856 0.0000
# 4 0.0000 0.0000 0.0000 21.0473 0.0000 -5.6795
# 5 3.0261 -4.5517 -11.1856 0.0000 46.4355 0.0000
# 6 0.0000 0.0000 0.0000 -5.6795 0.0000 14.7485
#
#
#
# Elastic Compliance Matrix: (Units=1/GPa)
#
#
# Indices 1 2 3 4 5 6 
#
# 1 0.018050 -0.002589 -0.002484 0.000000 -0.002028 0.000000
# 2 -0.002589 0.009727 -0.002376 0.000000 0.000550 0.000000
# 3 -0.002484 -0.002376 0.006858 0.000000 0.001581 0.000000
# 4 0.000000 0.000000 0.000000 0.053022 0.000000 0.020418
# 5 -0.002028 0.000550 0.001581 0.000000 0.022102 0.000000
# 6 0.000000 0.000000 0.000000 0.020418 0.000000 0.075666
#
#
# Mechanical properties :
#
#
# Convention : Reuss Voigt Hill
#
# Bulk Modulus (GPa) = 50.66766 64.14786 57.40776
# Shear Modulus (GPa) = 24.16597 33.52719 28.84658
#
# Velocity S-wave (km/s) = 3.02825 3.56688 3.30854
# Velocity P-wave (km/s) = 5.60838 6.42695 6.03157
#
# Compressibility (1/GPa) = 0.01973646
#
# Stress axis : x y z
#
# Youngs Moduli (GPa) = 55.40286 102.80655 145.80732
#
# Poissons Ratio (x) = 0.26616 0.36221
# Poissons Ratio (y) = 0.14344 0.34645
# Poissons Ratio (z) = 0.13763 0.24428
#
# Static dielectric constant tensor:
#      x y z
#    x 2.129350 0.000000 -0.043480 
#    y 0.000000 2.230220 0.000000 
#    z -0.043480 0.000000 2.077960 
# 
# From -- ./inp_files/13718.got.cif
#   From: 2010.05.17/outbox.cif.g08.bks.cpg/sg9_7_cif.got.tgz:13718.got - 2010.06.03 20:04:27.
