data_PCOD9140710
_publ_section_title
;
Structure prediction by ZEFSAII (Michael W. Deem and Ramdas Pophale) SiO2 
 PCOD9140710
Probable space group: C C
;
_chemical_formula_sum "Si O2"
_cell_formula_units_Z 32
_cell_length_a 19.821733
_cell_length_b 11.254735
_cell_length_c 8.212401
_cell_angle_alpha 90.000000
_cell_angle_beta 37.035149
_cell_angle_gamma 90.000000
_cell_volume 1103.477290
_symmetry_space_group_name_H-M "C C"
_symmetry_group_IT_number 9
_symmetry_cell_setting 'monoclinic'
loop_
_space_group_symop_operation_xyz
x,y,z
x,-y,1/2+z
1/2+x,1/2+y,z
1/2+x,1/2-y,1/2+z
loop_
_atom_site_type_symbol
_atom_site_label
_atom_site_fract_x
_atom_site_fract_y
_atom_site_fract_z
Si Si1 0.582420 0.806361 0.262640
Si Si2 0.912165 0.507747 0.600324
Si Si3 0.829813 0.704116 0.581291
Si Si4 0.092821 0.323705 0.884199
Si Si5 0.724789 0.210094 0.803182
Si Si6 0.472323 0.403430 0.125054
Si Si7 0.689065 0.510147 0.386483
Si Si8 0.399574 0.350438 0.744145
O O1 0.639095 0.834308 0.978346
O O2 0.647375 0.838218 0.303569
O O3 0.552391 0.667705 0.346519
O O4 0.467274 0.880573 0.474328
O O5 0.918561 0.595021 0.429891
O O6 0.775976 0.507915 0.877449
O O7 0.995544 0.578334 0.556133
O O8 0.723959 0.619859 0.744056
O O9 0.829491 0.765400 0.759377
O O10 0.676536 0.828263 0.570547
O O11 0.022245 0.203600 0.997951
O O12 0.903134 0.986728 0.690941
O O13 0.730049 0.353067 0.776964
O O14 0.846049 0.161891 0.524261
O O15 0.558800 0.462160 0.092037
O O16 0.389148 0.304808 0.359826
#
# Coordination Sequence:
#
# PCOD9140710 Si02
#       8
#     4   4   4   4   4   4   4   4
#     4  11  25  47  83 129 170 231 306 377 458 552
#     4   9  21  45  85 118 171 230 304 376 454 554
#     4   9  23  48  80 121 171 233 302 374 464 551
#     4  11  26  51  85 121 177 236 299 384 460 545
#     4  11  26  54  84 125 177 232 305 379 470 557
#     4  11  25  49  87 127 182 237 309 390 469 561
#     4   9  21  49  86 119 166 236 307 372 457 557
#     4  11  25  51  78 122 184 231 296 386 462 561
#
# _framework density 28.999237999999998
#
# number of rings (size 3 to 8) (size 9 to 14) (size 15 to 20)
#    0.750    1.000    0.000    3.750    5.250    2.000 
#    9.000   10.000    5.500    0.000    0.000    0.000 
#    0.000    0.000    0.000    0.000    0.000    0.000 
#
# Total GULP energy -89320.026161 kJ/mol
# GULP energy per Si atom -5582.501635 kJ/mol
# Density = 2.893323 g / cm^3
# Si number density = 28.999238 Si / 1000 Ang^3
#
#
#
# Elastic Constant Matrix: (Units=GPa)
#
#
# Indices 1 2 3 4 5 6 
#
# 1 178.5977 57.5957 97.1675 0.0000 -12.8830 0.0000
# 2 57.5957 191.4318 51.6225 0.0000 -1.1137 0.0000
# 3 97.1675 51.6225 142.9804 0.0000 25.8902 0.0000
# 4 0.0000 0.0000 0.0000 55.2768 0.0000 -4.6162
# 5 -12.8830 -1.1137 25.8902 0.0000 67.7903 0.0000
# 6 0.0000 0.0000 0.0000 -4.6162 0.0000 53.6497
#
#
#
# Elastic Compliance Matrix: (Units=1/GPa)
#
#
# Indices 1 2 3 4 5 6 
#
# 1 0.010410 -0.001063 -0.007569 0.000000 0.004852 0.000000
# 2 -0.001063 0.005954 -0.001513 0.000000 0.000474 0.000000
# 3 -0.007569 -0.001513 0.013911 0.000000 -0.006776 0.000000
# 4 0.000000 0.000000 0.000000 0.018222 0.000000 0.001568
# 5 0.004852 0.000474 -0.006776 0.000000 0.018269 0.000000
# 6 0.000000 0.000000 0.000000 0.001568 0.000000 0.018774
#
#
# Mechanical properties :
#
#
# Convention : Reuss Voigt Hill
#
# Bulk Modulus (GPa) = 100.15091 102.86459 101.50775
# Shear Modulus (GPa) = 45.80414 55.78496 50.79455
#
# Velocity S-wave (km/s) = 3.97860 4.39072 4.18973
# Velocity P-wave (km/s) = 7.46434 7.82644 7.64753
#
# Compressibility (1/GPa) = 0.00998493
#
# Stress axis : x y z
#
# Youngs Moduli (GPa) = 96.06130 167.94324 71.88304
#
# Poissons Ratio (x) = 0.17846 0.54411
# Poissons Ratio (y) = 0.10208 0.10879
# Poissons Ratio (z) = 0.72712 0.25418
#
# Static dielectric constant tensor:
#      x y z
#    x 2.394590 0.000000 0.026420 
#    y 0.000000 2.188220 0.000000 
#    z 0.026420 0.000000 2.393780 
# 
# From -- ./inp_files/20325.got.cif
#   From: 2010.05.17/outbox.cif.g08.bks.cpg/sg9_11_cif.got.tgz:20325.got - 2010.06.03 20:04:27.
