data_PCOD9140490
_publ_section_title
;
Structure prediction by ZEFSAII (Michael W. Deem and Ramdas Pophale) SiO2 
 PCOD9140490
Probable space group: C C
;
_chemical_formula_sum "Si O2"
_cell_formula_units_Z 28
_cell_length_a 24.275572
_cell_length_b 11.686772
_cell_length_c 10.541255
_cell_angle_alpha 90.000000
_cell_angle_beta 23.104337
_cell_angle_gamma 90.000000
_cell_volume 1173.526287
_symmetry_space_group_name_H-M "C C"
_symmetry_group_IT_number 9
_symmetry_cell_setting 'monoclinic'
loop_
_space_group_symop_operation_xyz
x,y,z
x,-y,1/2+z
1/2+x,1/2+y,z
1/2+x,1/2-y,1/2+z
loop_
_atom_site_type_symbol
_atom_site_label
_atom_site_fract_x
_atom_site_fract_y
_atom_site_fract_z
Si Si1 0.511430 0.447794 0.699960
Si Si2 0.431133 0.819962 0.629877
Si Si3 0.766159 0.498083 0.837767
Si Si4 0.520443 0.998466 0.124778
Si Si5 0.715943 0.831532 0.351117
Si Si6 0.131082 0.152742 0.311430
Si Si7 0.646498 0.765127 0.778847
O O1 0.614312 0.486954 0.595935
O O2 0.514108 0.565000 0.613198
O O3 0.579582 0.354768 0.460636
O O4 0.372668 0.381520 0.040210
O O5 0.559906 0.732434 0.354921
O O6 0.330249 0.873668 0.736191
O O7 0.505330 0.934267 0.525201
O O8 0.311191 0.752739 0.963997
O O9 0.876798 0.533749 0.498076
O O10 0.753505 0.576857 0.989042
O O11 0.562351 0.866899 0.025209
O O12 0.639661 0.059750 0.952142
O O13 0.692460 0.732286 0.294322
O O14 0.642907 0.798731 0.638074
#
# Coordination Sequence:
#
# PCOD9140490 Si02
#       7
#     4   4   4   4   4   4   4
#     4  12  27  44  77 112 148 198 247 317 382 451
#     4  11  24  46  73 107 153 201 244 311 376 450
#     4  12  24  46  77 112 149 199 254 311 377 459
#     4  11  26  46  73 110 149 199 256 307 378 451
#     4  11  28  49  72 109 153 198 250 322 377 457
#     4  11  26  47  76 113 150 196 260 305 388 449
#     4  12  25  46  74 107 152 195 249 311 382 451
#
# _framework density 23.859714
#
# number of rings (size 3 to 8) (size 9 to 14) (size 15 to 20)
#    0.000    0.571    2.857    3.429   10.000    0.000 
#    0.000    0.000    0.000    0.000    0.000    0.000 
#    0.000    0.000    0.000    0.000    0.000    0.000 
#
# Total GULP energy -78125.999234 kJ/mol
# GULP energy per Si atom -5580.428517 kJ/mol
# Density = 2.380541 g / cm^3
# Si number density = 23.859714 Si / 1000 Ang^3
#
#
#
# Elastic Constant Matrix: (Units=GPa)
#
#
# Indices 1 2 3 4 5 6 
#
# 1 111.0774 64.9335 27.4461 0.0000 -12.0397 0.0000
# 2 64.9335 156.9724 16.0305 0.0000 -7.8349 0.0000
# 3 27.4461 16.0305 102.6553 0.0000 1.1403 0.0000
# 4 0.0000 0.0000 0.0000 27.4041 0.0000 -19.5432
# 5 -12.0397 -7.8349 1.1403 0.0000 35.9284 0.0000
# 6 0.0000 0.0000 0.0000 -19.5432 0.0000 33.6214
#
#
#
# Elastic Compliance Matrix: (Units=1/GPa)
#
#
# Indices 1 2 3 4 5 6 
#
# 1 0.012896 -0.004890 -0.002721 0.000000 0.003341 0.000000
# 2 -0.004890 0.008404 -0.000007 0.000000 0.000194 0.000000
# 3 -0.002721 -0.000007 0.010484 0.000000 -0.001246 0.000000
# 4 0.000000 0.000000 0.000000 0.062328 0.000000 0.036230
# 5 0.003341 0.000194 -0.001246 0.000000 0.029035 0.000000
# 6 0.000000 0.000000 0.000000 0.036230 0.000000 0.050802
#
#
# Mechanical properties :
#
#
# Convention : Reuss Voigt Hill
#
# Bulk Modulus (GPa) = 60.43471 65.28058 62.85764
# Shear Modulus (GPa) = 25.68046 36.87711 31.27879
#
# Velocity S-wave (km/s) = 3.28428 3.93565 3.62463
# Velocity P-wave (km/s) = 6.30604 6.93340 6.62715
#
# Compressibility (1/GPa) = 0.01654678
#
# Stress axis : x y z
#
# Youngs Moduli (GPa) = 77.54449 118.99526 95.38448
#
# Poissons Ratio (x) = 0.58186 0.25958
# Poissons Ratio (y) = 0.37918 0.00068
# Poissons Ratio (z) = 0.21103 0.00085
#
# Static dielectric constant tensor:
#      x y z
#    x 1.956030 0.000000 0.012420 
#    y 0.000000 1.944220 0.000000 
#    z 0.012420 0.000000 1.937620 
# 
# From -- ./inp_files/21283.got.cif
#   From: 2010.05.17/outbox.cif.g08.bks.cpg/sg9_11_cif.got.tgz:21283.got - 2010.06.03 20:04:27.
