data_PCOD9140482
_publ_section_title
;
Structure prediction by ZEFSAII (Michael W. Deem and Ramdas Pophale) SiO2 
 PCOD9140482
Probable space group: C C
;
_chemical_formula_sum "Si O2"
_cell_formula_units_Z 16
_cell_length_a 9.168853
_cell_length_b 7.362378
_cell_length_c 9.209065
_cell_angle_alpha 90.000000
_cell_angle_beta 112.546336
_cell_angle_gamma 90.000000
_cell_volume 574.140732
_symmetry_space_group_name_H-M "C C"
_symmetry_group_IT_number 9
_symmetry_cell_setting 'monoclinic'
loop_
_space_group_symop_operation_xyz
x,y,z
x,-y,1/2+z
1/2+x,1/2+y,z
1/2+x,1/2-y,1/2+z
loop_
_atom_site_type_symbol
_atom_site_label
_atom_site_fract_x
_atom_site_fract_y
_atom_site_fract_z
Si Si1 0.203390 0.872655 0.887690
Si Si2 0.337072 0.617217 0.496787
Si Si3 0.530609 0.231162 0.563262
Si Si4 0.145152 0.226205 0.694254
O O1 0.388695 0.869678 0.926828
O O2 0.097148 0.732080 0.754993
O O3 0.199330 0.839845 0.057289
O O4 0.144780 0.068635 0.815615
O O5 0.441126 0.432064 0.532675
O O6 0.271069 0.638122 0.308952
O O7 0.462988 0.770397 0.596137
O O8 0.185110 0.652136 0.539179
#
# Coordination Sequence:
#
# PCOD9140482 Si02
#       4
#     4   4   4   4
#     4  11  25  45  72 112 154 206 261 323 391 466
#     4  11  25  47  75 110 151 200 256 323 390 464
#     4  11  26  48  75 110 152 202 258 322 391 466
#     4  11  24  46  72 106 153 204 259 322 390 466
#
# _framework density 27.867732
#
# number of rings (size 3 to 8) (size 9 to 14) (size 15 to 20)
#    0.000    1.000    0.000    6.000    0.000   14.000 
#    0.000    0.000    0.000    0.000    0.000    0.000 
#    0.000    0.000    0.000    0.000    0.000    0.000 
#
# Total GULP energy -44638.208675 kJ/mol
# GULP energy per Si atom -5579.776084 kJ/mol
# Density = 2.780430 g / cm^3
# Si number density = 27.867732 Si / 1000 Ang^3
#
#
#
# Elastic Constant Matrix: (Units=GPa)
#
#
# Indices 1 2 3 4 5 6 
#
# 1 159.5291 4.7312 62.5997 0.0000 21.8354 0.0000
# 2 4.7312 89.2026 67.3363 0.0000 3.7144 0.0000
# 3 62.5997 67.3363 232.5336 0.0000 16.1536 0.0000
# 4 0.0000 0.0000 0.0000 48.1053 0.0000 12.0896
# 5 21.8354 3.7144 16.1536 0.0000 76.2986 0.0000
# 6 0.0000 0.0000 0.0000 12.0896 0.0000 32.5282
#
#
#
# Elastic Compliance Matrix: (Units=1/GPa)
#
#
# Indices 1 2 3 4 5 6 
#
# 1 0.007346 0.001389 -0.002262 0.000000 -0.001691 0.000000
# 2 0.001389 0.014611 -0.004596 0.000000 -0.000136 0.000000
# 3 -0.002262 -0.004596 0.006272 0.000000 -0.000457 0.000000
# 4 0.000000 0.000000 0.000000 0.022929 0.000000 -0.008522
# 5 -0.001691 -0.000136 -0.000457 0.000000 0.013694 0.000000
# 6 0.000000 0.000000 0.000000 -0.008522 0.000000 0.033910
#
#
# Mechanical properties :
#
#
# Convention : Reuss Voigt Hill
#
# Bulk Modulus (GPa) = 57.83261 83.39996 70.61629
# Shear Modulus (GPa) = 43.30302 54.49295 48.89798
#
# Velocity S-wave (km/s) = 3.94620 4.42680 4.19339
# Velocity P-wave (km/s) = 6.44678 7.49138 6.98862
#
# Compressibility (1/GPa) = 0.01729128
#
# Stress axis : x y z
#
# Youngs Moduli (GPa) = 136.11957 68.43946 159.43950
#
# Poissons Ratio (x) = -0.09503 0.36071
# Poissons Ratio (y) = -0.18901 0.73271
# Poissons Ratio (z) = 0.30795 0.31451
#
# Static dielectric constant tensor:
#      x y z
#    x 2.299410 0.000000 0.010260 
#    y 0.000000 2.499540 0.000000 
#    z 0.010260 0.000000 2.117230 
# 
# From -- ./inp_files/10396.got.cif
#   From: 2010.05.17/outbox.cif.g08.bks.cpg/sg9_6_cif.got.tgz:10396.got - 2010.06.03 20:04:27.
