data_PCOD9140277
_publ_section_title
;
Structure prediction by ZEFSAII (Michael W. Deem and Ramdas Pophale) SiO2 
 PCOD9140277
Probable space group: C C
;
_chemical_formula_sum "Si O2"
_cell_formula_units_Z 20
_cell_length_a 9.320936
_cell_length_b 15.752988
_cell_length_c 7.152309
_cell_angle_alpha 90.000000
_cell_angle_beta 126.426241
_cell_angle_gamma 90.000000
_cell_volume 845.007577
_symmetry_space_group_name_H-M "C C"
_symmetry_group_IT_number 9
_symmetry_cell_setting 'monoclinic'
loop_
_space_group_symop_operation_xyz
x,y,z
x,-y,1/2+z
1/2+x,1/2+y,z
1/2+x,1/2-y,1/2+z
loop_
_atom_site_type_symbol
_atom_site_label
_atom_site_fract_x
_atom_site_fract_y
_atom_site_fract_z
Si Si1 0.057540 0.305360 0.041260
Si Si2 0.971503 0.327661 0.405507
Si Si3 0.304198 0.349123 0.925077
Si Si4 0.632706 0.437098 0.027230
Si Si5 0.173030 0.124665 0.146475
O O1 0.051258 0.309422 0.260591
O O2 0.377133 0.153513 0.327381
O O3 0.222692 0.350173 0.069055
O O4 0.072644 0.206963 0.993445
O O5 0.132386 0.360299 0.657711
O O6 0.891514 0.241456 0.433072
O O7 0.807599 0.392516 0.251005
O O8 0.663054 0.536919 0.030872
O O9 0.455957 0.417428 0.006512
O O10 0.606551 0.395476 0.804083
#
# Coordination Sequence:
#
# PCOD9140277 Si02
#       5
#     4   4   4   4   4
#     4  11  25  47  76 106 147 200 246 297 379 444
#     4  11  23  47  71 109 148 197 241 309 362 448
#     4  12  23  45  79 105 147 200 246 296 379 437
#     4  11  27  48  72 110 155 185 258 316 360 439
#     4  11  26  49  72 108 153 192 245 318 366 438
#
# _framework density 23.668429
#
# number of rings (size 3 to 8) (size 9 to 14) (size 15 to 20)
#    0.000    0.800    4.000    2.400    5.600    0.000 
#    7.200    0.000    0.000    0.000    0.000    0.000 
#    0.000    0.000    0.000    0.000    0.000    0.000 
#
# Total GULP energy -56076.587484 kJ/mol
# GULP energy per Si atom -5607.658748 kJ/mol
# Density = 2.361456 g / cm^3
# Si number density = 23.668429 Si / 1000 Ang^3
#
#
#
# Elastic Constant Matrix: (Units=GPa)
#
#
# Indices 1 2 3 4 5 6 
#
# 1 141.6844 1.8134 26.5251 0.0000 -33.7575 0.0000
# 2 1.8134 66.3145 -18.2726 0.0000 -13.9793 0.0000
# 3 26.5251 -18.2726 67.0500 0.0000 -0.0797 0.0000
# 4 0.0000 0.0000 0.0000 36.3227 0.0000 5.8926
# 5 -33.7575 -13.9793 -0.0797 0.0000 34.2499 0.0000
# 6 0.0000 0.0000 0.0000 5.8926 0.0000 13.4239
#
#
#
# Elastic Compliance Matrix: (Units=1/GPa)
#
#
# Indices 1 2 3 4 5 6 
#
# 1 0.010248 0.000874 -0.003804 0.000000 0.010449 0.000000
# 2 0.000874 0.018057 0.004585 0.000000 0.008242 0.000000
# 3 -0.003804 0.004585 0.017666 0.000000 -0.001837 0.000000
# 4 0.000000 0.000000 0.000000 0.029642 0.000000 -0.013012
# 5 0.010449 0.008242 -0.001837 0.000000 0.042856 0.000000
# 6 0.000000 0.000000 0.000000 -0.013012 0.000000 0.080206
#
#
# Mechanical properties :
#
#
# Convention : Reuss Voigt Hill
#
# Bulk Modulus (GPa) = 20.29132 32.79786 26.54459
# Shear Modulus (GPa) = 23.60816 34.46484 29.03650
#
# Velocity S-wave (km/s) = 3.16168 3.82010 3.50637
# Velocity P-wave (km/s) = 4.68188 5.77450 5.25666
#
# Compressibility (1/GPa) = 0.04928217
#
# Stress axis : x y z
#
# Youngs Moduli (GPa) = 97.57605 55.38157 56.60534
#
# Poissons Ratio (x) = -0.04843 0.21530
# Poissons Ratio (y) = -0.08532 -0.25952
# Poissons Ratio (z) = 0.37114 -0.25391
#
# Static dielectric constant tensor:
#      x y z
#    x 1.870390 0.000000 -0.042230 
#    y 0.000000 1.847130 0.000000 
#    z -0.042230 0.000000 1.930910 
# 
# From -- ./inp_files/558.got.cif
#   From: 2010.05.17/outbox.cif.g08.bks.cpg/sg9_1_cif.got.tgz:558.got - 2010.06.03 20:04:27.
