data_PCOD9140217
_publ_section_title
;
Structure prediction by ZEFSAII (Michael W. Deem and Ramdas Pophale) SiO2 
 PCOD9140217
Probable space group: C C
;
_chemical_formula_sum "Si O2"
_cell_formula_units_Z 32
_cell_length_a 13.799219
_cell_length_b 8.463996
_cell_length_c 24.989301
_cell_angle_alpha 90.000000
_cell_angle_beta 25.025641
_cell_angle_gamma 90.000000
_cell_volume 1234.664262
_symmetry_space_group_name_H-M "C C"
_symmetry_group_IT_number 9
_symmetry_cell_setting 'monoclinic'
loop_
_space_group_symop_operation_xyz
x,y,z
x,-y,1/2+z
1/2+x,1/2+y,z
1/2+x,1/2-y,1/2+z
loop_
_atom_site_type_symbol
_atom_site_label
_atom_site_fract_x
_atom_site_fract_y
_atom_site_fract_z
Si Si1 0.244340 0.597594 0.596370
Si Si2 0.566505 0.279431 0.097709
Si Si3 0.550035 0.061366 0.463950
Si Si4 0.655184 0.243992 0.743692
Si Si5 0.283104 0.474682 0.962882
Si Si6 0.710064 0.271675 0.871547
Si Si7 0.159020 0.728890 0.197783
Si Si8 0.288834 0.565778 0.236212
O O1 0.115915 0.716443 0.700904
O O2 0.183411 0.616082 0.564962
O O3 0.522837 0.593379 0.463517
O O4 0.180453 0.431983 0.654336
O O5 0.427049 0.235334 0.113796
O O6 0.772536 0.155345 0.991239
O O7 0.385775 0.227635 0.234036
O O8 0.534637 0.470595 0.115942
O O9 0.302946 0.140464 0.593804
O O10 0.661400 0.066346 0.467448
O O11 0.547789 0.879698 0.448057
O O12 0.698179 0.123330 0.339002
O O13 0.627457 0.078376 0.790868
O O14 0.529230 0.395074 0.829924
O O15 0.886965 0.244383 0.831536
O O16 0.266398 0.697592 0.202024
#
# Coordination Sequence:
#
# PCOD9140217 Si02
#       8
#     4   4   4   4   4   4   4   4
#     4  11  23  45  75 106 148 192 254 302 374 456
#     4   9  19  40  72 100 139 193 235 305 369 435
#     4  11  26  43  67 109 148 191 249 313 365 444
#     4   9  21  42  69 101 145 201 236 306 377 438
#     4  12  22  40  75 111 139 193 256 306 373 442
#     4  11  23  48  72 105 149 194 243 316 368 433
#     4  11  25  47  74 105 141 206 247 303 377 446
#     4   8  21  49  68  97 153 190 246 301 381 442
#
# _framework density 25.917978999999999
#
# number of rings (size 3 to 8) (size 9 to 14) (size 15 to 20)
#    0.750    1.000    2.500    0.750    0.000    6.000 
#    4.500    3.750    0.000    0.000    0.000    0.000 
#    0.000    0.000    0.000    0.000    0.000    0.000 
#
# Total GULP energy -89135.164505 kJ/mol
# GULP energy per Si atom -5570.947782 kJ/mol
# Density = 2.585899 g / cm^3
# Si number density = 25.917979 Si / 1000 Ang^3
#
#
#
# Elastic Constant Matrix: (Units=GPa)
#
#
# Indices 1 2 3 4 5 6 
#
# 1 127.0516 15.9637 41.9174 -0.0005 46.0444 0.0002
# 2 15.9637 72.3726 72.3506 -0.0016 -3.3746 0.0001
# 3 41.9174 72.3506 111.2793 -0.0083 23.7157 0.0026
# 4 -0.0005 -0.0016 -0.0083 39.9064 0.0002 -11.3154
# 5 46.0444 -3.3746 23.7157 0.0002 58.5795 -0.0006
# 6 0.0002 0.0001 0.0026 -11.3154 -0.0006 22.7037
#
#
#
# Elastic Compliance Matrix: (Units=1/GPa)
#
#
# Indices 1 2 3 4 5 6 
#
# 1 0.011714 -0.001088 -0.001892 0.000000 -0.008504 0.000000
# 2 -0.001088 0.053482 -0.038525 -0.000005 0.019533 0.000002
# 3 -0.001892 -0.038525 0.038199 0.000006 -0.016197 -0.000002
# 4 0.000000 -0.000005 0.000006 0.029183 -0.000002 0.014544
# 5 -0.008504 0.019533 -0.016197 -0.000002 0.031437 0.000001
# 6 0.000000 0.000002 -0.000002 0.014544 0.000001 0.051295
#
#
# Mechanical properties :
#
#
# Convention : Reuss Voigt Hill
#
# Bulk Modulus (GPa) = 49.06196 63.46300 56.26248
# Shear Modulus (GPa) = 16.38727 36.26936 26.32832
#
# Velocity S-wave (km/s) = 2.51723 3.74490 3.19067
# Velocity P-wave (km/s) = 5.23636 6.57558 5.94381
#
# Compressibility (1/GPa) = 0.02038239
#
# Stress axis : x y z
#
# Youngs Moduli (GPa) = 85.36959 18.69803 26.17876
#
# Poissons Ratio (x) = 0.02035 0.04954
# Poissons Ratio (y) = 0.09292 1.00854
# Poissons Ratio (z) = 0.16156 0.72034
#
# Static dielectric constant tensor:
#      x y z
#    x 2.228650 0.000000 -0.007220 
#    y 0.000000 2.124270 0.000000 
#    z -0.007220 0.000000 2.056910 
# 
# From -- ./inp_files/36727.got.cif
#   From: 2010.05.17/outbox.cif.g08.bks.cpg/sg9_19_cif.got.tgz:36727.got - 2010.06.03 20:04:27.
