data_PCOD9140725
_publ_section_title
;
Structure prediction by ZEFSAII (Michael W. Deem and Ramdas Pophale) SiO2 
 PCOD9140725
Probable space group: C C
;
_chemical_formula_sum "Si O2"
_cell_formula_units_Z 32
_cell_length_a 13.726064
_cell_length_b 4.983389
_cell_length_c 17.520240
_cell_angle_alpha 90.000000
_cell_angle_beta 98.544364
_cell_angle_gamma 90.000000
_cell_volume 1185.123822
_symmetry_space_group_name_H-M "C C"
_symmetry_group_IT_number 9
_symmetry_cell_setting 'monoclinic'
loop_
_space_group_symop_operation_xyz
x,y,z
x,-y,1/2+z
1/2+x,1/2+y,z
1/2+x,1/2-y,1/2+z
loop_
_atom_site_type_symbol
_atom_site_label
_atom_site_fract_x
_atom_site_fract_y
_atom_site_fract_z
Si Si1 0.405670 0.611475 0.846200
Si Si2 0.429992 0.910518 0.437479
Si Si3 0.541835 0.108166 0.187476
Si Si4 0.821960 0.635771 0.189843
Si Si5 0.120527 0.725302 0.029623
Si Si6 0.789433 0.103239 0.524307
Si Si7 0.119182 0.834617 0.412346
Si Si8 0.140110 0.094120 0.260240
O O1 0.414959 0.299860 0.866889
O O2 0.347623 0.660979 0.762644
O O3 0.516582 0.731126 0.857780
O O4 0.373952 0.811009 0.912708
O O5 0.546508 0.951913 0.467863
O O6 0.390037 0.729639 0.503547
O O7 0.428586 0.011665 0.182072
O O8 0.582753 0.137033 0.107060
O O9 0.550986 0.412462 0.218277
O O10 0.611952 0.899893 0.239645
O O11 0.782144 0.762250 0.107097
O O12 0.731815 0.486568 0.220284
O O13 0.238291 0.682811 0.037490
O O14 0.097960 0.011830 0.990109
O O15 0.716744 0.174337 0.445208
O O16 0.156509 0.046819 0.351268
#
# Coordination Sequence:
#
# PCOD9140725 Si02
#       8
#     4   4   4   4   4   4   4   4
#     4  11  26  50  74 108 153 195 254 313 384 450
#     4  11  26  47  76 107 146 199 250 312 369 465
#     4  12  28  52  76 115 161 204 258 327 390 470
#     4  12  27  50  78 117 152 209 255 322 394 470
#     4  11  25  48  74 108 153 199 254 317 387 451
#     4  12  25  49  76 111 150 202 256 317 389 462
#     4  11  26  48  80 108 156 203 261 325 388 460
#     4  12  29  50  80 112 159 207 260 323 393 466
#
# _framework density 27.001398999999999
#
# number of rings (size 3 to 8) (size 9 to 14) (size 15 to 20)
#    0.000    0.500    5.000    1.500    8.750    2.000 
#    4.500    0.000    0.000    0.000    0.000    0.000 
#    0.000    0.000    0.000    0.000    0.000    0.000 
#
# Total GULP energy -89218.566154 kJ/mol
# GULP energy per Si atom -5576.160385 kJ/mol
# Density = 2.693994 g / cm^3
# Si number density = 27.001399 Si / 1000 Ang^3
#
#
#
# Elastic Constant Matrix: (Units=GPa)
#
#
# Indices 1 2 3 4 5 6 
#
# 1 126.3372 -15.0832 -8.6874 0.0000 3.8212 0.0000
# 2 -15.0832 68.2591 -18.2395 0.0000 28.0846 0.0000
# 3 -8.6874 -18.2395 89.2356 0.0000 16.2927 0.0000
# 4 0.0000 0.0000 0.0000 5.2252 0.0000 6.5257
# 5 3.8212 28.0846 16.2927 0.0000 42.7052 0.0000
# 6 0.0000 0.0000 0.0000 6.5257 0.0000 27.5303
#
#
#
# Elastic Compliance Matrix: (Units=1/GPa)
#
#
# Indices 1 2 3 4 5 6 
#
# 1 0.008810 0.004691 0.002713 0.000000 -0.004908 0.000000
# 2 0.004691 0.027692 0.010231 0.000000 -0.022535 0.000000
# 3 0.002713 0.010231 0.015945 0.000000 -0.013055 0.000000
# 4 0.000000 0.000000 0.000000 0.271859 0.000000 -0.064441
# 5 -0.004908 -0.022535 -0.013055 0.000000 0.043656 0.000000
# 6 0.000000 0.000000 0.000000 -0.064441 0.000000 0.051598
#
#
# Mechanical properties :
#
#
# Convention : Reuss Voigt Hill
#
# Bulk Modulus (GPa) = 11.40009 22.20131 16.80070
# Shear Modulus (GPa) = 12.09103 36.81495 24.45299
#
# Velocity S-wave (km/s) = 2.11841 3.69649 3.01262
# Velocity P-wave (km/s) = 3.19605 5.14382 4.28215
#
# Compressibility (1/GPa) = 0.08771859
#
# Stress axis : x y z
#
# Youngs Moduli (GPa) = 113.50210 36.11113 62.71502
#
# Poissons Ratio (x) = -0.16941 -0.17013
# Poissons Ratio (y) = -0.53247 -0.64166
# Poissons Ratio (z) = -0.30791 -0.36946
#
# Static dielectric constant tensor:
#      x y z
#    x 2.218150 0.000000 -0.129120 
#    y 0.000000 2.345040 0.000000 
#    z -0.129120 0.000000 2.151560 
# 
# From -- ./inp_files/30374.got.cif
#   From: 2010.05.17/outbox.cif.g08.bks.cpg/sg9_16_cif.got.tgz:30374.got - 2010.06.03 20:04:27.
