data_PCOD9140527
_publ_section_title
;
Structure prediction by ZEFSAII (Michael W. Deem and Ramdas Pophale) SiO2 
 PCOD9140527
Probable space group: C C
;
_chemical_formula_sum "Si O2"
_cell_formula_units_Z 28
_cell_length_a 8.987137
_cell_length_b 11.401542
_cell_length_c 13.023470
_cell_angle_alpha 90.000000
_cell_angle_beta 58.726529
_cell_angle_gamma 90.000000
_cell_volume 1140.578047
_symmetry_space_group_name_H-M "C C"
_symmetry_group_IT_number 9
_symmetry_cell_setting 'monoclinic'
loop_
_space_group_symop_operation_xyz
x,y,z
x,-y,1/2+z
1/2+x,1/2+y,z
1/2+x,1/2-y,1/2+z
loop_
_atom_site_type_symbol
_atom_site_label
_atom_site_fract_x
_atom_site_fract_y
_atom_site_fract_z
Si Si1 0.528980 0.947821 0.100870
Si Si2 0.304723 0.356290 0.510041
Si Si3 0.565822 0.180905 0.380192
Si Si4 0.197772 0.741438 0.674374
Si Si5 0.924576 0.084036 0.193495
Si Si6 0.047416 0.858570 0.066933
Si Si7 0.798684 0.399803 0.811629
O O1 0.681858 0.039168 0.014212
O O2 0.358492 0.016452 0.198911
O O3 0.587927 0.871059 0.178175
O O4 0.497790 0.866369 0.014207
O O5 0.486678 0.311516 0.396196
O O6 0.358458 0.395407 0.602928
O O7 0.179659 0.241600 0.556284
O O8 0.769156 0.148736 0.310802
O O9 0.471663 0.117418 0.318374
O O10 0.390571 0.709951 0.568380
O O11 0.228207 0.781435 0.781325
O O12 0.100680 0.848215 0.655191
O O13 0.964321 0.945205 0.181094
O O14 0.151600 0.934582 0.945286
#
# Coordination Sequence:
#
# PCOD9140527 Si02
#       7
#     4   4   4   4   4   4   4
#     4  12  25  49  76 114 152 195 256 316 374 458
#     4  11  24  47  73 106 152 197 250 301 377 444
#     4  11  26  49  78 112 149 207 248 312 383 449
#     4  12  26  45  73 110 154 191 252 308 372 450
#     4  12  26  46  75 113 148 192 259 306 375 450
#     4  11  26  47  74 108 150 199 249 307 380 447
#     4  11  27  47  77 113 149 203 250 314 383 444
#
# _framework density 24.548957000000001
#
# number of rings (size 3 to 8) (size 9 to 14) (size 15 to 20)
#    0.000    0.571    5.714    0.000    6.000    8.000 
#    0.000    0.000    0.000    0.000    0.000    0.000 
#    0.000    0.000    0.000    0.000    0.000    0.000 
#
# Total GULP energy -78182.588765 kJ/mol
# GULP energy per Si atom -5584.470626 kJ/mol
# Density = 2.449308 g / cm^3
# Si number density = 24.548957 Si / 1000 Ang^3
#
#
#
# Elastic Constant Matrix: (Units=GPa)
#
#
# Indices 1 2 3 4 5 6 
#
# 1 130.0072 57.6336 16.6444 0.0000 -15.7667 0.0000
# 2 57.6336 118.1780 22.8359 0.0000 -5.1881 0.0000
# 3 16.6444 22.8359 59.4543 0.0000 -12.1076 0.0000
# 4 0.0000 0.0000 0.0000 26.4156 0.0000 3.8171
# 5 -15.7667 -5.1881 -12.1076 0.0000 30.3516 0.0000
# 6 0.0000 0.0000 0.0000 3.8171 0.0000 44.7271
#
#
#
# Elastic Compliance Matrix: (Units=1/GPa)
#
#
# Indices 1 2 3 4 5 6 
#
# 1 0.010408 -0.004853 -0.000128 0.000000 0.004526 0.000000
# 2 -0.004853 0.011403 -0.003415 0.000000 -0.001934 0.000000
# 3 -0.000128 -0.003415 0.019630 0.000000 0.007180 0.000000
# 4 0.000000 0.000000 0.000000 0.038329 0.000000 -0.003271
# 5 0.004526 -0.001934 0.007180 0.000000 0.037832 0.000000
# 6 0.000000 0.000000 0.000000 -0.003271 0.000000 0.022637
#
#
# Mechanical properties :
#
#
# Convention : Reuss Voigt Hill
#
# Bulk Modulus (GPa) = 40.56949 55.76302 48.16626
# Shear Modulus (GPa) = 30.25754 34.33389 32.29572
#
# Velocity S-wave (km/s) = 3.51456 3.74383 3.63100
# Velocity P-wave (km/s) = 5.74729 6.43837 6.10262
#
# Compressibility (1/GPa) = 0.02464906
#
# Stress axis : x y z
#
# Youngs Moduli (GPa) = 96.07629 87.69346 50.94362
#
# Poissons Ratio (x) = 0.42553 0.00654
# Poissons Ratio (y) = 0.46621 0.17399
# Poissons Ratio (z) = 0.01233 0.29950
#
# Static dielectric constant tensor:
#      x y z
#    x 1.918350 0.000000 -0.040830 
#    y 0.000000 1.991420 0.000000 
#    z -0.040830 0.000000 1.997520 
# 
# From -- ./inp_files/22838.got.cif
#   From: 2010.05.17/outbox.cif.g08.bks.cpg/sg9_12_cif.got.tgz:22838.got - 2010.06.03 20:04:27.
