data_PCOD9140874
_publ_section_title
;
Structure prediction by ZEFSAII (Michael W. Deem and Ramdas Pophale) SiO2 
 PCOD9140874
Probable space group: C C
;
_chemical_formula_sum "Si O2"
_cell_formula_units_Z 28
_cell_length_a 11.461723
_cell_length_b 9.043033
_cell_length_c 23.836636
_cell_angle_alpha 90.000000
_cell_angle_beta 25.685949
_cell_angle_gamma 90.000000
_cell_volume 1070.868312
_symmetry_space_group_name_H-M "C C"
_symmetry_group_IT_number 9
_symmetry_cell_setting 'monoclinic'
loop_
_space_group_symop_operation_xyz
x,y,z
x,-y,1/2+z
1/2+x,1/2+y,z
1/2+x,1/2-y,1/2+z
loop_
_atom_site_type_symbol
_atom_site_label
_atom_site_fract_x
_atom_site_fract_y
_atom_site_fract_z
Si Si1 0.485910 0.327904 0.398320
Si Si2 0.412177 0.761836 0.484079
Si Si3 0.802806 0.531857 0.326480
Si Si4 0.785509 0.247656 0.107451
Si Si5 0.963264 0.566363 0.063727
Si Si6 0.635554 0.177849 0.766295
Si Si7 0.378719 0.613106 0.177769
O O1 0.732470 0.440065 0.301337
O O2 0.414099 0.264741 0.490690
O O3 0.593216 0.191353 0.315272
O O4 0.234347 0.417030 0.482461
O O5 0.513802 0.607322 0.466284
O O6 0.546440 0.885782 0.464795
O O7 0.492667 0.765899 0.384254
O O8 0.101819 0.809710 0.618983
O O9 0.994665 0.670668 0.230616
O O10 0.949200 0.423720 0.306703
O O11 0.817626 0.410000 0.119889
O O12 0.936841 0.148178 0.088045
O O13 0.763684 0.689231 0.175877
O O14 0.861492 0.062209 0.690665
#
# Coordination Sequence:
#
# PCOD9140874 Si02
#       7
#     4   4   4   4   4   4   4
#     4  12  27  50  82 116 165 213 268 335 403 488
#     4  12  27  47  80 112 161 210 266 335 398 475
#     4  11  27  50  82 111 160 213 271 329 410 469
#     4  11  27  52  78 117 159 203 276 333 400 485
#     4  12  28  48  84 118 162 212 271 331 412 484
#     4  11  27  51  80 116 163 208 269 341 405 482
#     4  11  27  48  80 112 160 215 271 324 412 479
#
# _framework density 26.147006999999999
#
# number of rings (size 3 to 8) (size 9 to 14) (size 15 to 20)
#    0.000    0.571    0.000    6.000   18.000    0.000 
#    7.714    0.000    0.000    0.000    0.000    0.000 
#    0.000    0.000    0.000    0.000    0.000    0.000 
#
# Total GULP energy -78455.075704 kJ/mol
# GULP energy per Si atom -5603.933979 kJ/mol
# Density = 2.608750 g / cm^3
# Si number density = 26.147007 Si / 1000 Ang^3
#
#
#
# Elastic Constant Matrix: (Units=GPa)
#
#
# Indices 1 2 3 4 5 6 
#
# 1 147.3696 56.8100 52.9661 0.0005 -12.4704 -0.0005
# 2 56.8100 185.3516 63.2320 -0.0001 -9.6680 0.0000
# 3 52.9661 63.2320 97.0024 -0.0092 5.2469 0.0030
# 4 0.0005 -0.0001 -0.0092 45.8269 0.0017 -6.2904
# 5 -12.4704 -9.6680 5.2469 0.0017 46.3236 -0.0005
# 6 -0.0005 0.0000 0.0030 -6.2904 -0.0005 55.6614
#
#
#
# Elastic Compliance Matrix: (Units=1/GPa)
#
#
# Indices 1 2 3 4 5 6 
#
# 1 0.009005 -0.001149 -0.004312 -0.000001 0.002673 0.000000
# 2 -0.001149 0.007269 -0.004202 -0.000001 0.001683 0.000000
# 3 -0.004312 -0.004202 0.015608 0.000003 -0.003806 -0.000001
# 4 -0.000001 -0.000001 0.000003 0.022165 -0.000002 0.002505
# 5 0.002673 0.001683 -0.003806 -0.000002 0.023089 0.000000
# 6 0.000000 0.000000 -0.000001 0.002505 0.000000 0.018249
#
#
# Mechanical properties :
#
#
# Convention : Reuss Voigt Hill
#
# Bulk Modulus (GPa) = 79.64743 86.19330 82.92037
# Shear Modulus (GPa) = 42.05358 46.67675 44.36517
#
# Velocity S-wave (km/s) = 4.01478 4.22971 4.12364
# Velocity P-wave (km/s) = 7.21240 7.54257 7.37933
#
# Compressibility (1/GPa) = 0.01255533
#
# Stress axis : x y z
#
# Youngs Moduli (GPa) = 111.05251 137.57796 64.06887
#
# Poissons Ratio (x) = 0.15814 0.27627
# Poissons Ratio (y) = 0.12765 0.26919
# Poissons Ratio (z) = 0.47887 0.57804
#
# Static dielectric constant tensor:
#      x y z
#    x 2.031670 0.000000 -0.072740 
#    y 0.000000 2.052950 0.000000 
#    z -0.072740 0.000000 2.097150 
# 
# From -- ./inp_files/35300.got.cif
#   From: 2010.05.17/outbox.cif.g08.bks.cpg/sg9_18_cif.got.tgz:35300.got - 2010.06.03 20:04:27.
