data_PCOD9140307
_publ_section_title
;
Structure prediction by ZEFSAII (Michael W. Deem and Ramdas Pophale) SiO2 
 PCOD9140307
Probable space group: C C
;
_chemical_formula_sum "Si O2"
_cell_formula_units_Z 32
_cell_length_a 12.009905
_cell_length_b 9.408762
_cell_length_c 13.744770
_cell_angle_alpha 90.000000
_cell_angle_beta 65.842068
_cell_angle_gamma 90.000000
_cell_volume 1417.113812
_symmetry_space_group_name_H-M "C C"
_symmetry_group_IT_number 9
_symmetry_cell_setting 'monoclinic'
loop_
_space_group_symop_operation_xyz
x,y,z
x,-y,1/2+z
1/2+x,1/2+y,z
1/2+x,1/2-y,1/2+z
loop_
_atom_site_type_symbol
_atom_site_label
_atom_site_fract_x
_atom_site_fract_y
_atom_site_fract_z
Si Si1 0.464680 0.750390 0.016980
Si Si2 0.189598 0.311730 0.607909
Si Si3 0.503721 0.528413 0.382204
Si Si4 0.351061 0.286102 0.063202
Si Si5 0.587416 0.126047 0.665393
Si Si6 0.459504 0.654671 0.728361
Si Si7 0.198723 0.252710 0.383863
Si Si8 0.495108 0.046161 0.902808
O O1 0.326600 0.706624 0.094491
O O2 0.528800 0.800073 0.093073
O O3 0.517993 0.615023 0.940288
O O4 0.472011 0.884911 0.941037
O O5 0.142773 0.472302 0.618377
O O6 0.189750 0.239454 0.502316
O O7 0.085294 0.233859 0.705069
O O8 0.382718 0.606473 0.465035
O O9 0.476404 0.491030 0.280293
O O10 0.617931 0.631100 0.361844
O O11 0.210833 0.285495 0.145278
O O12 0.431632 0.345195 0.123882
O O13 0.403655 0.138270 0.003466
O O14 0.496082 0.094459 0.788772
O O15 0.340240 0.736988 0.808849
O O16 0.131457 0.401460 0.382711
#
# Coordination Sequence:
#
# PCOD9140307 Si02
#       8
#     4   4   4   4   4   4   4   4
#     4  12  26  47  73 109 150 194 251 307 365 444
#     4  12  25  49  72 103 156 199 234 316 379 438
#     4  11  25  44  73 113 142 193 253 306 364 453
#     4  11  24  47  73 104 152 191 244 312 375 440
#     4  12  25  47  74 106 152 198 245 309 381 436
#     4  12  23  46  78 102 146 202 239 302 384 442
#     4  11  23  48  76 104 151 197 243 304 384 439
#     4  11  25  48  73 109 143 198 247 304 374 448
#
# _framework density 22.581109999999999
#
# number of rings (size 3 to 8) (size 9 to 14) (size 15 to 20)
#    0.000    0.500    7.500    0.750    0.000    5.000 
#    4.500    0.000    0.000    0.000    0.000    0.000 
#    0.000    0.000    0.000    0.000    0.000    0.000 
#
# Total GULP energy -89404.735347 kJ/mol
# GULP energy per Si atom -5587.795959 kJ/mol
# Density = 2.252971 g / cm^3
# Si number density = 22.581110 Si / 1000 Ang^3
#
#
#
# Elastic Constant Matrix: (Units=GPa)
#
#
# Indices 1 2 3 4 5 6 
#
# 1 95.3520 16.9981 24.2764 0.0000 -2.2507 0.0000
# 2 16.9981 98.6651 24.9198 0.0000 -2.3803 0.0000
# 3 24.2764 24.9198 94.2853 0.0000 -10.7002 0.0000
# 4 0.0000 0.0000 0.0000 32.5503 0.0000 5.1365
# 5 -2.2507 -2.3803 -10.7002 0.0000 38.5963 0.0000
# 6 0.0000 0.0000 0.0000 5.1365 0.0000 31.9815
#
#
#
# Elastic Compliance Matrix: (Units=1/GPa)
#
#
# Indices 1 2 3 4 5 6 
#
# 1 0.011379 -0.001307 -0.002600 0.000000 -0.000138 0.000000
# 2 -0.001307 0.011011 -0.002587 0.000000 -0.000114 0.000000
# 3 -0.002600 -0.002587 0.012311 0.000000 0.003102 0.000000
# 4 0.000000 0.000000 0.000000 0.031521 0.000000 -0.005062
# 5 -0.000138 -0.000114 0.003102 0.000000 0.026754 0.000000
# 6 0.000000 0.000000 0.000000 -0.005062 0.000000 0.032081
#
#
# Mechanical properties :
#
#
# Convention : Reuss Voigt Hill
#
# Bulk Modulus (GPa) = 46.05346 46.74343 46.39845
# Shear Modulus (GPa) = 34.41565 35.43284 34.92424
#
# Velocity S-wave (km/s) = 3.90819 3.96553 3.93697
# Velocity P-wave (km/s) = 6.38782 6.45851 6.42327
#
# Compressibility (1/GPa) = 0.02171390
#
# Stress axis : x y z
#
# Youngs Moduli (GPa) = 87.87986 90.81804 81.22642
#
# Poissons Ratio (x) = 0.11870 0.21120
# Poissons Ratio (y) = 0.11486 0.21011
# Poissons Ratio (z) = 0.22849 0.23492
#
# Static dielectric constant tensor:
#      x y z
#    x 1.834640 0.000000 0.027450 
#    y 0.000000 1.883620 0.000000 
#    z 0.027450 0.000000 1.890260 
# 
# From -- ./inp_files/24343.got.cif
#   From: 2010.05.17/outbox.cif.g08.bks.cpg/sg9_13_cif.got.tgz:24343.got - 2010.06.03 20:04:27.
