data_PCOD9140534
_publ_section_title
;
Structure prediction by ZEFSAII (Michael W. Deem and Ramdas Pophale) SiO2 
 PCOD9140534
Probable space group: C C
;
_chemical_formula_sum "Si O2"
_cell_formula_units_Z 24
_cell_length_a 10.340884
_cell_length_b 9.735535
_cell_length_c 13.789012
_cell_angle_alpha 90.000000
_cell_angle_beta 133.226274
_cell_angle_gamma 90.000000
_cell_volume 1011.515106
_symmetry_space_group_name_H-M "C C"
_symmetry_group_IT_number 9
_symmetry_cell_setting 'monoclinic'
loop_
_space_group_symop_operation_xyz
x,y,z
x,-y,1/2+z
1/2+x,1/2+y,z
1/2+x,1/2-y,1/2+z
loop_
_atom_site_type_symbol
_atom_site_label
_atom_site_fract_x
_atom_site_fract_y
_atom_site_fract_z
Si Si1 0.187710 0.341003 0.698300
Si Si2 0.105043 0.498725 0.472184
Si Si3 0.075148 0.845812 0.624318
Si Si4 0.275565 0.200692 0.043125
Si Si5 0.716228 0.892526 0.332023
Si Si6 0.228516 0.070306 0.821989
O O1 0.193261 0.386704 0.589581
O O2 0.260469 0.470388 0.794891
O O3 0.275727 0.201968 0.780115
O O4 0.579791 0.521535 0.195600
O O5 0.208497 0.642762 0.518619
O O6 0.096809 0.439731 0.360304
O O7 0.908874 0.518659 0.416016
O O8 0.226355 0.865727 0.620214
O O9 0.122462 0.714497 0.713072
O O10 0.893649 0.834622 0.472280
O O11 0.481972 0.185202 0.123163
O O12 0.180098 0.126625 0.903164
#
# Coordination Sequence:
#
# PCOD9140534 Si02
#       6
#     4   4   4   4   4   4
#     4  11  25  46  77 109 149 206 260 308 386 458
#     4  11  24  47  74 109 152 198 259 317 378 457
#     4  12  28  45  76 113 152 204 257 317 385 457
#     4  11  24  48  79 103 154 205 251 318 387 450
#     4  12  27  47  73 111 158 200 260 313 385 458
#     4  11  26  45  75 113 147 201 257 317 387 452
#
# _framework density 23.726783999999999
#
# number of rings (size 3 to 8) (size 9 to 14) (size 15 to 20)
#    0.000    0.667    3.333    3.000    9.333    2.667 
#    0.000    0.000    0.000    0.000    0.000    0.000 
#    0.000    0.000    0.000    0.000    0.000    0.000 
#
# Total GULP energy -67212.396793 kJ/mol
# GULP energy per Si atom -5601.033066 kJ/mol
# Density = 2.367278 g / cm^3
# Si number density = 23.726784 Si / 1000 Ang^3
#
#
#
# Elastic Constant Matrix: (Units=GPa)
#
#
# Indices 1 2 3 4 5 6 
#
# 1 75.8455 21.9928 20.7781 0.0000 -13.7958 0.0000
# 2 21.9928 131.9932 58.0377 0.0000 6.3205 0.0000
# 3 20.7781 58.0377 114.7960 0.0000 -5.7039 0.0000
# 4 0.0000 0.0000 0.0000 55.7134 0.0000 -3.8455
# 5 -13.7958 6.3205 -5.7039 0.0000 41.1363 0.0000
# 6 0.0000 0.0000 0.0000 -3.8455 0.0000 34.1944
#
#
#
# Elastic Compliance Matrix: (Units=1/GPa)
#
#
# Indices 1 2 3 4 5 6 
#
# 1 0.015141 -0.002162 -0.001388 0.000000 0.005218 0.000000
# 2 -0.002162 0.010251 -0.004940 0.000000 -0.002985 0.000000
# 3 -0.001388 -0.004940 0.011554 0.000000 0.001896 0.000000
# 4 0.000000 0.000000 0.000000 0.018089 0.000000 0.002034
# 5 0.005218 -0.002985 0.001896 0.000000 0.026781 0.000000
# 6 0.000000 0.000000 0.000000 0.002034 0.000000 0.029473
#
#
# Mechanical properties :
#
#
# Convention : Reuss Voigt Hill
#
# Bulk Modulus (GPa) = 50.08508 58.25025 54.16767
# Shear Modulus (GPa) = 37.05747 40.99722 39.02735
#
# Velocity S-wave (km/s) = 3.95630 4.16130 4.06009
# Velocity P-wave (km/s) = 6.48264 6.90596 6.69765
#
# Compressibility (1/GPa) = 0.01996602
#
# Stress axis : x y z
#
# Youngs Moduli (GPa) = 66.04582 97.54749 86.55048
#
# Poissons Ratio (x) = 0.21093 0.12014
# Poissons Ratio (y) = 0.14281 0.42754
# Poissons Ratio (z) = 0.09168 0.48186
#
# Static dielectric constant tensor:
#      x y z
#    x 1.913530 0.000000 0.052870 
#    y 0.000000 1.890380 0.000000 
#    z 0.052870 0.000000 1.940120 
# 
# From -- ./inp_files/10582.got.cif
#   From: 2010.05.17/outbox.cif.g08.bks.cpg/sg9_6_cif.got.tgz:10582.got - 2010.06.03 20:04:27.
