data_PCOD9140160
_publ_section_title
;
Structure prediction by ZEFSAII (Michael W. Deem and Ramdas Pophale) SiO2 
 PCOD9140160
Probable space group: C C
;
_chemical_formula_sum "Si O2"
_cell_formula_units_Z 24
_cell_length_a 32.130470
_cell_length_b 7.119326
_cell_length_c 9.317444
_cell_angle_alpha 90.000000
_cell_angle_beta 29.397366
_cell_angle_gamma 90.000000
_cell_volume 1046.197476
_symmetry_space_group_name_H-M "C C"
_symmetry_group_IT_number 9
_symmetry_cell_setting 'monoclinic'
loop_
_space_group_symop_operation_xyz
x,y,z
x,-y,1/2+z
1/2+x,1/2+y,z
1/2+x,1/2-y,1/2+z
loop_
_atom_site_type_symbol
_atom_site_label
_atom_site_fract_x
_atom_site_fract_y
_atom_site_fract_z
Si Si1 0.751490 0.425627 0.887050
Si Si2 0.706838 0.911015 0.335782
Si Si3 0.562303 0.352421 0.574929
Si Si4 0.313229 0.766439 0.984157
Si Si5 0.987058 0.118025 0.593528
Si Si6 0.590029 0.070343 0.939026
O O1 0.771484 0.612900 0.738428
O O2 0.760482 0.252086 0.748668
O O3 0.654222 0.409959 0.235830
O O4 0.810634 0.391767 0.848104
O O5 0.759212 0.080752 0.110039
O O6 0.644946 0.835028 0.399147
O O7 0.650445 0.007972 0.627763
O O8 0.490561 0.439665 0.687493
O O9 0.555028 0.127384 0.601927
O O10 0.550954 0.421903 0.770538
O O11 0.401208 0.685594 0.777879
O O12 0.021008 0.288738 0.587527
#
# Coordination Sequence:
#
# PCOD9140160 Si02
#       6
#     4   4   4   4   4   4
#     4  11  26  47  76 101 142 194 238 290 352 440
#     4  11  23  44  71 102 137 187 236 285 345 431
#     4  11  25  48  73 102 138 193 242 278 355 433
#     4  12  28  46  69 109 145 181 236 298 364 410
#     4  12  29  43  72 107 147 180 233 303 360 413
#     4  11  23  44  71 101 139 183 241 282 348 427
#
# _framework density 22.940218999999999
#
# number of rings (size 3 to 8) (size 9 to 14) (size 15 to 20)
#    0.000    0.667    5.000    2.000   14.000    0.000 
#    0.000    0.000    0.000    0.000    0.000    0.000 
#    0.000    0.000    0.000    0.000    0.000    0.000 
#
# Total GULP energy -67194.307804 kJ/mol
# GULP energy per Si atom -5599.525650 kJ/mol
# Density = 2.288801 g / cm^3
# Si number density = 22.940219 Si / 1000 Ang^3
#
#
#
# Elastic Constant Matrix: (Units=GPa)
#
#
# Indices 1 2 3 4 5 6 
#
# 1 169.0448 32.1278 17.7217 0.0000 -7.8221 0.0000
# 2 32.1278 83.6667 16.1772 0.0000 -6.1444 0.0000
# 3 17.7217 16.1772 25.4175 0.0000 -1.9244 0.0000
# 4 0.0000 0.0000 0.0000 20.0420 0.0000 -4.3912
# 5 -7.8221 -6.1444 -1.9244 0.0000 34.7988 0.0000
# 6 0.0000 0.0000 0.0000 -4.3912 0.0000 41.5343
#
#
#
# Elastic Compliance Matrix: (Units=1/GPa)
#
#
# Indices 1 2 3 4 5 6 
#
# 1 0.006666 -0.001828 -0.003410 0.000000 0.000987 0.000000
# 2 -0.001828 0.014262 -0.007675 0.000000 0.001683 0.000000
# 3 -0.003410 -0.007675 0.046640 0.000000 0.000458 0.000000
# 4 0.000000 0.000000 0.000000 0.051078 0.000000 0.005400
# 5 0.000987 0.001683 0.000458 0.000000 0.029281 0.000000
# 6 0.000000 0.000000 0.000000 0.005400 0.000000 0.024647
#
#
# Mechanical properties :
#
#
# Convention : Reuss Voigt Hill
#
# Bulk Modulus (GPa) = 23.95652 45.57582 34.76617
# Shear Modulus (GPa) = 23.55006 33.41518 28.48262
#
# Velocity S-wave (km/s) = 3.20751 3.82071 3.52746
# Velocity P-wave (km/s) = 4.91764 6.27488 5.63726
#
# Compressibility (1/GPa) = 0.04174228
#
# Stress axis : x y z
#
# Youngs Moduli (GPa) = 150.01195 70.11772 21.44094
#
# Poissons Ratio (x) = 0.12818 0.07310
# Poissons Ratio (y) = 0.27423 0.16456
# Poissons Ratio (z) = 0.51148 0.53816
#
# Static dielectric constant tensor:
#      x y z
#    x 1.820550 0.000000 -0.014180 
#    y 0.000000 1.874880 0.000000 
#    z -0.014180 0.000000 1.880480 
# 
# From -- ./inp_files/8745.got.cif
#   From: 2010.05.17/outbox.cif.g08.bks.cpg/sg9_5_cif.got.tgz:8745.got - 2010.06.03 20:04:27.
