data_PCOD9140349
_publ_section_title
;
Structure prediction by ZEFSAII (Michael W. Deem and Ramdas Pophale) SiO2 
 PCOD9140349
Probable space group: C C
;
_chemical_formula_sum "Si O2"
_cell_formula_units_Z 24
_cell_length_a 10.260030
_cell_length_b 10.861632
_cell_length_c 10.670279
_cell_angle_alpha 90.000000
_cell_angle_beta 133.755446
_cell_angle_gamma 90.000000
_cell_volume 858.887023
_symmetry_space_group_name_H-M "C C"
_symmetry_group_IT_number 9
_symmetry_cell_setting 'monoclinic'
loop_
_space_group_symop_operation_xyz
x,y,z
x,-y,1/2+z
1/2+x,1/2+y,z
1/2+x,1/2-y,1/2+z
loop_
_atom_site_type_symbol
_atom_site_label
_atom_site_fract_x
_atom_site_fract_y
_atom_site_fract_z
Si Si1 0.006710 0.831042 0.865240
Si Si2 0.625243 0.077867 0.696507
Si Si3 0.039709 0.577867 0.385070
Si Si4 0.158252 0.168960 0.716343
Si Si5 0.298798 0.187805 0.058091
Si Si6 0.366161 0.687801 0.023490
O O1 0.832481 0.750001 0.790792
O O2 0.944814 0.891031 0.691978
O O3 0.082482 0.896785 0.040793
O O4 0.172752 0.742986 0.936716
O O5 0.582475 0.005985 0.540788
O O6 0.492084 0.193643 0.594862
O O7 0.582470 0.000002 0.790784
O O8 0.826479 0.123190 0.864403
O O9 0.172879 0.693638 0.486717
O O10 0.838476 0.623198 0.217177
O O11 0.992209 0.257015 0.644866
O O12 0.220144 0.108971 0.889604
#
# Coordination Sequence:
#
# PCOD9140349 Si02
#       6
#     4   4   4   4   4   4
#     4   8  14  27  54  89 120 158 206 258 317 376
#     4  11  24  42  66  96 131 176 225 273 330 399
#     4  11  24  42  66  96 131 176 225 273 330 399
#     4   8  14  27  54  89 120 158 206 258 317 376
#     4   9  19  37  61  89 128 176 214 265 331 393
#     4   9  19  37  61  89 128 176 214 265 331 393
#
# _framework density 27.94314
#
# number of rings (size 3 to 8) (size 9 to 14) (size 15 to 20)
#    0.000    2.667    0.000    1.000    0.000   13.333 
#    0.000    6.667    0.000   20.000    0.000    0.000 
#    0.000    0.000    0.000    0.000    0.000    0.000 
#
# Total GULP energy -67049.925927 kJ/mol
# GULP energy per Si atom -5587.493827 kJ/mol
# Density = 2.787954 g / cm^3
# Si number density = 27.943140 Si / 1000 Ang^3
#
#
#
# Elastic Constant Matrix: (Units=GPa)
#
#
# Indices 1 2 3 4 5 6 
#
# 1 97.5277 31.6303 64.1328 0.0000 -4.1905 0.0000
# 2 31.6303 68.6923 48.5820 0.0000 7.0260 0.0000
# 3 64.1328 48.5820 318.6562 0.0000 -64.8509 0.0000
# 4 0.0000 0.0000 0.0000 37.4016 0.0000 20.3766
# 5 -4.1905 7.0260 -64.8509 0.0000 76.7606 0.0000
# 6 0.0000 0.0000 0.0000 20.3766 0.0000 32.5760
#
#
#
# Elastic Compliance Matrix: (Units=1/GPa)
#
#
# Indices 1 2 3 4 5 6 
#
# 1 0.013039 -0.004476 -0.002069 0.000000 -0.000627 0.000000
# 2 -0.004476 0.019147 -0.002928 0.000000 -0.004471 0.000000
# 3 -0.002069 -0.002928 0.004870 0.000000 0.004269 0.000000
# 4 0.000000 0.000000 0.000000 0.040558 0.000000 -0.025370
# 5 -0.000627 -0.004471 0.004269 0.000000 0.017009 0.000000
# 6 0.000000 0.000000 0.000000 -0.025370 0.000000 0.046566
#
#
# Mechanical properties :
#
#
# Convention : Reuss Voigt Hill
#
# Bulk Modulus (GPa) = 55.22280 85.95182 70.58731
# Shear Modulus (GPa) = 30.08893 52.04971 41.06932
#
# Velocity S-wave (km/s) = 3.28501 4.32058 3.83789
# Velocity P-wave (km/s) = 5.84755 7.46433 6.70485
#
# Compressibility (1/GPa) = 0.01810846
#
# Stress axis : x y z
#
# Youngs Moduli (GPa) = 76.69219 52.22742 205.34150
#
# Poissons Ratio (x) = 0.23379 0.42492
# Poissons Ratio (y) = 0.34331 0.60125
# Poissons Ratio (z) = 0.15870 0.15292
#
# Static dielectric constant tensor:
#      x y z
#    x 2.312610 0.000000 -0.142200 
#    y 0.000000 2.246930 0.000000 
#    z -0.142200 0.000000 2.454760 
# 
# From -- ./inp_files/7079.got.cif
#   From: 2010.05.17/outbox.cif.g08.bks.cpg/sg9_4_cif.got.tgz:7079.got - 2010.06.03 20:04:27.
