data_PCOD9140564
_publ_section_title
;
Structure prediction by ZEFSAII (Michael W. Deem and Ramdas Pophale) SiO2 
 PCOD9140564
Probable space group: C C
;
_chemical_formula_sum "Si O2"
_cell_formula_units_Z 32
_cell_length_a 11.253011
_cell_length_b 17.518897
_cell_length_c 9.033059
_cell_angle_alpha 90.000000
_cell_angle_beta 53.844408
_cell_angle_gamma 90.000000
_cell_volume 1437.833785
_symmetry_space_group_name_H-M "C C"
_symmetry_group_IT_number 9
_symmetry_cell_setting 'monoclinic'
loop_
_space_group_symop_operation_xyz
x,y,z
x,-y,1/2+z
1/2+x,1/2+y,z
1/2+x,1/2-y,1/2+z
loop_
_atom_site_type_symbol
_atom_site_label
_atom_site_fract_x
_atom_site_fract_y
_atom_site_fract_z
Si Si1 0.395930 0.705378 0.685820
Si Si2 0.643379 0.913065 0.721324
Si Si3 0.468968 0.436593 0.562576
Si Si4 0.973306 0.502998 0.081396
Si Si5 0.685826 0.751337 0.602387
Si Si6 0.768634 0.641910 0.782781
Si Si7 0.994600 0.092690 0.386897
Si Si8 0.317187 0.851747 0.573338
O O1 0.556859 0.696706 0.638203
O O2 0.381495 0.644281 0.564608
O O3 0.394314 0.788929 0.615414
O O4 0.272345 0.709880 0.902387
O O5 0.818830 0.922222 0.584874
O O6 0.616277 0.822525 0.741572
O O7 0.548807 0.953513 0.662549
O O8 0.596313 0.956560 0.903378
O O9 0.595841 0.376810 0.428113
O O10 0.522745 0.519178 0.468457
O O11 0.445972 0.431371 0.757023
O O12 0.851783 0.438623 0.204763
O O13 0.897251 0.567631 0.036812
O O14 0.786679 0.700277 0.634999
O O15 0.821422 0.674400 0.900668
O O16 0.148281 0.137212 0.248525
#
# Coordination Sequence:
#
# PCOD9140564 Si02
#       8
#     4   4   4   4   4   4   4   4
#     4  12  26  47  72 104 149 189 241 302 378 438
#     4  12  27  46  68 114 150 184 238 311 375 420
#     4  11  26  46  73 107 144 191 249 297 371 439
#     4  12  24  47  76 106 147 193 245 302 366 438
#     4  12  27  46  74 107 146 194 241 301 373 439
#     4  11  26  47  79 103 141 200 252 294 355 462
#     4  11  26  45  74 102 144 194 244 305 360 447
#     4  11  24  48  72 109 139 193 250 300 366 441
#
# _framework density 22.255701999999999
#
# number of rings (size 3 to 8) (size 9 to 14) (size 15 to 20)
#    0.000    0.500    5.000    2.250    7.000    0.000 
#    4.500    0.000    0.000    0.000    0.000    0.000 
#    0.000    0.000    0.000    0.000    0.000    0.000 
#
# Total GULP energy -89482.484337 kJ/mol
# GULP energy per Si atom -5592.655271 kJ/mol
# Density = 2.220505 g / cm^3
# Si number density = 22.255702 Si / 1000 Ang^3
#
#
#
# Elastic Constant Matrix: (Units=GPa)
#
#
# Indices 1 2 3 4 5 6 
#
# 1 90.9651 10.7850 26.5573 0.0000 8.4139 0.0000
# 2 10.7850 78.2269 26.7216 0.0000 24.8005 0.0000
# 3 26.5573 26.7216 65.9965 0.0000 7.3241 0.0000
# 4 0.0000 0.0000 0.0000 37.5930 0.0000 6.0405
# 5 8.4139 24.8005 7.3241 0.0000 32.2118 0.0000
# 6 0.0000 0.0000 0.0000 6.0405 0.0000 32.1299
#
#
#
# Elastic Compliance Matrix: (Units=1/GPa)
#
#
# Indices 1 2 3 4 5 6 
#
# 1 0.012650 0.000913 -0.005145 0.000000 -0.002837 0.000000
# 2 0.000913 0.019214 -0.006647 0.000000 -0.013521 0.000000
# 3 -0.005145 -0.006647 0.019694 0.000000 0.001984 0.000000
# 4 0.000000 0.000000 0.000000 0.027429 0.000000 -0.005157
# 5 -0.002837 -0.013521 0.001984 0.000000 0.041745 0.000000
# 6 0.000000 0.000000 0.000000 -0.005157 0.000000 0.032093
#
#
# Mechanical properties :
#
#
# Convention : Reuss Voigt Hill
#
# Bulk Modulus (GPa) = 33.55670 40.36847 36.96258
# Shear Modulus (GPa) = 27.09796 31.79524 29.44660
#
# Velocity S-wave (km/s) = 3.49316 3.78383 3.64140
# Velocity P-wave (km/s) = 5.60179 6.10472 5.85866
#
# Compressibility (1/GPa) = 0.02980031
#
# Stress axis : x y z
#
# Youngs Moduli (GPa) = 79.05443 52.04413 50.77735
#
# Poissons Ratio (x) = -0.04752 0.26125
# Poissons Ratio (y) = -0.07218 0.33750
# Poissons Ratio (z) = 0.40674 0.34592
#
# Static dielectric constant tensor:
#      x y z
#    x 1.836840 0.000000 -0.001380 
#    y 0.000000 1.807290 0.000000 
#    z -0.001380 0.000000 1.849900 
# 
# From -- ./inp_files/8013.got.cif
#   From: 2010.05.17/outbox.cif.g08.bks.cpg/sg9_5_cif.got.tgz:8013.got - 2010.06.03 20:04:27.
