data_PCOD9140284
_publ_section_title
;
Structure prediction by ZEFSAII (Michael W. Deem and Ramdas Pophale) SiO2 
 PCOD9140284
Probable space group: C C
;
_chemical_formula_sum "Si O2"
_cell_formula_units_Z 32
_cell_length_a 14.939552
_cell_length_b 11.209770
_cell_length_c 9.153705
_cell_angle_alpha 90.000000
_cell_angle_beta 61.990452
_cell_angle_gamma 90.000000
_cell_volume 1353.404532
_symmetry_space_group_name_H-M "C C"
_symmetry_group_IT_number 9
_symmetry_cell_setting 'monoclinic'
loop_
_space_group_symop_operation_xyz
x,y,z
x,-y,1/2+z
1/2+x,1/2+y,z
1/2+x,1/2-y,1/2+z
loop_
_atom_site_type_symbol
_atom_site_label
_atom_site_fract_x
_atom_site_fract_y
_atom_site_fract_z
Si Si1 0.747790 0.471517 0.777620
Si Si2 0.409359 0.770103 0.587916
Si Si3 0.969111 0.767917 0.700139
Si Si4 0.612461 0.518482 0.140625
Si Si5 0.152082 0.388043 0.050228
Si Si6 0.602913 0.748521 0.623981
Si Si7 0.730063 0.117545 0.813037
Si Si8 0.257647 0.244680 0.750464
O O1 0.834529 0.381817 0.666042
O O2 0.644722 0.435146 0.773697
O O3 0.769051 0.606064 0.708473
O O4 0.714456 0.495799 0.968739
O O5 0.439772 0.749620 0.394651
O O6 0.502981 0.800229 0.624224
O O7 0.345843 0.652647 0.688517
O O8 0.872574 0.789191 0.669927
O O9 0.038340 0.884849 0.630890
O O10 0.036077 0.650615 0.609966
O O11 0.569883 0.385725 0.185773
O O12 0.171628 0.398319 0.206189
O O13 0.200495 0.502380 0.932442
O O14 0.216184 0.275402 0.942511
O O15 0.686766 0.769372 0.434729
O O16 0.668114 0.793811 0.713832
#
# Coordination Sequence:
#
# PCOD9140284 Si02
#       8
#     4   4   4   4   4   4   4   4
#     4  11  23  47  75 107 152 193 250 316 370 449
#     4  12  25  46  82 110 150 207 254 304 393 453
#     4  12  25  46  82 110 150 207 254 304 393 453
#     4  11  23  47  75 107 152 193 250 316 370 449
#     4  12  26  49  74 110 162 197 250 319 389 457
#     4  11  26  47  72 116 156 195 255 320 376 449
#     4  12  26  49  74 110 162 197 250 319 389 457
#     4  11  26  47  72 116 156 195 255 320 376 449
#
# _framework density 23.644076999999999
#
# number of rings (size 3 to 8) (size 9 to 14) (size 15 to 20)
#    0.000    0.500    5.000    3.000    3.500    1.000 
#    0.000    0.000    0.000    0.000    0.000    0.000 
#    0.000    0.000    0.000    0.000    0.000    0.000 
#
# Total GULP energy -89305.664926 kJ/mol
# GULP energy per Si atom -5581.604058 kJ/mol
# Density = 2.359026 g / cm^3
# Si number density = 23.644077 Si / 1000 Ang^3
#
#
#
# Elastic Constant Matrix: (Units=GPa)
#
#
# Indices 1 2 3 4 5 6 
#
# 1 115.6729 29.1744 13.0933 0.0000 0.0074 0.0000
# 2 29.1744 84.3189 34.6887 0.0000 -0.1839 0.0000
# 3 13.0933 34.6887 95.2395 0.0000 3.3333 0.0000
# 4 0.0000 0.0000 0.0000 47.3352 0.0000 -7.0223
# 5 0.0074 -0.1839 3.3333 0.0000 39.1675 0.0000
# 6 0.0000 0.0000 0.0000 -7.0223 0.0000 28.7809
#
#
#
# Elastic Compliance Matrix: (Units=1/GPa)
#
#
# Indices 1 2 3 4 5 6 
#
# 1 0.009473 -0.003225 -0.000127 0.000000 -0.000006 0.000000
# 2 -0.003225 0.015058 -0.005059 0.000000 0.000502 0.000000
# 3 -0.000127 -0.005059 0.012398 0.000000 -0.001079 0.000000
# 4 0.000000 0.000000 0.000000 0.021919 0.000000 0.005348
# 5 -0.000006 0.000502 -0.001079 0.000000 0.025626 0.000000
# 6 0.000000 0.000000 0.000000 0.005348 0.000000 0.036050
#
#
# Mechanical properties :
#
#
# Convention : Reuss Voigt Hill
#
# Bulk Modulus (GPa) = 49.73669 49.90491 49.82080
# Shear Modulus (GPa) = 34.71064 37.60837 36.15951
#
# Velocity S-wave (km/s) = 3.83567 3.99256 3.91490
# Velocity P-wave (km/s) = 6.37948 6.51204 6.44610
#
# Compressibility (1/GPa) = 0.02010588
#
# Stress axis : x y z
#
# Youngs Moduli (GPa) = 105.56377 66.41029 80.66076
#
# Poissons Ratio (x) = 0.21419 0.01027
# Poissons Ratio (y) = 0.34047 0.40803
# Poissons Ratio (z) = 0.01345 0.33595
#
# Static dielectric constant tensor:
#      x y z
#    x 1.928230 0.000000 0.002910 
#    y 0.000000 1.977750 0.000000 
#    z 0.002910 0.000000 1.899040 
# 
# From -- ./inp_files/9243.got.cif
#   From: 2010.05.17/outbox.cif.g08.bks.cpg/sg9_5_cif.got.tgz:9243.got - 2010.06.03 20:04:27.
