data_PCOD9140372
_publ_section_title
;
Structure prediction by ZEFSAII (Michael W. Deem and Ramdas Pophale) SiO2 
 PCOD9140372
Probable space group: C C
;
_chemical_formula_sum "Si O2"
_cell_formula_units_Z 28
_cell_length_a 7.909199
_cell_length_b 6.197259
_cell_length_c 28.362801
_cell_angle_alpha 90.000000
_cell_angle_beta 124.282069
_cell_angle_gamma 90.000000
_cell_volume 1148.697502
_symmetry_space_group_name_H-M "C C"
_symmetry_group_IT_number 9
_symmetry_cell_setting 'monoclinic'
loop_
_space_group_symop_operation_xyz
x,y,z
x,-y,1/2+z
1/2+x,1/2+y,z
1/2+x,1/2-y,1/2+z
loop_
_atom_site_type_symbol
_atom_site_label
_atom_site_fract_x
_atom_site_fract_y
_atom_site_fract_z
Si Si1 0.367200 0.726362 0.174870
Si Si2 0.225855 0.302103 0.993872
Si Si3 0.951348 0.526756 0.599455
Si Si4 0.306465 0.965748 0.749409
Si Si5 0.037997 0.958781 0.897745
Si Si6 0.670548 0.335426 0.323307
Si Si7 0.890045 0.224618 0.002801
O O1 0.580244 0.606876 0.198719
O O2 0.178258 0.563448 0.142305
O O3 0.350972 0.916159 0.133469
O O4 0.375646 0.839148 0.227033
O O5 0.093041 0.176643 0.934302
O O6 0.336514 0.144408 0.048140
O O7 0.386184 0.466542 0.996685
O O8 0.044875 0.385140 0.999877
O O9 0.931123 0.738754 0.564092
O O10 0.462099 0.766961 0.770430
O O11 0.290810 0.042793 0.800900
O O12 0.116255 0.005218 0.857352
O O13 0.809364 0.868070 0.860999
O O14 0.171104 0.785291 0.947273
#
# Coordination Sequence:
#
# PCOD9140372 Si02
#       7
#     4   4   4   4   4   4   4
#     4  12  26  47  74 102 144 187 240 304 356 422
#     4  11  24  43  70 107 145 184 234 289 348 451
#     4  11  26  43  72 108 140 189 236 289 366 424
#     4  12  28  48  72 106 138 186 252 298 356 420
#     4  11  26  43  72 108 140 189 236 289 366 424
#     4  12  26  47  74 102 144 187 240 304 356 422
#     4  11  24  43  70 107 145 184 234 289 348 451
#
# _framework density 24.375433000000001
#
# number of rings (size 3 to 8) (size 9 to 14) (size 15 to 20)
#    0.000    0.571    0.000    6.857   12.000    4.571 
#    0.000    0.000    0.000    0.000    0.000    0.000 
#    0.000    0.000    0.000    0.000    0.000    0.000 
#
# Total GULP energy -78365.136712 kJ/mol
# GULP energy per Si atom -5597.509765 kJ/mol
# Density = 2.431995 g / cm^3
# Si number density = 24.375433 Si / 1000 Ang^3
#
#
#
# Elastic Constant Matrix: (Units=GPa)
#
#
# Indices 1 2 3 4 5 6 
#
# 1 74.7137 12.8066 18.4640 0.0000 1.3131 0.0000
# 2 12.8066 63.8368 7.9033 0.0000 0.9591 0.0000
# 3 18.4640 7.9033 82.4919 0.0000 -5.1445 0.0000
# 4 0.0000 0.0000 0.0000 19.6733 0.0000 5.8371
# 5 1.3131 0.9591 -5.1445 0.0000 42.3374 0.0000
# 6 0.0000 0.0000 0.0000 5.8371 0.0000 35.5924
#
#
#
# Elastic Compliance Matrix: (Units=1/GPa)
#
#
# Indices 1 2 3 4 5 6 
#
# 1 0.014591 -0.002536 -0.003071 0.000000 -0.000768 0.000000
# 2 -0.002536 0.016306 -0.001021 0.000000 -0.000415 0.000000
# 3 -0.003071 -0.001021 0.013014 0.000000 0.001700 0.000000
# 4 0.000000 0.000000 0.000000 0.053430 0.000000 -0.008762
# 5 -0.000768 -0.000415 0.001700 0.000000 0.023860 0.000000
# 6 0.000000 0.000000 0.000000 -0.008762 0.000000 0.029533
#
#
# Mechanical properties :
#
#
# Convention : Reuss Voigt Hill
#
# Bulk Modulus (GPa) = 32.61893 33.26557 32.94225
# Shear Modulus (GPa) = 28.70147 31.64517 30.17332
#
# Velocity S-wave (km/s) = 3.43516 3.60702 3.52214
# Velocity P-wave (km/s) = 5.39858 5.56994 5.48493
#
# Compressibility (1/GPa) = 0.03065704
#
# Stress axis : x y z
#
# Youngs Moduli (GPa) = 68.53317 61.32638 76.84297
#
# Poissons Ratio (x) = 0.15549 0.23598
# Poissons Ratio (y) = 0.17377 0.07843
# Poissons Ratio (z) = 0.21046 0.06259
#
# Static dielectric constant tensor:
#      x y z
#    x 1.999490 0.000000 -0.036860 
#    y 0.000000 1.944270 0.000000 
#    z -0.036860 0.000000 1.890400 
# 
# From -- ./inp_files/34717.got.cif
#   From: 2010.05.17/outbox.cif.g08.bks.cpg/sg9_18_cif.got.tgz:34717.got - 2010.06.03 20:04:27.
