data_PCOD9140751
_publ_section_title
;
Structure prediction by ZEFSAII (Michael W. Deem and Ramdas Pophale) SiO2 
 PCOD9140751
Probable space group: C C
;
_chemical_formula_sum "Si O2"
_cell_formula_units_Z 32
_cell_length_a 8.269867
_cell_length_b 17.488431
_cell_length_c 14.369768
_cell_angle_alpha 90.000000
_cell_angle_beta 141.610631
_cell_angle_gamma 90.000000
_cell_volume 1290.602134
_symmetry_space_group_name_H-M "C C"
_symmetry_group_IT_number 9
_symmetry_cell_setting 'monoclinic'
loop_
_space_group_symop_operation_xyz
x,y,z
x,-y,1/2+z
1/2+x,1/2+y,z
1/2+x,1/2-y,1/2+z
loop_
_atom_site_type_symbol
_atom_site_label
_atom_site_fract_x
_atom_site_fract_y
_atom_site_fract_z
Si Si1 0.929410 0.697315 0.120500
Si Si2 0.303488 0.687648 0.002741
Si Si3 0.967698 0.649715 0.508525
Si Si4 0.942238 0.952530 0.270679
Si Si5 0.953448 0.579791 0.295687
Si Si6 0.946853 0.027307 0.986389
Si Si7 0.419094 0.379785 0.744572
Si Si8 0.239383 0.174174 0.836718
O O1 0.881661 0.646998 0.189954
O O2 0.186122 0.655810 0.196086
O O3 0.004705 0.782722 0.181416
O O4 0.745615 0.699419 0.947995
O O5 0.432558 0.759325 0.008232
O O6 0.317310 0.609011 0.952781
O O7 0.003347 0.696511 0.902131
O O8 0.449024 0.671616 0.166033
O O9 0.972638 0.616760 0.405990
O O10 0.688940 0.620589 0.420924
O O11 0.206886 0.608179 0.666075
O O12 0.023886 0.968401 0.413024
O O13 0.176739 0.914921 0.318794
O O14 0.852774 0.033229 0.188329
O O15 0.227691 0.537723 0.399999
O O16 0.709788 0.522883 0.166463
#
# Coordination Sequence:
#
# PCOD9140751 Si02
#       8
#     4   4   4   4   4   4   4   4
#     4  11  25  49  75 108 153 204 258 324 384 473
#     4  11  27  51  75 111 156 203 260 331 390 472
#     4  12  29  47  81 110 155 206 263 322 400 469
#     4  12  29  45  81 116 153 208 262 320 399 473
#     4  12  28  51  77 114 161 205 264 325 397 471
#     4  12  28  48  78 114 163 203 264 326 400 473
#     4  11  25  52  75 111 155 201 259 325 389 469
#     4  11  27  47  78 110 154 204 264 321 399 466
#
# _framework density 24.794626000000001
#
# number of rings (size 3 to 8) (size 9 to 14) (size 15 to 20)
#    0.000    0.500    5.000    0.750   14.000    0.000 
#    0.000    0.000    0.000    0.000    0.000    0.000 
#    0.000    0.000    0.000    0.000    0.000    0.000 
#
# Total GULP energy -89560.523912 kJ/mol
# GULP energy per Si atom -5597.532744 kJ/mol
# Density = 2.473819 g / cm^3
# Si number density = 24.794626 Si / 1000 Ang^3
#
#
#
# Elastic Constant Matrix: (Units=GPa)
#
#
# Indices 1 2 3 4 5 6 
#
# 1 59.8447 31.6245 34.5382 0.0009 -10.6378 0.0008
# 2 31.6245 110.5560 27.2543 0.0009 -0.4916 0.0011
# 3 34.5382 27.2543 102.6229 0.0005 -4.1024 0.0026
# 4 0.0009 0.0009 0.0005 34.1839 0.0009 3.6597
# 5 -10.6378 -0.4916 -4.1024 0.0009 41.5119 0.0011
# 6 0.0008 0.0011 0.0026 3.6597 0.0011 52.0710
#
#
#
# Elastic Compliance Matrix: (Units=1/GPa)
#
#
# Indices 1 2 3 4 5 6 
#
# 1 0.024266 -0.005305 -0.006538 -0.000001 0.005509 0.000000
# 2 -0.005305 0.010839 -0.001147 0.000000 -0.001344 0.000000
# 3 -0.006538 -0.001147 0.012230 0.000000 -0.000480 0.000000
# 4 -0.000001 0.000000 0.000000 0.029475 -0.000001 -0.002072
# 5 0.005509 -0.001344 -0.000480 -0.000001 0.025438 -0.000001
# 6 0.000000 0.000000 0.000000 -0.002072 -0.000001 0.019350
#
#
# Mechanical properties :
#
#
# Convention : Reuss Voigt Hill
#
# Bulk Modulus (GPa) = 46.82536 51.09529 48.96032
# Shear Modulus (GPa) = 32.32130 37.52712 34.92421
#
# Velocity S-wave (km/s) = 3.61440 3.89462 3.75712
# Velocity P-wave (km/s) = 6.02867 6.39345 6.21374
#
# Compressibility (1/GPa) = 0.02135595
#
# Stress axis : x y z
#
# Youngs Moduli (GPa) = 41.21041 92.25533 81.76542
#
# Poissons Ratio (x) = 0.48942 0.53455
# Poissons Ratio (y) = 0.21862 0.09379
# Poissons Ratio (z) = 0.26942 0.10582
#
# Static dielectric constant tensor:
#      x y z
#    x 2.015220 0.000000 0.031720 
#    y 0.000000 1.976280 0.000000 
#    z 0.031720 0.000000 1.953570 
# 
# From -- ./inp_files/23694.got.cif
#   From: 2010.05.17/outbox.cif.g08.bks.cpg/sg9_12_cif.got.tgz:23694.got - 2010.06.03 20:04:27.
