data_PCOD9140922
_publ_section_title
;
Structure prediction by ZEFSAII (Michael W. Deem and Ramdas Pophale) SiO2 
 PCOD9140922
Probable space group: C C
;
_chemical_formula_sum "Si O2"
_cell_formula_units_Z 32
_cell_length_a 14.796693
_cell_length_b 11.601474
_cell_length_c 9.980871
_cell_angle_alpha 90.000000
_cell_angle_beta 109.586836
_cell_angle_gamma 90.000000
_cell_volume 1614.206843
_symmetry_space_group_name_H-M "C C"
_symmetry_group_IT_number 9
_symmetry_cell_setting 'monoclinic'
loop_
_space_group_symop_operation_xyz
x,y,z
x,-y,1/2+z
1/2+x,1/2+y,z
1/2+x,1/2-y,1/2+z
loop_
_atom_site_type_symbol
_atom_site_label
_atom_site_fract_x
_atom_site_fract_y
_atom_site_fract_z
Si Si1 0.375000 0.739579 0.157540
Si Si2 0.961722 0.355632 0.459355
Si Si3 0.968317 0.009596 0.664320
Si Si4 0.158941 0.232515 0.482540
Si Si5 0.088455 0.012920 0.977764
Si Si6 0.164670 0.239492 0.164339
Si Si7 0.384423 0.250945 0.190392
Si Si8 0.488427 0.128535 0.482256
O O1 0.400016 0.800496 0.309140
O O2 0.426282 0.615758 0.173486
O O3 0.262396 0.721707 0.077020
O O4 0.421482 0.821601 0.067443
O O5 0.067922 0.298240 0.501140
O O6 0.909091 0.321282 0.570189
O O7 0.971696 0.493311 0.452488
O O8 0.901193 0.115348 0.667227
O O9 0.059302 0.027334 0.808637
O O10 0.995399 0.016416 0.521735
O O11 0.148911 0.236935 0.316283
O O12 0.155387 0.098206 0.521242
O O13 0.128156 0.125409 0.069821
O O14 0.276787 0.242776 0.189982
O O15 0.098213 0.342231 0.074846
O O16 0.456717 0.202474 0.338111
#
# Coordination Sequence:
#
# PCOD9140922 Si02
#       8
#     4   4   4   4   4   4   4   4
#     4  12  25  47  71 100 142 186 225 279 356 405
#     4  12  27  47  65 105 145 178 230 288 339 408
#     4  12  22  46  70 100 136 181 227 293 334 398
#     4  12  26  45  71 103 137 189 225 280 353 403
#     4  12  22  44  71  96 140 176 236 281 335 403
#     4  12  26  45  70 105 137 185 229 280 350 407
#     4  12  27  43  70 109 134 180 238 281 342 406
#     4  12  25  47  68 100 145 187 222 282 347 416
#
# _framework density 19.823976999999999
#
# number of rings (size 3 to 8) (size 9 to 14) (size 15 to 20)
#    0.000    0.000    8.750    0.750    5.250    2.000 
#    0.000    0.000    0.000    0.000    0.000    0.000 
#    0.000    0.000    0.000    0.000    0.000    0.000 
#
# Total GULP energy -89470.842513 kJ/mol
# GULP energy per Si atom -5591.927657 kJ/mol
# Density = 1.977886 g / cm^3
# Si number density = 19.823977 Si / 1000 Ang^3
#
#
#
# Elastic Constant Matrix: (Units=GPa)
#
#
# Indices 1 2 3 4 5 6 
#
# 1 44.3530 13.4506 -9.2315 0.0000 3.2176 0.0000
# 2 13.4506 92.8886 3.3823 0.0000 2.8990 0.0000
# 3 -9.2315 3.3823 74.3161 0.0000 -2.1048 0.0000
# 4 0.0000 0.0000 0.0000 21.7423 0.0000 -2.7885
# 5 3.2176 2.8990 -2.1048 0.0000 35.5826 0.0000
# 6 0.0000 0.0000 0.0000 -2.7885 0.0000 24.4008
#
#
#
# Elastic Compliance Matrix: (Units=1/GPa)
#
#
# Indices 1 2 3 4 5 6 
#
# 1 0.024418 -0.003596 0.003148 0.000000 -0.001729 0.000000
# 2 -0.003596 0.011343 -0.000982 0.000000 -0.000657 0.000000
# 3 0.003148 -0.000982 0.013909 0.000000 0.000618 0.000000
# 4 0.000000 0.000000 0.000000 0.046677 0.000000 0.005334
# 5 -0.001729 -0.000657 0.000618 0.000000 0.028350 0.000000
# 6 0.000000 0.000000 0.000000 0.005334 0.000000 0.041592
#
#
# Mechanical properties :
#
#
# Convention : Reuss Voigt Hill
#
# Bulk Modulus (GPa) = 21.36331 25.19559 23.27945
# Shear Modulus (GPa) = 27.06330 29.94224 28.50277
#
# Velocity S-wave (km/s) = 3.69884 3.89061 3.79594
# Velocity P-wave (km/s) = 5.38905 5.73757 5.56604
#
# Compressibility (1/GPa) = 0.04680922
#
# Stress axis : x y z
#
# Youngs Moduli (GPa) = 40.95403 88.16319 71.89462
#
# Poissons Ratio (x) = 0.31707 -0.22631
# Poissons Ratio (y) = 0.14729 0.07057
# Poissons Ratio (z) = -0.12892 0.08654
#
# Static dielectric constant tensor:
#      x y z
#    x 1.689030 0.000000 0.001460 
#    y 0.000000 1.675210 0.000000 
#    z 0.001460 0.000000 1.701150 
# 
# From -- ./inp_files/9069.got.cif
#   From: 2010.05.17/outbox.cif.g08.bks.cpg/sg9_5_cif.got.tgz:9069.got - 2010.06.03 20:04:27.
