data_PCOD9140287
_publ_section_title
;
Structure prediction by ZEFSAII (Michael W. Deem and Ramdas Pophale) SiO2 
 PCOD9140287
Probable space group: C C
;
_chemical_formula_sum "Si O2"
_cell_formula_units_Z 32
_cell_length_a 14.843414
_cell_length_b 7.962457
_cell_length_c 11.350793
_cell_angle_alpha 90.000000
_cell_angle_beta 112.588085
_cell_angle_gamma 90.000000
_cell_volume 1238.640538
_symmetry_space_group_name_H-M "C C"
_symmetry_group_IT_number 9
_symmetry_cell_setting 'monoclinic'
loop_
_space_group_symop_operation_xyz
x,y,z
x,-y,1/2+z
1/2+x,1/2+y,z
1/2+x,1/2-y,1/2+z
loop_
_atom_site_type_symbol
_atom_site_label
_atom_site_fract_x
_atom_site_fract_y
_atom_site_fract_z
Si Si1 0.495490 0.352955 0.683930
Si Si2 0.916935 0.309210 0.915805
Si Si3 0.700601 0.335031 0.063189
Si Si4 0.235742 0.190925 0.966292
Si Si5 0.103779 0.636288 0.221119
Si Si6 0.917170 0.200973 0.676897
Si Si7 0.192621 0.283973 0.315018
Si Si8 0.886004 0.665953 0.820721
O O1 0.459652 0.229571 0.563283
O O2 0.447292 0.529787 0.630805
O O3 0.611919 0.351588 0.737095
O O4 0.462385 0.292053 0.797808
O O5 0.944945 0.179942 0.827729
O O6 0.799963 0.289595 0.855934
O O7 0.939678 0.493719 0.879395
O O8 0.633302 0.267501 0.134151
O O9 0.806657 0.346368 0.176572
O O10 0.694197 0.514953 0.994424
O O11 0.689100 0.197088 0.954805
O O12 0.147783 0.293328 0.865802
O O13 0.318174 0.196242 0.902015
O O14 0.302782 0.266912 0.103153
O O15 0.157582 0.456818 0.236543
O O16 0.986561 0.648004 0.167272
#
# Coordination Sequence:
#
# PCOD9140287 Si02
#       8
#     4   4   4   4   4   4   4   4
#     4  12  29  47  76 114 156 204 263 317 387 463
#     4  12  27  50  75 112 156 201 261 319 391 457
#     4  11  24  49  79 106 153 198 260 311 394 450
#     4  11  24  47  78 106 148 198 254 320 386 449
#     4  11  29  47  74 115 151 201 261 319 388 459
#     4  12  29  47  75 113 154 208 257 313 387 459
#     4  12  27  48  76 113 154 203 256 322 385 458
#     4  11  23  47  79 103 148 195 252 313 382 451
#
# _framework density 25.834773999999999
#
# number of rings (size 3 to 8) (size 9 to 14) (size 15 to 20)
#    0.000    0.500    3.750    2.250   10.500    3.000 
#    0.000    0.000    0.000    0.000    0.000    0.000 
#    0.000    0.000    0.000    0.000    0.000    0.000 
#
# Total GULP energy -89479.490454 kJ/mol
# GULP energy per Si atom -5592.468153 kJ/mol
# Density = 2.577597 g / cm^3
# Si number density = 25.834774 Si / 1000 Ang^3
#
#
#
# Elastic Constant Matrix: (Units=GPa)
#
#
# Indices 1 2 3 4 5 6 
#
# 1 59.3905 13.1883 23.2955 0.0000 18.8654 0.0000
# 2 13.1883 111.2292 21.7610 0.0000 0.5368 0.0000
# 3 23.2955 21.7610 112.9940 0.0000 -1.3264 0.0000
# 4 0.0000 0.0000 0.0000 43.1919 0.0000 -6.3417
# 5 18.8654 0.5368 -1.3264 0.0000 32.4130 0.0000
# 6 0.0000 0.0000 0.0000 -6.3417 0.0000 31.6334
#
#
#
# Elastic Compliance Matrix: (Units=1/GPa)
#
#
# Indices 1 2 3 4 5 6 
#
# 1 0.023448 -0.001804 -0.004649 0.000000 -0.013808 0.000000
# 2 -0.001804 0.009483 -0.001445 0.000000 0.000834 0.000000
# 3 -0.004649 -0.001445 0.010124 0.000000 0.003144 0.000000
# 4 0.000000 0.000000 0.000000 0.023855 0.000000 0.004782
# 5 -0.013808 0.000834 0.003144 0.000000 0.039003 0.000000
# 6 0.000000 0.000000 0.000000 0.004782 0.000000 0.032571
#
#
# Mechanical properties :
#
#
# Convention : Reuss Voigt Hill
#
# Bulk Modulus (GPa) = 36.68447 44.45593 40.57020
# Shear Modulus (GPa) = 30.60646 36.47225 33.53936
#
# Velocity S-wave (km/s) = 3.44568 3.76140 3.60700
# Velocity P-wave (km/s) = 5.48277 6.00911 5.75196
#
# Compressibility (1/GPa) = 0.02725949
#
# Stress axis : x y z
#
# Youngs Moduli (GPa) = 42.64800 105.45255 98.77952
#
# Poissons Ratio (x) = 0.19024 0.45920
# Poissons Ratio (y) = 0.07694 0.14269
# Poissons Ratio (z) = 0.19826 0.15233
#
# Static dielectric constant tensor:
#      x y z
#    x 2.045590 0.000000 -0.073730 
#    y 0.000000 1.995740 0.000000 
#    z -0.073730 0.000000 2.024260 
# 
# From -- ./inp_files/17965.got.cif
#   From: 2010.05.17/outbox.cif.g08.bks.cpg/sg9_9_cif.got.tgz:17965.got - 2010.06.03 20:04:27.
