data_PCOD9140444
_publ_section_title
;
Structure prediction by ZEFSAII (Michael W. Deem and Ramdas Pophale) SiO2 
 PCOD9140444
Probable space group: C C
;
_chemical_formula_sum "Si O2"
_cell_formula_units_Z 32
_cell_length_a 11.196997
_cell_length_b 14.921755
_cell_length_c 15.848205
_cell_angle_alpha 90.000000
_cell_angle_beta 31.845328
_cell_angle_gamma 90.000000
_cell_volume 1397.106077
_symmetry_space_group_name_H-M "C C"
_symmetry_group_IT_number 9
_symmetry_cell_setting 'monoclinic'
loop_
_space_group_symop_operation_xyz
x,y,z
x,-y,1/2+z
1/2+x,1/2+y,z
1/2+x,1/2-y,1/2+z
loop_
_atom_site_type_symbol
_atom_site_label
_atom_site_fract_x
_atom_site_fract_y
_atom_site_fract_z
Si Si1 0.444610 0.851706 0.097290
Si Si2 0.631472 0.663091 0.226539
Si Si3 0.242971 0.851348 0.954695
Si Si4 0.641297 0.978778 0.767017
Si Si5 0.556633 0.957448 0.511009
Si Si6 0.354758 0.352943 0.053936
Si Si7 0.866874 0.834278 0.724786
Si Si8 0.476747 0.337318 0.286710
O O1 0.441399 0.765611 0.158018
O O2 0.191811 0.861787 0.213484
O O3 0.620655 0.829025 0.916628
O O4 0.513590 0.950244 0.085755
O O5 0.423331 0.657995 0.415756
O O6 0.719992 0.764716 0.164855
O O7 0.541959 0.629571 0.189428
O O8 0.835869 0.603837 0.138443
O O9 0.412355 0.932845 0.871566
O O10 0.392603 0.761890 0.858678
O O11 0.091854 0.858033 0.962253
O O12 0.066502 0.841897 0.137244
O O13 0.829563 0.900390 0.668359
O O14 0.608557 0.017605 0.881659
O O15 0.721556 0.058071 0.659039
O O16 0.766859 0.903835 0.422159
#
# Coordination Sequence:
#
# PCOD9140444 Si02
#       8
#     4   4   4   4   4   4   4   4
#     4  11  24  45  73 107 142 198 241 298 371 435
#     4  12  27  50  72 105 152 196 246 302 365 448
#     4  12  24  46  76 106 148 190 245 309 361 440
#     4  11  25  46  74 108 143 194 240 301 379 426
#     4  11  25  43  75 108 146 196 244 300 371 434
#     4  12  26  50  73 109 145 198 252 300 369 439
#     4  11  25  48  73 104 151 190 237 302 372 438
#     4  12  22  46  74 105 151 186 249 300 364 442
#
# _framework density 22.904488000000001
#
# number of rings (size 3 to 8) (size 9 to 14) (size 15 to 20)
#    0.000    0.500    6.250    2.250    5.250    1.000 
#    9.000    0.000    0.000    0.000    0.000    0.000 
#    0.000    0.000    0.000    0.000    0.000    0.000 
#
# Total GULP energy -89645.231843 kJ/mol
# GULP energy per Si atom -5602.826990 kJ/mol
# Density = 2.285236 g / cm^3
# Si number density = 22.904488 Si / 1000 Ang^3
#
#
#
# Elastic Constant Matrix: (Units=GPa)
#
#
# Indices 1 2 3 4 5 6 
#
# 1 46.3241 5.2238 3.8643 0.0082 -1.5986 0.0051
# 2 5.2238 152.3655 69.2533 -0.0040 2.1934 0.0059
# 3 3.8643 69.2533 89.1775 -0.0083 -12.6402 0.0083
# 4 0.0082 -0.0040 -0.0083 34.6693 -0.0025 -3.0631
# 5 -1.5986 2.1934 -12.6402 -0.0025 26.5270 -0.0042
# 6 0.0051 0.0059 0.0083 -3.0631 -0.0042 28.8416
#
#
#
# Elastic Compliance Matrix: (Units=1/GPa)
#
#
# Indices 1 2 3 4 5 6 
#
# 1 0.021724 -0.000640 -0.000269 -0.000006 0.001234 -0.000004
# 2 -0.000640 0.010800 -0.009106 -0.000001 -0.005271 0.000000
# 3 -0.000269 -0.009106 0.019734 0.000004 0.010140 -0.000002
# 4 -0.000006 -0.000001 0.000004 0.029117 0.000005 0.003092
# 5 0.001234 -0.005271 0.010140 0.000005 0.043040 0.000005
# 6 -0.000004 0.000000 -0.000002 0.003092 0.000005 0.035001
#
#
# Mechanical properties :
#
#
# Convention : Reuss Voigt Hill
#
# Bulk Modulus (GPa) = 31.03006 49.39444 40.21225
# Shear Modulus (GPa) = 26.28947 31.97597 29.13272
#
# Velocity S-wave (km/s) = 3.39158 3.74044 3.57027
# Velocity P-wave (km/s) = 5.37718 6.34561 5.88136
#
# Compressibility (1/GPa) = 0.03222682
#
# Stress axis : x y z
#
# Youngs Moduli (GPa) = 46.03146 92.59213 50.67286
#
# Poissons Ratio (x) = 0.05927 0.01365
# Poissons Ratio (y) = 0.02947 0.46145
# Poissons Ratio (z) = 0.01240 0.84318
#
# Static dielectric constant tensor:
#      x y z
#    x 1.878050 0.000000 0.005170 
#    y 0.000000 1.836290 0.000000 
#    z 0.005170 0.000000 1.815080 
# 
# From -- ./inp_files/7414.got.cif
#   From: 2010.05.17/outbox.cif.g08.bks.cpg/sg9_4_cif.got.tgz:7414.got - 2010.06.03 20:04:27.
