data_PCOD9140560
_publ_section_title
;
Structure prediction by ZEFSAII (Michael W. Deem and Ramdas Pophale) SiO2 
 PCOD9140560
Probable space group: C C
;
_chemical_formula_sum "Si O2"
_cell_formula_units_Z 32
_cell_length_a 8.815716
_cell_length_b 18.557002
_cell_length_c 13.828985
_cell_angle_alpha 90.000000
_cell_angle_beta 41.062308
_cell_angle_gamma 90.000000
_cell_volume 1486.077077
_symmetry_space_group_name_H-M "C C"
_symmetry_group_IT_number 9
_symmetry_cell_setting 'monoclinic'
loop_
_space_group_symop_operation_xyz
x,y,z
x,-y,1/2+z
1/2+x,1/2+y,z
1/2+x,1/2-y,1/2+z
loop_
_atom_site_type_symbol
_atom_site_label
_atom_site_fract_x
_atom_site_fract_y
_atom_site_fract_z
Si Si1 0.116230 0.677331 0.627520
Si Si2 0.961364 0.310120 0.660500
Si Si3 0.231125 0.052004 0.594193
Si Si4 0.921515 0.899190 0.416480
Si Si5 0.673050 0.301501 0.457906
Si Si6 0.608980 0.613476 0.184883
Si Si7 0.689927 0.949268 0.987206
Si Si8 0.110455 0.166933 0.497235
O O1 0.086973 0.724902 0.543462
O O2 0.058618 0.593818 0.634427
O O3 0.377403 0.672925 0.544000
O O4 0.935303 0.706532 0.793721
O O5 0.178516 0.359150 0.529518
O O6 0.053908 0.229651 0.600759
O O7 0.774544 0.342313 0.676189
O O8 0.835395 0.316423 0.824234
O O9 0.498996 0.041309 0.495585
O O10 0.167266 0.092434 0.525340
O O11 0.090041 0.096875 0.743313
O O12 0.149624 0.970192 0.640873
O O13 0.046898 0.849861 0.437210
O O14 0.830745 0.983222 0.464003
O O15 0.640306 0.347882 0.569238
O O16 0.368124 0.606967 0.355369
#
# Coordination Sequence:
#
# PCOD9140560 Si02
#       8
#     4   4   4   4   4   4   4   4
#     4  12  25  45  74 103 144 187 247 291 363 431
#     4  12  25  48  69 106 148 188 246 303 359 438
#     4  11  26  47  72 109 142 191 242 300 364 438
#     4  11  27  46  72 106 149 185 242 299 364 433
#     4  12  27  45  75 107 145 195 239 300 367 429
#     4  11  25  45  73 103 147 190 240 300 369 429
#     4  11  24  48  71 103 147 185 238 302 354 440
#     4  12  27  44  76 105 142 195 242 299 370 424
#
# _framework density 21.533203
#
# number of rings (size 3 to 8) (size 9 to 14) (size 15 to 20)
#    0.000    0.500    5.000    2.250    7.000    2.000 
#    0.000    0.000    0.000    0.000    0.000    0.000 
#    0.000    0.000    0.000    0.000    0.000    0.000 
#
# Total GULP energy -89097.536539 kJ/mol
# GULP energy per Si atom -5568.596034 kJ/mol
# Density = 2.148419 g / cm^3
# Si number density = 21.533203 Si / 1000 Ang^3
#
#
#
# Elastic Constant Matrix: (Units=GPa)
#
#
# Indices 1 2 3 4 5 6 
#
# 1 55.8965 37.0893 34.1715 -0.0012 -0.0564 -0.0005
# 2 37.0893 117.5369 26.0116 -0.0011 7.6942 -0.0020
# 3 34.1715 26.0116 107.7138 -0.0062 -10.2060 -0.0077
# 4 -0.0012 -0.0011 -0.0062 42.4506 0.0037 6.9786
# 5 -0.0564 7.6942 -10.2060 0.0037 23.7251 0.0040
# 6 -0.0005 -0.0020 -0.0077 6.9786 0.0040 31.0645
#
#
#
# Elastic Compliance Matrix: (Units=1/GPa)
#
#
# Indices 1 2 3 4 5 6 
#
# 1 0.026619 -0.006839 -0.006857 0.000000 -0.000668 -0.000002
# 2 -0.006839 0.011127 -0.000898 0.000000 -0.004011 0.000001
# 3 -0.006857 -0.000898 0.012199 0.000001 0.005523 0.000002
# 4 0.000000 0.000000 0.000001 0.024460 -0.000003 -0.005495
# 5 -0.000668 -0.004011 0.005523 -0.000003 0.045824 -0.000004
# 6 -0.000002 0.000001 0.000002 -0.005495 -0.000004 0.033425
#
#
# Mechanical properties :
#
#
# Convention : Reuss Voigt Hill
#
# Bulk Modulus (GPa) = 48.17055 52.85467 50.51261
# Shear Modulus (GPa) = 26.34906 31.70638 29.02772
#
# Velocity S-wave (km/s) = 3.50186 3.84140 3.67556
# Velocity P-wave (km/s) = 6.22653 6.65388 6.44375
#
# Compressibility (1/GPa) = 0.02075957
#
# Stress axis : x y z
#
# Youngs Moduli (GPa) = 37.56746 89.87054 81.97333
#
# Poissons Ratio (x) = 0.61458 0.56205
# Poissons Ratio (y) = 0.25691 0.07358
# Poissons Ratio (z) = 0.25758 0.08067
#
# Static dielectric constant tensor:
#      x y z
#    x 1.809980 0.000020 -0.065880 
#    y 0.000020 1.739910 -0.000010 
#    z -0.065880 -0.000010 1.775230 
# 
# From -- ./inp_files/23652.got.cif
#   From: 2010.05.17/outbox.cif.g08.bks.cpg/sg9_12_cif.got.tgz:23652.got - 2010.06.03 20:04:27.
