data_PCOD9140062
_publ_section_title
;
Structure prediction by ZEFSAII (Michael W. Deem and Ramdas Pophale) SiO2 
 PCOD9140062
Probable space group: C C
;
_chemical_formula_sum "Si O2"
_cell_formula_units_Z 16
_cell_length_a 19.749395
_cell_length_b 5.092735
_cell_length_c 9.709128
_cell_angle_alpha 90.000000
_cell_angle_beta 139.841252
_cell_angle_gamma 90.000000
_cell_volume 629.770910
_symmetry_space_group_name_H-M "C C"
_symmetry_group_IT_number 9
_symmetry_cell_setting 'monoclinic'
loop_
_space_group_symop_operation_xyz
x,y,z
x,-y,1/2+z
1/2+x,1/2+y,z
1/2+x,1/2-y,1/2+z
loop_
_atom_site_type_symbol
_atom_site_label
_atom_site_fract_x
_atom_site_fract_y
_atom_site_fract_z
Si Si1 0.541640 0.043167 0.973130
Si Si2 0.746580 0.815882 0.905721
Si Si3 0.967249 0.797483 0.123184
Si Si4 0.646389 0.684696 0.345687
O O1 0.495423 0.960583 0.756894
O O2 0.574411 0.772809 0.101537
O O3 0.654612 0.185900 0.147263
O O4 0.470609 0.204675 0.969735
O O5 0.737562 0.528436 0.956766
O O6 0.706993 0.035557 0.952317
O O7 0.855812 0.885885 0.006911
O O8 0.059427 0.008447 0.288777
#
# Coordination Sequence:
#
# PCOD9140062 Si02
#       4
#     4   4   4   4
#     4   9  24  45  72 109 146 188 249 304 356 457
#     4   9  22  45  66 106 141 195 236 295 365 436
#     4  11  22  49  76 108 150 196 238 315 374 430
#     4   9  22  45  62 107 141 185 243 294 349 449
#
# _framework density 25.406065000000002
#
# number of rings (size 3 to 8) (size 9 to 14) (size 15 to 20)
#    1.500    1.000    0.000    0.000    3.500    4.000 
#   22.500    0.000    0.000    0.000    0.000    0.000 
#    0.000    0.000    0.000    0.000    0.000    0.000 
#
# Total GULP energy -44584.822190 kJ/mol
# GULP energy per Si atom -5573.102774 kJ/mol
# Density = 2.534824 g / cm^3
# Si number density = 25.406065 Si / 1000 Ang^3
#
#
#
# Elastic Constant Matrix: (Units=GPa)
#
#
# Indices 1 2 3 4 5 6 
#
# 1 176.4368 29.3998 32.6798 0.0000 37.6332 0.0000
# 2 29.3998 155.5018 3.8537 0.0000 2.3233 0.0000
# 3 32.6798 3.8537 39.5266 0.0000 5.8836 0.0000
# 4 0.0000 0.0000 0.0000 29.5965 0.0000 -8.0378
# 5 37.6332 2.3233 5.8836 0.0000 36.8792 0.0000
# 6 0.0000 0.0000 0.0000 -8.0378 0.0000 38.1998
#
#
#
# Elastic Compliance Matrix: (Units=1/GPa)
#
#
# Indices 1 2 3 4 5 6 
#
# 1 0.008644 -0.001373 -0.005852 0.000000 -0.007801 0.000000
# 2 -0.001373 0.006668 0.000347 0.000000 0.000925 0.000000
# 3 -0.005852 0.000347 0.029929 0.000000 0.001175 0.000000
# 4 0.000000 0.000000 0.000000 0.035836 0.000000 0.007540
# 5 -0.007801 0.000925 0.001175 0.000000 0.034830 0.000000
# 6 0.000000 0.000000 0.000000 0.007540 0.000000 0.027765
#
#
# Mechanical properties :
#
#
# Convention : Reuss Voigt Hill
#
# Bulk Modulus (GPa) = 31.76011 55.92575 43.84293
# Shear Modulus (GPa) = 29.77574 41.30392 35.53983
#
# Velocity S-wave (km/s) = 3.42715 4.03643 3.74421
# Velocity P-wave (km/s) = 5.30930 6.61697 5.99887
#
# Compressibility (1/GPa) = 0.03148604
#
# Stress axis : x y z
#
# Youngs Moduli (GPa) = 115.68322 149.97216 33.41254
#
# Poissons Ratio (x) = 0.20587 0.19553
# Poissons Ratio (y) = 0.15880 -0.01160
# Poissons Ratio (z) = 0.67697 -0.05206
#
# Static dielectric constant tensor:
#      x y z
#    x 2.157980 0.000000 -0.100400 
#    y 0.000000 1.996520 0.000000 
#    z -0.100400 0.000000 2.093840 
# 
# From -- ./inp_files/8633.got.cif
#   From: 2010.05.17/outbox.cif.g08.bks.cpg/sg9_5_cif.got.tgz:8633.got - 2010.06.03 20:04:27.
