data_PCOD9140266
_publ_section_title
;
Structure prediction by ZEFSAII (Michael W. Deem and Ramdas Pophale) SiO2 
 PCOD9140266
Probable space group: C C
;
_chemical_formula_sum "Si O2"
_cell_formula_units_Z 28
_cell_length_a 10.833645
_cell_length_b 7.764762
_cell_length_c 21.511293
_cell_angle_alpha 90.000000
_cell_angle_beta 37.457711
_cell_angle_gamma 90.000000
_cell_volume 1100.520991
_symmetry_space_group_name_H-M "C C"
_symmetry_group_IT_number 9
_symmetry_cell_setting 'monoclinic'
loop_
_space_group_symop_operation_xyz
x,y,z
x,-y,1/2+z
1/2+x,1/2+y,z
1/2+x,1/2-y,1/2+z
loop_
_atom_site_type_symbol
_atom_site_label
_atom_site_fract_x
_atom_site_fract_y
_atom_site_fract_z
Si Si1 0.609320 0.201238 0.301930
Si Si2 0.139149 0.926330 0.738827
Si Si3 0.467211 0.489296 0.185411
Si Si4 0.599976 0.839101 0.565584
Si Si5 0.625955 0.200345 0.908011
Si Si6 0.016781 0.095393 0.958887
Si Si7 0.356380 0.129804 0.910970
O O1 0.581947 0.379006 0.278165
O O2 0.590505 0.259410 0.381036
O O3 0.827816 0.120481 0.203747
O O4 0.450847 0.051524 0.349995
O O5 0.107623 0.913689 0.678032
O O6 0.372603 0.907644 0.665151
O O7 0.990718 0.784588 0.827682
O O8 0.582075 0.358262 0.094993
O O9 0.300776 0.382409 0.294292
O O10 0.642259 0.848779 0.474486
O O11 0.776482 0.916199 0.539150
O O12 0.607565 0.406869 0.908798
O O13 0.417991 0.136173 0.958337
O O14 0.126822 0.147615 0.979045
#
# Coordination Sequence:
#
# PCOD9140266 Si02
#       7
#     4   4   4   4   4   4   4
#     4  11  23  46  82 107 148 209 252 310 391 455
#     4  12  24  47  78 109 151 204 252 313 385 457
#     4  11  25  48  75 110 154 199 260 318 379 459
#     4  12  28  47  74 122 156 195 265 318 382 461
#     4  11  26  49  78 110 157 200 257 319 379 464
#     4  12  24  45  78 114 151 202 257 315 392 447
#     4  11  24  46  83 108 147 207 255 307 388 459
#
# _framework density 25.442495000000001
#
# number of rings (size 3 to 8) (size 9 to 14) (size 15 to 20)
#    0.000    0.571    5.714    2.571    0.000    6.857 
#    2.571    0.000    0.000    0.000    0.000    0.000 
#    0.000    0.000    0.000    0.000    0.000    0.000 
#
# Total GULP energy -78339.915088 kJ/mol
# GULP energy per Si atom -5595.708221 kJ/mol
# Density = 2.538459 g / cm^3
# Si number density = 25.442495 Si / 1000 Ang^3
#
#
#
# Elastic Constant Matrix: (Units=GPa)
#
#
# Indices 1 2 3 4 5 6 
#
# 1 230.4326 28.4216 61.3699 0.0000 -42.5607 0.0000
# 2 28.4216 145.3047 36.9430 0.0000 -18.6327 0.0000
# 3 61.3699 36.9430 121.1761 0.0000 -7.0007 0.0000
# 4 0.0000 0.0000 0.0000 27.4370 0.0000 9.2316
# 5 -42.5607 -18.6327 -7.0007 0.0000 31.3843 0.0000
# 6 0.0000 0.0000 0.0000 9.2316 0.0000 11.6202
#
#
#
# Elastic Compliance Matrix: (Units=1/GPa)
#
#
# Indices 1 2 3 4 5 6 
#
# 1 0.006701 0.000592 -0.003068 0.000000 0.008754 0.000000
# 2 0.000592 0.008036 -0.002459 0.000000 0.005025 0.000000
# 3 -0.003068 -0.002459 0.010365 0.000000 -0.003309 0.000000
# 4 0.000000 0.000000 0.000000 0.049744 0.000000 -0.039519
# 5 0.008754 0.005025 -0.003309 0.000000 0.045980 0.000000
# 6 0.000000 0.000000 0.000000 -0.039519 0.000000 0.117452
#
#
# Mechanical properties :
#
#
# Convention : Reuss Voigt Hill
#
# Bulk Modulus (GPa) = 65.65915 83.37581 74.51748
# Shear Modulus (GPa) = 19.74525 38.76689 29.25607
#
# Velocity S-wave (km/s) = 2.78883 3.90770 3.39468
# Velocity P-wave (km/s) = 6.01939 7.29394 6.68710
#
# Compressibility (1/GPa) = 0.01523017
#
# Stress axis : x y z
#
# Youngs Moduli (GPa) = 149.23933 124.44043 96.47825
#
# Poissons Ratio (x) = -0.07367 0.29602
# Poissons Ratio (y) = -0.08835 0.23728
# Poissons Ratio (z) = 0.45791 0.30605
#
# Static dielectric constant tensor:
#      x y z
#    x 2.091440 0.000000 -0.018570 
#    y 0.000000 1.984450 0.000000 
#    z -0.018570 0.000000 2.055840 
# 
# From -- ./inp_files/35255.got.cif
#   From: 2010.05.17/outbox.cif.g08.bks.cpg/sg9_18_cif.got.tgz:35255.got - 2010.06.03 20:04:27.
