data_PCOD9140923
_publ_section_title
;
Structure prediction by ZEFSAII (Michael W. Deem and Ramdas Pophale) SiO2 
 PCOD9140923
Probable space group: C C
;
_chemical_formula_sum "Si O2"
_cell_formula_units_Z 32
_cell_length_a 11.594432
_cell_length_b 15.084447
_cell_length_c 7.939111
_cell_angle_alpha 90.000000
_cell_angle_beta 58.251676
_cell_angle_gamma 90.000000
_cell_volume 1180.748653
_symmetry_space_group_name_H-M "C C"
_symmetry_group_IT_number 9
_symmetry_cell_setting 'monoclinic'
loop_
_space_group_symop_operation_xyz
x,y,z
x,-y,1/2+z
1/2+x,1/2+y,z
1/2+x,1/2-y,1/2+z
loop_
_atom_site_type_symbol
_atom_site_label
_atom_site_fract_x
_atom_site_fract_y
_atom_site_fract_z
Si Si1 0.398100 0.524939 0.869200
Si Si2 0.603307 0.272821 0.753772
Si Si3 0.401495 0.917750 0.005245
Si Si4 0.785879 0.428619 0.757613
Si Si5 0.677660 0.117309 0.485439
Si Si6 0.574652 0.417322 0.531520
Si Si7 0.726243 0.748829 0.650828
Si Si8 0.939430 0.796950 0.198287
O O1 0.592518 0.315322 0.573280
O O2 0.257118 0.473502 0.966233
O O3 0.508965 0.449737 0.755857
O O4 0.455198 0.573735 0.988271
O O5 0.706218 0.341755 0.763490
O O6 0.660370 0.175776 0.667153
O O7 0.474914 0.265947 0.979763
O O8 0.287200 0.847467 0.154235
O O9 0.360470 0.019959 0.053443
O O10 0.399419 0.902822 0.807296
O O11 0.532488 0.903405 0.014997
O O12 0.686754 0.506635 0.906145
O O13 0.741049 0.179451 0.288242
O O14 0.422965 0.596352 0.702849
O O15 0.813535 0.776793 0.419649
O O16 0.573696 0.731857 0.701821
#
# Coordination Sequence:
#
# PCOD9140923 Si02
#       8
#     4   4   4   4   4   4   4   4
#     4  12  25  47  81 120 168 230 290 356 433 538
#     4  12  26  50  83 132 166 227 301 368 434 527
#     4  12  27  50  81 122 170 218 286 357 443 518
#     4  12  23  48  85 119 161 223 289 356 433 526
#     4  12  31  52  81 132 177 233 288 368 447 523
#     4  12  22  45  80 115 155 220 296 340 424 518
#     4  12  26  54  88 122 171 233 289 373 441 531
#     4  12  26  52  87 124 176 228 305 366 453 523
#
# _framework density 27.10145
#
# number of rings (size 3 to 8) (size 9 to 14) (size 15 to 20)
#    0.000    0.000    6.250    3.000    1.750    4.000 
#    4.500    0.000    0.000    0.000    0.000    0.000 
#    0.000    0.000    0.000    0.000    0.000    0.000 
#
# Total GULP energy -89487.473315 kJ/mol
# GULP energy per Si atom -5592.967082 kJ/mol
# Density = 2.703977 g / cm^3
# Si number density = 27.101450 Si / 1000 Ang^3
#
#
#
# Elastic Constant Matrix: (Units=GPa)
#
#
# Indices 1 2 3 4 5 6 
#
# 1 152.0395 41.3391 37.8035 0.0000 10.7808 0.0000
# 2 41.3391 66.8285 43.9899 0.0000 -7.9171 0.0000
# 3 37.8035 43.9899 125.2913 0.0000 10.7921 0.0000
# 4 0.0000 0.0000 0.0000 61.2607 0.0000 -3.8745
# 5 10.7808 -7.9171 10.7921 0.0000 40.9948 0.0000
# 6 0.0000 0.0000 0.0000 -3.8745 0.0000 51.1824
#
#
#
# Elastic Compliance Matrix: (Units=1/GPa)
#
#
# Indices 1 2 3 4 5 6 
#
# 1 0.008325 -0.005253 -0.000401 0.000000 -0.003098 0.000000
# 2 -0.005253 0.024164 -0.007592 0.000000 0.008047 0.000000
# 3 -0.000401 -0.007592 0.011138 0.000000 -0.004293 0.000000
# 4 0.000000 0.000000 0.000000 0.016402 0.000000 0.001242
# 5 -0.003098 0.008047 -0.004293 0.000000 0.027892 0.000000
# 6 0.000000 0.000000 0.000000 0.001242 0.000000 0.019632
#
#
# Mechanical properties :
#
#
# Convention : Reuss Voigt Hill
#
# Bulk Modulus (GPa) = 58.36019 65.60270 61.98145
# Shear Modulus (GPa) = 35.77667 45.42269 40.59968
#
# Velocity S-wave (km/s) = 3.63726 4.09837 3.87468
# Velocity P-wave (km/s) = 6.26261 6.83040 6.55266
#
# Compressibility (1/GPa) = 0.01713497
#
# Stress axis : x y z
#
# Youngs Moduli (GPa) = 120.12295 41.38405 89.78553
#
# Poissons Ratio (x) = 0.21739 0.03597
# Poissons Ratio (y) = 0.63100 0.68166
# Poissons Ratio (z) = 0.04812 0.31419
#
# Static dielectric constant tensor:
#      x y z
#    x 2.191050 0.000000 0.024060 
#    y 0.000000 2.205480 0.000000 
#    z 0.024060 0.000000 2.195900 
# 
# From -- ./inp_files/8038.got.cif
#   From: 2010.05.17/outbox.cif.g08.bks.cpg/sg9_5_cif.got.tgz:8038.got - 2010.06.03 20:04:27.
