data_PCOD9140942
_publ_section_title
;
Structure prediction by ZEFSAII (Michael W. Deem and Ramdas Pophale) SiO2 
 PCOD9140942
Probable space group: C C
;
_chemical_formula_sum "Si O2"
_cell_formula_units_Z 20
_cell_length_a 18.533877
_cell_length_b 8.411453
_cell_length_c 17.836838
_cell_angle_alpha 90.000000
_cell_angle_beta 16.472155
_cell_angle_gamma 90.000000
_cell_volume 788.467513
_symmetry_space_group_name_H-M "C C"
_symmetry_group_IT_number 9
_symmetry_cell_setting 'monoclinic'
loop_
_space_group_symop_operation_xyz
x,y,z
x,-y,1/2+z
1/2+x,1/2+y,z
1/2+x,1/2-y,1/2+z
loop_
_atom_site_type_symbol
_atom_site_label
_atom_site_fract_x
_atom_site_fract_y
_atom_site_fract_z
Si Si1 0.582810 0.166496 0.804280
Si Si2 0.310463 0.631054 0.734654
Si Si3 0.905982 0.548975 0.237166
Si Si4 0.406731 0.152074 0.408237
Si Si5 0.125197 0.153201 0.912210
O O1 0.616614 0.170942 0.860626
O O2 0.860278 0.215832 0.498912
O O3 0.490111 0.993246 0.876012
O O4 0.340966 0.784510 0.758750
O O5 0.526012 0.518470 0.482267
O O6 0.170980 0.508714 0.932046
O O7 0.924941 0.589352 0.304539
O O8 0.707547 0.410102 0.414131
O O9 0.120875 0.212742 0.705452
O O10 0.891870 0.268165 0.123043
#
# Coordination Sequence:
#
# PCOD9140942 Si02
#       5
#     4   4   4   4   4
#     4  12  27  48  74 105 145 192 238 296 360 430
#     4  12  23  46  79 103 138 194 252 284 347 442
#     4  12  23  46  79 103 138 194 252 284 347 442
#     4  12  27  48  74 105 145 192 238 296 360 430
#     4  12  26  40  64 108 148 174 224 308 362 394
#
# _framework density 25.365662
#
# number of rings (size 3 to 8) (size 9 to 14) (size 15 to 20)
#    0.000    0.000    8.000    1.200    0.000    3.200 
#    0.000    0.000    0.000    0.000    0.000    0.000 
#    0.000    0.000    0.000    0.000    0.000    0.000 
#
# Total GULP energy -55819.007439 kJ/mol
# GULP energy per Si atom -5581.900744 kJ/mol
# Density = 2.530793 g / cm^3
# Si number density = 25.365662 Si / 1000 Ang^3
#
#
#
# Elastic Constant Matrix: (Units=GPa)
#
#
# Indices 1 2 3 4 5 6 
#
# 1 91.5523 48.8065 11.2030 -0.0041 -13.2231 0.0009
# 2 48.8065 99.3540 28.0754 -0.0424 -7.4332 0.0124
# 3 11.2030 28.0754 124.3402 -0.0259 -36.0396 0.0072
# 4 -0.0041 -0.0424 -0.0259 53.6160 0.0072 -23.9698
# 5 -13.2231 -7.4332 -36.0396 0.0072 27.6997 -0.0006
# 6 0.0009 0.0124 0.0072 -23.9698 -0.0006 50.4047
#
#
#
# Elastic Compliance Matrix: (Units=1/GPa)
#
#
# Indices 1 2 3 4 5 6 
#
# 1 0.016303 -0.008185 0.003208 -0.000006 0.009761 -0.000001
# 2 -0.008185 0.014864 -0.004166 0.000011 -0.005339 0.000002
# 3 0.003208 -0.004166 0.014150 0.000001 0.018824 0.000000
# 4 -0.000006 0.000011 0.000001 0.023687 -0.000004 0.011264
# 5 0.009761 -0.005339 0.018824 -0.000004 0.063820 -0.000003
# 6 -0.000001 0.000002 0.000000 0.011264 -0.000003 0.025196
#
#
# Mechanical properties :
#
#
# Convention : Reuss Voigt Hill
#
# Bulk Modulus (GPa) = 36.99451 54.60182 45.79817
# Shear Modulus (GPa) = 26.98080 41.48819 34.23449
#
# Velocity S-wave (km/s) = 3.26494 4.04865 3.67773
# Velocity P-wave (km/s) = 5.36929 6.58999 6.01071
#
# Compressibility (1/GPa) = 0.02703103
#
# Stress axis : x y z
#
# Youngs Moduli (GPa) = 61.33683 67.27769 70.67030
#
# Poissons Ratio (x) = 0.55068 -0.22673
# Poissons Ratio (y) = 0.50206 0.29443
# Poissons Ratio (z) = -0.19679 0.28030
#
# Static dielectric constant tensor:
#      x y z
#    x 1.967470 0.000000 -0.052380 
#    y 0.000000 2.013450 0.000020 
#    z -0.052380 0.000020 2.622950 
# 
# From -- ./inp_files/2832.got.cif
#   From: 2010.05.17/outbox.cif.g08.bks.cpg/sg9_2_cif.got.tgz:2832.got - 2010.06.03 20:04:27.
