data_PCOD9140222
_publ_section_title
;
Structure prediction by ZEFSAII (Michael W. Deem and Ramdas Pophale) SiO2 
 PCOD9140222
Probable space group: C C
;
_chemical_formula_sum "Si O2"
_cell_formula_units_Z 32
_cell_length_a 20.851690
_cell_length_b 5.276045
_cell_length_c 24.142602
_cell_angle_alpha 90.000000
_cell_angle_beta 153.037246
_cell_angle_gamma 90.000000
_cell_volume 1204.276082
_symmetry_space_group_name_H-M "C C"
_symmetry_group_IT_number 9
_symmetry_cell_setting 'monoclinic'
loop_
_space_group_symop_operation_xyz
x,y,z
x,-y,1/2+z
1/2+x,1/2+y,z
1/2+x,1/2-y,1/2+z
loop_
_atom_site_type_symbol
_atom_site_label
_atom_site_fract_x
_atom_site_fract_y
_atom_site_fract_z
Si Si1 0.719070 0.129016 0.647550
Si Si2 0.917102 0.845321 0.159963
Si Si3 0.474853 0.569115 0.012866
Si Si4 0.488770 0.079135 0.386413
Si Si5 0.810836 0.217644 0.984063
Si Si6 0.816273 0.194868 0.307310
Si Si7 0.992399 0.325264 0.275298
Si Si8 0.041771 0.333319 0.660876
O O1 0.617868 0.269054 0.615347
O O2 0.637880 0.153000 0.527465
O O3 0.876569 0.234603 0.772716
O O4 0.741691 0.849587 0.690636
O O5 0.913867 0.572612 0.188515
O O6 0.059852 0.805946 0.233875
O O7 0.906788 0.072906 0.195145
O O8 0.833772 0.966804 0.041956
O O9 0.348813 0.706957 0.948308
O O10 0.492844 0.337038 0.070337
O O11 0.439667 0.488551 0.923595
O O12 0.398322 0.956183 0.366751
O O13 0.516345 0.878462 0.358465
O O14 0.931329 0.436498 0.089900
O O15 0.644956 0.246898 0.866559
O O16 0.700472 0.129748 0.263309
#
# Coordination Sequence:
#
# PCOD9140222 Si02
#       8
#     4   4   4   4   4   4   4   4
#     4  12  26  52  77 123 164 218 278 346 427 493
#     4  11  27  51  74 117 151 216 266 343 410 483
#     4  11  24  41  77 118 158 207 265 343 416 504
#     4  12  31  50  82 115 167 225 281 350 411 507
#     4  11  26  47  78 119 159 210 270 341 423 493
#     4  12  25  46  77 116 163 209 271 340 427 499
#     4  12  30  50  80 112 162 219 281 338 411 497
#     4  11  23  45  77 118 164 204 268 345 425 500
#
# _framework density 26.571981999999998
#
# number of rings (size 3 to 8) (size 9 to 14) (size 15 to 20)
#    0.000    0.500    5.000    1.500    8.750    0.000 
#    0.000    0.000    0.000    0.000    0.000    0.000 
#    0.000    0.000    0.000    0.000    0.000    0.000 
#
# Total GULP energy -89092.337449 kJ/mol
# GULP energy per Si atom -5568.271091 kJ/mol
# Density = 2.651150 g / cm^3
# Si number density = 26.571982 Si / 1000 Ang^3
#
#
#
# Elastic Constant Matrix: (Units=GPa)
#
#
# Indices 1 2 3 4 5 6 
#
# 1 91.5248 34.9645 51.9234 0.0002 -16.3700 0.0021
# 2 34.9645 122.3167 46.8234 -0.0030 2.0913 0.0041
# 3 51.9234 46.8234 123.6873 0.0052 -4.7430 -0.0114
# 4 0.0002 -0.0030 0.0052 35.1761 -0.0015 -6.8690
# 5 -16.3700 2.0913 -4.7430 -0.0015 50.4486 0.0046
# 6 0.0021 0.0041 -0.0114 -6.8690 0.0046 45.4023
#
#
#
# Elastic Compliance Matrix: (Units=1/GPa)
#
#
# Indices 1 2 3 4 5 6 
#
# 1 0.015866 -0.002498 -0.005533 0.000000 0.004732 -0.000002
# 2 -0.002498 0.009982 -0.002787 0.000001 -0.001486 -0.000001
# 3 -0.005533 -0.002787 0.011440 -0.000001 -0.000604 0.000003
# 4 0.000000 0.000001 -0.000001 0.029294 0.000000 0.004432
# 5 0.004732 -0.001486 -0.000604 0.000000 0.021362 -0.000002
# 6 -0.000002 -0.000001 0.000003 0.004432 -0.000002 0.022696
#
#
# Mechanical properties :
#
#
# Convention : Reuss Voigt Hill
#
# Bulk Modulus (GPa) = 63.89575 67.21682 65.55629
# Shear Modulus (GPa) = 36.36555 39.79323 38.07939
#
# Velocity S-wave (km/s) = 3.70343 3.87403 3.78969
# Velocity P-wave (km/s) = 6.51043 6.73512 6.62373
#
# Compressibility (1/GPa) = 0.01565049
#
# Stress axis : x y z
#
# Youngs Moduli (GPa) = 63.02923 100.18144 87.41514
#
# Poissons Ratio (x) = 0.25025 0.48369
# Poissons Ratio (y) = 0.15745 0.24364
# Poissons Ratio (z) = 0.34876 0.27922
#
# Static dielectric constant tensor:
#      x y z
#    x 2.138640 0.000000 -0.003340 
#    y 0.000000 2.371370 0.000000 
#    z -0.003340 0.000000 2.115310 
# 
# From -- ./inp_files/35928.got.cif
#   From: 2010.05.17/outbox.cif.g08.bks.cpg/sg9_18_cif.got.tgz:35928.got - 2010.06.03 20:04:27.
