data_PCOD9140705
_publ_section_title
;
Structure prediction by ZEFSAII (Michael W. Deem and Ramdas Pophale) SiO2 
 PCOD9140705
Probable space group: C C
;
_chemical_formula_sum "Si O2"
_cell_formula_units_Z 20
_cell_length_a 9.424695
_cell_length_b 23.086538
_cell_length_c 5.320088
_cell_angle_alpha 90.000000
_cell_angle_beta 128.855826
_cell_angle_gamma 90.000000
_cell_volume 901.426252
_symmetry_space_group_name_H-M "C C"
_symmetry_group_IT_number 9
_symmetry_cell_setting 'monoclinic'
loop_
_space_group_symop_operation_xyz
x,y,z
x,-y,1/2+z
1/2+x,1/2+y,z
1/2+x,1/2-y,1/2+z
loop_
_atom_site_type_symbol
_atom_site_label
_atom_site_fract_x
_atom_site_fract_y
_atom_site_fract_z
Si Si1 0.960350 0.462253 0.221860
Si Si2 0.345925 0.752216 0.151736
Si Si3 0.753251 0.135186 0.164626
Si Si4 0.949695 0.193562 0.758708
Si Si5 0.153729 0.870281 0.859954
O O1 0.975140 0.506588 0.469928
O O2 0.116751 0.414481 0.441104
O O3 0.769651 0.427701 0.013231
O O4 0.196251 0.698603 0.000126
O O5 0.462494 0.732796 0.525528
O O6 0.417846 0.736387 0.954818
O O7 0.268905 0.816058 0.094121
O O8 0.788933 0.148773 0.499350
O O9 0.955305 0.124086 0.270453
O O10 0.111940 0.151895 0.029381
#
# Coordination Sequence:
#
# PCOD9140705 Si02
#       5
#     4   4   4   4   4
#     4  12  32  49  72 106 146 200 253 300 346 437
#     4   9  22  38  72 112 141 178 229 297 372 434
#     4   9  25  48  72 106 147 191 236 304 367 424
#     4   9  22  40  69 110 140 187 220 294 372 427
#     4  11  25  47  77 108 146 192 246 295 375 432
#
# _framework density 22.187062999999998
#
# number of rings (size 3 to 8) (size 9 to 14) (size 15 to 20)
#    1.200    0.800    0.000    0.000   16.800    3.200 
#    0.000    0.000    0.000    0.000    0.000    0.000 
#    0.000    0.000    0.000    0.000    0.000    0.000 
#
# Total GULP energy -55703.147051 kJ/mol
# GULP energy per Si atom -5570.314705 kJ/mol
# Density = 2.213656 g / cm^3
# Si number density = 22.187063 Si / 1000 Ang^3
#
#
#
# Elastic Constant Matrix: (Units=GPa)
#
#
# Indices 1 2 3 4 5 6 
#
# 1 75.8852 17.1523 33.0314 0.0000 -5.5337 0.0000
# 2 17.1523 74.6586 28.8667 0.0000 2.5478 0.0000
# 3 33.0314 28.8667 143.7554 0.0000 -19.0395 0.0000
# 4 0.0000 0.0000 0.0000 49.7086 0.0000 9.4651
# 5 -5.5337 2.5478 -19.0395 0.0000 30.4160 0.0000
# 6 0.0000 0.0000 0.0000 9.4651 0.0000 39.8812
#
#
#
# Elastic Compliance Matrix: (Units=1/GPa)
#
#
# Indices 1 2 3 4 5 6 
#
# 1 0.015033 -0.002405 -0.002816 0.000000 0.001174 0.000000
# 2 -0.002405 0.015220 -0.002977 0.000000 -0.003576 0.000000
# 3 -0.002816 -0.002977 0.008905 0.000000 0.005311 0.000000
# 4 0.000000 0.000000 0.000000 0.021069 0.000000 -0.005000
# 5 0.001174 -0.003576 0.005311 0.000000 0.036715 0.000000
# 6 0.000000 0.000000 0.000000 -0.005000 0.000000 0.026261
#
#
# Mechanical properties :
#
#
# Convention : Reuss Voigt Hill
#
# Bulk Modulus (GPa) = 43.93448 50.26668 47.10058
# Shear Modulus (GPa) = 33.97060 38.35107 36.16083
#
# Velocity S-wave (km/s) = 3.91717 4.16207 4.04148
# Velocity P-wave (km/s) = 6.34853 6.76773 6.56148
#
# Compressibility (1/GPa) = 0.02276117
#
# Stress axis : x y z
#
# Youngs Moduli (GPa) = 66.52195 65.70288 112.30256
#
# Poissons Ratio (x) = 0.15802 0.31621
# Poissons Ratio (y) = 0.15999 0.33436
# Poissons Ratio (z) = 0.18731 0.19562
#
# Static dielectric constant tensor:
#      x y z
#    x 1.951900 0.000000 0.074840 
#    y 0.000000 1.812950 0.000000 
#    z 0.074840 0.000000 1.885760 
# 
# From -- ./inp_files/1661.got.cif
#   From: 2010.05.17/outbox.cif.g08.bks.cpg/sg9_1_cif.got.tgz:1661.got - 2010.06.03 20:04:27.
