data_PCOD9140511
_publ_section_title
;
Structure prediction by ZEFSAII (Michael W. Deem and Ramdas Pophale) SiO2 
 PCOD9140511
Probable space group: C C
;
_chemical_formula_sum "Si O2"
_cell_formula_units_Z 28
_cell_length_a 18.742837
_cell_length_b 7.523453
_cell_length_c 27.925945
_cell_angle_alpha 90.000000
_cell_angle_beta 18.782701
_cell_angle_gamma 90.000000
_cell_volume 1267.912056
_symmetry_space_group_name_H-M "C C"
_symmetry_group_IT_number 9
_symmetry_cell_setting 'monoclinic'
loop_
_space_group_symop_operation_xyz
x,y,z
x,-y,1/2+z
1/2+x,1/2+y,z
1/2+x,1/2-y,1/2+z
loop_
_atom_site_type_symbol
_atom_site_label
_atom_site_fract_x
_atom_site_fract_y
_atom_site_fract_z
Si Si1 0.803710 0.427055 0.380930
Si Si2 0.860306 0.986609 0.926498
Si Si3 0.859455 0.382335 0.946703
Si Si4 0.583736 0.291169 0.870394
Si Si5 0.865477 0.591441 0.735791
Si Si6 0.152357 0.106141 0.161722
Si Si7 0.805454 0.067573 0.221403
O O1 0.848919 0.546110 0.399087
O O2 0.851314 0.494065 0.297406
O O3 0.541704 0.394044 0.548316
O O4 0.964843 0.256834 0.279036
O O5 0.623600 0.920512 0.057520
O O6 0.806464 0.175114 0.984230
O O7 0.961470 0.838233 0.897856
O O8 0.051494 0.021417 0.765998
O O9 0.104844 0.399753 0.812494
O O10 0.702800 0.500204 0.080924
O O11 0.697941 0.474000 0.811675
O O12 0.773374 0.141073 0.752118
O O13 0.381383 0.206885 0.029470
O O14 0.791249 0.796467 0.775263
#
# Coordination Sequence:
#
# PCOD9140511 Si02
#       7
#     4   4   4   4   4   4   4
#     4  12  25  45  76 108 151 198 255 318 382 457
#     4  12  25  48  75 113 152 203 261 322 388 468
#     4  11  27  48  75 115 153 204 256 324 396 466
#     4  11  26  49  71 112 153 198 260 312 384 461
#     4  12  26  46  74 109 152 198 257 316 387 459
#     4  11  24  46  79 100 154 197 251 318 389 447
#     4  11  25  48  72 107 153 198 258 312 382 460
#
# _framework density 22.083549999999999
#
# number of rings (size 3 to 8) (size 9 to 14) (size 15 to 20)
#    0.000    0.571    4.286    3.429    6.000    2.286 
#    0.000    0.000    0.000    0.000    0.000    0.000 
#    0.000    0.000    0.000    0.000    0.000    0.000 
#
# Total GULP energy -78137.449878 kJ/mol
# GULP energy per Si atom -5581.246420 kJ/mol
# Density = 2.203329 g / cm^3
# Si number density = 22.083550 Si / 1000 Ang^3
#
#
#
# Elastic Constant Matrix: (Units=GPa)
#
#
# Indices 1 2 3 4 5 6 
#
# 1 73.7537 13.1469 38.7318 -0.0400 1.9123 -0.0109
# 2 13.1469 113.3497 26.9040 -0.0581 2.3635 -0.0101
# 3 38.7318 26.9040 139.2005 -0.1222 3.6457 0.0020
# 4 -0.0400 -0.0581 -0.1222 27.5899 0.0030 -2.6074
# 5 1.9123 2.3635 3.6457 0.0030 25.1110 0.0142
# 6 -0.0109 -0.0101 0.0020 -2.6074 0.0142 34.6494
#
#
#
# Elastic Compliance Matrix: (Units=1/GPa)
#
#
# Indices 1 2 3 4 5 6 
#
# 1 0.015961 -0.000827 -0.004267 0.000003 -0.000518 0.000005
# 2 -0.000827 0.009299 -0.001552 0.000012 -0.000587 0.000004
# 3 -0.004267 -0.001552 0.008692 0.000029 -0.000791 0.000000
# 4 0.000003 0.000012 0.000029 0.036505 -0.000011 0.002747
# 5 -0.000518 -0.000587 -0.000791 -0.000011 0.040033 -0.000018
# 6 0.000005 0.000004 0.000000 0.002747 -0.000018 0.029067
#
#
# Mechanical properties :
#
#
# Convention : Reuss Voigt Hill
#
# Bulk Modulus (GPa) = 48.40693 53.76327 51.08510
# Shear Modulus (GPa) = 31.30177 33.97147 32.63662
#
# Velocity S-wave (km/s) = 3.76895 3.92639 3.84848
# Velocity P-wave (km/s) = 6.39590 6.70475 6.55214
#
# Compressibility (1/GPa) = 0.02065820
#
# Stress axis : x y z
#
# Youngs Moduli (GPa) = 62.65411 107.54129 115.04953
#
# Poissons Ratio (x) = 0.08899 0.49097
# Poissons Ratio (y) = 0.05185 0.17851
# Poissons Ratio (z) = 0.26737 0.16686
#
# Static dielectric constant tensor:
#      x y z
#    x 1.904690 0.000090 0.031120 
#    y 0.000090 1.876620 0.000050 
#    z 0.031120 0.000050 1.781130 
# 
# From -- ./inp_files/36851.got.cif
#   From: 2010.05.17/outbox.cif.g08.bks.cpg/sg9_19_cif.got.tgz:36851.got - 2010.06.03 20:04:27.
