data_PCOD9140369
_publ_section_title
;
Structure prediction by ZEFSAII (Michael W. Deem and Ramdas Pophale) SiO2 
 PCOD9140369
Probable space group: C C
;
_chemical_formula_sum "Si O2"
_cell_formula_units_Z 32
_cell_length_a 11.640989
_cell_length_b 16.909992
_cell_length_c 9.777079
_cell_angle_alpha 90.000000
_cell_angle_beta 126.623640
_cell_angle_gamma 90.000000
_cell_volume 1544.635772
_symmetry_space_group_name_H-M "C C"
_symmetry_group_IT_number 9
_symmetry_cell_setting 'monoclinic'
loop_
_space_group_symop_operation_xyz
x,y,z
x,-y,1/2+z
1/2+x,1/2+y,z
1/2+x,1/2-y,1/2+z
loop_
_atom_site_type_symbol
_atom_site_label
_atom_site_fract_x
_atom_site_fract_y
_atom_site_fract_z
Si Si1 0.061030 0.695041 0.387690
Si Si2 0.592548 0.194126 0.089994
Si Si3 0.009596 0.141193 0.999877
Si Si4 0.335176 0.928562 0.384053
Si Si5 0.325797 0.584800 0.616080
Si Si6 0.044525 0.870122 0.034911
Si Si7 0.813636 0.426029 0.690732
Si Si8 0.358286 0.596289 0.160659
O O1 0.100389 0.712457 0.257836
O O2 0.055292 0.773564 0.473541
O O3 0.178472 0.632432 0.520576
O O4 0.907551 0.652680 0.275456
O O5 0.569634 0.279630 0.008190
O O6 0.732079 0.146946 0.140210
O O7 0.455606 0.138962 0.964967
O O8 0.152849 0.090755 0.124114
O O9 0.919191 0.142121 0.073569
O O10 0.914309 0.100696 0.815840
O O11 0.188891 0.900432 0.208326
O O12 0.312162 0.946447 0.528345
O O13 0.380455 0.005171 0.330307
O O14 0.419805 0.620257 0.559001
O O15 0.305918 0.491168 0.581458
O O16 0.986757 0.914764 0.860699
#
# Coordination Sequence:
#
# PCOD9140369 Si02
#       8
#     4   4   4   4   4   4   4   4
#     4  11  24  45  73  98 135 184 226 277 346 413
#     4  11  24  46  70  99 136 183 228 274 343 414
#     4  12  26  43  70 104 138 175 232 288 340 398
#     4  11  24  43  70 100 135 180 226 280 340 409
#     4  12  23  45  73  99 137 183 231 276 338 417
#     4  12  24  43  72  98 134 182 229 276 337 412
#     4  11  24  44  68  99 138 178 226 279 342 407
#     4  12  27  45  68 107 139 177 232 290 338 400
#
# _framework density 20.716858999999999
#
# number of rings (size 3 to 8) (size 9 to 14) (size 15 to 20)
#    0.000    0.500    3.750    4.500    3.500    2.000 
#    4.500    0.000    0.000    0.000    0.000    0.000 
#    0.000    0.000    0.000    0.000    0.000    0.000 
#
# Total GULP energy -89545.071349 kJ/mol
# GULP energy per Si atom -5596.566959 kJ/mol
# Density = 2.066971 g / cm^3
# Si number density = 20.716859 Si / 1000 Ang^3
#
#
#
# Elastic Constant Matrix: (Units=GPa)
#
#
# Indices 1 2 3 4 5 6 
#
# 1 94.1200 32.9718 29.9014 0.0000 -6.3726 0.0000
# 2 32.9718 120.7828 33.6069 0.0000 -6.8816 0.0000
# 3 29.9014 33.6069 65.4682 0.0000 -0.8815 0.0000
# 4 0.0000 0.0000 0.0000 21.0014 0.0000 6.7656
# 5 -6.3726 -6.8816 -0.8815 0.0000 23.7349 0.0000
# 6 0.0000 0.0000 0.0000 6.7656 0.0000 20.3090
#
#
#
# Elastic Compliance Matrix: (Units=1/GPa)
#
#
# Indices 1 2 3 4 5 6 
#
# 1 0.013081 -0.002057 -0.004882 0.000000 0.002735 0.000000
# 2 -0.002057 0.010148 -0.004240 0.000000 0.002232 0.000000
# 3 -0.004882 -0.004240 0.019656 0.000000 -0.001810 0.000000
# 4 0.000000 0.000000 0.000000 0.053340 0.000000 -0.017770
# 5 0.002735 0.002232 -0.001810 0.000000 0.043446 0.000000
# 6 0.000000 0.000000 0.000000 -0.017770 0.000000 0.055159
#
#
# Mechanical properties :
#
#
# Convention : Reuss Voigt Hill
#
# Bulk Modulus (GPa) = 48.71299 52.59235 50.65267
# Shear Modulus (GPa) = 22.31836 25.26846 23.79341
#
# Velocity S-wave (km/s) = 3.28579 3.49622 3.39264
# Velocity P-wave (km/s) = 6.16117 6.46060 6.31266
#
# Compressibility (1/GPa) = 0.02052841
#
# Stress axis : x y z
#
# Youngs Moduli (GPa) = 76.44434 98.54497 50.87417
#
# Poissons Ratio (x) = 0.20269 0.24837
# Poissons Ratio (y) = 0.15723 0.21569
# Poissons Ratio (z) = 0.37320 0.41779
#
# Static dielectric constant tensor:
#      x y z
#    x 1.711930 0.000000 0.001890 
#    y 0.000000 1.736410 0.000000 
#    z 0.001890 0.000000 1.728960 
# 
# From -- ./inp_files/7546.got.cif
#   From: 2010.05.17/outbox.cif.g08.bks.cpg/sg9_4_cif.got.tgz:7546.got - 2010.06.03 20:04:27.
