data_PCOD9140020
_publ_section_title
;
Structure prediction by ZEFSAII (Michael W. Deem and Ramdas Pophale) SiO2 
 PCOD9140020
Probable space group: C C
;
_chemical_formula_sum "Si O2"
_cell_formula_units_Z 32
_cell_length_a 15.589012
_cell_length_b 9.031320
_cell_length_c 20.031443
_cell_angle_alpha 90.000000
_cell_angle_beta 153.454614
_cell_angle_gamma 90.000000
_cell_volume 1260.372180
_symmetry_space_group_name_H-M "C C"
_symmetry_group_IT_number 9
_symmetry_cell_setting 'monoclinic'
loop_
_space_group_symop_operation_xyz
x,y,z
x,-y,1/2+z
1/2+x,1/2+y,z
1/2+x,1/2-y,1/2+z
loop_
_atom_site_type_symbol
_atom_site_label
_atom_site_fract_x
_atom_site_fract_y
_atom_site_fract_z
Si Si1 0.997280 0.384539 0.198450
Si Si2 0.986871 0.754359 0.951579
Si Si3 0.364955 0.400157 0.661122
Si Si4 0.080466 0.011145 0.924903
Si Si5 0.064665 0.260384 0.641981
Si Si6 0.055649 0.607708 0.590111
Si Si7 0.714148 0.084768 0.443680
Si Si8 0.942626 0.293274 0.868646
O O1 0.997094 0.245163 0.248390
O O2 0.999229 0.331561 0.123723
O O3 0.144725 0.510146 0.326266
O O4 0.792125 0.457103 0.063060
O O5 0.766422 0.714003 0.815082
O O6 0.969137 0.876550 0.882214
O O7 0.154555 0.644213 0.043120
O O8 0.066819 0.829591 0.073858
O O9 0.471055 0.523999 0.778509
O O10 0.333093 0.461845 0.565950
O O11 0.085449 0.153819 0.973863
O O12 0.062368 0.431851 0.614742
O O13 0.866123 0.218262 0.539835
O O14 0.939408 0.630391 0.439716
O O15 0.251222 0.701685 0.717220
O O16 0.536860 0.120148 0.371156
#
# Coordination Sequence:
#
# PCOD9140020 Si02
#       8
#     4   4   4   4   4   4   4   4
#     4  11  26  47  77 115 156 205 269 326 396 477
#     4  11  22  45  75 112 149 208 254 328 387 476
#     4  11  25  47  79 113 158 202 271 316 409 475
#     4  11  23  45  77 107 156 201 255 328 395 472
#     4  12  26  48  76 113 162 201 275 330 398 477
#     4  12  28  48  74 113 155 212 270 334 398 473
#     4  12  28  49  77 119 156 213 260 335 410 475
#     4  12  26  49  77 108 164 204 268 327 407 471
#
# _framework density 25.389324999999999
#
# number of rings (size 3 to 8) (size 9 to 14) (size 15 to 20)
#    0.000    0.500    2.500    5.250    5.250    4.000 
#    4.500    0.000    0.000    0.000    0.000    0.000 
#    0.000    0.000    0.000    0.000    0.000    0.000 
#
# Total GULP energy -89309.378282 kJ/mol
# GULP energy per Si atom -5581.836143 kJ/mol
# Density = 2.533154 g / cm^3
# Si number density = 25.389325 Si / 1000 Ang^3
#
#
#
# Elastic Constant Matrix: (Units=GPa)
#
#
# Indices 1 2 3 4 5 6 
#
# 1 66.0402 27.4820 15.8633 0.0003 -13.0407 -0.0027
# 2 27.4820 90.1118 30.4487 0.0005 5.9581 -0.0022
# 3 15.8633 30.4487 91.8499 -0.0021 -11.2165 -0.0054
# 4 0.0003 0.0005 -0.0021 28.3876 -0.0003 10.3156
# 5 -13.0407 5.9581 -11.2165 -0.0003 31.4335 -0.0022
# 6 -0.0027 -0.0022 -0.0054 10.3156 -0.0022 2.0061
#
#
#
# Elastic Compliance Matrix: (Units=1/GPa)
#
#
# Indices 1 2 3 4 5 6 
#
# 1 0.019784 -0.006636 -0.000064 0.000012 0.009443 -0.000034
# 2 -0.006636 0.015229 -0.004800 -0.000005 -0.007353 0.000012
# 3 -0.000064 -0.004800 0.013172 0.000014 0.005583 -0.000035
# 4 0.000012 -0.000005 0.000014 -0.040558 0.000025 0.208554
# 5 0.009443 -0.007353 0.005583 0.000025 0.039117 -0.000067
# 6 -0.000034 0.000012 -0.000035 0.208554 -0.000067 -0.573924
#
#
# Mechanical properties :
#
#
# Convention : Reuss Voigt Hill
#
# Bulk Modulus (GPa) = 39.70800 43.95443 41.83122
# Shear Modulus (GPa) = -10.08502 23.97930 6.94714
#
# Velocity S-wave (km/s) = -1.99519 3.07655 1.65595
# Velocity P-wave (km/s) = 3.21961 5.47448 4.49087
#
# Compressibility (1/GPa) = 0.02518384
#
# Stress axis : x y z
#
# Youngs Moduli (GPa) = 50.54601 65.66207 75.92141
#
# Poissons Ratio (x) = 0.43576 0.00484
# Poissons Ratio (y) = 0.33545 0.36445
# Poissons Ratio (z) = 0.00322 0.31520
#
# Static dielectric constant tensor:
#      x y z
#    x 2.051120 0.000000 0.051280 
#    y 0.000000 2.107340 0.000000 
#    z 0.051280 0.000000 2.008790 
# 
# From -- ./inp_files/33738.got.cif
#   From: 2010.05.17/outbox.cif.g08.bks.cpg/sg9_17_cif.got.tgz:33738.got - 2010.06.03 20:04:27.
