data_PCOD9140785
_publ_section_title
;
Structure prediction by ZEFSAII (Michael W. Deem and Ramdas Pophale) SiO2 
 PCOD9140785
Probable space group: C C
;
_chemical_formula_sum "Si O2"
_cell_formula_units_Z 28
_cell_length_a 7.316373
_cell_length_b 12.392263
_cell_length_c 13.646121
_cell_angle_alpha 90.000000
_cell_angle_beta 51.267491
_cell_angle_gamma 90.000000
_cell_volume 965.144479
_symmetry_space_group_name_H-M "C C"
_symmetry_group_IT_number 9
_symmetry_cell_setting 'monoclinic'
loop_
_space_group_symop_operation_xyz
x,y,z
x,-y,1/2+z
1/2+x,1/2+y,z
1/2+x,1/2-y,1/2+z
loop_
_atom_site_type_symbol
_atom_site_label
_atom_site_fract_x
_atom_site_fract_y
_atom_site_fract_z
Si Si1 0.058850 0.062185 0.263680
Si Si2 0.383882 0.026054 0.931705
Si Si3 0.207104 0.732180 0.452721
Si Si4 0.556416 0.324013 0.080716
Si Si5 0.261388 0.507435 0.170000
Si Si6 0.596473 0.105332 0.035862
Si Si7 0.714464 0.684231 0.731549
O O1 0.914209 0.142401 0.382862
O O2 0.919782 0.055490 0.204932
O O3 0.121438 0.939097 0.274772
O O4 0.320598 0.107749 0.157203
O O5 0.590348 0.030336 0.943179
O O6 0.495901 0.989982 0.793478
O O7 0.286241 0.147078 0.957550
O O8 0.218014 0.928719 0.016568
O O9 0.766113 0.934963 0.564293
O O10 0.979370 0.696431 0.594304
O O11 0.310868 0.379634 0.143854
O O12 0.566966 0.277540 0.186853
O O13 0.646577 0.226559 0.986893
O O14 0.172498 0.247382 0.846466
#
# Coordination Sequence:
#
# PCOD9140785 Si02
#       7
#     4   4   4   4   4   4   4
#     4  11  25  52  82 125 171 228 298 352 440 528
#     4  12  27  49  81 126 162 225 295 352 439 522
#     4  12  27  51  90 129 180 231 291 374 438 526
#     4  11  27  51  78 121 165 217 291 343 431 532
#     4  11  26  52  77 115 166 210 284 358 416 521
#     4  12  26  50  80 112 167 220 274 355 437 499
#     4  11  26  51  88 128 177 231 293 366 441 522
#
# _framework density 29.011202999999998
#
# number of rings (size 3 to 8) (size 9 to 14) (size 15 to 20)
#    0.000    0.571    2.857    4.286    2.000    6.857 
#    5.143    0.000    0.000    0.000    0.000    0.000 
#    0.000    0.000    0.000    0.000    0.000    0.000 
#
# Total GULP energy -78445.174017 kJ/mol
# GULP energy per Si atom -5603.226715 kJ/mol
# Density = 2.894517 g / cm^3
# Si number density = 29.011203 Si / 1000 Ang^3
#
#
#
# Elastic Constant Matrix: (Units=GPa)
#
#
# Indices 1 2 3 4 5 6 
#
# 1 163.1206 27.7733 47.8099 -0.0008 10.9840 0.0002
# 2 27.7733 144.1353 41.7089 -0.0009 -1.5359 0.0004
# 3 47.8099 41.7089 176.8972 -0.0013 10.7079 0.0007
# 4 -0.0008 -0.0009 -0.0013 45.8651 0.0007 -0.5943
# 5 10.9840 -1.5359 10.7079 0.0007 29.8700 -0.0003
# 6 0.0002 0.0004 0.0007 -0.5943 -0.0003 47.6014
#
#
#
# Elastic Compliance Matrix: (Units=1/GPa)
#
#
# Indices 1 2 3 4 5 6 
#
# 1 0.006866 -0.000905 -0.001520 0.000000 -0.002027 0.000000
# 2 -0.000905 0.007597 -0.001626 0.000000 0.001306 0.000000
# 3 -0.001520 -0.001626 0.006561 0.000000 -0.001877 0.000000
# 4 0.000000 0.000000 0.000000 0.021807 -0.000001 0.000272
# 5 -0.002027 0.001306 -0.001877 -0.000001 0.034964 0.000000
# 6 0.000000 0.000000 0.000000 0.000272 0.000000 0.021011
#
#
# Mechanical properties :
#
#
# Convention : Reuss Voigt Hill
#
# Bulk Modulus (GPa) = 77.38080 79.85970 78.62025
# Shear Modulus (GPa) = 44.95869 49.12471 47.04170
#
# Velocity S-wave (km/s) = 3.94089 4.11944 4.03116
# Velocity P-wave (km/s) = 6.88754 7.08614 6.98754
#
# Compressibility (1/GPa) = 0.01292310
#
# Stress axis : x y z
#
# Youngs Moduli (GPa) = 145.63665 131.63745 152.42446
#
# Poissons Ratio (x) = 0.11912 0.23165
# Poissons Ratio (y) = 0.13179 0.24779
# Poissons Ratio (z) = 0.22133 0.21399
#
# Static dielectric constant tensor:
#      x y z
#    x 2.328470 0.000000 -0.060680 
#    y 0.000000 2.389540 0.000000 
#    z -0.060680 0.000000 2.431880 
# 
# From -- ./inp_files/35360.got.cif
#   From: 2010.05.17/outbox.cif.g08.bks.cpg/sg9_18_cif.got.tgz:35360.got - 2010.06.03 20:04:27.
