data_PCOD9140108
_publ_section_title
;
Structure prediction by ZEFSAII (Michael W. Deem and Ramdas Pophale) SiO2 
 PCOD9140108
Probable space group: C C
;
_chemical_formula_sum "Si O2"
_cell_formula_units_Z 28
_cell_length_a 11.482431
_cell_length_b 18.112817
_cell_length_c 9.009210
_cell_angle_alpha 90.000000
_cell_angle_beta 142.372780
_cell_angle_gamma 90.000000
_cell_volume 1143.951238
_symmetry_space_group_name_H-M "C C"
_symmetry_group_IT_number 9
_symmetry_cell_setting 'monoclinic'
loop_
_space_group_symop_operation_xyz
x,y,z
x,-y,1/2+z
1/2+x,1/2+y,z
1/2+x,1/2-y,1/2+z
loop_
_atom_site_type_symbol
_atom_site_label
_atom_site_fract_x
_atom_site_fract_y
_atom_site_fract_z
Si Si1 0.336330 0.076260 0.655220
Si Si2 0.112618 0.294680 0.055225
Si Si3 0.743135 0.648038 0.056411
Si Si4 0.484521 0.046711 0.109875
Si Si5 0.980500 0.847441 0.914016
Si Si6 0.366926 0.400205 0.124059
Si Si7 0.113139 0.294856 0.392962
O O1 0.427109 0.154578 0.706546
O O2 0.126071 0.090225 0.505713
O O3 0.361713 0.020534 0.547301
O O4 0.471741 0.044565 0.921843
O O5 0.130314 0.225829 0.959050
O O6 0.265705 0.352575 0.149710
O O7 0.910882 0.336540 0.842522
O O8 0.143479 0.269026 0.254574
O O9 0.578719 0.586079 0.904467
O O10 0.872820 0.622046 0.047627
O O11 0.697636 0.046614 0.393549
O O12 0.923227 0.858506 0.026812
O O13 0.791842 0.843482 0.624036
O O14 0.081832 0.769578 0.980660
#
# Coordination Sequence:
#
# PCOD9140108 Si02
#       7
#     4   4   4   4   4   4   4
#     4  12  28  50  74 105 153 195 253 307 374 450
#     4  11  25  40  71 113 150 193 242 312 368 444
#     4  11  23  42  72 105 149 185 248 298 374 434
#     4  11  28  49  69 107 148 203 248 302 368 453
#     4  12  26  45  79 111 147 192 244 315 383 441
#     4  11  25  44  73 107 145 196 246 302 370 444
#     4  12  27  46  74 114 152 188 247 316 383 436
#
# _framework density 24.476568
#
# number of rings (size 3 to 8) (size 9 to 14) (size 15 to 20)
#    0.000    0.571    5.714    0.857    8.000    1.143 
#    0.000    0.000    0.000    0.000    0.000    0.000 
#    0.000    0.000    0.000    0.000    0.000    0.000 
#
# Total GULP energy -78188.766878 kJ/mol
# GULP energy per Si atom -5584.911920 kJ/mol
# Density = 2.442086 g / cm^3
# Si number density = 24.476568 Si / 1000 Ang^3
#
#
#
# Elastic Constant Matrix: (Units=GPa)
#
#
# Indices 1 2 3 4 5 6 
#
# 1 119.7040 36.6068 39.2790 0.0000 7.2797 0.0000
# 2 36.6068 69.6376 7.5315 0.0000 -9.7447 0.0000
# 3 39.2790 7.5315 90.0883 0.0000 33.5842 0.0000
# 4 0.0000 0.0000 0.0000 7.7359 0.0000 -2.2264
# 5 7.2797 -9.7447 33.5842 0.0000 51.2057 0.0000
# 6 0.0000 0.0000 0.0000 -2.2264 0.0000 42.2241
#
#
#
# Elastic Compliance Matrix: (Units=1/GPa)
#
#
# Indices 1 2 3 4 5 6 
#
# 1 0.011569 -0.005511 -0.004738 0.000000 0.000414 0.000000
# 2 -0.005511 0.018025 -0.000893 0.000000 0.004800 0.000000
# 3 -0.004738 -0.000893 0.017277 0.000000 -0.010828 0.000000
# 4 0.000000 0.000000 0.000000 0.131259 0.000000 0.006921
# 5 0.000414 0.004800 -0.010828 0.000000 0.027485 0.000000
# 6 0.000000 0.000000 0.000000 0.006921 0.000000 0.024048
#
#
# Mechanical properties :
#
#
# Convention : Reuss Voigt Hill
#
# Bulk Modulus (GPa) = 40.67160 49.58493 45.12826
# Shear Modulus (GPa) = 19.22018 33.30065 26.26041
#
# Velocity S-wave (km/s) = 2.80527 3.69251 3.27904
# Velocity P-wave (km/s) = 5.21012 6.20336 5.72830
#
# Compressibility (1/GPa) = 0.02458718
#
# Stress axis : x y z
#
# Youngs Moduli (GPa) = 86.44025 55.47730 57.88007
#
# Poissons Ratio (x) = 0.30574 0.27421
# Poissons Ratio (y) = 0.47638 0.05171
# Poissons Ratio (z) = 0.40951 0.04956
#
# Static dielectric constant tensor:
#      x y z
#    x 1.902870 0.000000 0.058510 
#    y 0.000000 1.974810 0.000000 
#    z 0.058510 0.000000 1.983420 
# 
# From -- ./inp_files/8341.got.cif
#   From: 2010.05.17/outbox.cif.g08.bks.cpg/sg9_5_cif.got.tgz:8341.got - 2010.06.03 20:04:27.
