data_PCOD9140484
_publ_section_title
;
Structure prediction by ZEFSAII (Michael W. Deem and Ramdas Pophale) SiO2 
 PCOD9140484
Probable space group: C C
;
_chemical_formula_sum "Si O2"
_cell_formula_units_Z 32
_cell_length_a 14.289510
_cell_length_b 11.913752
_cell_length_c 9.093616
_cell_angle_alpha 90.000000
_cell_angle_beta 108.155037
_cell_angle_gamma 90.000000
_cell_volume 1471.042558
_symmetry_space_group_name_H-M "C C"
_symmetry_group_IT_number 9
_symmetry_cell_setting 'monoclinic'
loop_
_space_group_symop_operation_xyz
x,y,z
x,-y,1/2+z
1/2+x,1/2+y,z
1/2+x,1/2-y,1/2+z
loop_
_atom_site_type_symbol
_atom_site_label
_atom_site_fract_x
_atom_site_fract_y
_atom_site_fract_z
Si Si1 0.165700 0.634328 0.841940
Si Si2 0.212788 0.409742 0.025029
Si Si3 0.512292 0.392795 0.569323
Si Si4 0.442916 0.215383 0.740426
Si Si5 0.695585 0.611089 0.374594
Si Si6 0.257049 0.070342 0.714523
Si Si7 0.928833 0.140663 0.526817
Si Si8 0.602006 0.286820 0.321824
O O1 0.187311 0.602413 0.683810
O O2 0.211593 0.756573 0.895352
O O3 0.048789 0.655015 0.802980
O O4 0.204686 0.537654 0.967343
O O5 0.321867 0.361474 0.049258
O O6 0.137595 0.335518 0.890406
O O7 0.443562 0.292676 0.595688
O O8 0.592974 0.406248 0.738654
O O9 0.459400 0.510739 0.522656
O O10 0.566078 0.349881 0.450482
O O11 0.357191 0.125227 0.709624
O O12 0.427184 0.298559 0.869840
O O13 0.693894 0.558887 0.535156
O O14 0.771614 0.545011 0.308832
O O15 0.194653 0.150885 0.791571
O O16 0.011253 0.203451 0.664724
#
# Coordination Sequence:
#
# PCOD9140484 Si02
#       8
#     4   4   4   4   4   4   4   4
#     4  11  29  51  73 109 158 197 250 316 384 451
#     4  12  29  51  75 111 154 203 254 315 388 457
#     4  11  24  46  72 110 150 196 254 318 372 451
#     4  11  26  49  70 113 154 199 258 309 394 455
#     4  11  25  47  75 106 154 198 251 313 378 443
#     4  12  26  45  78 111 152 200 255 318 380 459
#     4  12  27  43  83 111 148 201 263 315 379 457
#     4  12  24  48  74 109 154 196 251 322 377 449
#
# _framework density 21.75328
#
# number of rings (size 3 to 8) (size 9 to 14) (size 15 to 20)
#    0.000    0.500    5.000    3.000   10.500    1.000 
#    2.250    0.000    0.000    0.000    0.000    0.000 
#    0.000    0.000    0.000    0.000    0.000    0.000 
#
# Total GULP energy -89599.824949 kJ/mol
# GULP energy per Si atom -5599.989059 kJ/mol
# Density = 2.170377 g / cm^3
# Si number density = 21.753280 Si / 1000 Ang^3
#
#
#
# Elastic Constant Matrix: (Units=GPa)
#
#
# Indices 1 2 3 4 5 6 
#
# 1 121.9125 25.7168 18.3058 0.0000 -15.7918 0.0000
# 2 25.7168 107.2083 19.9825 0.0000 -7.4567 0.0000
# 3 18.3058 19.9825 52.8148 0.0000 -26.9159 0.0000
# 4 0.0000 0.0000 0.0000 28.5662 0.0000 -4.7024
# 5 -15.7918 -7.4567 -26.9159 0.0000 34.3835 0.0000
# 6 0.0000 0.0000 0.0000 -4.7024 0.0000 42.8968
#
#
#
# Elastic Compliance Matrix: (Units=1/GPa)
#
#
# Indices 1 2 3 4 5 6 
#
# 1 0.009119 -0.001804 -0.000903 0.000000 0.003090 0.000000
# 2 -0.001804 0.010429 -0.004309 0.000000 -0.001940 0.000000
# 3 -0.000903 -0.004309 0.033591 0.000000 0.024946 0.000000
# 4 0.000000 0.000000 0.000000 0.035650 0.000000 0.003908
# 5 0.003090 -0.001940 0.024946 0.000000 0.049610 0.000000
# 6 0.000000 0.000000 0.000000 0.003908 0.000000 0.023740
#
#
# Mechanical properties :
#
#
# Convention : Reuss Voigt Hill
#
# Bulk Modulus (GPa) = 25.57227 45.54955 35.56091
# Shear Modulus (GPa) = 26.42607 35.69798 31.06203
#
# Velocity S-wave (km/s) = 3.48919 4.05537 3.78289
# Velocity P-wave (km/s) = 5.29280 6.55077 5.95510
#
# Compressibility (1/GPa) = 0.03910486
#
# Stress axis : x y z
#
# Youngs Moduli (GPa) = 109.66027 95.88974 29.77006
#
# Poissons Ratio (x) = 0.17300 0.02690
# Poissons Ratio (y) = 0.19784 0.12828
# Poissons Ratio (z) = 0.09908 0.41321
#
# Static dielectric constant tensor:
#      x y z
#    x 1.806080 0.000000 0.017430 
#    y 0.000000 1.796220 0.000000 
#    z 0.017430 0.000000 1.779920 
# 
# From -- ./inp_files/9171.got.cif
#   From: 2010.05.17/outbox.cif.g08.bks.cpg/sg9_5_cif.got.tgz:9171.got - 2010.06.03 20:04:27.
