data_PCOD9140085
_publ_section_title
;
Structure prediction by ZEFSAII (Michael W. Deem and Ramdas Pophale) SiO2 
 PCOD9140085
Probable space group: C C
;
_chemical_formula_sum "Si O2"
_cell_formula_units_Z 32
_cell_length_a 11.645713
_cell_length_b 15.984249
_cell_length_c 15.122173
_cell_angle_alpha 90.000000
_cell_angle_beta 150.945078
_cell_angle_gamma 90.000000
_cell_volume 1367.080002
_symmetry_space_group_name_H-M "C C"
_symmetry_group_IT_number 9
_symmetry_cell_setting 'monoclinic'
loop_
_space_group_symop_operation_xyz
x,y,z
x,-y,1/2+z
1/2+x,1/2+y,z
1/2+x,1/2-y,1/2+z
loop_
_atom_site_type_symbol
_atom_site_label
_atom_site_fract_x
_atom_site_fract_y
_atom_site_fract_z
Si Si1 0.659160 0.195511 0.844620
Si Si2 0.364625 0.684927 0.437521
Si Si3 0.163675 0.137420 0.230093
Si Si4 0.012576 0.474616 0.193561
Si Si5 0.630530 0.096794 0.433215
Si Si6 0.200812 0.568447 0.176275
Si Si7 0.054594 0.001073 0.295921
Si Si8 0.391951 0.843440 0.341295
O O1 0.669710 0.283713 0.802174
O O2 0.486751 0.124513 0.687252
O O3 0.566247 0.194447 0.883700
O O4 0.920668 0.155820 0.014813
O O5 0.227157 0.670385 0.435508
O O6 0.220240 0.639120 0.263138
O O7 0.381327 0.777972 0.414086
O O8 0.628455 0.646449 0.626227
O O9 0.399901 0.125723 0.331308
O O10 0.124109 0.051012 0.255374
O O11 0.081507 0.518893 0.331954
O O12 0.189397 0.487095 0.230239
O O13 0.787919 0.525178 0.004482
O O14 0.852815 0.066606 0.641693
O O15 0.439434 0.569770 0.282204
O O16 0.005788 0.577698 0.968084
#
# Coordination Sequence:
#
# PCOD9140085 Si02
#       8
#     4   4   4   4   4   4   4   4
#     4  12  25  47  73 110 147 198 247 308 374 433
#     4  11  24  40  69 101 140 183 240 295 361 425
#     4  12  26  47  72 108 156 191 244 310 371 451
#     4  11  25  45  73 102 141 190 245 301 363 436
#     4  11  27  47  69 109 148 194 236 302 377 439
#     4  11  23  41  68 105 129 180 244 287 357 417
#     4  12  23  45  73 100 139 187 244 292 365 432
#     4  12  21  44  71 101 140 187 246 305 348 433
#
# _framework density 23.407554999999999
#
# number of rings (size 3 to 8) (size 9 to 14) (size 15 to 20)
#    0.000    0.500    3.750    4.500    1.750    2.000 
#    0.000    0.000    0.000    0.000    0.000    0.000 
#    0.000    0.000    0.000    0.000    0.000    0.000 
#
# Total GULP energy -89407.620721 kJ/mol
# GULP energy per Si atom -5587.976295 kJ/mol
# Density = 2.335428 g / cm^3
# Si number density = 23.407555 Si / 1000 Ang^3
#
#
#
# Elastic Constant Matrix: (Units=GPa)
#
#
# Indices 1 2 3 4 5 6 
#
# 1 174.2891 48.2422 40.5778 0.0163 19.6646 0.0093
# 2 48.2422 63.4196 17.9430 0.0152 0.4876 0.0200
# 3 40.5778 17.9430 146.2890 0.0327 3.8728 0.0208
# 4 0.0163 0.0152 0.0327 31.8191 0.0052 -1.3998
# 5 19.6646 0.4876 3.8728 0.0052 35.5685 -0.0005
# 6 0.0093 0.0200 0.0208 -1.3998 -0.0005 28.4171
#
#
#
# Elastic Compliance Matrix: (Units=1/GPa)
#
#
# Indices 1 2 3 4 5 6 
#
# 1 0.008149 -0.005758 -0.001441 0.000001 -0.004269 0.000002
# 2 -0.005758 0.020404 -0.000985 -0.000007 0.003011 -0.000012
# 3 -0.001441 -0.000985 0.007356 -0.000007 0.000009 -0.000005
# 4 0.000001 -0.000007 -0.000007 0.031496 -0.000004 0.001551
# 5 -0.004269 0.003011 0.000009 -0.000004 0.030433 0.000000
# 6 0.000002 -0.000012 -0.000005 0.001551 0.000000 0.035267
#
#
# Mechanical properties :
#
#
# Convention : Reuss Voigt Hill
#
# Bulk Modulus (GPa) = 51.17710 66.39154 58.78432
# Shear Modulus (GPa) = 32.05439 37.64325 34.84882
#
# Velocity S-wave (km/s) = 3.70456 4.01455 3.86266
# Velocity P-wave (km/s) = 6.34108 7.06496 6.71278
#
# Compressibility (1/GPa) = 0.01953999
#
# Stress axis : x y z
#
# Youngs Moduli (GPa) = 122.72146 49.01108 135.94201
#
# Poissons Ratio (x) = 0.28220 0.19589
# Poissons Ratio (y) = 0.70662 0.13392
# Poissons Ratio (z) = 0.17684 0.04828
#
# Static dielectric constant tensor:
#      x y z
#    x 1.904570 -0.000010 0.037710 
#    y -0.000010 2.027520 0.000000 
#    z 0.037710 0.000000 1.953560 
# 
# From -- ./inp_files/25029.got.cif
#   From: 2010.05.17/outbox.cif.g08.bks.cpg/sg9_13_cif.got.tgz:25029.got - 2010.06.03 20:04:27.
