data_PCOD9140515
_publ_section_title
;
Structure prediction by ZEFSAII (Michael W. Deem and Ramdas Pophale) SiO2 
 PCOD9140515
Probable space group: C C
;
_chemical_formula_sum "Si O2"
_cell_formula_units_Z 24
_cell_length_a 11.239738
_cell_length_b 15.548575
_cell_length_c 7.202559
_cell_angle_alpha 90.000000
_cell_angle_beta 42.369881
_cell_angle_gamma 90.000000
_cell_volume 848.277900
_symmetry_space_group_name_H-M "C C"
_symmetry_group_IT_number 9
_symmetry_cell_setting 'monoclinic'
loop_
_space_group_symop_operation_xyz
x,y,z
x,-y,1/2+z
1/2+x,1/2+y,z
1/2+x,1/2-y,1/2+z
loop_
_atom_site_type_symbol
_atom_site_label
_atom_site_fract_x
_atom_site_fract_y
_atom_site_fract_z
Si Si1 0.076200 0.064014 0.027270
Si Si2 0.761905 0.925901 0.365283
Si Si3 0.377250 0.099366 0.430668
Si Si4 0.727219 0.358928 0.709183
Si Si5 0.870243 0.794977 0.558197
Si Si6 0.125911 0.678984 0.690750
O O1 0.265925 0.048266 0.711209
O O2 0.423634 0.153752 0.902122
O O3 0.910015 0.999862 0.200394
O O4 0.023472 0.152131 0.983889
O O5 0.563605 0.945666 0.668352
O O6 0.727072 0.890613 0.199141
O O7 0.117811 0.915742 0.691777
O O8 0.257319 0.111587 0.384650
O O9 0.718346 0.195570 0.389028
O O10 0.826462 0.151036 0.924321
O O11 0.912047 0.302919 0.959041
O O12 0.635347 0.265871 0.801715
#
# Coordination Sequence:
#
# PCOD9140515 Si02
#       6
#     4   4   4   4   4   4
#     4  12  28  48  85 130 182 236 296 375 458 529
#     4  11  28  51  81 132 182 234 293 379 454 532
#     4  11  25  52  87 126 175 238 307 363 445 547
#     4  11  24  46  84 130 172 227 305 367 444 535
#     4  12  25  47  87 125 172 230 299 367 445 542
#     4  11  24  46  86 129 171 229 302 371 436 541
#
# _framework density 28.292612999999999
#
# number of rings (size 3 to 8) (size 9 to 14) (size 15 to 20)
#    0.000    0.667    3.333    3.000    4.667    2.667 
#    0.000    3.333    3.667    0.000    0.000    0.000 
#    0.000    0.000    0.000    0.000    0.000    0.000 
#
# Total GULP energy -67486.788660 kJ/mol
# GULP energy per Si atom -5623.899055 kJ/mol
# Density = 2.822822 g / cm^3
# Si number density = 28.292613 Si / 1000 Ang^3
#
#
#
# Elastic Constant Matrix: (Units=GPa)
#
#
# Indices 1 2 3 4 5 6 
#
# 1 200.8141 97.8679 70.4381 0.0000 -12.9296 0.0000
# 2 97.8679 178.8405 79.4628 0.0000 -4.0261 0.0000
# 3 70.4381 79.4628 228.4291 0.0000 -11.1048 0.0000
# 4 0.0000 0.0000 0.0000 43.3912 0.0000 -15.1307
# 5 -12.9296 -4.0261 -11.1048 0.0000 56.1104 0.0000
# 6 0.0000 0.0000 0.0000 -15.1307 0.0000 69.2156
#
#
#
# Elastic Compliance Matrix: (Units=1/GPa)
#
#
# Indices 1 2 3 4 5 6 
#
# 1 0.007047 -0.003418 -0.000926 0.000000 0.001195 0.000000
# 2 -0.003418 0.008272 -0.001851 0.000000 -0.000560 0.000000
# 3 -0.000926 -0.001851 0.005342 0.000000 0.000711 0.000000
# 4 0.000000 0.000000 0.000000 0.024948 0.000000 0.005454
# 5 0.001195 -0.000560 0.000711 0.000000 0.018198 0.000000
# 6 0.000000 0.000000 0.000000 0.005454 0.000000 0.015640
#
#
# Mechanical properties :
#
#
# Convention : Reuss Voigt Hill
#
# Bulk Modulus (GPa) = 120.90284 122.62458 121.76371
# Shear Modulus (GPa) = 52.85792 57.76445 55.31118
#
# Velocity S-wave (km/s) = 4.32702 4.52340 4.42630
# Velocity P-wave (km/s) = 8.23347 8.40935 8.32187
#
# Compressibility (1/GPa) = 0.00827110
#
# Stress axis : x y z
#
# Youngs Moduli (GPa) = 141.89656 120.89177 187.21001
#
# Poissons Ratio (x) = 0.41324 0.17334
# Poissons Ratio (y) = 0.48504 0.34647
# Poissons Ratio (z) = 0.13138 0.22373
#
# Static dielectric constant tensor:
#      x y z
#    x 2.095830 0.000000 -0.008890 
#    y 0.000000 2.249590 0.000000 
#    z -0.008890 0.000000 2.265270 
# 
# From -- ./inp_files/15013.got.cif
#   From: 2010.05.17/outbox.cif.g08.bks.cpg/sg9_8_cif.got.tgz:15013.got - 2010.06.03 20:04:27.
