data_PCOD9140408
_publ_section_title
;
Structure prediction by ZEFSAII (Michael W. Deem and Ramdas Pophale) SiO2 
 PCOD9140408
Probable space group: C C
;
_chemical_formula_sum "Si O2"
_cell_formula_units_Z 24
_cell_length_a 18.285452
_cell_length_b 5.143740
_cell_length_c 12.036800
_cell_angle_alpha 90.000000
_cell_angle_beta 106.832430
_cell_angle_gamma 90.000000
_cell_volume 1083.623376
_symmetry_space_group_name_H-M "C C"
_symmetry_group_IT_number 9
_symmetry_cell_setting 'monoclinic'
loop_
_space_group_symop_operation_xyz
x,y,z
x,-y,1/2+z
1/2+x,1/2+y,z
1/2+x,1/2-y,1/2+z
loop_
_atom_site_type_symbol
_atom_site_label
_atom_site_fract_x
_atom_site_fract_y
_atom_site_fract_z
Si Si1 0.658620 0.959491 0.148930
Si Si2 0.214883 0.966185 0.056165
Si Si3 0.096615 0.211812 0.325518
Si Si4 0.462501 0.557911 0.728121
Si Si5 0.388785 0.940766 0.083705
Si Si6 0.003704 0.596484 0.439995
O O1 0.710845 0.737778 0.117703
O O2 0.646937 0.903208 0.273037
O O3 0.548722 0.513712 0.226909
O O4 0.575619 0.911803 0.055494
O O5 0.297862 0.937199 0.039536
O O6 0.150249 0.941034 0.933426
O O7 0.193614 0.735043 0.131781
O O8 0.033844 0.387946 0.362337
O O9 0.981794 0.859252 0.363787
O O10 0.413854 0.313056 0.665125
O O11 0.421669 0.807618 0.660371
O O12 0.429635 0.954903 0.982086
#
# Coordination Sequence:
#
# PCOD9140408 Si02
#       6
#     4   4   4   4   4   4
#     4  11  24  44  74  95 140 181 236 284 336 421
#     4  11  27  46  67 106 139 182 225 293 354 406
#     4  11  25  45  74 105 131 191 240 281 345 422
#     4  12  24  45  70 106 133 186 234 280 344 421
#     4  12  28  44  72 105 146 177 231 294 354 406
#     4  11  24  44  75 103 135 183 234 288 337 420
#
# _framework density 22.147915999999999
#
# number of rings (size 3 to 8) (size 9 to 14) (size 15 to 20)
#    0.000    0.667    5.000    1.000    9.333    2.667 
#    0.000    0.000    0.000    0.000    0.000    0.000 
#    0.000    0.000    0.000    0.000    0.000    0.000 
#
# Total GULP energy -67037.625118 kJ/mol
# GULP energy per Si atom -5586.468760 kJ/mol
# Density = 2.209751 g / cm^3
# Si number density = 22.147916 Si / 1000 Ang^3
#
#
#
# Elastic Constant Matrix: (Units=GPa)
#
#
# Indices 1 2 3 4 5 6 
#
# 1 145.3657 4.8020 16.5728 0.0000 4.7398 0.0000
# 2 4.8020 79.2699 2.0095 0.0000 22.3652 0.0000
# 3 16.5728 2.0095 32.1529 0.0000 3.7131 0.0000
# 4 0.0000 0.0000 0.0000 21.2044 0.0000 -3.4419
# 5 4.7398 22.3652 3.7131 0.0000 25.1016 0.0000
# 6 0.0000 0.0000 0.0000 -3.4419 0.0000 26.0334
#
#
#
# Elastic Compliance Matrix: (Units=1/GPa)
#
#
# Indices 1 2 3 4 5 6 
#
# 1 0.007327 -0.000152 -0.003686 0.000000 -0.000703 0.000000
# 2 -0.000152 0.016870 0.000770 0.000000 -0.015116 0.000000
# 3 -0.003686 0.000770 0.033525 0.000000 -0.004949 0.000000
# 4 0.000000 0.000000 0.000000 0.048194 0.000000 0.006372
# 5 -0.000703 -0.015116 -0.004949 0.000000 0.054171 0.000000
# 6 0.000000 0.000000 0.000000 0.006372 0.000000 0.039255
#
#
# Mechanical properties :
#
#
# Convention : Reuss Voigt Hill
#
# Bulk Modulus (GPa) = 19.38564 33.72857 26.55710
# Shear Modulus (GPa) = 22.45438 30.02814 26.24126
#
# Velocity S-wave (km/s) = 3.18754 3.68611 3.44585
# Velocity P-wave (km/s) = 4.72430 5.77741 5.27719
#
# Compressibility (1/GPa) = 0.05158457
#
# Stress axis : x y z
#
# Youngs Moduli (GPa) = 136.47414 59.27827 29.82866
#
# Poissons Ratio (x) = 0.00902 0.10995
# Poissons Ratio (y) = 0.02077 -0.02296
# Poissons Ratio (z) = 0.50307 -0.04563
#
# Static dielectric constant tensor:
#      x y z
#    x 1.797210 0.000000 -0.026430 
#    y 0.000000 1.886910 0.000000 
#    z -0.026430 0.000000 1.846690 
# 
# From -- ./inp_files/26291.got.cif
#   From: 2010.05.17/outbox.cif.g08.bks.cpg/sg9_14_cif.got.tgz:26291.got - 2010.06.03 20:04:27.
