data_PCOD9140141
_publ_section_title
;
Structure prediction by ZEFSAII (Michael W. Deem and Ramdas Pophale) SiO2 
 PCOD9140141
Probable space group: C C
;
_chemical_formula_sum "Si O2"
_cell_formula_units_Z 32
_cell_length_a 5.627345
_cell_length_b 23.434385
_cell_length_c 10.745728
_cell_angle_alpha 90.000000
_cell_angle_beta 74.122146
_cell_angle_gamma 90.000000
_cell_volume 1363.009863
_symmetry_space_group_name_H-M "C C"
_symmetry_group_IT_number 9
_symmetry_cell_setting 'monoclinic'
loop_
_space_group_symop_operation_xyz
x,y,z
x,-y,1/2+z
1/2+x,1/2+y,z
1/2+x,1/2-y,1/2+z
loop_
_atom_site_type_symbol
_atom_site_label
_atom_site_fract_x
_atom_site_fract_y
_atom_site_fract_z
Si Si1 0.028970 0.825103 0.799680
Si Si2 0.954050 0.910877 0.608205
Si Si3 0.449675 0.207375 0.421088
Si Si4 0.407715 0.601898 0.658693
Si Si5 0.586409 0.666503 0.867075
Si Si6 0.044626 0.500090 0.190835
Si Si7 0.050742 0.704843 0.684145
Si Si8 0.265185 0.019317 0.481312
O O1 0.228552 0.823025 0.880940
O O2 0.111931 0.770303 0.704004
O O3 0.041410 0.884044 0.724364
O O4 0.733018 0.815170 0.864325
O O5 0.689719 0.940540 0.655550
O O6 0.977428 0.860623 0.506040
O O7 0.124701 0.961591 0.536909
O O8 0.456417 0.272405 0.370042
O O9 0.402342 0.205669 0.575497
O O10 0.546064 0.621184 0.763439
O O11 0.217039 0.550988 0.717396
O O12 0.266642 0.658978 0.637483
O O13 0.586435 0.572469 0.533505
O O14 0.876706 0.681732 0.820583
O O15 0.849803 0.512118 0.327872
O O16 0.966186 0.478461 0.064563
#
# Coordination Sequence:
#
# PCOD9140141 Si02
#       8
#     4   4   4   4   4   4   4   4
#     4  11  26  46  72 115 151 203 254 315 387 462
#     4  11  25  46  76 105 153 199 251 319 392 467
#     4  11  26  46  73 109 160 197 262 312 384 461
#     4  11  23  43  73 104 148 197 257 313 391 462
#     4  11  23  46  73 104 143 206 249 312 386 465
#     4  11  26  48  72 113 145 195 260 325 391 467
#     4  11  24  45  71 109 148 199 254 315 379 470
#     4  11  25  46  74 107 150 194 261 323 396 462
#
# _framework density 23.477454999999999
#
# number of rings (size 3 to 8) (size 9 to 14) (size 15 to 20)
#    0.000    1.000    2.500    3.000    3.500    6.000 
#    0.000    0.000    0.000    0.000    0.000    0.000 
#    0.000    0.000    0.000    0.000    0.000    0.000 
#
# Total GULP energy -89483.597105 kJ/mol
# GULP energy per Si atom -5592.724819 kJ/mol
# Density = 2.342402 g / cm^3
# Si number density = 23.477455 Si / 1000 Ang^3
#
#
#
# Elastic Constant Matrix: (Units=GPa)
#
#
# Indices 1 2 3 4 5 6 
#
# 1 79.2330 37.5649 11.4760 0.0000 -2.3002 0.0000
# 2 37.5649 105.7282 38.5082 0.0000 -23.0331 0.0000
# 3 11.4760 38.5082 57.2877 0.0000 -1.9378 0.0000
# 4 0.0000 0.0000 0.0000 44.0050 0.0000 6.8969
# 5 -2.3002 -23.0331 -1.9378 0.0000 24.0380 0.0000
# 6 0.0000 0.0000 0.0000 6.8969 0.0000 29.7364
#
#
#
# Elastic Compliance Matrix: (Units=1/GPa)
#
#
# Indices 1 2 3 4 5 6 
#
# 1 0.015714 -0.007346 0.001607 0.000000 -0.005406 0.000000
# 2 -0.007346 0.020061 -0.011418 0.000000 0.017599 0.000000
# 3 0.001607 -0.011418 0.024511 0.000000 -0.008811 0.000000
# 4 0.000000 0.000000 0.000000 0.023582 0.000000 -0.005469
# 5 -0.005406 0.017599 -0.008811 0.000000 0.057236 0.000000
# 6 0.000000 0.000000 0.000000 -0.005469 0.000000 0.034897
#
#
# Mechanical properties :
#
#
# Convention : Reuss Voigt Hill
#
# Bulk Modulus (GPa) = 38.50268 46.37190 42.43729
# Shear Modulus (GPa) = 22.83393 29.86920 26.35157
#
# Velocity S-wave (km/s) = 3.12202 3.57073 3.35389
# Velocity P-wave (km/s) = 5.42508 6.06586 5.75440
#
# Compressibility (1/GPa) = 0.02597222
#
# Stress axis : x y z
#
# Youngs Moduli (GPa) = 63.63675 49.84831 40.79854
#
# Poissons Ratio (x) = 0.36620 -0.06558
# Poissons Ratio (y) = 0.46750 0.46583
# Poissons Ratio (z) = -0.10229 0.56916
#
# Static dielectric constant tensor:
#      x y z
#    x 1.952100 0.000000 0.011170 
#    y 0.000000 1.853760 0.000000 
#    z 0.011170 0.000000 1.900840 
# 
# From -- ./inp_files/13461.got.cif
#   From: 2010.05.17/outbox.cif.g08.bks.cpg/sg9_7_cif.got.tgz:13461.got - 2010.06.03 20:04:27.
