data_PCOD9140296
_publ_section_title
;
Structure prediction by ZEFSAII (Michael W. Deem and Ramdas Pophale) SiO2 
 PCOD9140296
Probable space group: C C
;
_chemical_formula_sum "Si O2"
_cell_formula_units_Z 20
_cell_length_a 14.824895
_cell_length_b 8.809190
_cell_length_c 9.606169
_cell_angle_alpha 90.000000
_cell_angle_beta 142.284292
_cell_angle_gamma 90.000000
_cell_volume 767.445421
_symmetry_space_group_name_H-M "C C"
_symmetry_group_IT_number 9
_symmetry_cell_setting 'monoclinic'
loop_
_space_group_symop_operation_xyz
x,y,z
x,-y,1/2+z
1/2+x,1/2+y,z
1/2+x,1/2-y,1/2+z
loop_
_atom_site_type_symbol
_atom_site_label
_atom_site_fract_x
_atom_site_fract_y
_atom_site_fract_z
Si Si1 0.647550 0.282954 0.853460
Si Si2 0.426520 0.033289 0.490025
Si Si3 0.949972 0.749906 0.835687
Si Si4 0.484777 0.591926 0.636606
Si Si5 0.300209 0.197704 0.075592
O O1 0.566343 0.132695 0.705298
O O2 0.604211 0.305156 0.962947
O O3 0.561100 0.430986 0.695802
O O4 0.822603 0.265169 0.063542
O O5 0.324784 0.140764 0.264873
O O6 0.474618 0.909904 0.435596
O O7 0.361592 0.928987 0.537642
O O8 0.899784 0.862089 0.894103
O O9 0.377637 0.642074 0.631836
O O10 0.626392 0.699541 0.836466
#
# Coordination Sequence:
#
# PCOD9140296 Si02
#       5
#     4   4   4   4   4
#     4  12  25  44  74 102 142 191 240 292 367 425
#     4  11  23  48  73 106 144 195 232 309 359 433
#     4  11  25  46  68 104 147 183 237 303 353 432
#     4  11  26  46  74 107 146 194 240 308 355 442
#     4  11  25  48  77 103 153 189 249 298 374 418
#
# _framework density 26.060483999999999
#
# number of rings (size 3 to 8) (size 9 to 14) (size 15 to 20)
#    0.000    0.800    4.000    2.400    2.800    6.400 
#    0.000    0.000    0.000    0.000    0.000    0.000 
#    0.000    0.000    0.000    0.000    0.000    0.000 
#
# Total GULP energy -55830.827143 kJ/mol
# GULP energy per Si atom -5583.082714 kJ/mol
# Density = 2.600117 g / cm^3
# Si number density = 26.060484 Si / 1000 Ang^3
#
#
#
# Elastic Constant Matrix: (Units=GPa)
#
#
# Indices 1 2 3 4 5 6 
#
# 1 58.0259 2.4651 21.2019 0.0000 -9.8287 0.0000
# 2 2.4651 83.7110 41.0470 0.0000 1.2127 0.0000
# 3 21.2019 41.0470 101.9038 0.0000 -3.7833 0.0000
# 4 0.0000 0.0000 0.0000 48.0816 0.0000 -5.8292
# 5 -9.8287 1.2127 -3.7833 0.0000 50.4011 0.0000
# 6 0.0000 0.0000 0.0000 -5.8292 0.0000 32.9609
#
#
#
# Elastic Compliance Matrix: (Units=1/GPa)
#
#
# Indices 1 2 3 4 5 6 
#
# 1 0.019409 0.001617 -0.004563 0.000000 0.003403 0.000000
# 2 0.001617 0.015054 -0.006420 0.000000 -0.000529 0.000000
# 3 -0.004563 -0.006420 0.013358 0.000000 0.000267 0.000000
# 4 0.000000 0.000000 0.000000 0.021254 0.000000 0.003759
# 5 0.003403 -0.000529 0.000267 0.000000 0.020537 0.000000
# 6 0.000000 0.000000 0.000000 0.003759 0.000000 0.031004
#
#
# Mechanical properties :
#
#
# Convention : Reuss Voigt Hill
#
# Bulk Modulus (GPa) = 34.37759 41.45210 37.91484
# Shear Modulus (GPa) = 33.54720 38.21718 35.88219
#
# Velocity S-wave (km/s) = 3.59176 3.83362 3.71466
# Velocity P-wave (km/s) = 5.51553 5.96122 5.74270
#
# Compressibility (1/GPa) = 0.02908872
#
# Stress axis : x y z
#
# Youngs Moduli (GPa) = 51.52318 66.42872 74.85987
#
# Poissons Ratio (x) = -0.10738 0.34158
# Poissons Ratio (y) = -0.08329 0.48057
# Poissons Ratio (z) = 0.23510 0.42645
#
# Static dielectric constant tensor:
#      x y z
#    x 2.119590 0.000000 -0.061350 
#    y 0.000000 2.114350 0.000000 
#    z -0.061350 0.000000 1.960550 
# 
# From -- ./inp_files/6627.got.cif
#   From: 2010.05.17/outbox.cif.g08.bks.cpg/sg9_4_cif.got.tgz:6627.got - 2010.06.03 20:04:27.
