data_PCOD9140920
_publ_section_title
;
Structure prediction by ZEFSAII (Michael W. Deem and Ramdas Pophale) SiO2 
 PCOD9140920
Probable space group: C C
;
_chemical_formula_sum "Si O2"
_cell_formula_units_Z 28
_cell_length_a 7.004604
_cell_length_b 17.606510
_cell_length_c 9.457423
_cell_angle_alpha 90.000000
_cell_angle_beta 111.664134
_cell_angle_gamma 90.000000
_cell_volume 1083.965480
_symmetry_space_group_name_H-M "C C"
_symmetry_group_IT_number 9
_symmetry_cell_setting 'monoclinic'
loop_
_space_group_symop_operation_xyz
x,y,z
x,-y,1/2+z
1/2+x,1/2+y,z
1/2+x,1/2-y,1/2+z
loop_
_atom_site_type_symbol
_atom_site_label
_atom_site_fract_x
_atom_site_fract_y
_atom_site_fract_z
Si Si1 0.553150 0.317580 0.256280
Si Si2 0.602904 0.982470 0.239594
Si Si3 0.156937 0.952249 0.493345
Si Si4 0.888950 0.282996 0.948724
Si Si5 0.519096 0.810485 0.282129
Si Si6 0.819931 0.936645 0.024408
Si Si7 0.825200 0.561474 0.299131
O O1 0.557539 0.381080 0.377946
O O2 0.478961 0.244090 0.322487
O O3 0.783854 0.305765 0.264895
O O4 0.407039 0.355360 0.094683
O O5 0.586173 0.899132 0.296941
O O6 0.743094 0.980260 0.142968
O O7 0.618604 0.050860 0.364467
O O8 0.377202 0.016322 0.145681
O O9 0.148523 0.904015 0.650725
O O10 0.262649 0.988144 0.371344
O O11 0.982352 0.016853 0.479786
O O12 0.679250 0.237202 0.916443
O O13 0.855160 0.372574 0.923481
O O14 0.028933 0.278823 0.125232
#
# Coordination Sequence:
#
# PCOD9140920 Si02
#       7
#     4   4   4   4   4   4   4
#     4  12  26  50  78 110 163 207 265 330 410 482
#     4  12  24  45  79 111 158 205 272 333 404 480
#     4  12  22  46  72 106 146 203 257 329 390 471
#     4  12  28  50  76 116 162 210 270 337 404 492
#     4  12  27  54  79 112 163 220 273 329 412 491
#     4  12  22  43  75 113 154 199 261 332 393 481
#     4  12  25  44  75 108 148 202 270 326 401 467
#
# _framework density 25.83108
#
# number of rings (size 3 to 8) (size 9 to 14) (size 15 to 20)
#    0.000    0.000    5.714    4.286    0.000    2.286 
#   10.286    0.000    0.000    0.000    0.000    0.000 
#    0.000    0.000    0.000    0.000    0.000    0.000 
#
# Total GULP energy -78048.413926 kJ/mol
# GULP energy per Si atom -5574.886709 kJ/mol
# Density = 2.577229 g / cm^3
# Si number density = 25.831080 Si / 1000 Ang^3
#
#
#
# Elastic Constant Matrix: (Units=GPa)
#
#
# Indices 1 2 3 4 5 6 
#
# 1 100.8095 -2.6525 -8.1139 0.0000 -21.9625 0.0000
# 2 -2.6525 69.4730 1.3962 0.0000 10.7511 0.0000
# 3 -8.1139 1.3962 118.4517 0.0000 2.7035 0.0000
# 4 0.0000 0.0000 0.0000 44.5042 0.0000 11.4605
# 5 -21.9625 10.7511 2.7035 0.0000 39.3134 0.0000
# 6 0.0000 0.0000 0.0000 11.4605 0.0000 2.1707
#
#
#
# Elastic Compliance Matrix: (Units=1/GPa)
#
#
# Indices 1 2 3 4 5 6 
#
# 1 0.011364 -0.000579 0.000638 0.000000 0.006463 0.000000
# 2 -0.000579 0.015061 -0.000116 0.000000 -0.004434 0.000000
# 3 0.000638 -0.000116 0.008492 0.000000 -0.000196 0.000000
# 4 0.000000 0.000000 0.000000 -0.062483 0.000000 0.329893
# 5 0.006463 -0.004434 -0.000196 0.000000 0.030273 0.000000
# 6 0.000000 0.000000 0.000000 0.329893 0.000000 -1.281062
#
#
# Mechanical properties :
#
#
# Convention : Reuss Voigt Hill
#
# Bulk Modulus (GPa) = 28.73448 29.99932 29.36690
# Shear Modulus (GPa) = -3.94745 37.07125 16.56190
#
# Velocity S-wave (km/s) = -1.23754 3.79244 2.53486
# Velocity P-wave (km/s) = 3.01764 5.55118 4.46776
#
# Compressibility (1/GPa) = 0.03480140
#
# Stress axis : x y z
#
# Youngs Moduli (GPa) = 87.99861 66.39884 117.76084
#
# Poissons Ratio (x) = 0.03845 -0.07510
# Poissons Ratio (y) = 0.05096 0.01366
# Poissons Ratio (z) = -0.05612 0.00770
#
# Static dielectric constant tensor:
#      x y z
#    x 2.257840 0.000000 0.200070 
#    y 0.000000 2.139930 0.000000 
#    z 0.200070 0.000000 2.171160 
# 
# From -- ./inp_files/5405.got.cif
#   From: 2010.05.17/outbox.cif.g08.bks.cpg/sg9_3_cif.got.tgz:5405.got - 2010.06.03 20:04:27.
