data_PCOD9140701
_publ_section_title
;
Structure prediction by ZEFSAII (Michael W. Deem and Ramdas Pophale) SiO2 
 PCOD9140701
Probable space group: C C
;
_chemical_formula_sum "Si O2"
_cell_formula_units_Z 32
_cell_length_a 5.779518
_cell_length_b 18.567700
_cell_length_c 13.981101
_cell_angle_alpha 90.000000
_cell_angle_beta 118.563492
_cell_angle_gamma 90.000000
_cell_volume 1317.734634
_symmetry_space_group_name_H-M "C C"
_symmetry_group_IT_number 9
_symmetry_cell_setting 'monoclinic'
loop_
_space_group_symop_operation_xyz
x,y,z
x,-y,1/2+z
1/2+x,1/2+y,z
1/2+x,1/2-y,1/2+z
loop_
_atom_site_type_symbol
_atom_site_label
_atom_site_fract_x
_atom_site_fract_y
_atom_site_fract_z
Si Si1 0.724780 0.429961 0.701540
Si Si2 0.165160 0.026073 0.399469
Si Si3 0.644352 0.076597 0.999954
Si Si4 0.253619 0.271067 0.584573
Si Si5 0.387459 0.636643 0.484174
Si Si6 0.141522 0.445671 0.273491
Si Si7 0.706642 0.825463 0.141188
Si Si8 0.082775 0.701593 0.247436
O O1 0.741075 0.426701 0.821167
O O2 0.426599 0.438974 0.605398
O O3 0.911644 0.496736 0.711698
O O4 0.858697 0.358844 0.682832
O O5 0.041460 0.073042 0.460824
O O6 0.402934 0.975120 0.480894
O O7 0.929093 0.977891 0.308542
O O8 0.607043 0.161351 0.010387
O O9 0.656797 0.067618 0.889075
O O10 0.503958 0.239352 0.579003
O O11 0.294560 0.295486 0.702859
O O12 0.071017 0.202073 0.551037
O O13 0.245182 0.622810 0.557092
O O14 0.205639 0.671942 0.367952
O O15 0.098106 0.374311 0.204603
O O16 0.958947 0.781063 0.228783
#
# Coordination Sequence:
#
# PCOD9140701 Si02
#       8
#     4   4   4   4   4   4   4   4
#     4  11  25  50  76 110 154 208 266 323 405 479
#     4  11  27  48  74 115 154 210 261 337 397 489
#     4  11  27  46  80 108 155 209 258 332 409 471
#     4  11  27  46  76 110 145 206 260 333 394 480
#     4  11  27  47  78 110 151 207 262 326 407 475
#     4  11  28  47  74 116 155 202 264 337 392 483
#     4  11  28  47  76 116 155 203 264 336 395 477
#     4  11  25  47  74 109 145 205 267 320 395 484
#
# _framework density 24.284099000000001
#
# number of rings (size 3 to 8) (size 9 to 14) (size 15 to 20)
#    0.000    1.000    2.500    0.750    8.750    6.000 
#    0.000    0.000    0.000    0.000    0.000    0.000 
#    0.000    0.000    0.000    0.000    0.000    0.000 
#
# Total GULP energy -89527.088557 kJ/mol
# GULP energy per Si atom -5595.443035 kJ/mol
# Density = 2.422883 g / cm^3
# Si number density = 24.284099 Si / 1000 Ang^3
#
#
#
# Elastic Constant Matrix: (Units=GPa)
#
#
# Indices 1 2 3 4 5 6 
#
# 1 86.0207 43.3245 44.4433 0.0000 -3.3262 0.0000
# 2 43.3245 133.2853 46.5979 0.0000 -2.0881 0.0000
# 3 44.4433 46.5979 115.5504 0.0000 1.4626 0.0000
# 4 0.0000 0.0000 0.0000 40.0010 0.0000 2.5324
# 5 -3.3262 -2.0881 1.4626 0.0000 44.3538 0.0000
# 6 0.0000 0.0000 0.0000 2.5324 0.0000 45.2512
#
#
#
# Elastic Compliance Matrix: (Units=1/GPa)
#
#
# Indices 1 2 3 4 5 6 
#
# 1 0.015861 -0.003491 -0.004708 0.000000 0.001180 0.000000
# 2 -0.003491 0.009515 -0.002498 0.000000 0.000268 0.000000
# 3 -0.004708 -0.002498 0.011483 0.000000 -0.000849 0.000000
# 4 0.000000 0.000000 0.000000 0.025088 0.000000 -0.001404
# 5 0.001180 0.000268 -0.000849 0.000000 0.022675 0.000000
# 6 0.000000 0.000000 0.000000 -0.001404 0.000000 0.022177
#
#
# Mechanical properties :
#
#
# Convention : Reuss Voigt Hill
#
# Bulk Modulus (GPa) = 64.65822 67.06531 65.86176
# Shear Modulus (GPa) = 37.49564 39.28725 38.39145
#
# Velocity S-wave (km/s) = 3.93369 4.02657 3.98040
# Velocity P-wave (km/s) = 6.87862 7.02102 6.95018
#
# Compressibility (1/GPa) = 0.01546594
#
# Stress axis : x y z
#
# Youngs Moduli (GPa) = 63.04588 105.09724 87.08638
#
# Poissons Ratio (x) = 0.36694 0.40997
# Poissons Ratio (y) = 0.22012 0.21751
# Poissons Ratio (z) = 0.29680 0.26249
#
# Static dielectric constant tensor:
#      x y z
#    x 2.112580 0.000000 0.021910 
#    y 0.000000 1.915820 0.000000 
#    z 0.021910 0.000000 1.901230 
# 
# From -- ./inp_files/22114.got.cif
#   From: 2010.05.17/outbox.cif.g08.bks.cpg/sg9_12_cif.got.tgz:22114.got - 2010.06.03 20:04:27.
