data_PCOD9140991
_publ_section_title
;
Structure prediction by ZEFSAII (Michael W. Deem and Ramdas Pophale) SiO2 
 PCOD9140991
Probable space group: C C
;
_chemical_formula_sum "Si O2"
_cell_formula_units_Z 20
_cell_length_a 6.975961
_cell_length_b 16.598368
_cell_length_c 7.823201
_cell_angle_alpha 90.000000
_cell_angle_beta 77.130192
_cell_angle_gamma 90.000000
_cell_volume 883.089058
_symmetry_space_group_name_H-M "C C"
_symmetry_group_IT_number 9
_symmetry_cell_setting 'monoclinic'
loop_
_space_group_symop_operation_xyz
x,y,z
x,-y,1/2+z
1/2+x,1/2+y,z
1/2+x,1/2-y,1/2+z
loop_
_atom_site_type_symbol
_atom_site_label
_atom_site_fract_x
_atom_site_fract_y
_atom_site_fract_z
Si Si1 0.725850 0.835002 0.706270
Si Si2 0.572097 0.982516 0.568840
Si Si3 0.282406 0.956109 0.351137
Si Si4 0.454229 0.591209 0.462937
Si Si5 0.982897 0.822892 0.327627
O O1 0.602817 0.917512 0.711975
O O2 0.895880 0.852237 0.813434
O O3 0.806365 0.818238 0.498836
O O4 0.586737 0.762757 0.788806
O O5 0.470643 0.938975 0.431883
O O6 0.394807 0.042276 0.649304
O O7 0.778381 0.025477 0.504823
O O8 0.131256 0.884294 0.390052
O O9 0.150927 0.037880 0.393456
O O10 0.448429 0.638798 0.645173
#
# Coordination Sequence:
#
# PCOD9140991 Si02
#       5
#     4   4   4   4   4
#     4  12  29  48  73 112 153 192 244 307 370 438
#     4  12  24  46  79 106 141 193 252 302 362 434
#     4  12  24  46  79 106 141 193 252 302 362 434
#     4  12  26  52  76 106 148 194 256 304 358 446
#     4  12  29  48  73 112 153 192 244 307 370 438
#
# _framework density 22.647770000000001
#
# number of rings (size 3 to 8) (size 9 to 14) (size 15 to 20)
#    0.000    0.000    6.000    3.600    8.400    1.600 
#    0.000    0.000    0.000    0.000    0.000    0.000 
#    0.000    0.000    0.000    0.000    0.000    0.000 
#
# Total GULP energy -55828.507435 kJ/mol
# GULP energy per Si atom -5582.850744 kJ/mol
# Density = 2.259622 g / cm^3
# Si number density = 22.647770 Si / 1000 Ang^3
#
#
#
# Elastic Constant Matrix: (Units=GPa)
#
#
# Indices 1 2 3 4 5 6 
#
# 1 117.7760 23.5218 45.0309 0.0000 10.0531 0.0000
# 2 23.5218 49.4355 5.5974 0.0000 22.7162 0.0000
# 3 45.0309 5.5974 85.3286 0.0000 13.1967 0.0000
# 4 0.0000 0.0000 0.0000 33.5960 0.0000 -12.3001
# 5 10.0531 22.7162 13.1967 0.0000 49.8508 0.0000
# 6 0.0000 0.0000 0.0000 -12.3001 0.0000 24.5676
#
#
#
# Elastic Compliance Matrix: (Units=1/GPa)
#
#
# Indices 1 2 3 4 5 6 
#
# 1 0.011845 -0.005806 -0.006162 0.000000 0.001888 0.000000
# 2 -0.005806 0.028433 0.003151 0.000000 -0.012620 0.000000
# 3 -0.006162 0.003151 0.015426 0.000000 -0.004277 0.000000
# 4 0.000000 0.000000 0.000000 0.036446 0.000000 0.018247
# 5 0.001888 -0.012620 -0.004277 0.000000 0.026562 0.000000
# 6 0.000000 0.000000 0.000000 0.018247 0.000000 0.049840
#
#
# Mechanical properties :
#
#
# Convention : Reuss Voigt Hill
#
# Bulk Modulus (GPa) = 26.26805 44.53781 35.40293
# Shear Modulus (GPa) = 25.14116 33.49556 29.31836
#
# Velocity S-wave (km/s) = 3.33542 3.84992 3.60187
# Velocity P-wave (km/s) = 5.14365 6.28257 5.74142
#
# Compressibility (1/GPa) = 0.03806906
#
# Stress axis : x y z
#
# Youngs Moduli (GPa) = 84.42257 35.17037 64.82486
#
# Poissons Ratio (x) = 0.20420 0.39947
# Poissons Ratio (y) = 0.49015 -0.20424
# Poissons Ratio (z) = 0.52024 -0.11081
#
# Static dielectric constant tensor:
#      x y z
#    x 1.849170 0.000000 0.188430 
#    y 0.000000 1.844360 0.000000 
#    z 0.188430 0.000000 2.156670 
# 
# From -- ./inp_files/3578.got.cif
#   From: 2010.05.17/outbox.cif.g08.bks.cpg/sg9_2_cif.got.tgz:3578.got - 2010.06.03 20:04:27.
