data_PCOD9140423
_publ_section_title
;
Structure prediction by ZEFSAII (Michael W. Deem and Ramdas Pophale) SiO2 
 PCOD9140423
Probable space group: C C
;
_chemical_formula_sum "Si O2"
_cell_formula_units_Z 24
_cell_length_a 17.465487
_cell_length_b 8.184484
_cell_length_c 13.794231
_cell_angle_alpha 90.000000
_cell_angle_beta 29.022579
_cell_angle_gamma 90.000000
_cell_volume 956.641769
_symmetry_space_group_name_H-M "C C"
_symmetry_group_IT_number 9
_symmetry_cell_setting 'monoclinic'
loop_
_space_group_symop_operation_xyz
x,y,z
x,-y,1/2+z
1/2+x,1/2+y,z
1/2+x,1/2-y,1/2+z
loop_
_atom_site_type_symbol
_atom_site_label
_atom_site_fract_x
_atom_site_fract_y
_atom_site_fract_z
Si Si1 0.429760 0.274076 0.857850
Si Si2 0.970536 0.325208 0.646064
Si Si3 0.494261 0.912786 0.833379
Si Si4 0.223514 0.753095 0.232215
Si Si5 0.209386 0.897312 0.450227
Si Si6 0.809156 0.081050 0.688703
O O1 0.319635 0.226366 0.889588
O O2 0.554374 0.411146 0.687679
O O3 0.518228 0.102821 0.783775
O O4 0.340286 0.326100 0.053640
O O5 0.006762 0.314165 0.719567
O O6 0.819719 0.446975 0.807419
O O7 0.918937 0.162012 0.648616
O O8 0.126946 0.398260 0.423106
O O9 0.609709 0.839235 0.784638
O O10 0.318616 0.891469 0.069984
O O11 0.158729 0.821841 0.404051
O O12 0.342195 0.608366 0.133725
#
# Coordination Sequence:
#
# PCOD9140423 Si02
#       6
#     4   4   4   4   4   4
#     4  11  24  45  70 101 140 184 232 286 347 412
#     4  11  26  47  70 100 141 185 233 285 344 413
#     4  11  25  46  68  99 138 182 230 282 341 412
#     4  12  24  42  68  99 136 177 226 285 343 405
#     4  11  24  45  71 100 137 183 232 286 346 414
#     4  12  25  43  69 105 142 181 229 288 347 412
#
# _framework density 25.087761
#
# number of rings (size 3 to 8) (size 9 to 14) (size 15 to 20)
#    0.000    0.667    0.000    9.000    0.000    9.333 
#    0.000    0.000    0.000    0.000    0.000    0.000 
#    0.000    0.000    0.000    0.000    0.000    0.000 
#
# Total GULP energy -67294.622678 kJ/mol
# GULP energy per Si atom -5607.885223 kJ/mol
# Density = 2.503066 g / cm^3
# Si number density = 25.087761 Si / 1000 Ang^3
#
#
#
# Elastic Constant Matrix: (Units=GPa)
#
#
# Indices 1 2 3 4 5 6 
#
# 1 187.8538 35.1134 44.1495 0.0000 26.0187 0.0000
# 2 35.1134 92.7764 22.0397 0.0000 5.4883 0.0000
# 3 44.1495 22.0397 109.1861 0.0000 26.5364 0.0000
# 4 0.0000 0.0000 0.0000 34.8255 0.0000 1.1785
# 5 26.0187 5.4883 26.5364 0.0000 38.4792 0.0000
# 6 0.0000 0.0000 0.0000 1.1785 0.0000 23.0651
#
#
#
# Elastic Compliance Matrix: (Units=1/GPa)
#
#
# Indices 1 2 3 4 5 6 
#
# 1 0.006453 -0.001910 -0.001477 0.000000 -0.003072 0.000000
# 2 -0.001910 0.011887 -0.001837 0.000000 0.000863 0.000000
# 3 -0.001477 -0.001837 0.011798 0.000000 -0.006875 0.000000
# 4 0.000000 0.000000 0.000000 0.028764 0.000000 -0.001470
# 5 -0.003072 0.000863 -0.006875 0.000000 0.032684 0.000000
# 6 0.000000 0.000000 0.000000 -0.001470 0.000000 0.043431
#
#
# Mechanical properties :
#
#
# Convention : Reuss Voigt Hill
#
# Bulk Modulus (GPa) = 50.78696 65.82463 58.30580
# Shear Modulus (GPa) = 32.88898 38.50820 35.69859
#
# Velocity S-wave (km/s) = 3.62464 3.92208 3.77629
# Velocity P-wave (km/s) = 6.14858 6.84142 6.50423
#
# Compressibility (1/GPa) = 0.01969009
#
# Stress axis : x y z
#
# Youngs Moduli (GPa) = 154.96898 84.12784 84.76249
#
# Poissons Ratio (x) = 0.16065 0.12520
# Poissons Ratio (y) = 0.29593 0.15570
# Poissons Ratio (z) = 0.22890 0.15453
#
# Static dielectric constant tensor:
#      x y z
#    x 1.944350 0.000000 -0.051880 
#    y 0.000000 1.935930 0.000000 
#    z -0.051880 0.000000 1.943820 
# 
# From -- ./inp_files/10395.got.cif
#   From: 2010.05.17/outbox.cif.g08.bks.cpg/sg9_6_cif.got.tgz:10395.got - 2010.06.03 20:04:27.
