data_PCOD9140071
_publ_section_title
;
Structure prediction by ZEFSAII (Michael W. Deem and Ramdas Pophale) SiO2 
 PCOD9140071
Probable space group: C C
;
_chemical_formula_sum "Si O2"
_cell_formula_units_Z 32
_cell_length_a 7.970082
_cell_length_b 22.552695
_cell_length_c 11.102999
_cell_angle_alpha 90.000000
_cell_angle_beta 45.309621
_cell_angle_gamma 90.000000
_cell_volume 1418.798722
_symmetry_space_group_name_H-M "C C"
_symmetry_group_IT_number 9
_symmetry_cell_setting 'monoclinic'
loop_
_space_group_symop_operation_xyz
x,y,z
x,-y,1/2+z
1/2+x,1/2+y,z
1/2+x,1/2-y,1/2+z
loop_
_atom_site_type_symbol
_atom_site_label
_atom_site_fract_x
_atom_site_fract_y
_atom_site_fract_z
Si Si1 0.713930 0.572152 0.628250
Si Si2 0.230352 0.622299 0.400954
Si Si3 0.439373 0.270204 0.153803
Si Si4 0.030550 0.881068 0.975032
Si Si5 0.954086 0.320424 0.466902
Si Si6 0.715739 0.567264 0.148613
Si Si7 0.591385 0.679842 0.831364
Si Si8 0.946480 0.226617 0.152778
O O1 0.559148 0.585061 0.586840
O O2 0.742351 0.502482 0.631688
O O3 0.596697 0.610576 0.795553
O O4 0.977901 0.599118 0.487690
O O5 0.293042 0.617132 0.512329
O O6 0.452808 0.584683 0.234720
O O7 0.280376 0.687719 0.324568
O O8 0.483245 0.204077 0.088137
O O9 0.515237 0.285704 0.249581
O O10 0.174128 0.296059 0.283188
O O11 0.576094 0.313135 0.990321
O O12 0.211676 0.909523 0.788604
O O13 0.903258 0.390297 0.487347
O O14 0.713310 0.287199 0.554519
O O15 0.855546 0.706584 0.712377
O O16 0.439961 0.699678 0.021558
#
# Coordination Sequence:
#
# PCOD9140071 Si02
#       8
#     4   4   4   4   4   4   4   4
#     4  11  23  44  70  93 135 176 216 274 323 392
#     4   9  23  45  65  92 129 176 212 270 330 377
#     4  11  23  40  65  95 135 166 218 280 329 389
#     4   9  23  45  63  96 130 168 223 266 322 394
#     4  11  23  38  67  94 128 175 212 268 332 388
#     4   9  23  44  61  99 129 170 227 258 323 398
#     4  11  25  39  64 101 127 171 215 274 334 387
#     4  11  23  41  63  94 135 158 225 266 327 401
#
# _framework density 22.554290999999999
#
# number of rings (size 3 to 8) (size 9 to 14) (size 15 to 20)
#    0.750    1.000    0.000    3.000    5.250    8.000 
#    2.250    0.000    0.000    0.000    0.000    0.000 
#    0.000    0.000    0.000    0.000    0.000    0.000 
#
# Total GULP energy -89269.815077 kJ/mol
# GULP energy per Si atom -5579.363442 kJ/mol
# Density = 2.250296 g / cm^3
# Si number density = 22.554291 Si / 1000 Ang^3
#
#
#
# Elastic Constant Matrix: (Units=GPa)
#
#
# Indices 1 2 3 4 5 6 
#
# 1 105.4581 15.6487 17.0521 0.0000 7.9980 0.0000
# 2 15.6487 155.2723 26.8918 0.0000 6.4916 0.0000
# 3 17.0521 26.8918 72.2411 0.0000 7.6801 0.0000
# 4 0.0000 0.0000 0.0000 19.1620 0.0000 0.7911
# 5 7.9980 6.4916 7.6801 0.0000 26.4496 0.0000
# 6 0.0000 0.0000 0.0000 0.7911 0.0000 18.5790
#
#
#
# Elastic Compliance Matrix: (Units=1/GPa)
#
#
# Indices 1 2 3 4 5 6 
#
# 1 0.010055 -0.000585 -0.001907 0.000000 -0.002343 0.000000
# 2 -0.000585 0.006943 -0.002357 0.000000 -0.000843 0.000000
# 3 -0.001907 -0.002357 0.015526 0.000000 -0.003353 0.000000
# 4 0.000000 0.000000 0.000000 0.052278 0.000000 -0.002226
# 5 -0.002343 -0.000843 -0.003353 0.000000 0.039697 0.000000
# 6 0.000000 0.000000 0.000000 -0.002226 0.000000 0.053919
#
#
# Mechanical properties :
#
#
# Convention : Reuss Voigt Hill
#
# Bulk Modulus (GPa) = 43.80696 50.23965 47.02331
# Shear Modulus (GPa) = 25.54612 31.06340 28.30476
#
# Velocity S-wave (km/s) = 3.36914 3.71519 3.54639
# Velocity P-wave (km/s) = 5.88216 6.38176 6.13705
#
# Compressibility (1/GPa) = 0.02282742
#
# Stress axis : x y z
#
# Youngs Moduli (GPa) = 99.45029 144.03686 64.40668
#
# Poissons Ratio (x) = 0.08429 0.12279
# Poissons Ratio (y) = 0.05820 0.15179
# Poissons Ratio (z) = 0.18960 0.33945
#
# Static dielectric constant tensor:
#      x y z
#    x 1.941400 0.000000 -0.008410 
#    y 0.000000 1.827350 0.000000 
#    z -0.008410 0.000000 1.880440 
# 
# From -- ./inp_files/15623.got.cif
#   From: 2010.05.17/outbox.cif.g08.bks.cpg/sg9_8_cif.got.tgz:15623.got - 2010.06.03 20:04:27.
