data_PCOD9140905
_publ_section_title
;
Structure prediction by ZEFSAII (Michael W. Deem and Ramdas Pophale) SiO2 
 PCOD9140905
Probable space group: C C
;
_chemical_formula_sum "Si O2"
_cell_formula_units_Z 28
_cell_length_a 13.689064
_cell_length_b 15.379607
_cell_length_c 8.015001
_cell_angle_alpha 90.000000
_cell_angle_beta 39.891586
_cell_angle_gamma 90.000000
_cell_volume 1082.203278
_symmetry_space_group_name_H-M "C C"
_symmetry_group_IT_number 9
_symmetry_cell_setting 'monoclinic'
loop_
_space_group_symop_operation_xyz
x,y,z
x,-y,1/2+z
1/2+x,1/2+y,z
1/2+x,1/2-y,1/2+z
loop_
_atom_site_type_symbol
_atom_site_label
_atom_site_fract_x
_atom_site_fract_y
_atom_site_fract_z
Si Si1 0.709280 0.205125 0.578420
Si Si2 0.788068 0.336162 0.993437
Si Si3 0.528299 0.287496 0.098619
Si Si4 0.899490 0.074733 0.545438
Si Si5 0.960621 0.641797 0.712320
Si Si6 0.061916 0.062342 0.997972
Si Si7 0.368990 0.023272 0.141265
O O1 0.766083 0.123902 0.619404
O O2 0.839542 0.278280 0.378064
O O3 0.632625 0.175581 0.505990
O O4 0.568791 0.244298 0.868411
O O5 0.921478 0.269683 0.856618
O O6 0.867593 0.422423 0.815102
O O7 0.693251 0.299138 0.961222
O O8 0.650790 0.359384 0.296113
O O9 0.435117 0.372150 0.166323
O O10 0.916796 0.975086 0.587151
O O11 0.026905 0.080824 0.234443
O O12 0.931859 0.573263 0.600029
O O13 0.939553 0.581548 0.904876
O O14 0.191582 0.988643 0.827800
#
# Coordination Sequence:
#
# PCOD9140905 Si02
#       7
#     4   4   4   4   4   4   4
#     4  12  23  43  73 106 135 194 236 296 357 433
#     4  12  24  43  71 103 138 186 240 294 358 427
#     4  12  21  44  71  99 138 187 237 290 358 429
#     4  12  23  43  75  99 144 187 243 289 359 435
#     4  12  26  43  75 100 143 184 248 285 368 421
#     4  12  24  43  71 107 138 189 240 297 362 432
#     4  12  21  41  72  98 132 187 230 295 344 435
#
# _framework density 25.873141
#
# number of rings (size 3 to 8) (size 9 to 14) (size 15 to 20)
#    0.000    0.000   10.000    0.857    0.000    1.143 
#    5.143    0.000    0.000    0.000    0.000    0.000 
#    0.000    0.000    0.000    0.000    0.000    0.000 
#
# Total GULP energy -78273.410209 kJ/mol
# GULP energy per Si atom -5590.957872 kJ/mol
# Density = 2.581425 g / cm^3
# Si number density = 25.873141 Si / 1000 Ang^3
#
#
#
# Elastic Constant Matrix: (Units=GPa)
#
#
# Indices 1 2 3 4 5 6 
#
# 1 112.7765 65.3640 6.5793 0.0000 -19.2269 0.0000
# 2 65.3640 112.9263 44.3537 0.0000 -17.1694 0.0000
# 3 6.5793 44.3537 57.7515 0.0000 7.4120 0.0000
# 4 0.0000 0.0000 0.0000 41.3836 0.0000 -3.5693
# 5 -19.2269 -17.1694 7.4120 0.0000 41.5611 0.0000
# 6 0.0000 0.0000 0.0000 -3.5693 0.0000 60.5834
#
#
#
# Elastic Compliance Matrix: (Units=1/GPa)
#
#
# Indices 1 2 3 4 5 6 
#
# 1 0.015219 -0.011303 0.006798 0.000000 0.001159 0.000000
# 2 -0.011303 0.023548 -0.017782 0.000000 0.007670 0.000000
# 3 0.006798 -0.017782 0.031457 0.000000 -0.009811 0.000000
# 4 0.000000 0.000000 0.000000 0.024288 0.000000 0.001431
# 5 0.001159 0.007670 -0.009811 0.000000 0.029515 0.000000
# 6 0.000000 0.000000 0.000000 0.001431 0.000000 0.016590
#
#
# Mechanical properties :
#
#
# Convention : Reuss Voigt Hill
#
# Bulk Modulus (GPa) = 38.98504 57.33873 48.16188
# Shear Modulus (GPa) = 25.80756 39.84943 32.82850
#
# Velocity S-wave (km/s) = 3.16169 3.92878 3.56592
# Velocity P-wave (km/s) = 5.33187 6.54141 5.96736
#
# Compressibility (1/GPa) = 0.02565087
#
# Stress axis : x y z
#
# Youngs Moduli (GPa) = 65.70626 42.46607 31.78948
#
# Poissons Ratio (x) = 0.48000 -0.21612
# Poissons Ratio (y) = 0.74269 0.56528
# Poissons Ratio (z) = -0.44670 0.75513
#
# Static dielectric constant tensor:
#      x y z
#    x 2.106030 0.000000 0.015910 
#    y 0.000000 2.167830 0.000000 
#    z 0.015910 0.000000 1.948760 
# 
# From -- ./inp_files/7634.got.cif
#   From: 2010.05.17/outbox.cif.g08.bks.cpg/sg9_4_cif.got.tgz:7634.got - 2010.06.03 20:04:27.
