data_PCOD9140567
_publ_section_title
;
Structure prediction by ZEFSAII (Michael W. Deem and Ramdas Pophale) SiO2 
 PCOD9140567
Probable space group: C C
;
_chemical_formula_sum "Si O2"
_cell_formula_units_Z 32
_cell_length_a 22.503493
_cell_length_b 9.992070
_cell_length_c 12.015151
_cell_angle_alpha 90.000000
_cell_angle_beta 27.542206
_cell_angle_gamma 90.000000
_cell_volume 1249.264032
_symmetry_space_group_name_H-M "C C"
_symmetry_group_IT_number 9
_symmetry_cell_setting 'monoclinic'
loop_
_space_group_symop_operation_xyz
x,y,z
x,-y,1/2+z
1/2+x,1/2+y,z
1/2+x,1/2-y,1/2+z
loop_
_atom_site_type_symbol
_atom_site_label
_atom_site_fract_x
_atom_site_fract_y
_atom_site_fract_z
Si Si1 0.602440 0.266525 0.656110
Si Si2 0.658493 0.763490 0.615406
Si Si3 0.760361 0.406800 0.744988
Si Si4 0.508552 0.454249 0.642013
Si Si5 0.793865 0.105488 0.072076
Si Si6 0.878666 0.203912 0.159520
Si Si7 0.530720 0.012518 0.211949
Si Si8 0.128167 0.340493 0.350653
O O1 0.518531 0.384785 0.746121
O O2 0.755884 0.293846 0.397364
O O3 0.570065 0.219208 0.833932
O O4 0.572823 0.141313 0.623906
O O5 0.719508 0.648104 0.436510
O O6 0.723373 0.774521 0.627451
O O7 0.652542 0.910628 0.567206
O O8 0.506047 0.757559 0.889114
O O9 0.896516 0.480275 0.499189
O O10 0.728127 0.270530 0.730475
O O11 0.653863 0.508964 0.875279
O O12 0.434516 0.368104 0.674774
O O13 0.429968 0.589893 0.784858
O O14 0.823149 0.115130 0.152372
O O15 0.711624 0.972310 0.187181
O O16 0.523420 0.102192 0.112441
#
# Coordination Sequence:
#
# PCOD9140567 Si02
#       8
#     4   4   4   4   4   4   4   4
#     4  12  25  46  76 113 150 203 267 327 390 478
#     4  11  25  48  75 114 151 209 263 324 405 469
#     4  11  27  48  73 115 161 204 265 332 392 481
#     4  12  27  47  75 112 151 206 259 323 396 468
#     4  12  24  49  75 107 152 202 262 317 397 471
#     4  12  25  46  78 104 156 204 258 327 394 476
#     4  11  24  48  73 112 154 206 261 323 397 471
#     4  11  25  46  77 109 155 210 259 325 399 468
#
# _framework density 25.615081
#
# number of rings (size 3 to 8) (size 9 to 14) (size 15 to 20)
#    0.000    0.500    5.000    2.250    3.500    1.000 
#    4.500    0.000    0.000    0.000    0.000    0.000 
#    0.000    0.000    0.000    0.000    0.000    0.000 
#
# Total GULP energy -89351.062822 kJ/mol
# GULP energy per Si atom -5584.441426 kJ/mol
# Density = 2.555678 g / cm^3
# Si number density = 25.615081 Si / 1000 Ang^3
#
#
#
# Elastic Constant Matrix: (Units=GPa)
#
#
# Indices 1 2 3 4 5 6 
#
# 1 149.5354 53.9016 40.2633 0.0000 7.1385 0.0000
# 2 53.9016 86.2585 35.5100 0.0000 3.9404 0.0000
# 3 40.2633 35.5100 130.1223 0.0000 -9.2257 0.0000
# 4 0.0000 0.0000 0.0000 36.3934 0.0000 3.9823
# 5 7.1385 3.9404 -9.2257 0.0000 34.5873 0.0000
# 6 0.0000 0.0000 0.0000 3.9823 0.0000 30.5642
#
#
#
# Elastic Compliance Matrix: (Units=1/GPa)
#
#
# Indices 1 2 3 4 5 6 
#
# 1 0.008944 -0.004869 -0.001560 0.000000 -0.001707 0.000000
# 2 -0.004869 0.015924 -0.002952 0.000000 -0.001597 0.000000
# 3 -0.001560 -0.002952 0.009194 0.000000 0.003111 0.000000
# 4 0.000000 0.000000 0.000000 0.027875 0.000000 -0.003632
# 5 -0.001707 -0.001597 0.003111 0.000000 0.030276 0.000000
# 6 0.000000 0.000000 0.000000 -0.003632 0.000000 0.033191
#
#
# Mechanical properties :
#
#
# Convention : Reuss Voigt Hill
#
# Bulk Modulus (GPa) = 65.35996 69.47400 67.41698
# Shear Modulus (GPa) = 33.49731 36.05840 34.77786
#
# Velocity S-wave (km/s) = 3.62016 3.75601 3.68871
# Velocity P-wave (km/s) = 6.56092 6.78169 6.67222
#
# Compressibility (1/GPa) = 0.01529989
#
# Stress axis : x y z
#
# Youngs Moduli (GPa) = 111.80833 62.79925 108.76738
#
# Poissons Ratio (x) = 0.30575 0.16966
# Poissons Ratio (y) = 0.54437 0.32111
# Poissons Ratio (z) = 0.17440 0.18540
#
# Static dielectric constant tensor:
#      x y z
#    x 2.025040 0.000000 0.084010 
#    y 0.000000 2.055580 0.000000 
#    z 0.084010 0.000000 2.138050 
# 
# From -- ./inp_files/20308.got.cif
#   From: 2010.05.17/outbox.cif.g08.bks.cpg/sg9_11_cif.got.tgz:20308.got - 2010.06.03 20:04:27.
