data_PCOD9140654
_publ_section_title
;
Structure prediction by ZEFSAII (Michael W. Deem and Ramdas Pophale) SiO2 
 PCOD9140654
Probable space group: C C
;
_chemical_formula_sum "Si O2"
_cell_formula_units_Z 28
_cell_length_a 18.718255
_cell_length_b 7.444128
_cell_length_c 7.965248
_cell_angle_alpha 90.000000
_cell_angle_beta 94.020351
_cell_angle_gamma 90.000000
_cell_volume 1107.155111
_symmetry_space_group_name_H-M "C C"
_symmetry_group_IT_number 9
_symmetry_cell_setting 'monoclinic'
loop_
_space_group_symop_operation_xyz
x,y,z
x,-y,1/2+z
1/2+x,1/2+y,z
1/2+x,1/2-y,1/2+z
loop_
_atom_site_type_symbol
_atom_site_label
_atom_site_fract_x
_atom_site_fract_y
_atom_site_fract_z
Si Si1 0.187800 0.549088 0.631860
Si Si2 0.688138 0.701736 0.800245
Si Si3 0.021635 0.816666 0.254274
Si Si4 0.523330 0.892496 0.091877
Si Si5 0.465738 0.340058 0.868961
Si Si6 0.279726 0.162587 0.308779
Si Si7 0.376451 0.067694 0.021777
O O1 0.209963 0.340764 0.655671
O O2 0.196122 0.673109 0.467703
O O3 0.101869 0.532084 0.640417
O O4 0.228067 0.667126 0.780974
O O5 0.606047 0.634684 0.779691
O O6 0.734280 0.522104 0.805708
O O7 0.019977 0.660868 0.396157
O O8 0.961899 0.952186 0.321762
O O9 0.006945 0.824076 0.052588
O O10 0.512144 0.735022 0.222759
O O11 0.453659 0.014134 0.105762
O O12 0.395401 0.216681 0.882671
O O13 0.328187 0.162782 0.150298
O O14 0.337946 0.116114 0.460491
#
# Coordination Sequence:
#
# PCOD9140654 Si02
#       7
#     4   4   4   4   4   4   4
#     4  11  27  48  78 113 152 206 266 324 395 479
#     4  11  27  47  76 113 150 210 264 326 398 472
#     4  11  25  45  74 116 150 198 266 332 392 467
#     4  11  25  48  74 112 153 200 260 325 393 467
#     4  12  24  45  73 111 151 204 254 325 399 471
#     4  12  26  51  74 109 160 208 260 327 400 476
#     4  12  26  48  73 106 154 208 258 323 403 468
#
# _framework density 25.290044000000002
#
# number of rings (size 3 to 8) (size 9 to 14) (size 15 to 20)
#    0.000    0.571    4.286    2.571   10.000    0.000 
#    7.714    0.000    0.000    0.000    0.000    0.000 
#    0.000    0.000    0.000    0.000    0.000    0.000 
#
# Total GULP energy -78183.701579 kJ/mol
# GULP energy per Si atom -5584.550113 kJ/mol
# Density = 2.523248 g / cm^3
# Si number density = 25.290044 Si / 1000 Ang^3
#
#
#
# Elastic Constant Matrix: (Units=GPa)
#
#
# Indices 1 2 3 4 5 6 
#
# 1 99.4980 24.4476 28.1142 0.0000 0.9087 0.0000
# 2 24.4476 79.8141 -2.1832 0.0000 -3.7148 0.0000
# 3 28.1142 -2.1832 128.3155 0.0000 2.9417 0.0000
# 4 0.0000 0.0000 0.0000 26.8478 0.0000 1.9768
# 5 0.9087 -3.7148 2.9417 0.0000 31.0674 0.0000
# 6 0.0000 0.0000 0.0000 1.9768 0.0000 33.0739
#
#
#
# Elastic Compliance Matrix: (Units=1/GPa)
#
#
# Indices 1 2 3 4 5 6 
#
# 1 0.011698 -0.003680 -0.002613 0.000000 -0.000535 0.000000
# 2 -0.003680 0.013761 0.001002 0.000000 0.001658 0.000000
# 3 -0.002613 0.001002 0.008397 0.000000 -0.000599 0.000000
# 4 0.000000 0.000000 0.000000 0.037412 0.000000 -0.002236
# 5 -0.000535 0.001658 -0.000599 0.000000 0.032459 0.000000
# 6 0.000000 0.000000 0.000000 -0.002236 0.000000 0.030369
#
#
# Mechanical properties :
#
#
# Convention : Reuss Voigt Hill
#
# Bulk Modulus (GPa) = 42.96613 45.37608 44.17111
# Shear Modulus (GPa) = 32.80114 35.34777 34.07446
#
# Velocity S-wave (km/s) = 3.60529 3.74263 3.67460
# Velocity P-wave (km/s) = 5.86149 6.05455 5.95880
#
# Compressibility (1/GPa) = 0.02327415
#
# Stress axis : x y z
#
# Youngs Moduli (GPa) = 85.48569 72.67040 119.09485
#
# Poissons Ratio (x) = 0.26739 0.31124
# Poissons Ratio (y) = 0.31455 -0.11937
# Poissons Ratio (z) = 0.22341 -0.07284
#
# Static dielectric constant tensor:
#      x y z
#    x 1.951270 0.000000 0.022960 
#    y 0.000000 2.193170 0.000000 
#    z 0.022960 0.000000 2.021820 
# 
# From -- ./inp_files/10367.got.cif
#   From: 2010.05.17/outbox.cif.g08.bks.cpg/sg9_6_cif.got.tgz:10367.got - 2010.06.03 20:04:27.
