data_PCOD9140619
_publ_section_title
;
Structure prediction by ZEFSAII (Michael W. Deem and Ramdas Pophale) SiO2 
 PCOD9140619
Probable space group: C C
;
_chemical_formula_sum "Si O2"
_cell_formula_units_Z 24
_cell_length_a 11.083058
_cell_length_b 11.405049
_cell_length_c 9.600406
_cell_angle_alpha 90.000000
_cell_angle_beta 50.175206
_cell_angle_gamma 90.000000
_cell_volume 931.989952
_symmetry_space_group_name_H-M "C C"
_symmetry_group_IT_number 9
_symmetry_cell_setting 'monoclinic'
loop_
_space_group_symop_operation_xyz
x,y,z
x,-y,1/2+z
1/2+x,1/2+y,z
1/2+x,1/2-y,1/2+z
loop_
_atom_site_type_symbol
_atom_site_label
_atom_site_fract_x
_atom_site_fract_y
_atom_site_fract_z
Si Si1 0.696400 0.830175 0.380400
Si Si2 0.146471 0.032326 0.826770
Si Si3 0.924363 0.183637 0.476411
Si Si4 0.442648 0.714471 0.143150
Si Si5 0.330599 0.112242 0.413799
Si Si6 0.121684 0.414058 0.866752
O O1 0.531720 0.764129 0.495809
O O2 0.806200 0.751590 0.399896
O O3 0.678132 0.969211 0.404073
O O4 0.760514 0.817789 0.174817
O O5 0.216719 0.076507 0.628150
O O6 0.270393 0.954899 0.821494
O O7 0.001458 0.944282 0.909377
O O8 0.077981 0.129788 0.981901
O O9 0.920967 0.226422 0.323142
O O10 0.276730 0.660369 0.217477
O O11 0.500821 0.838962 0.047733
O O12 0.507541 0.071733 0.317996
#
# Coordination Sequence:
#
# PCOD9140619 Si02
#       6
#     4   4   4   4   4   4
#     4  11  28  53  81 119 166 226 278 348 429 507
#     4  11  24  53  87 119 172 217 284 360 418 511
#     4  11  25  51  82 119 167 225 280 347 435 502
#     4  12  26  52  82 120 168 221 286 355 424 505
#     4  11  28  52  85 127 169 226 286 350 433 506
#     4  12  29  51  83 124 174 223 286 356 425 509
#
# _framework density 25.751349999999999
#
# number of rings (size 3 to 8) (size 9 to 14) (size 15 to 20)
#    0.000    0.667    3.333    2.000    4.667   10.667 
#    9.000    0.000    0.000    0.000    0.000    0.000 
#    0.000    0.000    0.000    0.000    0.000    0.000 
#
# Total GULP energy -67235.737281 kJ/mol
# GULP energy per Si atom -5602.978107 kJ/mol
# Density = 2.569274 g / cm^3
# Si number density = 25.751350 Si / 1000 Ang^3
#
#
#
# Elastic Constant Matrix: (Units=GPa)
#
#
# Indices 1 2 3 4 5 6 
#
# 1 71.5720 16.1599 36.3640 0.0000 -0.1888 0.0000
# 2 16.1599 146.6859 54.7560 0.0000 2.6324 0.0000
# 3 36.3640 54.7560 135.8066 0.0000 13.4081 0.0000
# 4 0.0000 0.0000 0.0000 40.2389 0.0000 6.3049
# 5 -0.1888 2.6324 13.4081 0.0000 48.3132 0.0000
# 6 0.0000 0.0000 0.0000 6.3049 0.0000 36.4400
#
#
#
# Elastic Compliance Matrix: (Units=1/GPa)
#
#
# Indices 1 2 3 4 5 6 
#
# 1 0.016255 -0.000167 -0.004414 0.000000 0.001297 0.000000
# 2 -0.000167 0.008037 -0.003242 0.000000 0.000461 0.000000
# 3 -0.004414 -0.003242 0.010114 0.000000 -0.002647 0.000000
# 4 0.000000 0.000000 0.000000 0.025544 0.000000 -0.004420
# 5 0.001297 0.000461 -0.002647 0.000000 0.021413 0.000000
# 6 0.000000 0.000000 0.000000 -0.004420 0.000000 0.028207
#
#
# Mechanical properties :
#
#
# Convention : Reuss Voigt Hill
#
# Bulk Modulus (GPa) = 53.29622 63.18047 58.23835
# Shear Modulus (GPa) = 38.03207 41.45071 39.74139
#
# Velocity S-wave (km/s) = 3.84721 4.01640 3.93271
# Velocity P-wave (km/s) = 6.36208 6.78946 6.57924
#
# Compressibility (1/GPa) = 0.01876306
#
# Stress axis : x y z
#
# Youngs Moduli (GPa) = 61.51807 124.41855 98.87755
#
# Poissons Ratio (x) = 0.02073 0.43640
# Poissons Ratio (y) = 0.01025 0.32051
# Poissons Ratio (z) = 0.27151 0.40331
#
# Static dielectric constant tensor:
#      x y z
#    x 2.053240 0.000000 0.007060 
#    y 0.000000 2.052330 0.000000 
#    z 0.007060 0.000000 1.956400 
# 
# From -- ./inp_files/16337.got.cif
#   From: 2010.05.17/outbox.cif.g08.bks.cpg/sg9_9_cif.got.tgz:16337.got - 2010.06.03 20:04:27.
