data_PCOD9140572
_publ_section_title
;
Structure prediction by ZEFSAII (Michael W. Deem and Ramdas Pophale) SiO2 
 PCOD9140572
Probable space group: C C
;
_chemical_formula_sum "Si O2"
_cell_formula_units_Z 32
_cell_length_a 16.039556
_cell_length_b 9.478725
_cell_length_c 11.138456
_cell_angle_alpha 90.000000
_cell_angle_beta 55.658795
_cell_angle_gamma 90.000000
_cell_volume 1398.253014
_symmetry_space_group_name_H-M "C C"
_symmetry_group_IT_number 9
_symmetry_cell_setting 'monoclinic'
loop_
_space_group_symop_operation_xyz
x,y,z
x,-y,1/2+z
1/2+x,1/2+y,z
1/2+x,1/2-y,1/2+z
loop_
_atom_site_type_symbol
_atom_site_label
_atom_site_fract_x
_atom_site_fract_y
_atom_site_fract_z
Si Si1 0.497550 0.559602 0.049290
Si Si2 0.224146 0.531608 0.543565
Si Si3 0.515371 0.203084 0.719491
Si Si4 0.281452 0.600415 0.230046
Si Si5 0.514727 0.255554 0.994789
Si Si6 0.186820 0.111328 0.736677
Si Si7 0.375461 0.975708 0.713379
Si Si8 0.215086 0.787189 0.965002
O O1 0.533356 0.656295 0.128541
O O2 0.394344 0.635356 0.093689
O O3 0.469641 0.396182 0.093630
O O4 0.586527 0.556474 0.880900
O O5 0.115516 0.606561 0.629911
O O6 0.282818 0.584674 0.374780
O O7 0.254770 0.529913 0.661055
O O8 0.225693 0.365978 0.513034
O O9 0.494482 0.252268 0.870836
O O10 0.423326 0.107301 0.745038
O O11 0.205424 0.728832 0.267888
O O12 0.467079 0.111187 0.081462
O O13 0.633027 0.266869 0.928134
O O14 0.172841 0.114946 0.605902
O O15 0.288162 0.028780 0.693403
O O16 0.316798 0.862096 0.842145
#
# Coordination Sequence:
#
# PCOD9140572 Si02
#       8
#     4   4   4   4   4   4   4   4
#     4  12  27  47  73 110 151 197 257 312 387 450
#     4  11  24  48  75 109 151 194 258 316 387 458
#     4  12  27  48  82 110 152 206 260 310 392 471
#     4  11  25  45  74 109 147 200 250 318 378 459
#     4  12  28  46  75 112 146 199 254 321 378 460
#     4  11  25  46  75 104 147 197 253 307 379 464
#     4  12  25  51  75 112 153 200 257 313 390 458
#     4  11  25  45  73 110 147 195 247 319 375 448
#
# _framework density 22.8857
#
# number of rings (size 3 to 8) (size 9 to 14) (size 15 to 20)
#    0.000    0.500    5.000    2.250    3.500    2.000 
#    2.250    0.000    0.000    0.000    0.000    0.000 
#    0.000    0.000    0.000    0.000    0.000    0.000 
#
# Total GULP energy -89337.840706 kJ/mol
# GULP energy per Si atom -5583.615044 kJ/mol
# Density = 2.283361 g / cm^3
# Si number density = 22.885700 Si / 1000 Ang^3
#
#
#
# Elastic Constant Matrix: (Units=GPa)
#
#
# Indices 1 2 3 4 5 6 
#
# 1 86.8228 26.9121 26.4883 0.0000 -6.3947 0.0000
# 2 26.9121 101.5368 34.7697 0.0000 9.1398 0.0000
# 3 26.4883 34.7697 67.5377 0.0000 4.2007 0.0000
# 4 0.0000 0.0000 0.0000 22.5645 0.0000 -3.4315
# 5 -6.3947 9.1398 4.2007 0.0000 29.8037 0.0000
# 6 0.0000 0.0000 0.0000 -3.4315 0.0000 40.3252
#
#
#
# Elastic Compliance Matrix: (Units=1/GPa)
#
#
# Indices 1 2 3 4 5 6 
#
# 1 0.013999 -0.002591 -0.004431 0.000000 0.004423 0.000000
# 2 -0.002591 0.012676 -0.005280 0.000000 -0.003699 0.000000
# 3 -0.004431 -0.005280 0.019391 0.000000 -0.002065 0.000000
# 4 0.000000 0.000000 0.000000 0.044898 0.000000 0.003821
# 5 0.004423 -0.003699 -0.002065 0.000000 0.035927 0.000000
# 6 0.000000 0.000000 0.000000 0.003821 0.000000 0.025124
#
#
# Mechanical properties :
#
#
# Convention : Reuss Voigt Hill
#
# Bulk Modulus (GPa) = 46.59468 48.02639 47.31054
# Shear Modulus (GPa) = 27.20742 29.72048 28.46395
#
# Velocity S-wave (km/s) = 3.45170 3.60759 3.53050
# Velocity P-wave (km/s) = 6.02408 6.19547 6.11037
#
# Compressibility (1/GPa) = 0.02146168
#
# Stress axis : x y z
#
# Youngs Moduli (GPa) = 71.43615 78.88720 51.56995
#
# Poissons Ratio (x) = 0.20439 0.22853
# Poissons Ratio (y) = 0.18508 0.27228
# Poissons Ratio (z) = 0.31657 0.41651
#
# Static dielectric constant tensor:
#      x y z
#    x 1.880610 0.000000 0.031270 
#    y 0.000000 1.891470 0.000000 
#    z 0.031270 0.000000 1.847440 
# 
# From -- ./inp_files/17897.got.cif
#   From: 2010.05.17/outbox.cif.g08.bks.cpg/sg9_9_cif.got.tgz:17897.got - 2010.06.03 20:04:27.
