data_PCOD9140336
_publ_section_title
;
Structure prediction by ZEFSAII (Michael W. Deem and Ramdas Pophale) SiO2 
 PCOD9140336
Probable space group: C C
;
_chemical_formula_sum "Si O2"
_cell_formula_units_Z 24
_cell_length_a 10.269497
_cell_length_b 9.373055
_cell_length_c 14.848759
_cell_angle_alpha 90.000000
_cell_angle_beta 40.232954
_cell_angle_gamma 90.000000
_cell_volume 923.174256
_symmetry_space_group_name_H-M "C C"
_symmetry_group_IT_number 9
_symmetry_cell_setting 'monoclinic'
loop_
_space_group_symop_operation_xyz
x,y,z
x,-y,1/2+z
1/2+x,1/2+y,z
1/2+x,1/2-y,1/2+z
loop_
_atom_site_type_symbol
_atom_site_label
_atom_site_fract_x
_atom_site_fract_y
_atom_site_fract_z
Si Si1 0.010070 0.028988 0.175830
Si Si2 0.745772 0.328666 0.922274
Si Si3 0.023464 0.357230 0.212070
Si Si4 0.799107 0.405052 0.156324
Si Si5 0.204691 0.367707 0.615621
Si Si6 0.576943 0.107299 0.888083
O O1 0.133868 0.959824 0.028321
O O2 0.083099 0.947305 0.228765
O O3 0.779808 0.988284 0.277171
O O4 0.553123 0.693919 0.169551
O O5 0.838422 0.240619 0.104571
O O6 0.717536 0.205915 0.012422
O O7 0.979727 0.354434 0.777437
O O8 0.987535 0.364426 0.337244
O O9 0.850187 0.412347 0.234375
O O10 0.216356 0.462399 0.097318
O O11 0.936897 0.516520 0.028702
O O12 0.140016 0.239132 0.392302
#
# Coordination Sequence:
#
# PCOD9140336 Si02
#       6
#     4   4   4   4   4   4
#     4  11  28  51  81 118 168 216 280 343 423 501
#     4  11  23  51  85 113 161 227 270 343 417 496
#     4  12  27  46  82 123 163 215 279 345 414 502
#     4  11  26  51  78 118 166 218 276 339 412 506
#     4  11  24  51  82 114 168 216 272 343 419 492
#     4  12  26  52  82 120 170 222 285 341 423 501
#
# _framework density 25.997259
#
# number of rings (size 3 to 8) (size 9 to 14) (size 15 to 20)
#    0.000    0.667    5.000    3.000    4.667    2.667 
#    0.000    3.333    0.000    0.000    0.000    0.000 
#    0.000    0.000    0.000    0.000    0.000    0.000 
#
# Total GULP energy -67177.464729 kJ/mol
# GULP energy per Si atom -5598.122061 kJ/mol
# Density = 2.593809 g / cm^3
# Si number density = 25.997259 Si / 1000 Ang^3
#
#
#
# Elastic Constant Matrix: (Units=GPa)
#
#
# Indices 1 2 3 4 5 6 
#
# 1 154.6833 44.1234 41.5670 0.0000 48.0988 0.0000
# 2 44.1234 203.1863 31.1174 0.0000 7.4975 0.0000
# 3 41.5670 31.1174 119.7143 0.0000 2.0739 0.0000
# 4 0.0000 0.0000 0.0000 35.3083 0.0000 3.8733
# 5 48.0988 7.4975 2.0739 0.0000 51.7464 0.0000
# 6 0.0000 0.0000 0.0000 3.8733 0.0000 52.0209
#
#
#
# Elastic Compliance Matrix: (Units=1/GPa)
#
#
# Indices 1 2 3 4 5 6 
#
# 1 0.010741 -0.001490 -0.003175 0.000000 -0.009641 0.000000
# 2 -0.001490 0.005357 -0.000886 0.000000 0.000645 0.000000
# 3 -0.003175 -0.000886 0.009639 0.000000 0.002693 0.000000
# 4 0.000000 0.000000 0.000000 0.028555 0.000000 -0.002126
# 5 -0.009641 0.000645 0.002693 0.000000 0.028085 0.000000
# 6 0.000000 0.000000 0.000000 -0.002126 0.000000 0.019381
#
#
# Mechanical properties :
#
#
# Convention : Reuss Voigt Hill
#
# Bulk Modulus (GPa) = 68.33335 79.02217 73.67776
# Shear Modulus (GPa) = 42.46646 51.86686 47.16666
#
# Velocity S-wave (km/s) = 4.04604 4.47149 4.26407
# Velocity P-wave (km/s) = 6.94040 7.55786 7.25570
#
# Compressibility (1/GPa) = 0.01463414
#
# Stress axis : x y z
#
# Youngs Moduli (GPa) = 93.10187 186.66535 103.74179
#
# Poissons Ratio (x) = 0.27822 0.32938
# Poissons Ratio (y) = 0.13877 0.09193
# Poissons Ratio (z) = 0.29560 0.16541
#
# Static dielectric constant tensor:
#      x y z
#    x 2.094080 0.000000 -0.010670 
#    y 0.000000 2.129850 0.000000 
#    z -0.010670 0.000000 2.001650 
# 
# From -- ./inp_files/15018.got.cif
#   From: 2010.05.17/outbox.cif.g08.bks.cpg/sg9_8_cif.got.tgz:15018.got - 2010.06.03 20:04:27.
