data_PCOD9140930
_publ_section_title
;
Structure prediction by ZEFSAII (Michael W. Deem and Ramdas Pophale) SiO2 
 PCOD9140930
Probable space group: C C
;
_chemical_formula_sum "Si O2"
_cell_formula_units_Z 16
_cell_length_a 9.994369
_cell_length_b 17.739952
_cell_length_c 5.035132
_cell_angle_alpha 90.000000
_cell_angle_beta 44.986122
_cell_angle_gamma 90.000000
_cell_volume 631.100412
_symmetry_space_group_name_H-M "C C"
_symmetry_group_IT_number 9
_symmetry_cell_setting 'monoclinic'
loop_
_space_group_symop_operation_xyz
x,y,z
x,-y,1/2+z
1/2+x,1/2+y,z
1/2+x,1/2-y,1/2+z
loop_
_atom_site_type_symbol
_atom_site_label
_atom_site_fract_x
_atom_site_fract_y
_atom_site_fract_z
Si Si1 0.784050 0.651421 0.065060
Si Si2 0.142285 0.331226 0.720413
Si Si3 0.946469 0.192687 0.211799
Si Si4 0.031987 0.446911 0.520644
O O1 0.579498 0.646628 0.222104
O O2 0.838543 0.740106 0.026494
O O3 0.830669 0.593977 0.235382
O O4 0.947390 0.634249 0.616584
O O5 0.313381 0.345426 0.681294
O O6 0.094382 0.242718 0.822003
O O7 0.158612 0.373411 0.417585
O O8 0.066969 0.502556 0.715249
#
# Coordination Sequence:
#
# PCOD9140930 Si02
#       4
#     4   4   4   4
#     4   9  18  37  63  89 121 151 193 256 297 358
#     4   9  18  37  63  89 121 151 193 256 297 358
#     4   8  17  38  62 100 109 152 194 254 318 342
#     4  12  23  40  62  84 123 172 202 234 296 356
#
# _framework density 25.352546
#
# number of rings (size 3 to 8) (size 9 to 14) (size 15 to 20)
#    1.500    1.000    2.500    0.000    0.000    2.000 
#    0.000    2.500    0.000    0.000    0.000    0.000 
#    0.000    0.000    0.000    0.000    0.000    0.000 
#
# Total GULP energy -44585.491882 kJ/mol
# GULP energy per Si atom -5573.186485 kJ/mol
# Density = 2.529484 g / cm^3
# Si number density = 25.352546 Si / 1000 Ang^3
#
#
#
# Elastic Constant Matrix: (Units=GPa)
#
#
# Indices 1 2 3 4 5 6 
#
# 1 213.2322 -6.7571 52.3940 0.0000 11.6686 0.0000
# 2 -6.7571 48.3673 16.7603 0.0000 25.4919 0.0000
# 3 52.3940 16.7603 67.0362 0.0000 15.2432 0.0000
# 4 0.0000 0.0000 0.0000 15.1071 0.0000 17.7343
# 5 11.6686 25.4919 15.2432 0.0000 49.5124 0.0000
# 6 0.0000 0.0000 0.0000 17.7343 0.0000 68.0108
#
#
#
# Elastic Compliance Matrix: (Units=1/GPa)
#
#
# Indices 1 2 3 4 5 6 
#
# 1 0.006219 0.003614 -0.005384 0.000000 -0.001669 0.000000
# 2 0.003614 0.031539 -0.007338 0.000000 -0.014831 0.000000
# 3 -0.005384 -0.007338 0.021304 0.000000 -0.001512 0.000000
# 4 0.000000 0.000000 0.000000 0.095394 0.000000 -0.024875
# 5 -0.001669 -0.014831 -0.001512 0.000000 0.028692 0.000000
# 6 0.000000 0.000000 0.000000 -0.024875 0.000000 0.021190
#
#
# Mechanical properties :
#
#
# Convention : Reuss Voigt Hill
#
# Bulk Modulus (GPa) = 24.48233 50.38113 37.43173
# Shear Modulus (GPa) = 21.17123 44.27528 32.72326
#
# Velocity S-wave (km/s) = 2.89290 4.18351 3.59657
# Velocity P-wave (km/s) = 4.56467 6.57655 5.66071
#
# Compressibility (1/GPa) = 0.04084579
#
# Stress axis : x y z
#
# Youngs Moduli (GPa) = 160.80813 31.70636 46.93937
#
# Poissons Ratio (x) = -0.11459 0.25274
# Poissons Ratio (y) = -0.58116 0.34443
# Poissons Ratio (z) = 0.86587 0.23265
#
# Static dielectric constant tensor:
#      x y z
#    x 1.972720 0.000000 0.073200 
#    y 0.000000 2.090550 0.000000 
#    z 0.073200 0.000000 2.328430 
# 
# From -- ./inp_files/152.got.cif
#   From: 2010.05.17/outbox.cif.g08.bks.cpg/sg9_1_cif.got.tgz:152.got - 2010.06.03 20:04:27.
