data_PCOD9140648
_publ_section_title
;
Structure prediction by ZEFSAII (Michael W. Deem and Ramdas Pophale) SiO2 
 PCOD9140648
Probable space group: C C
;
_chemical_formula_sum "Si O2"
_cell_formula_units_Z 28
_cell_length_a 5.174959
_cell_length_b 22.548138
_cell_length_c 10.093167
_cell_angle_alpha 90.000000
_cell_angle_beta 60.175280
_cell_angle_gamma 90.000000
_cell_volume 1021.739184
_symmetry_space_group_name_H-M "C C"
_symmetry_group_IT_number 9
_symmetry_cell_setting 'monoclinic'
loop_
_space_group_symop_operation_xyz
x,y,z
x,-y,1/2+z
1/2+x,1/2+y,z
1/2+x,1/2-y,1/2+z
loop_
_atom_site_type_symbol
_atom_site_label
_atom_site_fract_x
_atom_site_fract_y
_atom_site_fract_z
Si Si1 0.722860 0.531231 0.148270
Si Si2 0.924521 0.732072 0.213598
Si Si3 0.824526 0.244294 0.437378
Si Si4 0.870297 0.023210 0.498255
Si Si5 0.022151 0.374120 0.004748
Si Si6 0.336090 0.628730 0.159751
Si Si7 0.562179 0.346814 0.327080
O O1 0.611915 0.515539 0.322320
O O2 0.505227 0.499707 0.099174
O O3 0.640798 0.600322 0.139079
O O4 0.057992 0.509441 0.045066
O O5 0.888575 0.735695 0.067995
O O6 0.218329 0.696675 0.181682
O O7 0.897532 0.797264 0.282344
O O8 0.611811 0.703518 0.334157
O O9 0.555769 0.197160 0.495747
O O10 0.771383 0.302007 0.360832
O O11 0.778685 0.092182 0.521049
O O12 0.736956 0.384641 0.172011
O O13 0.091176 0.394340 0.833640
O O14 0.379383 0.619054 0.988733
#
# Coordination Sequence:
#
# PCOD9140648 Si02
#       7
#     4   4   4   4   4   4   4
#     4  11  27  51  80 112 151 197 261 332 389 458
#     4  12  23  41  67 102 145 194 242 292 364 449
#     4  12  23  41  67 102 145 194 242 292 364 449
#     4  11  27  51  80 112 151 197 261 332 389 458
#     4  11  25  45  72 105 143 195 246 305 380 449
#     4  11  25  45  72 105 143 195 246 305 380 449
#     4  12  24  44  68 100 152 188 236 304 360 458
#
# _framework density 27.404254999999999
#
# number of rings (size 3 to 8) (size 9 to 14) (size 15 to 20)
#    0.000    0.571    4.286    3.429    4.000    6.857 
#    0.000    0.000    0.000    0.000    0.000    0.000 
#    0.000    0.000    0.000    0.000    0.000    0.000 
#
# Total GULP energy -78207.804677 kJ/mol
# GULP energy per Si atom -5586.271763 kJ/mol
# Density = 2.734188 g / cm^3
# Si number density = 27.404255 Si / 1000 Ang^3
#
#
#
# Elastic Constant Matrix: (Units=GPa)
#
#
# Indices 1 2 3 4 5 6 
#
# 1 109.9703 38.1151 19.5854 0.0000 12.8581 0.0000
# 2 38.1151 105.8842 34.4141 0.0000 -1.7938 0.0000
# 3 19.5854 34.4141 200.8519 0.0000 -5.7054 0.0000
# 4 0.0000 0.0000 0.0000 37.9290 0.0000 2.6874
# 5 12.8581 -1.7938 -5.7054 0.0000 35.4891 0.0000
# 6 0.0000 0.0000 0.0000 2.6874 0.0000 45.8991
#
#
#
# Elastic Compliance Matrix: (Units=1/GPa)
#
#
# Indices 1 2 3 4 5 6 
#
# 1 0.011030 -0.003869 -0.000534 0.000000 -0.004278 0.000000
# 2 -0.003869 0.011360 -0.001520 0.000000 0.001732 0.000000
# 3 -0.000534 -0.001520 0.005319 0.000000 0.000972 0.000000
# 4 0.000000 0.000000 0.000000 0.026475 0.000000 -0.001550
# 5 -0.004278 0.001732 0.000972 0.000000 0.029971 0.000000
# 6 0.000000 0.000000 0.000000 -0.001550 0.000000 0.021878
#
#
# Mechanical properties :
#
#
# Convention : Reuss Voigt Hill
#
# Bulk Modulus (GPa) = 63.04218 66.77062 64.90640
# Shear Modulus (GPa) = 40.59528 45.50289 43.04908
#
# Velocity S-wave (km/s) = 3.85301 4.07926 3.96775
# Velocity P-wave (km/s) = 6.54589 6.82679 6.68782
#
# Compressibility (1/GPa) = 0.01586240
#
# Stress axis : x y z
#
# Youngs Moduli (GPa) = 90.66435 88.02465 188.00822
#
# Poissons Ratio (x) = 0.34059 0.10041
# Poissons Ratio (y) = 0.35080 0.28578
# Poissons Ratio (z) = 0.04842 0.13380
#
# Static dielectric constant tensor:
#      x y z
#    x 2.116020 0.000000 -0.066500 
#    y 0.000000 2.192580 0.000000 
#    z -0.066500 0.000000 2.189160 
# 
# From -- ./inp_files/3992.got.cif
#   From: 2010.05.17/outbox.cif.g08.bks.cpg/sg9_2_cif.got.tgz:3992.got - 2010.06.03 20:04:27.
