data_PCOD9140360
_publ_section_title
;
Structure prediction by ZEFSAII (Michael W. Deem and Ramdas Pophale) SiO2 
 PCOD9140360
Probable space group: C C
;
_chemical_formula_sum "Si O2"
_cell_formula_units_Z 32
_cell_length_a 11.190690
_cell_length_b 9.410566
_cell_length_c 14.186188
_cell_angle_alpha 90.000000
_cell_angle_beta 75.492912
_cell_angle_gamma 90.000000
_cell_volume 1446.325404
_symmetry_space_group_name_H-M "C C"
_symmetry_group_IT_number 9
_symmetry_cell_setting 'monoclinic'
loop_
_space_group_symop_operation_xyz
x,y,z
x,-y,1/2+z
1/2+x,1/2+y,z
1/2+x,1/2-y,1/2+z
loop_
_atom_site_type_symbol
_atom_site_label
_atom_site_fract_x
_atom_site_fract_y
_atom_site_fract_z
Si Si1 0.687800 0.545288 0.596490
Si Si2 0.584215 0.433438 0.802183
Si Si3 0.299385 0.693713 0.991626
Si Si4 0.693073 0.893415 0.991579
Si Si5 0.466680 0.041120 0.104828
Si Si6 0.362222 0.912090 0.820440
Si Si7 0.423710 0.196033 0.926633
Si Si8 0.052515 0.855706 0.469123
O O1 0.595283 0.497595 0.696452
O O2 0.697201 0.708663 0.562653
O O3 0.829152 0.516432 0.603254
O O4 0.641091 0.448344 0.519129
O O5 0.724430 0.407489 0.806299
O O6 0.505656 0.294753 0.842406
O O7 0.533776 0.554233 0.879992
O O8 0.247410 0.547743 0.960616
O O9 0.360049 0.791416 0.899511
O O10 0.415111 0.661959 0.037742
O O11 0.811246 0.793994 0.988479
O O12 0.618984 0.793629 0.933659
O O13 0.580194 0.928498 0.085859
O O14 0.450342 0.104417 0.212409
O O15 0.489788 0.139065 0.008050
O O16 0.385604 0.060874 0.870261
#
# Coordination Sequence:
#
# PCOD9140360 Si02
#       8
#     4   4   4   4   4   4   4   4
#     4  11  24  44  71 100 139 186 230 285 362 413
#     4  11  24  42  75 100 137 187 235 292 357 416
#     4  12  24  45  69 103 141 187 229 294 353 417
#     4  12  24  41  72  99 135 185 234 284 350 417
#     4  11  24  42  75  99 140 182 229 292 354 414
#     4  11  24  45  71 102 141 184 234 288 361 423
#     4  12  23  46  70 101 139 186 233 291 357 420
#     4  12  23  47  69  98 142 179 234 292 340 428
#
# _framework density 22.125033999999999
#
# number of rings (size 3 to 8) (size 9 to 14) (size 15 to 20)
#    0.000    0.500    7.500    0.750    1.750    1.000 
#    0.000    1.250    0.000    0.000    0.000    0.000 
#    0.000    0.000    0.000    0.000    0.000    0.000 
#
# Total GULP energy -89201.665903 kJ/mol
# GULP energy per Si atom -5575.104119 kJ/mol
# Density = 2.207468 g / cm^3
# Si number density = 22.125034 Si / 1000 Ang^3
#
#
#
# Elastic Constant Matrix: (Units=GPa)
#
#
# Indices 1 2 3 4 5 6 
#
# 1 99.5955 40.6412 16.3096 0.0000 -14.7822 0.0000
# 2 40.6412 133.7557 7.4578 0.0000 2.2787 0.0000
# 3 16.3096 7.4578 77.2409 0.0000 1.7153 0.0000
# 4 0.0000 0.0000 0.0000 13.1425 0.0000 -10.4243
# 5 -14.7822 2.2787 1.7153 0.0000 21.9612 0.0000
# 6 0.0000 0.0000 0.0000 -10.4243 0.0000 36.8376
#
#
#
# Elastic Compliance Matrix: (Units=1/GPa)
#
#
# Indices 1 2 3 4 5 6 
#
# 1 0.013638 -0.004161 -0.002696 0.000000 0.009822 0.000000
# 2 -0.004161 0.008798 0.000112 0.000000 -0.003722 0.000000
# 3 -0.002696 0.000112 0.013569 0.000000 -0.002886 0.000000
# 4 0.000000 0.000000 0.000000 0.098110 0.000000 0.027763
# 5 0.009822 -0.003722 -0.002886 0.000000 0.052758 0.000000
# 6 0.000000 0.000000 0.000000 0.027763 0.000000 0.035003
#
#
# Mechanical properties :
#
#
# Convention : Reuss Voigt Hill
#
# Bulk Modulus (GPa) = 44.41583 48.82327 46.61955
# Shear Modulus (GPa) = 20.58721 30.80050 25.69385
#
# Velocity S-wave (km/s) = 3.05371 3.73515 3.41149
# Velocity P-wave (km/s) = 5.70544 6.38096 6.05263
#
# Compressibility (1/GPa) = 0.02251449
#
# Stress axis : x y z
#
# Youngs Moduli (GPa) = 73.32573 113.66556 73.69695
#
# Poissons Ratio (x) = 0.47294 0.19869
# Poissons Ratio (y) = 0.30509 -0.00824
# Poissons Ratio (z) = 0.19769 -0.01270
#
# Static dielectric constant tensor:
#      x y z
#    x 1.907360 0.000000 -0.036000 
#    y 0.000000 1.858090 0.000000 
#    z -0.036000 0.000000 1.836100 
# 
# From -- ./inp_files/24182.got.cif
#   From: 2010.05.17/outbox.cif.g08.bks.cpg/sg9_13_cif.got.tgz:24182.got - 2010.06.03 20:04:27.
