data_PCOD9140091
_publ_section_title
;
Structure prediction by ZEFSAII (Michael W. Deem and Ramdas Pophale) SiO2 
 PCOD9140091
Probable space group: C C
;
_chemical_formula_sum "Si O2"
_cell_formula_units_Z 28
_cell_length_a 5.089872
_cell_length_b 18.994505
_cell_length_c 13.848617
_cell_angle_alpha 90.000000
_cell_angle_beta 58.632265
_cell_angle_gamma 90.000000
_cell_volume 1143.193657
_symmetry_space_group_name_H-M "C C"
_symmetry_group_IT_number 9
_symmetry_cell_setting 'monoclinic'
loop_
_space_group_symop_operation_xyz
x,y,z
x,-y,1/2+z
1/2+x,1/2+y,z
1/2+x,1/2-y,1/2+z
loop_
_atom_site_type_symbol
_atom_site_label
_atom_site_fract_x
_atom_site_fract_y
_atom_site_fract_z
Si Si1 0.744800 0.364184 0.044940
Si Si2 0.481155 0.592233 0.208639
Si Si3 0.690514 0.220144 0.598713
Si Si4 0.364157 0.836748 0.804106
Si Si5 0.347883 0.435720 0.257481
Si Si6 0.263960 0.135318 0.973672
Si Si7 0.088564 0.190403 0.818991
O O1 0.498799 0.301065 0.095064
O O2 0.505984 0.426023 0.122137
O O3 0.046808 0.335747 0.046329
O O4 0.816512 0.371595 0.918479
O O5 0.202226 0.635311 0.213927
O O6 0.366462 0.517955 0.272955
O O7 0.637402 0.635517 0.265462
O O8 0.700712 0.582165 0.073665
O O9 0.785901 0.291664 0.528392
O O10 0.423151 0.221925 0.730351
O O11 0.370293 0.753203 0.824368
O O12 0.584234 0.383492 0.264604
O O13 0.031948 0.399729 0.355489
O O14 0.025069 0.163556 0.938606
#
# Coordination Sequence:
#
# PCOD9140091 Si02
#       7
#     4   4   4   4   4   4   4
#     4  11  24  44  76 108 153 195 260 314 389 455
#     4  12  32  48  77 114 164 207 261 317 400 462
#     4  11  23  41  74 119 145 192 253 327 380 455
#     4  12  27  51  77 115 154 205 263 329 383 471
#     4  11  29  48  76 113 157 217 255 319 393 478
#     4  12  26  49  80 113 161 202 263 329 392 467
#     4  11  25  47  80 114 156 200 267 317 397 458
#
# _framework density 24.492788000000001
#
# number of rings (size 3 to 8) (size 9 to 14) (size 15 to 20)
#    0.000    0.571    4.286    1.714   12.000    0.000 
#    0.000    0.000    0.000    0.000    0.000    0.000 
#    0.000    0.000    0.000    0.000    0.000    0.000 
#
# Total GULP energy -77968.974549 kJ/mol
# GULP energy per Si atom -5569.212468 kJ/mol
# Density = 2.443704 g / cm^3
# Si number density = 24.492788 Si / 1000 Ang^3
#
#
#
# Elastic Constant Matrix: (Units=GPa)
#
#
# Indices 1 2 3 4 5 6 
#
# 1 85.0848 41.6181 23.6483 0.0000 5.2784 0.0000
# 2 41.6181 144.4242 27.3582 0.0000 8.7213 0.0000
# 3 23.6483 27.3582 130.1345 0.0000 3.7298 0.0000
# 4 0.0000 0.0000 0.0000 31.3226 0.0000 -9.4438
# 5 5.2784 8.7213 3.7298 0.0000 36.4885 0.0000
# 6 0.0000 0.0000 0.0000 -9.4438 0.0000 12.2995
#
#
#
# Elastic Compliance Matrix: (Units=1/GPa)
#
#
# Indices 1 2 3 4 5 6 
#
# 1 0.014099 -0.003670 -0.001762 0.000000 -0.000982 0.000000
# 2 -0.003670 0.008258 -0.001031 0.000000 -0.001337 0.000000
# 3 -0.001762 -0.001031 0.008231 0.000000 -0.000340 0.000000
# 4 0.000000 0.000000 0.000000 0.041543 0.000000 0.031898
# 5 -0.000982 -0.001337 -0.000340 0.000000 0.027902 0.000000
# 6 0.000000 0.000000 0.000000 0.031898 0.000000 0.105796
#
#
# Mechanical properties :
#
#
# Convention : Reuss Voigt Hill
#
# Bulk Modulus (GPa) = 56.61983 60.54364 58.58174
# Shear Modulus (GPa) = 22.25765 33.82336 28.04051
#
# Velocity S-wave (km/s) = 3.01781 3.72015 3.38723
# Velocity P-wave (km/s) = 5.94222 6.57459 6.26639
#
# Compressibility (1/GPa) = 0.01766166
#
# Stress axis : x y z
#
# Youngs Moduli (GPa) = 70.92851 121.10169 121.49072
#
# Poissons Ratio (x) = 0.44439 0.21412
# Poissons Ratio (y) = 0.26028 0.12523
# Poissons Ratio (z) = 0.12501 0.12483
#
# Static dielectric constant tensor:
#      x y z
#    x 2.007070 0.000000 0.060040 
#    y 0.000000 1.964810 0.000000 
#    z 0.060040 0.000000 2.395220 
# 
# From -- ./inp_files/21904.got.cif
#   From: 2010.05.17/outbox.cif.g08.bks.cpg/sg9_11_cif.got.tgz:21904.got - 2010.06.03 20:04:27.
