data_PCOD9140278
_publ_section_title
;
Structure prediction by ZEFSAII (Michael W. Deem and Ramdas Pophale) SiO2 
 PCOD9140278
Probable space group: C C
;
_chemical_formula_sum "Si O2"
_cell_formula_units_Z 24
_cell_length_a 9.477814
_cell_length_b 17.964356
_cell_length_c 8.463437
_cell_angle_alpha 90.000000
_cell_angle_beta 46.254049
_cell_angle_gamma 90.000000
_cell_volume 1041.003164
_symmetry_space_group_name_H-M "C C"
_symmetry_group_IT_number 9
_symmetry_cell_setting 'monoclinic'
loop_
_space_group_symop_operation_xyz
x,y,z
x,-y,1/2+z
1/2+x,1/2+y,z
1/2+x,1/2-y,1/2+z
loop_
_atom_site_type_symbol
_atom_site_label
_atom_site_fract_x
_atom_site_fract_y
_atom_site_fract_z
Si Si1 0.408720 0.626151 0.194770
Si Si2 0.672663 0.928723 0.122677
Si Si3 0.534190 0.463321 0.074182
Si Si4 0.450024 0.946227 0.597667
Si Si5 0.055266 0.329598 0.767001
Si Si6 0.652856 0.662516 0.732468
O O1 0.266785 0.641223 0.454185
O O2 0.492064 0.545367 0.170043
O O3 0.251611 0.632052 0.175540
O O4 0.589520 0.664667 0.965384
O O5 0.490190 0.929122 0.384303
O O6 0.849415 0.946559 0.106485
O O7 0.595309 0.989872 0.054831
O O8 0.564836 0.403747 0.191813
O O9 0.730236 0.466429 0.816887
O O10 0.493795 0.870772 0.657225
O O11 0.088165 0.242525 0.716528
O O12 0.884238 0.342776 0.026832
#
# Coordination Sequence:
#
# PCOD9140278 Si02
#       6
#     4   4   4   4   4   4
#     4  12  24  41  69 102 141 183 233 292 350 416
#     4  12  24  41  65 102 144 180 238 297 345 417
#     4  11  25  41  69 103 140 181 238 297 351 417
#     4  11  25  40  68 106 139 187 232 296 357 420
#     4  11  23  47  73 100 139 188 239 285 360 436
#     4  11  25  44  76 101 137 189 238 289 359 426
#
# _framework density 23.054683000000001
#
# number of rings (size 3 to 8) (size 9 to 14) (size 15 to 20)
#    0.000    0.667    5.000    2.000    9.333    0.000 
#    0.000    1.667    0.000    0.000    0.000    0.000 
#    0.000    0.000    0.000    0.000    0.000    0.000 
#
# Total GULP energy -66950.292709 kJ/mol
# GULP energy per Si atom -5579.191059 kJ/mol
# Density = 2.300221 g / cm^3
# Si number density = 23.054683 Si / 1000 Ang^3
#
#
#
# Elastic Constant Matrix: (Units=GPa)
#
#
# Indices 1 2 3 4 5 6 
#
# 1 48.4150 18.0403 -0.1797 0.0000 -10.2912 0.0000
# 2 18.0403 97.1044 6.8507 0.0000 -0.8851 0.0000
# 3 -0.1797 6.8507 177.2435 0.0000 8.1945 0.0000
# 4 0.0000 0.0000 0.0000 25.1612 0.0000 -2.7618
# 5 -10.2912 -0.8851 8.1945 0.0000 38.9318 0.0000
# 6 0.0000 0.0000 0.0000 -2.7618 0.0000 14.0562
#
#
#
# Elastic Compliance Matrix: (Units=1/GPa)
#
#
# Indices 1 2 3 4 5 6 
#
# 1 0.023570 -0.004316 -0.000094 0.000000 0.006152 0.000000
# 2 -0.004316 0.011121 -0.000397 0.000000 -0.000805 0.000000
# 3 -0.000094 -0.000397 0.005714 0.000000 -0.001237 0.000000
# 4 0.000000 0.000000 0.000000 0.040620 0.000000 0.007981
# 5 0.006152 -0.000805 -0.001237 0.000000 0.027554 0.000000
# 6 0.000000 0.000000 0.000000 0.007981 0.000000 0.072711
#
#
# Mechanical properties :
#
#
# Convention : Reuss Voigt Hill
#
# Bulk Modulus (GPa) = 32.47641 41.35394 36.91518
# Shear Modulus (GPa) = 24.85473 35.49994 30.17733
#
# Velocity S-wave (km/s) = 3.28697 3.92830 3.62186
# Velocity P-wave (km/s) = 5.34068 6.20900 5.79114
#
# Compressibility (1/GPa) = 0.03079158
#
# Stress axis : x y z
#
# Youngs Moduli (GPa) = 42.42594 89.92184 174.99726
#
# Poissons Ratio (x) = 0.38813 0.01640
# Poissons Ratio (y) = 0.18312 0.06947
# Poissons Ratio (z) = 0.00398 0.03570
#
# Static dielectric constant tensor:
#      x y z
#    x 1.826910 0.000000 0.003590 
#    y 0.000000 1.851650 0.000000 
#    z 0.003590 0.000000 1.996600 
# 
# From -- ./inp_files/5304.got.cif
#   From: 2010.05.17/outbox.cif.g08.bks.cpg/sg9_3_cif.got.tgz:5304.got - 2010.06.03 20:04:27.
