data_PCOD9140506
_publ_section_title
;
Structure prediction by ZEFSAII (Michael W. Deem and Ramdas Pophale) SiO2 
 PCOD9140506
Probable space group: C C
;
_chemical_formula_sum "Si O2"
_cell_formula_units_Z 28
_cell_length_a 19.711815
_cell_length_b 5.142121
_cell_length_c 12.349209
_cell_angle_alpha 90.000000
_cell_angle_beta 60.406957
_cell_angle_gamma 90.000000
_cell_volume 1088.441403
_symmetry_space_group_name_H-M "C C"
_symmetry_group_IT_number 9
_symmetry_cell_setting 'monoclinic'
loop_
_space_group_symop_operation_xyz
x,y,z
x,-y,1/2+z
1/2+x,1/2+y,z
1/2+x,1/2-y,1/2+z
loop_
_atom_site_type_symbol
_atom_site_label
_atom_site_fract_x
_atom_site_fract_y
_atom_site_fract_z
Si Si1 0.799030 0.259210 0.798710
Si Si2 0.072458 0.459573 0.471229
Si Si3 0.900213 0.525032 0.541357
Si Si4 0.178751 0.420186 0.221364
Si Si5 0.063060 0.173825 0.705109
Si Si6 0.185294 0.825171 0.500926
Si Si7 0.891489 0.002373 0.411756
O O1 0.859007 0.435649 0.683910
O O2 0.750488 0.105888 0.746673
O O3 0.741441 0.451189 0.911692
O O4 0.842942 0.057264 0.841644
O O5 0.111707 0.273143 0.349152
O O6 0.051966 0.333564 0.602325
O O7 0.142805 0.657751 0.442848
O O8 0.991521 0.569043 0.492534
O O9 0.864898 0.786281 0.520071
O O10 0.893237 0.290761 0.459503
O O11 0.124324 0.664325 0.229968
O O12 0.218262 0.340100 0.075388
O O13 0.980541 0.084299 0.814829
O O14 0.111492 0.932344 0.624899
#
# Coordination Sequence:
#
# PCOD9140506 Si02
#       7
#     4   4   4   4   4   4   4
#     4  12  28  50  78 118 171 218 265 355 423 493
#     4  11  24  47  79 113 154 213 275 334 412 487
#     4  12  29  51  83 120 162 223 269 346 419 501
#     4  11  25  46  74 111 155 207 273 335 407 483
#     4  11  24  46  77 110 154 210 276 339 394 506
#     4  11  27  46  78 116 155 210 285 334 411 499
#     4  12  29  50  79 120 167 213 285 333 420 507
#
# _framework density 25.724858000000001
#
# number of rings (size 3 to 8) (size 9 to 14) (size 15 to 20)
#    0.000    0.571    4.286    1.714    8.000    3.429 
#    0.000    0.000    0.000    0.000    0.000    0.000 
#    0.000    0.000    0.000    0.000    0.000    0.000 
#
# Total GULP energy -78308.584510 kJ/mol
# GULP energy per Si atom -5593.470322 kJ/mol
# Density = 2.566631 g / cm^3
# Si number density = 25.724858 Si / 1000 Ang^3
#
#
#
# Elastic Constant Matrix: (Units=GPa)
#
#
# Indices 1 2 3 4 5 6 
#
# 1 166.6444 34.4248 64.3806 -0.0008 28.4379 0.0042
# 2 34.4248 78.5969 43.5899 0.0024 -1.1637 0.0065
# 3 64.3806 43.5899 149.9215 0.0000 -4.0283 -0.0004
# 4 -0.0008 0.0024 0.0000 61.4849 -0.0004 -7.9677
# 5 28.4379 -1.1637 -4.0283 -0.0004 39.8840 -0.0010
# 6 0.0042 0.0065 -0.0004 -7.9677 -0.0010 14.6199
#
#
#
# Elastic Compliance Matrix: (Units=1/GPa)
#
#
# Indices 1 2 3 4 5 6 
#
# 1 0.008899 -0.002119 -0.003386 0.000000 -0.006749 -0.000002
# 2 -0.002119 0.015674 -0.003604 -0.000002 0.001604 -0.000007
# 3 -0.003386 -0.003604 0.009259 0.000001 0.003245 0.000003
# 4 0.000000 -0.000002 0.000001 0.017500 0.000001 0.009537
# 5 -0.006749 0.001604 0.003245 0.000001 0.030259 0.000004
# 6 -0.000002 -0.000007 0.000003 0.009537 0.000004 0.073598
#
#
# Mechanical properties :
#
#
# Convention : Reuss Voigt Hill
#
# Bulk Modulus (GPa) = 64.05157 75.55037 69.80097
# Shear Modulus (GPa) = 27.99354 40.04892 34.02123
#
# Velocity S-wave (km/s) = 3.30235 3.94993 3.64057
# Velocity P-wave (km/s) = 6.28438 7.08767 6.69808
#
# Compressibility (1/GPa) = 0.01561242
#
# Stress axis : x y z
#
# Youngs Moduli (GPa) = 112.37765 63.80023 107.99770
#
# Poissons Ratio (x) = 0.13521 0.36573
# Poissons Ratio (y) = 0.23816 0.38923
# Poissons Ratio (z) = 0.38056 0.22994
#
# Static dielectric constant tensor:
#      x y z
#    x 2.452400 -0.000010 0.439450 
#    y -0.000010 1.935030 0.000000 
#    z 0.439450 0.000000 2.448580 
# 
# From -- ./inp_files/19756.got.cif
#   From: 2010.05.17/outbox.cif.g08.bks.cpg/sg9_10_cif.got.tgz:19756.got - 2010.06.03 20:04:27.
