data_PCOD9140966
_publ_section_title
;
Structure prediction by ZEFSAII (Michael W. Deem and Ramdas Pophale) SiO2 
 PCOD9140966
Probable space group: C C
;
_chemical_formula_sum "Si O2"
_cell_formula_units_Z 24
_cell_length_a 5.083674
_cell_length_b 32.258332
_cell_length_c 5.907354
_cell_angle_alpha 90.000000
_cell_angle_beta 81.602684
_cell_angle_gamma 90.000000
_cell_volume 958.366146
_symmetry_space_group_name_H-M "C C"
_symmetry_group_IT_number 9
_symmetry_cell_setting 'monoclinic'
loop_
_space_group_symop_operation_xyz
x,y,z
x,-y,1/2+z
1/2+x,1/2+y,z
1/2+x,1/2-y,1/2+z
loop_
_atom_site_type_symbol
_atom_site_label
_atom_site_fract_x
_atom_site_fract_y
_atom_site_fract_z
Si Si1 0.949640 0.384341 0.513000
Si Si2 0.713576 0.929538 0.110692
Si Si3 0.250818 0.978564 0.988292
Si Si4 0.898288 0.783173 0.994290
Si Si5 0.423261 0.635831 0.281780
Si Si6 0.855696 0.301074 0.261919
O O1 0.664848 0.391763 0.660210
O O2 0.880469 0.347341 0.347733
O O3 0.080494 0.423203 0.370820
O O4 0.171267 0.366978 0.652463
O O5 0.475037 0.942902 0.977450
O O6 0.951632 0.961525 0.052668
O O7 0.836503 0.885085 0.027483
O O8 0.286108 0.002088 0.230595
O O9 0.012149 0.816759 0.801944
O O10 0.925033 0.735515 0.927823
O O11 0.588134 0.794430 0.048801
O O12 0.065390 0.792382 0.198163
#
# Coordination Sequence:
#
# PCOD9140966 Si02
#       6
#     4   4   4   4   4   4
#     4  12  26  45  74 108 149 196 251 310 379 442
#     4  12  28  50  80 112 157 192 253 312 374 478
#     4  12  30  54  84 118 157 204 253 318 402 478
#     4  12  24  43  66 100 147 194 254 312 369 439
#     4  12  26  45  74 108 149 196 251 310 379 442
#     4  12  24  43  66 100 147 194 254 312 369 439
#
# _framework density 25.042622999999999
#
# number of rings (size 3 to 8) (size 9 to 14) (size 15 to 20)
#    0.000    0.000    1.667    8.000    9.333    0.000 
#    0.000    0.000    0.000    0.000    0.000    0.000 
#    0.000    0.000    0.000    0.000    0.000    0.000 
#
# Total GULP energy -67185.812704 kJ/mol
# GULP energy per Si atom -5598.817725 kJ/mol
# Density = 2.498562 g / cm^3
# Si number density = 25.042623 Si / 1000 Ang^3
#
#
#
# Elastic Constant Matrix: (Units=GPa)
#
#
# Indices 1 2 3 4 5 6 
#
# 1 115.0298 5.7301 19.2561 0.0000 -5.9170 0.0000
# 2 5.7301 60.4765 28.6326 0.0000 -3.9296 0.0000
# 3 19.2561 28.6326 83.1227 0.0000 -7.4525 0.0000
# 4 0.0000 0.0000 0.0000 45.3225 0.0000 2.7585
# 5 -5.9170 -3.9296 -7.4525 0.0000 50.5316 0.0000
# 6 0.0000 0.0000 0.0000 2.7585 0.0000 36.2159
#
#
#
# Elastic Compliance Matrix: (Units=1/GPa)
#
#
# Indices 1 2 3 4 5 6 
#
# 1 0.009075 0.000183 -0.002096 0.000000 0.000768 0.000000
# 2 0.000183 0.019776 -0.006804 0.000000 0.000556 0.000000
# 3 -0.002096 -0.006804 0.014989 0.000000 0.001436 0.000000
# 4 0.000000 0.000000 0.000000 0.022167 0.000000 -0.001688
# 5 0.000768 0.000556 0.001436 0.000000 0.020134 0.000000
# 6 0.000000 0.000000 0.000000 -0.001688 0.000000 0.027741
#
#
# Mechanical properties :
#
#
# Convention : Reuss Voigt Hill
#
# Bulk Modulus (GPa) = 37.87491 40.65184 39.26338
# Shear Modulus (GPa) = 35.68410 40.08135 37.88273
#
# Velocity S-wave (km/s) = 3.77893 4.00500 3.89360
# Velocity P-wave (km/s) = 5.84785 6.13636 5.99385
#
# Compressibility (1/GPa) = 0.02640270
#
# Stress axis : x y z
#
# Youngs Moduli (GPa) = 110.19634 50.56708 66.71723
#
# Poissons Ratio (x) = -0.00923 0.13986
# Poissons Ratio (y) = -0.02012 0.45397
# Poissons Ratio (z) = 0.23100 0.34408
#
# Static dielectric constant tensor:
#      x y z
#    x 1.882840 0.000000 -0.036560 
#    y 0.000000 1.988330 0.000000 
#    z -0.036560 0.000000 2.024520 
# 
# From -- ./inp_files/347.got.cif
#   From: 2010.05.17/outbox.cif.g08.bks.cpg/sg9_1_cif.got.tgz:347.got - 2010.06.03 20:04:27.
