data_PCOD9140925
_publ_section_title
;
Structure prediction by ZEFSAII (Michael W. Deem and Ramdas Pophale) SiO2 
 PCOD9140925
Probable space group: C C
;
_chemical_formula_sum "Si O2"
_cell_formula_units_Z 20
_cell_length_a 9.814542
_cell_length_b 9.753577
_cell_length_c 10.373348
_cell_angle_alpha 90.000000
_cell_angle_beta 124.147911
_cell_angle_gamma 90.000000
_cell_volume 821.805012
_symmetry_space_group_name_H-M "C C"
_symmetry_group_IT_number 9
_symmetry_cell_setting 'monoclinic'
loop_
_space_group_symop_operation_xyz
x,y,z
x,-y,1/2+z
1/2+x,1/2+y,z
1/2+x,1/2-y,1/2+z
loop_
_atom_site_type_symbol
_atom_site_label
_atom_site_fract_x
_atom_site_fract_y
_atom_site_fract_z
Si Si1 0.136280 0.734039 0.144460
Si Si2 0.147787 0.463701 0.014636
Si Si3 0.136365 0.829155 0.436589
Si Si4 0.457806 0.483560 0.003428
Si Si5 0.815723 0.520674 0.687505
O O1 0.125511 0.768443 0.289277
O O2 0.289501 0.816570 0.161447
O O3 0.146424 0.573907 0.127410
O O4 0.984548 0.819589 0.998715
O O5 0.156769 0.301224 0.041673
O O6 0.976911 0.485136 0.848120
O O7 0.300391 0.504878 0.004655
O O8 0.288084 0.933106 0.543022
O O9 0.976601 0.920780 0.388328
O O10 0.639032 0.518102 0.162852
#
# Coordination Sequence:
#
# PCOD9140925 Si02
#       5
#     4   4   4   4   4
#     4   9  23  46  72 103 147 187 247 302 357 442
#     4  12  22  46  78 104 141 207 234 297 388 424
#     4   9  23  48  68 107 147 188 241 307 359 440
#     4   8  24  47  67 107 147 187 245 309 351 449
#     4   8  24  47  67 107 146 189 243 307 355 445
#
# _framework density 24.336673999999999
#
# number of rings (size 3 to 8) (size 9 to 14) (size 15 to 20)
#    2.400    0.000    0.000    0.000    5.600    1.600 
#   18.000    0.000    0.000    0.000    0.000    0.000 
#    0.000    0.000    0.000    0.000    0.000    0.000 
#
# Total GULP energy -55710.495149 kJ/mol
# GULP energy per Si atom -5571.049515 kJ/mol
# Density = 2.428128 g / cm^3
# Si number density = 24.336674 Si / 1000 Ang^3
#
#
#
# Elastic Constant Matrix: (Units=GPa)
#
#
# Indices 1 2 3 4 5 6 
#
# 1 124.3848 25.0188 30.8470 0.0000 18.9727 0.0000
# 2 25.0188 174.2563 52.4254 0.0000 -29.4889 0.0000
# 3 30.8470 52.4254 76.9867 0.0000 -1.7427 0.0000
# 4 0.0000 0.0000 0.0000 43.4025 0.0000 -14.2325
# 5 18.9727 -29.4889 -1.7427 0.0000 36.1288 0.0000
# 6 0.0000 0.0000 0.0000 -14.2325 0.0000 24.1275
#
#
#
# Elastic Compliance Matrix: (Units=1/GPa)
#
#
# Indices 1 2 3 4 5 6 
#
# 1 0.010198 -0.001704 -0.003082 0.000000 -0.006895 0.000000
# 2 -0.001704 0.008879 -0.005185 0.000000 0.007891 0.000000
# 3 -0.003082 -0.005185 0.017715 0.000000 -0.001759 0.000000
# 4 0.000000 0.000000 0.000000 0.028566 0.000000 0.016851
# 5 -0.006895 0.007891 -0.001759 0.000000 0.037656 0.000000
# 6 0.000000 0.000000 0.000000 0.016851 0.000000 0.051386
#
#
# Mechanical properties :
#
#
# Convention : Reuss Voigt Hill
#
# Bulk Modulus (GPa) = 59.34477 65.80116 62.57296
# Shear Modulus (GPa) = 27.78426 38.55419 33.16923
#
# Velocity S-wave (km/s) = 3.38252 3.98452 3.69580
# Velocity P-wave (km/s) = 6.30024 6.94731 6.63167
#
# Compressibility (1/GPa) = 0.01685068
#
# Stress axis : x y z
#
# Youngs Moduli (GPa) = 98.05559 112.63080 56.44927
#
# Poissons Ratio (x) = 0.19189 0.17398
# Poissons Ratio (y) = 0.16706 0.29267
# Poissons Ratio (z) = 0.30222 0.58396
#
# Static dielectric constant tensor:
#      x y z
#    x 2.013210 0.000000 0.012090 
#    y 0.000000 2.045940 0.000000 
#    z 0.012090 0.000000 2.060580 
# 
# From -- ./inp_files/15879.got.cif
#   From: 2010.05.17/outbox.cif.g08.bks.cpg/sg9_8_cif.got.tgz:15879.got - 2010.06.03 20:04:27.
