data_PCOD9140870
_publ_section_title
;
Structure prediction by ZEFSAII (Michael W. Deem and Ramdas Pophale) SiO2 
 PCOD9140870
Probable space group: C C
;
_chemical_formula_sum "Si O2"
_cell_formula_units_Z 32
_cell_length_a 16.501607
_cell_length_b 17.544359
_cell_length_c 9.776405
_cell_angle_alpha 90.000000
_cell_angle_beta 26.522073
_cell_angle_gamma 90.000000
_cell_volume 1263.879816
_symmetry_space_group_name_H-M "C C"
_symmetry_group_IT_number 9
_symmetry_cell_setting 'monoclinic'
loop_
_space_group_symop_operation_xyz
x,y,z
x,-y,1/2+z
1/2+x,1/2+y,z
1/2+x,1/2-y,1/2+z
loop_
_atom_site_type_symbol
_atom_site_label
_atom_site_fract_x
_atom_site_fract_y
_atom_site_fract_z
Si Si1 0.346190 0.401584 0.041070
Si Si2 0.121816 0.029215 0.675873
Si Si3 0.519590 0.970789 0.690691
Si Si4 0.946345 0.686209 0.443556
Si Si5 0.526216 0.270438 0.906283
Si Si6 0.195086 0.186210 0.422964
Si Si7 0.295212 0.598421 0.325496
Si Si8 0.115209 0.729570 0.460242
O O1 0.163997 0.445530 0.356662
O O2 0.517622 0.457838 0.767909
O O3 0.393363 0.343031 0.089052
O O4 0.320701 0.362118 0.933285
O O5 0.320701 0.010386 0.433288
O O6 0.142022 0.101086 0.543898
O O7 0.977406 0.054474 0.009904
O O8 0.499405 0.898918 0.822639
O O9 0.623777 0.042168 0.598658
O O10 0.738422 0.702137 0.716350
O O11 0.968506 0.703422 0.571792
O O12 0.070716 0.749998 0.183258
O O13 0.672918 0.296584 0.794737
O O14 0.570713 0.250006 0.683261
O O15 0.403010 0.202141 0.150160
O O16 0.248053 0.656974 0.277491
#
# Coordination Sequence:
#
# PCOD9140870 Si02
#       8
#     4   4   4   4   4   4   4   4
#     4  11  27  48  73 107 156 192 246 315 373 437
#     4  11  27  47  76 108 145 201 252 301 372 454
#     4  11  27  47  76 108 145 201 252 301 372 454
#     4  12  25  45  77 105 144 195 251 300 368 448
#     4  12  27  48  72 109 149 193 246 313 375 439
#     4  12  25  45  77 105 144 195 251 300 368 448
#     4  11  27  48  73 107 156 192 246 315 373 437
#     4  12  27  48  72 109 149 193 246 313 375 439
#
# _framework density 25.318861999999999
#
# number of rings (size 3 to 8) (size 9 to 14) (size 15 to 20)
#    0.000    0.500    2.500    4.500   10.500    3.000 
#    0.000    0.000    0.000    0.000    0.000    0.000 
#    0.000    0.000    0.000    0.000    0.000    0.000 
#
# Total GULP energy -89641.780157 kJ/mol
# GULP energy per Si atom -5602.611260 kJ/mol
# Density = 2.526124 g / cm^3
# Si number density = 25.318862 Si / 1000 Ang^3
#
#
#
# Elastic Constant Matrix: (Units=GPa)
#
#
# Indices 1 2 3 4 5 6 
#
# 1 139.6463 27.8189 40.3494 -0.0016 -8.2326 0.0018
# 2 27.8189 109.1776 26.8430 -0.0047 -13.9630 0.0015
# 3 40.3494 26.8430 102.6710 -0.0089 -28.4262 0.0029
# 4 -0.0016 -0.0047 -0.0089 49.3062 0.0016 -2.0886
# 5 -8.2326 -13.9630 -28.4262 0.0016 44.6809 -0.0013
# 6 0.0018 0.0015 0.0029 -2.0886 -0.0013 44.1083
#
#
#
# Elastic Compliance Matrix: (Units=1/GPa)
#
#
# Indices 1 2 3 4 5 6 
#
# 1 0.008304 -0.001463 -0.003137 0.000000 -0.000923 0.000000
# 2 -0.001463 0.010159 -0.001550 0.000001 0.001919 0.000000
# 3 -0.003137 -0.001550 0.013453 0.000002 0.007497 0.000000
# 4 0.000000 0.000001 0.000002 0.020322 0.000001 0.000962
# 5 -0.000923 0.001919 0.007497 0.000001 0.027580 0.000000
# 6 0.000000 0.000000 0.000000 0.000962 0.000000 0.022717
#
#
# Mechanical properties :
#
#
# Convention : Reuss Voigt Hill
#
# Bulk Modulus (GPa) = 50.97333 60.16860 55.57097
# Shear Modulus (GPa) = 41.19538 44.71801 42.95669
#
# Velocity S-wave (km/s) = 4.03806 4.20717 4.12348
# Velocity P-wave (km/s) = 6.47437 6.88595 6.68333
#
# Compressibility (1/GPa) = 0.01961810
#
# Stress axis : x y z
#
# Youngs Moduli (GPa) = 120.42065 98.43898 74.33130
#
# Poissons Ratio (x) = 0.14399 0.23314
# Poissons Ratio (y) = 0.17615 0.11519
# Poissons Ratio (z) = 0.37770 0.15255
#
# Static dielectric constant tensor:
#      x y z
#    x 1.952750 0.000000 -0.002610 
#    y 0.000000 1.983650 0.000000 
#    z -0.002610 0.000000 2.035320 
# 
# From -- ./inp_files/10092.got.cif
#   From: 2010.05.17/outbox.cif.g08.bks.cpg/sg9_6_cif.got.tgz:10092.got - 2010.06.03 20:04:27.
