data_PCOD9140613
_publ_section_title
;
Structure prediction by ZEFSAII (Michael W. Deem and Ramdas Pophale) SiO2 
 PCOD9140613
Probable space group: C C
;
_chemical_formula_sum "Si O2"
_cell_formula_units_Z 24
_cell_length_a 4.939122
_cell_length_b 13.517477
_cell_length_c 12.956053
_cell_angle_alpha 90.000000
_cell_angle_beta 89.803901
_cell_angle_gamma 90.000000
_cell_volume 864.998920
_symmetry_space_group_name_H-M "C C"
_symmetry_group_IT_number 9
_symmetry_cell_setting 'monoclinic'
loop_
_space_group_symop_operation_xyz
x,y,z
x,-y,1/2+z
1/2+x,1/2+y,z
1/2+x,1/2-y,1/2+z
loop_
_atom_site_type_symbol
_atom_site_label
_atom_site_fract_x
_atom_site_fract_y
_atom_site_fract_z
Si Si1 0.848720 0.102048 0.909960
Si Si2 0.360171 0.111015 0.619398
Si Si3 0.236747 0.757880 0.524267
Si Si4 0.337272 0.888985 0.700524
Si Si5 0.348719 0.038157 0.409960
Si Si6 0.460695 0.242121 0.795653
O O1 0.720349 0.171454 0.821387
O O2 0.977095 0.171453 0.998533
O O3 0.597857 0.032029 0.942152
O O4 0.099580 0.032027 0.877768
O O5 0.645578 0.159364 0.583182
O O6 0.348723 1.000000 0.659961
O O7 0.235243 0.102501 0.505092
O O8 0.281949 0.180491 0.714844
O O9 0.415493 0.819509 0.605077
O O10 0.348722 0.742763 0.409960
O O11 0.462197 0.897497 0.814830
O O12 0.051863 0.840637 0.736739
#
# Coordination Sequence:
#
# PCOD9140613 Si02
#       6
#     4   4   4   4   4   4
#     4  12  23  50  79 114 166 208 264 333 403 476
#     4  11  24  51  80 119 159 215 267 337 404 486
#     4  11  25  50  81 119 163 211 270 335 405 484
#     4  11  24  51  80 119 159 215 267 337 404 486
#     4  12  27  48  81 118 162 212 274 331 399 490
#     4  11  25  50  81 119 163 211 270 335 405 484
#
# _framework density 27.745699999999999
#
# number of rings (size 3 to 8) (size 9 to 14) (size 15 to 20)
#    0.000    0.667    5.000    1.000    2.333    1.333 
#    6.000   10.000    0.000    0.000    0.000    0.000 
#    0.000    0.000    0.000    0.000    0.000    0.000 
#
# Total GULP energy -67114.668380 kJ/mol
# GULP energy per Si atom -5592.889032 kJ/mol
# Density = 2.768255 g / cm^3
# Si number density = 27.745700 Si / 1000 Ang^3
#
#
#
# Elastic Constant Matrix: (Units=GPa)
#
#
# Indices 1 2 3 4 5 6 
#
# 1 132.3200 53.9660 49.5064 0.0000 -3.2548 0.0000
# 2 53.9660 188.3796 90.4159 0.0000 2.3828 0.0000
# 3 49.5064 90.4159 267.2670 0.0000 -16.7004 0.0000
# 4 0.0000 0.0000 0.0000 47.4293 0.0000 15.1502
# 5 -3.2548 2.3828 -16.7004 0.0000 55.2383 0.0000
# 6 0.0000 0.0000 0.0000 15.1502 0.0000 43.6502
#
#
#
# Elastic Compliance Matrix: (Units=1/GPa)
#
#
# Indices 1 2 3 4 5 6 
#
# 1 0.008749 -0.002081 -0.000896 0.000000 0.000334 0.000000
# 2 -0.002081 0.006880 -0.002006 0.000000 -0.001026 0.000000
# 3 -0.000896 -0.002006 0.004677 0.000000 0.001448 0.000000
# 4 0.000000 0.000000 0.000000 0.023713 0.000000 -0.008230
# 5 0.000334 -0.001026 0.001448 0.000000 0.018605 0.000000
# 6 0.000000 0.000000 0.000000 -0.008230 0.000000 0.025766
#
#
# Mechanical properties :
#
#
# Convention : Reuss Voigt Hill
#
# Bulk Modulus (GPa) = 96.70480 108.41589 102.56035
# Shear Modulus (GPa) = 49.11417 55.53543 52.32480
#
# Velocity S-wave (km/s) = 4.21188 4.47876 4.34737
# Velocity P-wave (km/s) = 7.65395 8.11822 7.88950
#
# Compressibility (1/GPa) = 0.01034075
#
# Stress axis : x y z
#
# Youngs Moduli (GPa) = 114.29264 145.33900 213.82508
#
# Poissons Ratio (x) = 0.30241 0.19156
# Poissons Ratio (y) = 0.23781 0.42901
# Poissons Ratio (z) = 0.10239 0.29160
#
# Static dielectric constant tensor:
#      x y z
#    x 2.264800 0.000000 0.101670 
#    y 0.000000 2.181000 0.000000 
#    z 0.101670 0.000000 2.185810 
# 
# From -- ./inp_files/13085.got.cif
#   From: 2010.05.17/outbox.cif.g08.bks.cpg/sg9_7_cif.got.tgz:13085.got - 2010.06.03 20:04:27.
