data_PCOD9140298
_publ_section_title
;
Structure prediction by ZEFSAII (Michael W. Deem and Ramdas Pophale) SiO2 
 PCOD9140298
Probable space group: C C
;
_chemical_formula_sum "Si O2"
_cell_formula_units_Z 32
_cell_length_a 11.779251
_cell_length_b 8.676673
_cell_length_c 28.882443
_cell_angle_alpha 90.000000
_cell_angle_beta 152.989475
_cell_angle_gamma 90.000000
_cell_volume 1340.627532
_symmetry_space_group_name_H-M "C C"
_symmetry_group_IT_number 9
_symmetry_cell_setting 'monoclinic'
loop_
_space_group_symop_operation_xyz
x,y,z
x,-y,1/2+z
1/2+x,1/2+y,z
1/2+x,1/2-y,1/2+z
loop_
_atom_site_type_symbol
_atom_site_label
_atom_site_fract_x
_atom_site_fract_y
_atom_site_fract_z
Si Si1 0.502180 0.292548 0.211290
Si Si2 0.087534 0.104449 0.836060
Si Si3 0.576063 0.297675 0.993619
Si Si4 0.732810 0.250806 0.877688
Si Si5 0.339141 0.054419 0.676135
Si Si6 0.584494 0.103047 0.918417
Si Si7 0.869523 0.857085 0.060052
Si Si8 0.600342 0.600532 0.944036
O O1 0.416183 0.366788 0.228928
O O2 0.381293 0.353323 0.120071
O O3 0.795091 0.343912 0.312349
O O4 0.454018 0.109919 0.202085
O O5 0.305548 0.234401 0.911216
O O6 0.985804 0.108788 0.851188
O O7 0.199097 0.932922 0.870192
O O8 0.693585 0.159390 0.007286
O O9 0.567529 0.430524 0.951699
O O10 0.733565 0.361617 0.092651
O O11 0.528865 0.165210 0.771936
O O12 0.717532 0.174451 0.922567
O O13 0.978757 0.201988 0.940354
O O14 0.106361 0.047322 0.626844
O O15 0.642712 0.924376 0.945617
O O16 0.877221 0.676393 0.045759
#
# Coordination Sequence:
#
# PCOD9140298 Si02
#       8
#     4   4   4   4   4   4   4   4
#     4  11  26  50  73 113 159 203 263 330 392 467
#     4  11  26  47  74 107 150 201 253 314 391 470
#     4  11  23  48  73 107 151 198 258 321 379 467
#     4  12  26  45  75 112 151 206 256 319 394 465
#     4  12  26  46  79 115 151 204 268 325 392 470
#     4  11  25  47  76 109 162 205 259 325 397 470
#     4  12  26  48  78 115 153 206 268 324 392 473
#     4  12  24  47  78 104 149 207 249 316 399 462
#
# _framework density 23.869420000000002
#
# number of rings (size 3 to 8) (size 9 to 14) (size 15 to 20)
#    0.000    0.500    5.000    3.750    3.500    1.000 
#    0.000    0.000    0.000    0.000    0.000    0.000 
#    0.000    0.000    0.000    0.000    0.000    0.000 
#
# Total GULP energy -89330.835160 kJ/mol
# GULP energy per Si atom -5583.177198 kJ/mol
# Density = 2.381509 g / cm^3
# Si number density = 23.869420 Si / 1000 Ang^3
#
#
#
# Elastic Constant Matrix: (Units=GPa)
#
#
# Indices 1 2 3 4 5 6 
#
# 1 146.4989 25.4512 40.9528 0.0000 -39.5958 0.0000
# 2 25.4512 101.6740 33.0040 0.0000 -1.9170 0.0000
# 3 40.9528 33.0040 89.4705 0.0002 -21.4473 0.0000
# 4 0.0000 0.0000 0.0002 43.7412 0.0000 -4.4569
# 5 -39.5958 -1.9170 -21.4473 0.0000 47.8452 0.0000
# 6 0.0000 0.0000 0.0000 -4.4569 0.0000 62.4762
#
#
#
# Elastic Compliance Matrix: (Units=1/GPa)
#
#
# Indices 1 2 3 4 5 6 
#
# 1 0.009559 -0.001566 -0.002147 0.000000 0.006886 0.000000
# 2 -0.001566 0.011536 -0.004188 0.000000 -0.002711 0.000000
# 3 -0.002147 -0.004188 0.014832 0.000000 0.004704 0.000000
# 4 0.000000 0.000000 0.000000 0.023029 0.000000 0.001643
# 5 0.006886 -0.002711 0.004704 0.000000 0.028599 0.000000
# 6 0.000000 0.000000 0.000000 0.001643 0.000000 0.016123
#
#
# Mechanical properties :
#
#
# Convention : Reuss Voigt Hill
#
# Bulk Modulus (GPa) = 49.69179 59.60660 54.64920
# Shear Modulus (GPa) = 39.62243 46.69489 43.15866
#
# Velocity S-wave (km/s) = 4.07869 4.42777 4.25681
# Velocity P-wave (km/s) = 6.56082 7.15306 6.86333
#
# Compressibility (1/GPa) = 0.02012405
#
# Stress axis : x y z
#
# Youngs Moduli (GPa) = 104.60861 86.68611 67.42009
#
# Poissons Ratio (x) = 0.13576 0.14477
# Poissons Ratio (y) = 0.16383 0.28239
# Poissons Ratio (z) = 0.22462 0.36308
#
# Static dielectric constant tensor:
#      x y z
#    x 1.956330 0.000000 0.096160 
#    y 0.000000 1.874410 0.000000 
#    z 0.096160 0.000000 2.021890 
# 
# From -- ./inp_files/37282.got.cif
#   From: 2010.05.17/outbox.cif.g08.bks.cpg/sg9_19_cif.got.tgz:37282.got - 2010.06.03 20:04:27.
