data_PCOD9140768
_publ_section_title
;
Structure prediction by ZEFSAII (Michael W. Deem and Ramdas Pophale) SiO2 
 PCOD9140768
Probable space group: C C
;
_chemical_formula_sum "Si O2"
_cell_formula_units_Z 24
_cell_length_a 6.097438
_cell_length_b 13.476303
_cell_length_c 13.423541
_cell_angle_alpha 90.000000
_cell_angle_beta 57.262523
_cell_angle_gamma 90.000000
_cell_volume 927.817238
_symmetry_space_group_name_H-M "C C"
_symmetry_group_IT_number 9
_symmetry_cell_setting 'monoclinic'
loop_
_space_group_symop_operation_xyz
x,y,z
x,-y,1/2+z
1/2+x,1/2+y,z
1/2+x,1/2-y,1/2+z
loop_
_atom_site_type_symbol
_atom_site_label
_atom_site_fract_x
_atom_site_fract_y
_atom_site_fract_z
Si Si1 0.807640 0.249098 0.890130
Si Si2 0.999489 0.065563 0.216434
Si Si3 0.572965 0.544207 0.410745
Si Si4 0.521141 0.037576 0.565964
Si Si5 0.830107 0.760500 0.621631
Si Si6 0.034126 0.428455 0.355224
O O1 0.717981 0.362280 0.920103
O O2 0.606581 0.179434 0.878326
O O3 0.065279 0.251006 0.754964
O O4 0.812558 0.216928 0.006422
O O5 0.941248 0.094526 0.344583
O O6 0.985703 0.153635 0.141898
O O7 0.286716 0.025312 0.168718
O O8 0.795540 0.977033 0.244380
O O9 0.310413 0.511822 0.530216
O O10 0.771992 0.450987 0.358343
O O11 0.466959 0.153350 0.594091
O O12 0.489158 0.995243 0.463078
#
# Coordination Sequence:
#
# PCOD9140768 Si02
#       6
#     4   4   4   4   4   4
#     4  12  27  51  89 124 169 229 283 360 430 510
#     4  11  26  48  81 119 165 225 285 346 424 513
#     4  11  26  50  76 124 170 211 291 356 419 514
#     4  11  26  49  76 120 169 220 277 355 422 508
#     4  12  26  54  86 127 171 223 292 352 432 513
#     4  11  25  50  78 118 164 224 280 349 425 506
#
# _framework density 25.867165
#
# number of rings (size 3 to 8) (size 9 to 14) (size 15 to 20)
#    0.000    0.667    5.000    1.000    4.667    6.667 
#    0.000    0.000    0.000    0.000    0.000    0.000 
#    0.000    0.000    0.000    0.000    0.000    0.000 
#
# Total GULP energy -66984.790828 kJ/mol
# GULP energy per Si atom -5582.065902 kJ/mol
# Density = 2.580829 g / cm^3
# Si number density = 25.867165 Si / 1000 Ang^3
#
#
#
# Elastic Constant Matrix: (Units=GPa)
#
#
# Indices 1 2 3 4 5 6 
#
# 1 84.3279 29.1183 49.9254 0.0000 -20.9814 0.0000
# 2 29.1183 135.5445 3.0198 0.0000 -16.8618 0.0000
# 3 49.9254 3.0198 113.4119 0.0000 12.9139 0.0000
# 4 0.0000 0.0000 0.0000 15.7263 0.0000 -4.7842
# 5 -20.9814 -16.8618 12.9139 0.0000 67.4777 0.0000
# 6 0.0000 0.0000 0.0000 -4.7842 0.0000 53.0577
#
#
#
# Elastic Compliance Matrix: (Units=1/GPa)
#
#
# Indices 1 2 3 4 5 6 
#
# 1 0.020720 -0.003296 -0.009889 0.000000 0.007511 0.000000
# 2 -0.003296 0.008159 0.001143 0.000000 0.000795 0.000000
# 3 -0.009889 0.001143 0.013758 0.000000 -0.005422 0.000000
# 4 0.000000 0.000000 0.000000 0.065381 0.000000 0.005895
# 5 0.007511 0.000795 -0.005422 0.000000 0.018392 0.000000
# 6 0.000000 0.000000 0.000000 0.005895 0.000000 0.019379
#
#
# Mechanical properties :
#
#
# Convention : Reuss Voigt Hill
#
# Bulk Modulus (GPa) = 53.89931 55.26795 54.58363
# Shear Modulus (GPa) = 28.39986 44.00039 36.20012
#
# Velocity S-wave (km/s) = 3.31707 4.12881 3.74500
# Velocity P-wave (km/s) = 5.96262 6.64393 6.31247
#
# Compressibility (1/GPa) = 0.01855311
#
# Stress axis : x y z
#
# Youngs Moduli (GPa) = 48.26201 122.56033 72.68725
#
# Poissons Ratio (x) = 0.40402 0.71879
# Poissons Ratio (y) = 0.15909 -0.08311
# Poissons Ratio (z) = 0.47726 -0.14013
#
# Static dielectric constant tensor:
#      x y z
#    x 2.142990 0.000000 -0.062400 
#    y 0.000000 1.939250 0.000000 
#    z -0.062400 0.000000 2.261070 
# 
# From -- ./inp_files/12959.got.cif
#   From: 2010.05.17/outbox.cif.g08.bks.cpg/sg9_7_cif.got.tgz:12959.got - 2010.06.03 20:04:27.
