data_PCOD9140245
_publ_section_title
;
Structure prediction by ZEFSAII (Michael W. Deem and Ramdas Pophale) SiO2 
 PCOD9140245
Probable space group: C C
;
_chemical_formula_sum "Si O2"
_cell_formula_units_Z 28
_cell_length_a 12.196290
_cell_length_b 7.428875
_cell_length_c 20.855972
_cell_angle_alpha 90.000000
_cell_angle_beta 35.546402
_cell_angle_gamma 90.000000
_cell_volume 1098.570512
_symmetry_space_group_name_H-M "C C"
_symmetry_group_IT_number 9
_symmetry_cell_setting 'monoclinic'
loop_
_space_group_symop_operation_xyz
x,y,z
x,-y,1/2+z
1/2+x,1/2+y,z
1/2+x,1/2-y,1/2+z
loop_
_atom_site_type_symbol
_atom_site_label
_atom_site_fract_x
_atom_site_fract_y
_atom_site_fract_z
Si Si1 0.410350 0.055360 0.390820
Si Si2 0.852069 0.785500 0.221964
Si Si3 0.852945 0.116935 0.152815
Si Si4 0.204699 0.373582 0.426049
Si Si5 0.202107 0.309151 0.026880
Si Si6 0.754851 0.636622 0.140422
Si Si7 0.225608 0.764715 0.096868
O O1 0.631837 0.088290 0.272796
O O2 0.295318 0.178988 0.396312
O O3 0.359346 0.148651 0.481579
O O4 0.326427 0.854478 0.436441
O O5 0.757533 0.891558 0.325813
O O6 0.719892 0.693982 0.231420
O O7 0.033386 0.677894 0.161920
O O8 0.952546 0.943132 0.133616
O O9 0.851395 0.130912 0.077677
O O10 0.979042 0.278899 0.118320
O O11 0.261935 0.516276 0.455136
O O12 0.980266 0.376053 0.533125
O O13 0.211364 0.267632 0.099992
O O14 0.669524 0.438700 0.167295
#
# Coordination Sequence:
#
# PCOD9140245 Si02
#       7
#     4   4   4   4   4   4   4
#     4  11  25  50  73 113 154 197 264 322 379 461
#     4  12  25  44  75 114 147 198 261 316 384 458
#     4  12  24  47  76 105 154 204 244 324 387 450
#     4  12  25  49  77 111 158 202 260 328 383 463
#     4  11  26  50  79 114 153 215 258 315 397 469
#     4  11  24  48  72 106 157 193 259 322 377 465
#     4  11  23  46  72 107 151 193 256 319 371 462
#
# _framework density 25.487667999999999
#
# number of rings (size 3 to 8) (size 9 to 14) (size 15 to 20)
#    0.000    0.571    7.143    1.714    2.000    2.286 
#    2.571    0.000    0.000    0.000    0.000    0.000 
#    0.000    0.000    0.000    0.000    0.000    0.000 
#
# Total GULP energy -78113.449105 kJ/mol
# GULP energy per Si atom -5579.532079 kJ/mol
# Density = 2.542966 g / cm^3
# Si number density = 25.487668 Si / 1000 Ang^3
#
#
#
# Elastic Constant Matrix: (Units=GPa)
#
#
# Indices 1 2 3 4 5 6 
#
# 1 150.1510 31.6018 25.4739 0.0000 3.1950 0.0000
# 2 31.6018 80.2357 20.1784 0.0000 10.8839 0.0000
# 3 25.4739 20.1784 84.7724 -0.0001 -14.7234 0.0000
# 4 0.0000 0.0000 -0.0001 22.0758 0.0000 7.3656
# 5 3.1950 10.8839 -14.7234 0.0000 52.6286 0.0000
# 6 0.0000 0.0000 0.0000 7.3656 0.0000 56.4299
#
#
#
# Elastic Compliance Matrix: (Units=1/GPa)
#
#
# Indices 1 2 3 4 5 6 
#
# 1 0.007480 -0.002450 -0.001740 0.000000 -0.000434 0.000000
# 2 -0.002450 0.014828 -0.003469 0.000000 -0.003888 0.000000
# 3 -0.001740 -0.003469 0.013966 0.000000 0.004730 0.000000
# 4 0.000000 0.000000 0.000000 0.047361 0.000000 -0.006182
# 5 -0.000434 -0.003888 0.004730 0.000000 0.021155 0.000000
# 6 0.000000 0.000000 0.000000 -0.006182 0.000000 0.018528
#
#
# Mechanical properties :
#
#
# Convention : Reuss Voigt Hill
#
# Bulk Modulus (GPa) = 47.71549 52.18524 49.95037
# Shear Modulus (GPa) = 34.33581 42.08720 38.21150
#
# Velocity S-wave (km/s) = 3.67434 4.06800 3.87617
# Velocity P-wave (km/s) = 6.06323 6.52564 6.29868
#
# Compressibility (1/GPa) = 0.02095755
#
# Stress axis : x y z
#
# Youngs Moduli (GPa) = 133.69043 67.44075 71.60047
#
# Poissons Ratio (x) = 0.16520 0.12459
# Poissons Ratio (y) = 0.32748 0.24836
# Poissons Ratio (z) = 0.23263 0.23393
#
# Static dielectric constant tensor:
#      x y z
#    x 2.097960 0.000000 0.089820 
#    y 0.000000 2.129200 0.000000 
#    z 0.089820 0.000000 2.065500 
# 
# From -- ./inp_files/33116.got.cif
#   From: 2010.05.17/outbox.cif.g08.bks.cpg/sg9_17_cif.got.tgz:33116.got - 2010.06.03 20:04:27.
