data_PCOD9140182
_publ_section_title
;
Structure prediction by ZEFSAII (Michael W. Deem and Ramdas Pophale) SiO2 
 PCOD9140182
Probable space group: C C
;
_chemical_formula_sum "Si O2"
_cell_formula_units_Z 32
_cell_length_a 23.885806
_cell_length_b 6.441642
_cell_length_c 25.806515
_cell_angle_alpha 90.000000
_cell_angle_beta 21.392543
_cell_angle_gamma 90.000000
_cell_volume 1448.330978
_symmetry_space_group_name_H-M "C C"
_symmetry_group_IT_number 9
_symmetry_cell_setting 'monoclinic'
loop_
_space_group_symop_operation_xyz
x,y,z
x,-y,1/2+z
1/2+x,1/2+y,z
1/2+x,1/2-y,1/2+z
loop_
_atom_site_type_symbol
_atom_site_label
_atom_site_fract_x
_atom_site_fract_y
_atom_site_fract_z
Si Si1 0.266720 0.205460 0.244360
Si Si2 0.623250 0.366717 0.612638
Si Si3 0.993332 0.268591 0.769766
Si Si4 0.478414 0.179621 0.534043
Si Si5 0.293602 0.513721 0.521560
Si Si6 0.422815 0.541772 0.521319
Si Si7 0.333168 0.121348 0.844319
Si Si8 0.821420 0.089653 0.252799
O O1 0.302224 0.345550 0.163095
O O2 0.312205 0.336549 0.257365
O O3 0.091816 0.125598 0.392238
O O4 0.381834 0.013653 0.137445
O O5 0.598260 0.598607 0.651110
O O6 0.461800 0.260251 0.760874
O O7 0.670036 0.358131 0.512343
O O8 0.750420 0.231737 0.531829
O O9 0.125377 0.416237 0.680193
O O10 0.895769 0.393436 0.809253
O O11 0.887406 0.143439 0.902416
O O12 0.412287 0.295356 0.541368
O O13 0.653885 0.131355 0.372839
O O14 0.457591 0.348823 0.597212
O O15 0.388906 0.567182 0.490477
O O16 0.325772 0.245234 0.796215
#
# Coordination Sequence:
#
# PCOD9140182 Si02
#       8
#     4   4   4   4   4   4   4   4
#     4  11  24  46  68 105 144 186 242 298 354 432
#     4  11  23  45  65 104 143 176 244 300 340 440
#     4  11  24  46  68 105 144 186 242 298 354 432
#     4  11  23  45  65 104 143 176 244 300 340 440
#     4  11  26  42  70 102 146 195 237 297 359 422
#     4  11  26  42  70 102 146 195 237 297 359 422
#     4  11  24  44  72  99 138 186 234 297 364 427
#     4  11  24  44  72  99 138 186 234 297 364 427
#
# _framework density 22.094397000000001
#
# number of rings (size 3 to 8) (size 9 to 14) (size 15 to 20)
#    0.000    1.000    5.000    0.750    3.500    1.000 
#    0.000    2.500    0.000    0.000    0.000    0.000 
#    0.000    0.000    0.000    0.000    0.000    0.000 
#
# Total GULP energy -89078.748552 kJ/mol
# GULP energy per Si atom -5567.421785 kJ/mol
# Density = 2.204411 g / cm^3
# Si number density = 22.094397 Si / 1000 Ang^3
#
#
#
# Elastic Constant Matrix: (Units=GPa)
#
#
# Indices 1 2 3 4 5 6 
#
# 1 89.5252 36.5820 15.8183 -0.0009 5.4441 0.0000
# 2 36.5820 105.9554 24.6732 -0.0007 -0.4123 0.0001
# 3 15.8183 24.6732 106.9042 -0.0044 7.8323 0.0017
# 4 -0.0009 -0.0007 -0.0044 39.4719 0.0011 6.8029
# 5 5.4441 -0.4123 7.8323 0.0011 22.2274 -0.0020
# 6 0.0000 0.0001 0.0017 6.8029 -0.0020 29.8990
#
#
#
# Elastic Compliance Matrix: (Units=1/GPa)
#
#
# Indices 1 2 3 4 5 6 
#
# 1 0.013297 -0.004436 -0.000718 0.000000 -0.003086 0.000000
# 2 -0.004436 0.011476 -0.002143 0.000000 0.002054 0.000000
# 3 -0.000718 -0.002143 0.010209 0.000001 -0.003461 -0.000001
# 4 0.000000 0.000000 0.000001 0.026368 -0.000002 -0.006000
# 5 -0.003086 0.002054 -0.003461 -0.000002 0.047003 0.000004
# 6 0.000000 0.000000 -0.000001 -0.006000 0.000004 0.034811
#
#
# Mechanical properties :
#
#
# Convention : Reuss Voigt Hill
#
# Bulk Modulus (GPa) = 49.04530 50.72575 49.88552
# Shear Modulus (GPa) = 30.38521 33.34043 31.86282
#
# Velocity S-wave (km/s) = 3.71245 3.88880 3.80165
# Velocity P-wave (km/s) = 6.37359 6.57055 6.47282
#
# Compressibility (1/GPa) = 0.02038932
#
# Stress axis : x y z
#
# Youngs Moduli (GPa) = 75.20445 87.13509 97.95743
#
# Poissons Ratio (x) = 0.38652 0.07030
# Poissons Ratio (y) = 0.33359 0.20991
# Poissons Ratio (z) = 0.05397 0.18672
#
# Static dielectric constant tensor:
#      x y z
#    x 1.826710 0.000000 0.014420 
#    y 0.000000 1.914810 0.000000 
#    z 0.014420 0.000000 1.772920 
# 
# From -- ./inp_files/12618.got.cif
#   From: 2010.05.17/outbox.cif.g08.bks.cpg/sg9_7_cif.got.tgz:12618.got - 2010.06.03 20:04:27.
