data_PCOD9140483
_publ_section_title
;
Structure prediction by ZEFSAII (Michael W. Deem and Ramdas Pophale) SiO2 
 PCOD9140483
Probable space group: C C
;
_chemical_formula_sum "Si O2"
_cell_formula_units_Z 28
_cell_length_a 14.769623
_cell_length_b 14.129402
_cell_length_c 8.179694
_cell_angle_alpha 90.000000
_cell_angle_beta 134.683245
_cell_angle_gamma 90.000000
_cell_volume 1213.676624
_symmetry_space_group_name_H-M "C C"
_symmetry_group_IT_number 9
_symmetry_cell_setting 'monoclinic'
loop_
_space_group_symop_operation_xyz
x,y,z
x,-y,1/2+z
1/2+x,1/2+y,z
1/2+x,1/2-y,1/2+z
loop_
_atom_site_type_symbol
_atom_site_label
_atom_site_fract_x
_atom_site_fract_y
_atom_site_fract_z
Si Si1 0.456390 0.297527 0.836360
Si Si2 0.408277 0.067422 0.270822
Si Si3 0.998287 0.393235 0.226796
Si Si4 0.585309 0.809994 0.789101
Si Si5 0.626927 0.376874 0.505629
Si Si6 0.485014 0.467833 0.629706
Si Si7 0.250752 0.591666 0.258615
O O1 0.453491 0.214124 0.698285
O O2 0.485285 0.395391 0.781669
O O3 0.331331 0.322160 0.781966
O O4 0.553855 0.253697 0.090675
O O5 0.503420 0.078946 0.544409
O O6 0.465046 0.128659 0.194249
O O7 0.399156 0.961249 0.193908
O O8 0.274210 0.100477 0.168896
O O9 0.130310 0.417932 0.485626
O O10 0.613163 0.735190 0.965880
O O11 0.698129 0.877145 0.869552
O O12 0.563734 0.415696 0.589273
O O13 0.552891 0.435595 0.271438
O O14 0.343822 0.501480 0.395799
#
# Coordination Sequence:
#
# PCOD9140483 Si02
#       7
#     4   4   4   4   4   4   4
#     4  11  24  46  72 108 147 190 250 301 388 444
#     4  12  27  47  70 109 147 200 252 305 387 453
#     4  11  27  46  72 106 148 198 245 313 376 453
#     4  11  25  47  74 108 149 197 249 314 387 444
#     4  12  25  45  75 101 151 191 250 312 368 459
#     4  12  25  45  75 114 142 197 250 308 384 440
#     4  11  25  46  74 108 152 191 248 317 370 457
#
# _framework density 23.070395000000001
#
# number of rings (size 3 to 8) (size 9 to 14) (size 15 to 20)
#    0.000    0.571    2.857    4.286    4.000    6.857 
#    0.000    0.000    0.000    0.000    0.000    0.000 
#    0.000    0.000    0.000    0.000    0.000    0.000 
#
# Total GULP energy -78327.338243 kJ/mol
# GULP energy per Si atom -5594.809874 kJ/mol
# Density = 2.301789 g / cm^3
# Si number density = 23.070395 Si / 1000 Ang^3
#
#
#
# Elastic Constant Matrix: (Units=GPa)
#
#
# Indices 1 2 3 4 5 6 
#
# 1 146.4540 39.9351 22.7194 0.0000 8.9680 0.0000
# 2 39.9351 106.9111 12.7562 0.0000 2.6775 0.0000
# 3 22.7194 12.7562 53.1214 0.0000 4.4650 0.0000
# 4 0.0000 0.0000 0.0000 25.5127 0.0000 -18.5997
# 5 8.9680 2.6775 4.4650 0.0000 37.4891 0.0000
# 6 0.0000 0.0000 0.0000 -18.5997 0.0000 -114.5081
#
#
#
# Elastic Compliance Matrix: (Units=1/GPa)
#
#
# Indices 1 2 3 4 5 6 
#
# 1 0.008055 -0.002653 -0.002689 0.000000 -0.001417 0.000000
# 2 -0.002653 0.010509 -0.001393 0.000000 0.000050 0.000000
# 3 -0.002689 -0.001393 0.020452 0.000000 -0.001693 0.000000
# 4 0.000000 0.000000 0.000000 0.035046 0.000000 -0.005693
# 5 -0.001417 0.000050 -0.001693 0.000000 0.027212 0.000000
# 6 0.000000 0.000000 0.000000 -0.005693 0.000000 -0.007808
#
#
# Mechanical properties :
#
#
# Convention : Reuss Voigt Hill
#
# Bulk Modulus (GPa) = 39.14442 50.81202 44.97822
# Shear Modulus (GPa) = 43.30827 5.10379 24.20603
#
# Velocity S-wave (km/s) = 4.33739 1.48898 3.24269
# Velocity P-wave (km/s) = 6.48754 5.00287 5.79296
#
# Compressibility (1/GPa) = 0.02554643
#
# Stress axis : x y z
#
# Youngs Moduli (GPa) = 124.14126 95.15281 48.89550
#
# Poissons Ratio (x) = 0.25240 0.13148
# Poissons Ratio (y) = 0.32930 0.06813
# Poissons Ratio (z) = 0.33382 0.13258
#
# Static dielectric constant tensor:
#      x y z
#    x 1.838980 0.000000 -0.016910 
#    y 0.000000 2.001800 0.000000 
#    z -0.016910 0.000000 1.942660 
# 
# From -- ./inp_files/9656.got.cif
#   From: 2010.05.17/outbox.cif.g08.bks.cpg/sg9_5_cif.got.tgz:9656.got - 2010.06.03 20:04:27.
