data_PCOD9140399
_publ_section_title
;
Structure prediction by ZEFSAII (Michael W. Deem and Ramdas Pophale) SiO2 
 PCOD9140399
Probable space group: C C
;
_chemical_formula_sum "Si O2"
_cell_formula_units_Z 32
_cell_length_a 18.344725
_cell_length_b 6.736602
_cell_length_c 20.772339
_cell_angle_alpha 90.000000
_cell_angle_beta 29.376921
_cell_angle_gamma 90.000000
_cell_volume 1259.282717
_symmetry_space_group_name_H-M "C C"
_symmetry_group_IT_number 9
_symmetry_cell_setting 'monoclinic'
loop_
_space_group_symop_operation_xyz
x,y,z
x,-y,1/2+z
1/2+x,1/2+y,z
1/2+x,1/2-y,1/2+z
loop_
_atom_site_type_symbol
_atom_site_label
_atom_site_fract_x
_atom_site_fract_y
_atom_site_fract_z
Si Si1 0.058590 0.759395 0.513060
Si Si2 0.289888 0.203644 0.528921
Si Si3 0.589605 0.554747 0.799314
Si Si4 0.133661 0.449722 0.082891
Si Si5 0.054159 0.611764 0.931415
Si Si6 0.356186 0.365970 0.144184
Si Si7 0.749245 0.556518 0.309579
Si Si8 0.431025 0.810183 0.357973
O O1 0.049015 0.632281 0.585030
O O2 0.030661 0.600927 0.478815
O O3 0.216180 0.876101 0.382726
O O4 0.938153 0.932132 0.598310
O O5 0.434167 0.336297 0.432749
O O6 0.188085 0.164069 0.669561
O O7 0.188895 0.324785 0.554674
O O8 0.362230 0.000014 0.447679
O O9 0.680599 0.526281 0.795147
O O10 0.541834 0.342672 0.807704
O O11 0.026222 0.390853 0.224491
O O12 0.286583 0.327039 0.958726
O O13 0.180927 0.585428 0.780483
O O14 0.140439 0.761817 0.914437
O O15 0.906776 0.746853 0.041073
O O16 0.377544 0.201000 0.184817
#
# Coordination Sequence:
#
# PCOD9140399 Si02
#       8
#     4   4   4   4   4   4   4   4
#     4  11  24  44  72 103 145 197 239 303 380 440
#     4  11  24  47  72 111 142 196 245 308 371 436
#     4  11  24  47  75 107 151 191 247 308 369 443
#     4  11  26  45  72 104 145 188 253 308 363 446
#     4   9  22  43  62  98 138 185 235 292 353 442
#     4   9  22  43  65  99 145 183 243 289 362 433
#     4   9  24  44  68 110 146 193 242 301 365 454
#     4  11  24  47  72 104 146 193 246 305 371 430
#
# _framework density 25.411292
#
# number of rings (size 3 to 8) (size 9 to 14) (size 15 to 20)
#    0.750    1.000    2.500    0.000    3.500    6.000 
#    4.500    0.000    0.000    0.000    0.000    0.000 
#    0.000    0.000    0.000    0.000    0.000    0.000 
#
# Total GULP energy -89272.241865 kJ/mol
# GULP energy per Si atom -5579.515117 kJ/mol
# Density = 2.535345 g / cm^3
# Si number density = 25.411292 Si / 1000 Ang^3
#
#
#
# Elastic Constant Matrix: (Units=GPa)
#
#
# Indices 1 2 3 4 5 6 
#
# 1 61.3322 53.8074 57.0570 -0.0005 3.5993 0.0009
# 2 53.8074 189.6149 80.9519 -0.0016 5.9456 0.0031
# 3 57.0570 80.9519 201.1549 -0.0001 -11.7051 0.0005
# 4 -0.0005 -0.0016 -0.0001 65.7326 0.0002 -9.9600
# 5 3.5993 5.9456 -11.7051 0.0002 32.7832 -0.0004
# 6 0.0009 0.0031 0.0005 -9.9600 -0.0004 25.5369
#
#
#
# Elastic Compliance Matrix: (Units=1/GPa)
#
#
# Indices 1 2 3 4 5 6 
#
# 1 0.026078 -0.004850 -0.005678 0.000000 -0.004011 0.000000
# 2 -0.004850 0.007417 -0.001691 0.000000 -0.001417 -0.000001
# 3 -0.005678 -0.001691 0.007472 0.000000 0.003598 0.000000
# 4 0.000000 0.000000 0.000000 0.016169 0.000000 0.006306
# 5 -0.004011 -0.001417 0.003598 0.000000 0.032485 0.000001
# 6 0.000000 -0.000001 0.000000 0.006306 0.000001 0.041619
#
#
# Mechanical properties :
#
#
# Convention : Reuss Voigt Hill
#
# Bulk Modulus (GPa) = 60.50887 92.85941 76.68414
# Shear Modulus (GPa) = 31.01972 42.16291 36.59132
#
# Velocity S-wave (km/s) = 3.49765 4.07777 3.79880
# Velocity P-wave (km/s) = 6.33837 7.66765 7.03448
#
# Compressibility (1/GPa) = 0.01652650
#
# Stress axis : x y z
#
# Youngs Moduli (GPa) = 38.34705 134.83061 133.83237
#
# Poissons Ratio (x) = 0.65394 0.75995
# Poissons Ratio (y) = 0.18599 0.22637
# Poissons Ratio (z) = 0.21775 0.22806
#
# Static dielectric constant tensor:
#      x y z
#    x 2.133940 0.000000 -0.083520 
#    y 0.000000 1.978950 0.000000 
#    z -0.083520 0.000000 2.269490 
# 
# From -- ./inp_files/34472.got.cif
#   From: 2010.05.17/outbox.cif.g08.bks.cpg/sg9_18_cif.got.tgz:34472.got - 2010.06.03 20:04:27.
