data_PCOD9140967
_publ_section_title
;
Structure prediction by ZEFSAII (Michael W. Deem and Ramdas Pophale) SiO2 
 PCOD9140967
Probable space group: C C
;
_chemical_formula_sum "Si O2"
_cell_formula_units_Z 24
_cell_length_a 14.092160
_cell_length_b 15.079508
_cell_length_c 4.943768
_cell_angle_alpha 90.000000
_cell_angle_beta 122.176053
_cell_angle_gamma 90.000000
_cell_volume 889.214603
_symmetry_space_group_name_H-M "C C"
_symmetry_group_IT_number 9
_symmetry_cell_setting 'monoclinic'
loop_
_space_group_symop_operation_xyz
x,y,z
x,-y,1/2+z
1/2+x,1/2+y,z
1/2+x,1/2-y,1/2+z
loop_
_atom_site_type_symbol
_atom_site_label
_atom_site_fract_x
_atom_site_fract_y
_atom_site_fract_z
Si Si1 0.856990 0.559366 0.877660
Si Si2 0.217211 0.565228 0.926440
Si Si3 0.008474 0.063995 0.932723
Si Si4 0.667985 0.658772 0.776627
Si Si5 0.296151 0.677917 0.465446
Si Si6 0.558451 0.830795 0.485670
O O1 0.875922 0.478629 0.702724
O O2 0.726621 0.587604 0.673577
O O3 0.942722 0.636248 0.922583
O O4 0.238782 0.495086 0.203324
O O5 0.291206 0.650327 0.137388
O O6 0.093946 0.607341 0.787449
O O7 0.903182 0.130295 0.741497
O O8 0.111179 0.118405 0.954125
O O9 0.001564 0.979474 0.717477
O O10 0.778020 0.719631 0.005911
O O11 0.579694 0.725283 0.494282
O O12 0.166738 0.649794 0.347026
#
# Coordination Sequence:
#
# PCOD9140967 Si02
#       6
#     4   4   4   4   4   4
#     4  12  24  43  67  95 127 168 214 262 314 377
#     4   9  16  30  50  83 114 146 190 247 296 346
#     4  12  24  43  67  95 127 168 214 262 314 377
#     4   9  22  44  64  93 132 170 208 259 322 380
#     4   8  21  38  67  87 132 158 218 249 325 362
#     4   8  21  38  67  87 132 158 218 249 325 362
#
# _framework density 26.990110999999999
#
# number of rings (size 3 to 8) (size 9 to 14) (size 15 to 20)
#    2.000    0.000    0.000    4.000    0.000    0.000 
#    0.000   23.333    0.000    0.000    0.000    0.000 
#    0.000    0.000    0.000    0.000    0.000    0.000 
#
# Total GULP energy -66895.593244 kJ/mol
# GULP energy per Si atom -5574.632770 kJ/mol
# Density = 2.692868 g / cm^3
# Si number density = 26.990111 Si / 1000 Ang^3
#
#
#
# Elastic Constant Matrix: (Units=GPa)
#
#
# Indices 1 2 3 4 5 6 
#
# 1 170.4874 38.4528 34.2216 0.0000 1.4333 0.0000
# 2 38.4528 83.0348 10.2235 0.0000 7.9740 0.0000
# 3 34.2216 10.2235 52.8176 0.0000 -6.5989 0.0000
# 4 0.0000 0.0000 0.0000 17.3140 0.0000 2.2113
# 5 1.4333 7.9740 -6.5989 0.0000 34.6352 0.0000
# 6 0.0000 0.0000 0.0000 2.2113 0.0000 58.1581
#
#
#
# Elastic Compliance Matrix: (Units=1/GPa)
#
#
# Indices 1 2 3 4 5 6 
#
# 1 0.007370 -0.002841 -0.004284 0.000000 -0.000467 0.000000
# 2 -0.002841 0.013830 -0.001249 0.000000 -0.003304 0.000000
# 3 -0.004284 -0.001249 0.022545 0.000000 0.004760 0.000000
# 4 0.000000 0.000000 0.000000 0.058038 0.000000 -0.002207
# 5 -0.000467 -0.003304 0.004760 0.000000 0.030559 0.000000
# 6 0.000000 0.000000 0.000000 -0.002207 0.000000 0.017278
#
#
# Mechanical properties :
#
#
# Convention : Reuss Voigt Hill
#
# Bulk Modulus (GPa) = 37.04027 52.45953 44.74990
# Shear Modulus (GPa) = 28.51150 36.91759 32.71455
#
# Velocity S-wave (km/s) = 3.25371 3.70242 3.48529
# Velocity P-wave (km/s) = 5.27910 6.14459 5.72821
#
# Compressibility (1/GPa) = 0.02699764
#
# Stress axis : x y z
#
# Youngs Moduli (GPa) = 135.68455 72.30763 44.35553
#
# Poissons Ratio (x) = 0.20541 0.19001
# Poissons Ratio (y) = 0.38544 0.05541
# Poissons Ratio (z) = 0.58123 0.09033
#
# Static dielectric constant tensor:
#      x y z
#    x 2.130990 0.000000 -0.032660 
#    y 0.000000 2.268660 0.000000 
#    z -0.032660 0.000000 2.252940 
# 
# From -- ./inp_files/2471.got.cif
#   From: 2010.05.17/outbox.cif.g08.bks.cpg/sg9_2_cif.got.tgz:2471.got - 2010.06.03 20:04:27.
