data_PCOD9140535
_publ_section_title
;
Structure prediction by ZEFSAII (Michael W. Deem and Ramdas Pophale) SiO2 
 PCOD9140535
Probable space group: C C
;
_chemical_formula_sum "Si O2"
_cell_formula_units_Z 32
_cell_length_a 20.931509
_cell_length_b 11.044940
_cell_length_c 9.886280
_cell_angle_alpha 90.000000
_cell_angle_beta 31.309950
_cell_angle_gamma 90.000000
_cell_volume 1187.742657
_symmetry_space_group_name_H-M "C C"
_symmetry_group_IT_number 9
_symmetry_cell_setting 'monoclinic'
loop_
_space_group_symop_operation_xyz
x,y,z
x,-y,1/2+z
1/2+x,1/2+y,z
1/2+x,1/2-y,1/2+z
loop_
_atom_site_type_symbol
_atom_site_label
_atom_site_fract_x
_atom_site_fract_y
_atom_site_fract_z
Si Si1 0.250000 0.950550 0.606960
Si Si2 0.535298 0.348563 0.819988
Si Si3 0.667324 0.046943 0.839909
Si Si4 0.021448 0.466395 0.867895
Si Si5 0.349896 0.159783 0.291571
Si Si6 0.123146 0.802656 0.027933
Si Si7 0.887143 0.096298 0.071503
Si Si8 0.951214 0.740740 0.693925
O O1 0.168059 0.894503 0.631019
O O2 0.154566 0.929064 0.899446
O O3 0.358200 0.854481 0.426817
O O4 0.304810 0.085844 0.505625
O O5 0.528415 0.292875 0.680665
O O6 0.457570 0.256665 0.061462
O O7 0.456301 0.470080 0.965671
O O8 0.676438 0.190899 0.844613
O O9 0.631597 0.029608 0.750432
O O10 0.767502 0.948762 0.706621
O O11 0.556573 0.031121 0.148845
O O12 0.016056 0.341565 0.961778
O O13 0.900063 0.541438 0.120305
O O14 0.218592 0.205782 0.478564
O O15 0.978696 0.815514 0.320747
O O16 0.882583 0.156883 0.228682
#
# Coordination Sequence:
#
# PCOD9140535 Si02
#       8
#     4   4   4   4   4   4   4   4
#     4  11  26  46  79 106 152 204 259 326 396 473
#     4  12  25  45  77 107 153 208 248 324 398 468
#     4  12  27  50  78 114 161 209 263 331 400 483
#     4  11  27  49  79 111 155 206 267 327 403 478
#     4  11  24  47  74 111 146 202 255 321 391 464
#     4  12  25  52  70 117 158 200 269 330 393 488
#     4  12  28  45  75 111 156 202 256 320 396 472
#     4  11  26  50  72 113 155 197 263 327 399 480
#
# _framework density 26.941862
#
# number of rings (size 3 to 8) (size 9 to 14) (size 15 to 20)
#    0.000    0.500    5.000    1.500   10.500    0.000 
#    2.250    0.000    0.000    0.000    0.000    0.000 
#    0.000    0.000    0.000    0.000    0.000    0.000 
#
# Total GULP energy -89322.883867 kJ/mol
# GULP energy per Si atom -5582.680242 kJ/mol
# Density = 2.688054 g / cm^3
# Si number density = 26.941862 Si / 1000 Ang^3
#
#
#
# Elastic Constant Matrix: (Units=GPa)
#
#
# Indices 1 2 3 4 5 6 
#
# 1 103.2905 21.1115 16.2125 0.0000 -24.1070 0.0000
# 2 21.1115 124.0823 27.7525 0.0000 -4.7894 0.0000
# 3 16.2125 27.7525 89.9805 0.0000 -8.1152 0.0000
# 4 0.0000 0.0000 0.0000 58.0551 0.0000 4.2406
# 5 -24.1070 -4.7894 -8.1152 0.0000 41.9763 0.0000
# 6 0.0000 0.0000 0.0000 4.2406 0.0000 50.3504
#
#
#
# Elastic Compliance Matrix: (Units=1/GPa)
#
#
# Indices 1 2 3 4 5 6 
#
# 1 0.011625 -0.001497 -0.001065 0.000000 0.006299 0.000000
# 2 -0.001497 0.008858 -0.002492 0.000000 -0.000331 0.000000
# 3 -0.001065 -0.002492 0.012206 0.000000 0.001464 0.000000
# 4 0.000000 0.000000 0.000000 0.017332 0.000000 -0.001460
# 5 0.006299 -0.000331 0.001464 0.000000 0.027686 0.000000
# 6 0.000000 0.000000 0.000000 -0.001460 0.000000 0.019984
#
#
# Mechanical properties :
#
#
# Convention : Reuss Voigt Hill
#
# Bulk Modulus (GPa) = 44.28338 49.72294 47.00316
# Shear Modulus (GPa) = 43.35558 46.89479 45.12519
#
# Velocity S-wave (km/s) = 4.01587 4.17657 4.09701
# Velocity P-wave (km/s) = 6.16241 6.46173 6.31384
#
# Compressibility (1/GPa) = 0.02258184
#
# Stress axis : x y z
#
# Youngs Moduli (GPa) = 86.02397 112.88616 81.92616
#
# Poissons Ratio (x) = 0.16894 0.08724
# Poissons Ratio (y) = 0.12874 0.20419
# Poissons Ratio (z) = 0.09160 0.28135
#
# Static dielectric constant tensor:
#      x y z
#    x 2.226370 0.000000 0.021310 
#    y 0.000000 2.224240 0.000000 
#    z 0.021310 0.000000 2.182580 
# 
# From -- ./inp_files/20951.got.cif
#   From: 2010.05.17/outbox.cif.g08.bks.cpg/sg9_11_cif.got.tgz:20951.got - 2010.06.03 20:04:27.
