data_PCOD9140984
_publ_section_title
;
Structure prediction by ZEFSAII (Michael W. Deem and Ramdas Pophale) SiO2 
 PCOD9140984
Probable space group: C C
;
_chemical_formula_sum "Si O2"
_cell_formula_units_Z 20
_cell_length_a 11.553300
_cell_length_b 12.947261
_cell_length_c 11.555413
_cell_angle_alpha 90.000000
_cell_angle_beta 151.442798
_cell_angle_gamma 90.000000
_cell_volume 826.285134
_symmetry_space_group_name_H-M "C C"
_symmetry_group_IT_number 9
_symmetry_cell_setting 'monoclinic'
loop_
_space_group_symop_operation_xyz
x,y,z
x,-y,1/2+z
1/2+x,1/2+y,z
1/2+x,1/2-y,1/2+z
loop_
_atom_site_type_symbol
_atom_site_label
_atom_site_fract_x
_atom_site_fract_y
_atom_site_fract_z
Si Si1 0.802840 0.694118 0.289340
Si Si2 0.052727 0.011491 0.186072
Si Si3 0.824970 0.349163 0.541488
Si Si4 0.802475 0.194103 0.082699
Si Si5 0.780539 0.150849 0.330725
O O1 0.757170 0.587660 0.316419
O O2 0.865459 0.679830 0.208791
O O3 0.036026 0.751550 0.547952
O O4 0.848277 0.087661 0.055721
O O5 0.111941 0.931204 0.340908
O O6 0.993598 0.931184 0.031315
O O7 0.802784 0.250017 0.436114
O O8 0.052812 0.406533 0.686202
O O9 0.069251 0.248480 0.324065
O O10 0.739874 0.179789 0.163262
#
# Coordination Sequence:
#
# PCOD9140984 Si02
#       5
#     4   4   4   4   4
#     4  12  27  49  73 103 146 187 233 292 352 419
#     4  12  28  44  72 108 138 188 236 294 352 416
#     4  12  24  46  72 101 143 188 237 288 349 421
#     4  12  27  49  73 103 146 187 233 292 352 419
#     4  12  24  46  72 101 143 188 237 288 349 421
#
# _framework density 24.204720999999999
#
# number of rings (size 3 to 8) (size 9 to 14) (size 15 to 20)
#    0.000    0.000    6.000    2.400    5.600    1.600 
#    0.000    0.000    0.000    0.000    0.000    0.000 
#    0.000    0.000    0.000    0.000    0.000    0.000 
#
# Total GULP energy -55859.342909 kJ/mol
# GULP energy per Si atom -5585.934291 kJ/mol
# Density = 2.414963 g / cm^3
# Si number density = 24.204721 Si / 1000 Ang^3
#
#
#
# Elastic Constant Matrix: (Units=GPa)
#
#
# Indices 1 2 3 4 5 6 
#
# 1 112.1365 58.1197 51.6364 0.0003 -33.8255 0.0000
# 2 58.1197 130.0355 55.5196 -0.0002 -3.0150 0.0000
# 3 51.6364 55.5196 128.7914 0.0002 -3.4192 0.0001
# 4 0.0003 -0.0002 0.0002 43.8425 0.0004 -6.5108
# 5 -33.8255 -3.0150 -3.4192 0.0004 55.6132 0.0001
# 6 0.0000 0.0000 0.0001 -6.5108 0.0001 19.8252
#
#
#
# Elastic Compliance Matrix: (Units=1/GPa)
#
#
# Indices 1 2 3 4 5 6 
#
# 1 0.016410 -0.005409 -0.003997 0.000000 0.009442 0.000000
# 2 -0.005409 0.011212 -0.002740 0.000000 -0.002851 0.000000
# 3 -0.003997 -0.002740 0.010497 0.000000 -0.001934 0.000000
# 4 0.000000 0.000000 0.000000 0.023978 0.000000 0.007875
# 5 0.009442 -0.002851 -0.001934 0.000000 0.023451 0.000000
# 6 0.000000 0.000000 0.000000 0.007875 0.000000 0.053027
#
#
# Mechanical properties :
#
#
# Convention : Reuss Voigt Hill
#
# Bulk Modulus (GPa) = 72.32611 77.94608 75.13609
# Shear Modulus (GPa) = 29.85525 37.56868 33.71196
#
# Velocity S-wave (km/s) = 3.51586 3.94397 3.73605
# Velocity P-wave (km/s) = 6.81378 7.28098 7.05125
#
# Compressibility (1/GPa) = 0.01382627
#
# Stress axis : x y z
#
# Youngs Moduli (GPa) = 60.93970 89.19324 95.26704
#
# Poissons Ratio (x) = 0.48244 0.38076
# Poissons Ratio (y) = 0.32962 0.26105
# Poissons Ratio (z) = 0.24356 0.24441
#
# Static dielectric constant tensor:
#      x y z
#    x 1.947740 0.000000 0.089600 
#    y 0.000000 1.864090 0.000000 
#    z 0.089600 0.000000 2.266310 
# 
# From -- ./inp_files/1473.got.cif
#   From: 2010.05.17/outbox.cif.g08.bks.cpg/sg9_1_cif.got.tgz:1473.got - 2010.06.03 20:04:27.
