data_PCOD9140200
_publ_section_title
;
Structure prediction by ZEFSAII (Michael W. Deem and Ramdas Pophale) SiO2 
 PCOD9140200
Probable space group: C C
;
_chemical_formula_sum "Si O2"
_cell_formula_units_Z 32
_cell_length_a 5.708230
_cell_length_b 28.241746
_cell_length_c 8.825402
_cell_angle_alpha 90.000000
_cell_angle_beta 64.838729
_cell_angle_gamma 90.000000
_cell_volume 1287.748634
_symmetry_space_group_name_H-M "C C"
_symmetry_group_IT_number 9
_symmetry_cell_setting 'monoclinic'
loop_
_space_group_symop_operation_xyz
x,y,z
x,-y,1/2+z
1/2+x,1/2+y,z
1/2+x,1/2-y,1/2+z
loop_
_atom_site_type_symbol
_atom_site_label
_atom_site_fract_x
_atom_site_fract_y
_atom_site_fract_z
Si Si1 0.420640 0.418380 0.299700
Si Si2 0.086863 0.691499 0.586533
Si Si3 0.439430 0.827368 0.796391
Si Si4 0.874756 0.715799 0.985928
Si Si5 0.367653 0.948132 0.526868
Si Si6 0.470199 0.362978 0.576582
Si Si7 0.667138 0.514601 0.352770
Si Si8 0.456360 0.390939 0.969345
O O1 0.423061 0.375227 0.415230
O O2 0.557196 0.465407 0.321173
O O3 0.120741 0.432632 0.368720
O O4 0.549543 0.400554 0.113814
O O5 0.929943 0.696658 0.467949
O O6 0.321208 0.728609 0.500363
O O7 0.194047 0.638198 0.556396
O O8 0.990360 0.701931 0.786855
O O9 0.483769 0.797987 0.625267
O O10 0.693554 0.860900 0.732473
O O11 0.179692 0.857438 0.841731
O O12 0.604979 0.687254 0.058377
O O13 0.400511 0.961851 0.693243
O O14 0.161820 0.905700 0.569839
O O15 0.262084 0.996872 0.487536
O O16 0.451397 0.555698 0.407841
#
# Coordination Sequence:
#
# PCOD9140200 Si02
#       8
#     4   4   4   4   4   4   4   4
#     4  11  25  43  71 104 144 195 240 320 373 446
#     4  12  28  47  78 111 153 197 253 308 379 456
#     4  12  26  47  78 106 150 200 239 315 369 443
#     4  12  27  50  75 117 152 196 254 311 372 458
#     4  11  24  42  66  99 137 190 239 301 368 441
#     4  11  23  45  71 103 146 187 246 300 379 437
#     4  11  24  42  62 102 140 186 247 299 374 447
#     4  12  25  46  71 110 146 197 252 306 382 454
#
# _framework density 24.849571000000001
#
# number of rings (size 3 to 8) (size 9 to 14) (size 15 to 20)
#    0.000    0.500    1.250    7.500    1.750    8.000 
#    0.000    0.000    0.000    0.000    0.000    0.000 
#    0.000    0.000    0.000    0.000    0.000    0.000 
#
# Total GULP energy -89282.933795 kJ/mol
# GULP energy per Si atom -5580.183362 kJ/mol
# Density = 2.479301 g / cm^3
# Si number density = 24.849571 Si / 1000 Ang^3
#
#
#
# Elastic Constant Matrix: (Units=GPa)
#
#
# Indices 1 2 3 4 5 6 
#
# 1 40.2879 7.9932 11.6852 0.0000 5.1808 0.0000
# 2 7.9932 89.9466 19.3954 0.0000 13.6113 0.0000
# 3 11.6852 19.3954 131.7273 0.0000 28.5155 0.0000
# 4 0.0000 0.0000 0.0000 30.0135 0.0000 -14.4907
# 5 5.1808 13.6113 28.5155 0.0000 37.7334 0.0000
# 6 0.0000 0.0000 0.0000 -14.4907 0.0000 11.5743
#
#
#
# Elastic Compliance Matrix: (Units=1/GPa)
#
#
# Indices 1 2 3 4 5 6 
#
# 1 0.025858 -0.001682 -0.001685 0.000000 -0.001671 0.000000
# 2 -0.001682 0.011974 -0.000871 0.000000 -0.003430 0.000000
# 3 -0.001685 -0.000871 0.009267 0.000000 -0.006458 0.000000
# 4 0.000000 0.000000 0.000000 0.084235 0.000000 0.105459
# 5 -0.001671 -0.003430 -0.006458 0.000000 0.032848 0.000000
# 6 0.000000 0.000000 0.000000 0.105459 0.000000 0.218429
#
#
# Mechanical properties :
#
#
# Convention : Reuss Voigt Hill
#
# Bulk Modulus (GPa) = 25.89061 37.78993 31.84027
# Shear Modulus (GPa) = 12.37740 30.72345 21.55042
#
# Velocity S-wave (km/s) = 2.23422 3.52003 2.94808
# Velocity P-wave (km/s) = 4.13488 5.63572 4.94260
#
# Compressibility (1/GPa) = 0.03862404
#
# Stress axis : x y z
#
# Youngs Moduli (GPa) = 38.67212 83.51356 107.90892
#
# Poissons Ratio (x) = 0.14046 0.18178
# Poissons Ratio (y) = 0.06504 0.09403
# Poissons Ratio (z) = 0.06514 0.07277
#
# Static dielectric constant tensor:
#      x y z
#    x 2.006310 0.000000 0.071120 
#    y 0.000000 1.908470 0.000000 
#    z 0.071120 0.000000 2.059650 
# 
# From -- ./inp_files/4355.got.cif
#   From: 2010.05.17/outbox.cif.g08.bks.cpg/sg9_3_cif.got.tgz:4355.got - 2010.06.03 20:04:27.
