data_PCOD9140177
_publ_section_title
;
Structure prediction by ZEFSAII (Michael W. Deem and Ramdas Pophale) SiO2 
 PCOD9140177
Probable space group: C C
;
_chemical_formula_sum "Si O2"
_cell_formula_units_Z 32
_cell_length_a 14.766034
_cell_length_b 11.999388
_cell_length_c 8.900031
_cell_angle_alpha 90.000000
_cell_angle_beta 61.030062
_cell_angle_gamma 90.000000
_cell_volume 1379.621547
_symmetry_space_group_name_H-M "C C"
_symmetry_group_IT_number 9
_symmetry_cell_setting 'monoclinic'
loop_
_space_group_symop_operation_xyz
x,y,z
x,-y,1/2+z
1/2+x,1/2+y,z
1/2+x,1/2-y,1/2+z
loop_
_atom_site_type_symbol
_atom_site_label
_atom_site_fract_x
_atom_site_fract_y
_atom_site_fract_z
Si Si1 0.637930 0.109503 0.092560
Si Si2 0.658062 0.767313 0.113207
Si Si3 0.829600 0.646985 0.515251
Si Si4 0.420448 0.375683 0.554484
Si Si5 0.168722 0.161509 0.424150
Si Si6 0.041975 0.571754 0.484784
Si Si7 0.650663 0.588586 0.881482
Si Si8 0.323094 0.550906 0.435232
O O1 0.623717 0.085453 0.281515
O O2 0.742720 0.047580 0.951885
O O3 0.634127 0.240463 0.065046
O O4 0.552794 0.045469 0.060927
O O5 0.637139 0.712500 0.289484
O O6 0.749648 0.855049 0.061089
O O7 0.570053 0.837912 0.093330
O O8 0.693826 0.667395 0.977283
O O9 0.852118 0.774370 0.546283
O O10 0.790352 0.647058 0.374492
O O11 0.734143 0.592172 0.682515
O O12 0.933315 0.587137 0.488260
O O13 0.540869 0.357251 0.428306
O O14 0.394490 0.491187 0.496090
O O15 0.390114 0.394557 0.750708
O O16 0.128001 0.035608 0.458481
#
# Coordination Sequence:
#
# PCOD9140177 Si02
#       8
#     4   4   4   4   4   4   4   4
#     4  11  23  47  77 111 144 195 254 312 368 454
#     4  11  23  48  73 108 148 194 248 317 377 445
#     4  12  27  50  72 106 153 200 248 312 385 457
#     4  12  26  45  77 106 143 195 246 307 380 446
#     4  12  27  46  74 108 154 191 246 318 378 453
#     4  11  25  46  82 108 148 198 256 312 382 447
#     4  12  28  50  71 105 154 198 246 311 387 454
#     4  11  23  44  76 110 140 187 250 307 365 448
#
# _framework density 23.194766999999999
#
# number of rings (size 3 to 8) (size 9 to 14) (size 15 to 20)
#    0.000    0.500    3.750    5.250    5.250    0.000 
#    0.000    0.000    0.000    0.000    0.000    0.000 
#    0.000    0.000    0.000    0.000    0.000    0.000 
#
# Total GULP energy -89426.592218 kJ/mol
# GULP energy per Si atom -5589.162014 kJ/mol
# Density = 2.314197 g / cm^3
# Si number density = 23.194767 Si / 1000 Ang^3
#
#
#
# Elastic Constant Matrix: (Units=GPa)
#
#
# Indices 1 2 3 4 5 6 
#
# 1 94.1642 15.2068 15.6017 0.0000 3.2613 0.0000
# 2 15.2068 114.2840 -2.1972 0.0000 8.6471 0.0000
# 3 15.6017 -2.1972 43.4320 0.0000 2.3832 0.0000
# 4 0.0000 0.0000 0.0000 14.1953 0.0000 13.4009
# 5 3.2613 8.6471 2.3832 0.0000 35.3178 0.0000
# 6 0.0000 0.0000 0.0000 13.4009 0.0000 48.3077
#
#
#
# Elastic Compliance Matrix: (Units=1/GPa)
#
#
# Indices 1 2 3 4 5 6 
#
# 1 0.011590 -0.001594 -0.004222 0.000000 -0.000395 0.000000
# 2 -0.001594 0.009149 0.001154 0.000000 -0.002171 0.000000
# 3 -0.004222 0.001154 0.024685 0.000000 -0.001558 0.000000
# 4 0.000000 0.000000 0.000000 0.095440 0.000000 -0.026476
# 5 -0.000395 -0.002171 -0.001558 0.000000 0.028987 0.000000
# 6 0.000000 0.000000 0.000000 -0.026476 0.000000 0.028045
#
#
# Mechanical properties :
#
#
# Convention : Reuss Voigt Hill
#
# Bulk Modulus (GPa) = 27.70008 34.34476 31.02242
# Shear Modulus (GPa) = 22.80464 34.44875 28.62669
#
# Velocity S-wave (km/s) = 3.13897 3.85800 3.51691
# Velocity P-wave (km/s) = 5.01057 5.88938 5.46766
#
# Compressibility (1/GPa) = 0.03610097
#
# Stress axis : x y z
#
# Youngs Moduli (GPa) = 86.27852 109.30640 40.51014
#
# Poissons Ratio (x) = 0.17418 0.17105
# Poissons Ratio (y) = 0.13749 -0.04676
# Poissons Ratio (z) = 0.36430 -0.12618
#
# Static dielectric constant tensor:
#      x y z
#    x 1.918730 0.000000 0.006940 
#    y 0.000000 1.877380 0.000000 
#    z 0.006940 0.000000 1.875110 
# 
# From -- ./inp_files/9247.got.cif
#   From: 2010.05.17/outbox.cif.g08.bks.cpg/sg9_5_cif.got.tgz:9247.got - 2010.06.03 20:04:27.
