data_PCOD9140593
_publ_section_title
;
Structure prediction by ZEFSAII (Michael W. Deem and Ramdas Pophale) SiO2 
 PCOD9140593
Probable space group: C C
;
_chemical_formula_sum "Si O2"
_cell_formula_units_Z 32
_cell_length_a 7.895114
_cell_length_b 13.052456
_cell_length_c 14.024027
_cell_angle_alpha 90.000000
_cell_angle_beta 115.716650
_cell_angle_gamma 90.000000
_cell_volume 1302.040629
_symmetry_space_group_name_H-M "C C"
_symmetry_group_IT_number 9
_symmetry_cell_setting 'monoclinic'
loop_
_space_group_symop_operation_xyz
x,y,z
x,-y,1/2+z
1/2+x,1/2+y,z
1/2+x,1/2-y,1/2+z
loop_
_atom_site_type_symbol
_atom_site_label
_atom_site_fract_x
_atom_site_fract_y
_atom_site_fract_z
Si Si1 0.584970 0.235652 0.810900
Si Si2 0.944448 0.171911 0.105941
Si Si3 0.308844 0.553454 0.536591
Si Si4 0.888083 0.832677 0.238113
Si Si5 0.649093 0.349099 0.012192
Si Si6 0.732609 0.452764 0.410690
Si Si7 0.999475 0.502976 0.311453
Si Si8 0.856960 0.646933 0.117462
O O1 0.490187 0.326852 0.728226
O O2 0.780429 0.222741 0.799479
O O3 0.562356 0.275243 0.911427
O O4 0.528477 0.116985 0.798469
O O5 0.137519 0.169200 0.092116
O O6 0.837177 0.068833 0.053057
O O7 0.833958 0.280110 0.076174
O O8 0.265448 0.599862 0.631642
O O9 0.499961 0.612637 0.553753
O O10 0.165317 0.559365 0.412054
O O11 0.966293 0.742390 0.189869
O O12 0.045785 0.900222 0.326124
O O13 0.698951 0.455762 0.975208
O O14 0.831358 0.502741 0.345086
O O15 0.856777 0.374044 0.505023
O O16 0.938705 0.554122 0.198492
#
# Coordination Sequence:
#
# PCOD9140593 Si02
#       8
#     4   4   4   4   4   4   4   4
#     4  11  25  47  74 113 151 212 264 330 410 480
#     4  11  24  49  77 109 154 205 275 328 408 476
#     4  12  27  49  75 122 162 207 270 341 411 498
#     4  11  27  47  78 110 162 210 264 336 409 494
#     4  12  25  49  81 107 157 213 266 340 408 483
#     4  12  26  47  79 110 157 213 267 337 412 483
#     4  12  28  47  75 120 162 206 274 329 414 495
#     4  11  26  47  77 111 157 214 266 339 404 489
#
# _framework density 24.576806000000001
#
# number of rings (size 3 to 8) (size 9 to 14) (size 15 to 20)
#    0.000    0.500    2.500    5.250   10.500    0.000 
#    0.000    0.000    0.000    0.000    0.000    0.000 
#    0.000    0.000    0.000    0.000    0.000    0.000 
#
# Total GULP energy -89338.862669 kJ/mol
# GULP energy per Si atom -5583.678917 kJ/mol
# Density = 2.452087 g / cm^3
# Si number density = 24.576806 Si / 1000 Ang^3
#
#
#
# Elastic Constant Matrix: (Units=GPa)
#
#
# Indices 1 2 3 4 5 6 
#
# 1 31.9707 23.4581 9.8451 0.0000 -3.9410 0.0000
# 2 23.4581 124.2401 42.7478 0.0000 3.7664 0.0000
# 3 9.8451 42.7478 112.6045 0.0000 4.9615 0.0000
# 4 0.0000 0.0000 0.0000 111.2870 0.0000 89.7291
# 5 -3.9410 3.7664 4.9615 0.0000 24.8419 0.0000
# 6 0.0000 0.0000 0.0000 89.7291 0.0000 159.0735
#
#
#
# Elastic Compliance Matrix: (Units=1/GPa)
#
#
# Indices 1 2 3 4 5 6 
#
# 1 0.037588 -0.006989 -0.000951 0.000000 0.007213 0.000000
# 2 -0.006989 0.010570 -0.003311 0.000000 -0.002050 0.000000
# 3 -0.000951 -0.003311 0.010296 0.000000 -0.001705 0.000000
# 4 0.000000 0.000000 0.000000 0.016482 0.000000 -0.009297
# 5 0.007213 -0.002050 -0.001705 0.000000 0.042050 0.000000
# 6 0.000000 0.000000 0.000000 -0.009297 0.000000 0.011531
#
#
# Mechanical properties :
#
#
# Convention : Reuss Voigt Hill
#
# Bulk Modulus (GPa) = 27.81458 46.76859 37.29158
# Shear Modulus (GPa) = 30.67428 71.89144 51.28286
#
# Velocity S-wave (km/s) = 3.53668 5.41436 4.57293
# Velocity P-wave (km/s) = 5.29334 7.62613 6.56419
#
# Compressibility (1/GPa) = 0.03595237
#
# Stress axis : x y z
#
# Youngs Moduli (GPa) = 26.60391 94.60794 97.12522
#
# Poissons Ratio (x) = 0.66118 0.09238
# Poissons Ratio (y) = 0.18592 0.32161
# Poissons Ratio (z) = 0.02530 0.31328
#
# Static dielectric constant tensor:
#      x y z
#    x 2.208370 0.000000 -0.026670 
#    y 0.000000 1.949700 0.000000 
#    z -0.026670 0.000000 2.191740 
# 
# From -- ./inp_files/22951.got.cif
#   From: 2010.05.17/outbox.cif.g08.bks.cpg/sg9_12_cif.got.tgz:22951.got - 2010.06.03 20:04:27.
