data_PCOD9140451
_publ_section_title
;
Structure prediction by ZEFSAII (Michael W. Deem and Ramdas Pophale) SiO2 
 PCOD9140451
Probable space group: C C
;
_chemical_formula_sum "Si O2"
_cell_formula_units_Z 32
_cell_length_a 13.652170
_cell_length_b 15.247729
_cell_length_c 9.037231
_cell_angle_alpha 90.000000
_cell_angle_beta 41.287621
_cell_angle_gamma 90.000000
_cell_volume 1241.310530
_symmetry_space_group_name_H-M "C C"
_symmetry_group_IT_number 9
_symmetry_cell_setting 'monoclinic'
loop_
_space_group_symop_operation_xyz
x,y,z
x,-y,1/2+z
1/2+x,1/2+y,z
1/2+x,1/2-y,1/2+z
loop_
_atom_site_type_symbol
_atom_site_label
_atom_site_fract_x
_atom_site_fract_y
_atom_site_fract_z
Si Si1 0.353140 0.334604 0.398410
Si Si2 0.382484 0.932929 0.597797
Si Si3 0.357098 0.215864 0.675688
Si Si4 0.627518 0.427884 0.388197
Si Si5 0.158570 0.776540 0.912340
Si Si6 0.927803 0.983824 0.878311
Si Si7 0.754997 0.833510 0.047478
Si Si8 0.530108 0.936779 0.112411
O O1 0.384924 0.286099 0.517486
O O2 0.217315 0.287305 0.472966
O O3 0.319909 0.436371 0.462966
O O4 0.506253 0.322499 0.131927
O O5 0.296378 0.843812 0.733067
O O6 0.424123 0.937887 0.378106
O O7 0.259967 0.005948 0.773407
O O8 0.518671 0.969397 0.543430
O O9 0.202722 0.166842 0.808763
O O10 0.477548 0.139071 0.558013
O O11 0.341798 0.262602 0.851531
O O12 0.502940 0.440012 0.651678
O O13 0.556043 0.466089 0.321523
O O14 0.143786 0.720432 0.778243
O O15 0.850622 0.900029 0.039742
O O16 0.678964 0.898376 0.015261
#
# Coordination Sequence:
#
# PCOD9140451 Si02
#       8
#     4   4   4   4   4   4   4   4
#     4  12  28  47  77 113 154 201 264 323 389 457
#     4  11  24  47  76 108 146 202 254 315 382 466
#     4  11  27  47  78 110 149 203 258 322 382 467
#     4  11  24  45  76 105 142 193 255 306 376 459
#     4  12  27  49  78 112 154 205 258 323 387 470
#     4  12  26  46  75 109 147 194 248 318 383 453
#     4  12  29  48  76 110 158 200 249 324 400 460
#     4  11  27  47  74 111 154 200 256 319 397 468
#
# _framework density 25.779204
#
# number of rings (size 3 to 8) (size 9 to 14) (size 15 to 20)
#    0.000    0.500    2.500    4.500    8.750    4.000 
#    0.000    0.000    0.000    0.000    0.000    0.000 
#    0.000    0.000    0.000    0.000    0.000    0.000 
#
# Total GULP energy -89656.961079 kJ/mol
# GULP energy per Si atom -5603.560067 kJ/mol
# Density = 2.572053 g / cm^3
# Si number density = 25.779204 Si / 1000 Ang^3
#
#
#
# Elastic Constant Matrix: (Units=GPa)
#
#
# Indices 1 2 3 4 5 6 
#
# 1 93.0018 35.6883 1.1980 0.0000 11.4667 0.0000
# 2 35.6883 140.3954 35.3024 0.0000 2.4500 0.0000
# 3 1.1980 35.3024 89.6406 0.0000 11.0192 0.0000
# 4 0.0000 0.0000 0.0000 30.2553 0.0000 1.4835
# 5 11.4667 2.4500 11.0192 0.0000 31.5107 0.0000
# 6 0.0000 0.0000 0.0000 1.4835 0.0000 46.6044
#
#
#
# Elastic Compliance Matrix: (Units=1/GPa)
#
#
# Indices 1 2 3 4 5 6 
#
# 1 0.012735 -0.003620 0.001871 0.000000 -0.005007 0.000000
# 2 -0.003620 0.008942 -0.003709 0.000000 0.001919 0.000000
# 3 0.001871 -0.003709 0.013207 0.000000 -0.005011 0.000000
# 4 0.000000 0.000000 0.000000 0.033104 0.000000 -0.001054
# 5 -0.005007 0.001919 -0.005011 0.000000 0.035160 0.000000
# 6 0.000000 0.000000 0.000000 -0.001054 0.000000 0.021491
#
#
# Mechanical properties :
#
#
# Convention : Reuss Voigt Hill
#
# Bulk Modulus (GPa) = 41.72275 51.93501 46.82888
# Shear Modulus (GPa) = 34.83212 38.39734 36.61473
#
# Velocity S-wave (km/s) = 3.67982 3.86355 3.77280
# Velocity P-wave (km/s) = 5.85444 6.33187 6.09783
#
# Compressibility (1/GPa) = 0.02396774
#
# Stress axis : x y z
#
# Youngs Moduli (GPa) = 78.52388 111.82932 75.71512
#
# Poissons Ratio (x) = 0.40486 -0.14167
# Poissons Ratio (y) = 0.28428 0.28084
# Poissons Ratio (z) = -0.14692 0.41479
#
# Static dielectric constant tensor:
#      x y z
#    x 2.173810 0.000000 -0.035810 
#    y 0.000000 2.001130 0.000000 
#    z -0.035810 0.000000 1.964850 
# 
# From -- ./inp_files/9658.got.cif
#   From: 2010.05.17/outbox.cif.g08.bks.cpg/sg9_5_cif.got.tgz:9658.got - 2010.06.03 20:04:27.
