data_PCOD9140635
_publ_section_title
;
Structure prediction by ZEFSAII (Michael W. Deem and Ramdas Pophale) SiO2 
 PCOD9140635
Probable space group: C C
;
_chemical_formula_sum "Si O2"
_cell_formula_units_Z 28
_cell_length_a 8.701272
_cell_length_b 19.445425
_cell_length_c 12.725370
_cell_angle_alpha 90.000000
_cell_angle_beta 145.763258
_cell_angle_gamma 90.000000
_cell_volume 1211.381293
_symmetry_space_group_name_H-M "C C"
_symmetry_group_IT_number 9
_symmetry_cell_setting 'monoclinic'
loop_
_space_group_symop_operation_xyz
x,y,z
x,-y,1/2+z
1/2+x,1/2+y,z
1/2+x,1/2-y,1/2+z
loop_
_atom_site_type_symbol
_atom_site_label
_atom_site_fract_x
_atom_site_fract_y
_atom_site_fract_z
Si Si1 0.251390 0.812661 0.381730
Si Si2 0.254663 0.336001 0.970858
Si Si3 0.648652 0.427598 0.497314
Si Si4 0.304840 0.369052 0.643800
Si Si5 0.204043 0.538367 0.276091
Si Si6 0.936037 0.325743 0.008877
Si Si7 0.334881 0.663911 0.932809
O O1 0.160548 0.738592 0.374377
O O2 0.170455 0.878078 0.408567
O O3 0.579435 0.813766 0.555977
O O4 0.075400 0.826207 0.178968
O O5 0.097260 0.347120 0.993269
O O6 0.241928 0.397398 0.878246
O O7 0.397075 0.473882 0.389434
O O8 0.632063 0.368611 0.575580
O O9 0.893867 0.480269 0.624579
O O10 0.238487 0.434380 0.677189
O O11 0.238830 0.372995 0.483854
O O12 0.626467 0.354250 0.839014
O O13 0.127634 0.342357 0.217591
O O14 0.889380 0.243790 0.983320
#
# Coordination Sequence:
#
# PCOD9140635 Si02
#       7
#     4   4   4   4   4   4   4
#     4  11  25  44  75 108 154 189 252 317 377 441
#     4  12  24  46  75 111 145 201 250 315 376 442
#     4  11  25  51  70 108 146 202 248 301 380 455
#     4  11  28  44  68 112 149 190 248 308 370 436
#     4  11  29  47  77 105 155 198 250 310 375 456
#     4  12  24  43  77 108 144 195 246 307 375 441
#     4  12  25  43  76 110 149 191 248 312 371 447
#
# _framework density 23.114111000000001
#
# number of rings (size 3 to 8) (size 9 to 14) (size 15 to 20)
#    0.000    0.571    4.286    2.571    8.000    1.143 
#    0.000    2.857    0.000    0.000    0.000    0.000 
#    0.000    0.000    0.000    0.000    0.000    0.000 
#
# Total GULP energy -78140.342734 kJ/mol
# GULP energy per Si atom -5581.453052 kJ/mol
# Density = 2.306150 g / cm^3
# Si number density = 23.114111 Si / 1000 Ang^3
#
#
#
# Elastic Constant Matrix: (Units=GPa)
#
#
# Indices 1 2 3 4 5 6 
#
# 1 109.3417 23.5938 60.1435 0.0031 15.1257 0.0040
# 2 23.5938 64.0062 34.4877 -0.0004 13.7150 -0.0006
# 3 60.1435 34.4877 116.3754 0.0032 -4.3645 0.0038
# 4 0.0031 -0.0004 0.0032 19.5162 0.0028 12.9974
# 5 15.1257 13.7150 -4.3645 0.0028 48.8656 0.0038
# 6 0.0040 -0.0006 0.0038 12.9974 0.0038 26.3259
#
#
#
# Elastic Compliance Matrix: (Units=1/GPa)
#
#
# Indices 1 2 3 4 5 6 
#
# 1 0.013879 -0.000117 -0.007322 0.000000 -0.004917 0.000000
# 2 -0.000117 0.020342 -0.006202 0.000001 -0.006227 0.000002
# 3 -0.007322 -0.006202 0.014414 -0.000001 0.005295 -0.000001
# 4 0.000000 0.000001 -0.000001 0.076340 -0.000002 -0.037690
# 5 -0.004917 -0.006227 0.005295 -0.000002 0.024207 -0.000003
# 6 0.000000 0.000002 -0.000001 -0.037690 -0.000003 0.056593
#
#
# Mechanical properties :
#
#
# Convention : Reuss Voigt Hill
#
# Bulk Modulus (GPa) = 46.83183 58.46372 52.64777
# Shear Modulus (GPa) = 20.81814 30.37477 25.59646
#
# Velocity S-wave (km/s) = 3.00437 3.62902 3.33137
# Velocity P-wave (km/s) = 5.68684 6.55043 6.13385
#
# Compressibility (1/GPa) = 0.02135300
#
# Stress axis : x y z
#
# Youngs Moduli (GPa) = 72.05244 49.15830 69.37914
#
# Poissons Ratio (x) = 0.00574 0.50802
# Poissons Ratio (y) = 0.00842 0.43026
# Poissons Ratio (z) = 0.52760 0.30486
#
# Static dielectric constant tensor:
#      x y z
#    x 1.935650 0.000000 0.030960 
#    y 0.000000 1.851260 0.000000 
#    z 0.030960 0.000000 1.936020 
# 
# From -- ./inp_files/15455.got.cif
#   From: 2010.05.17/outbox.cif.g08.bks.cpg/sg9_8_cif.got.tgz:15455.got - 2010.06.03 20:04:27.
