data_PCOD9140849
_publ_section_title
;
Structure prediction by ZEFSAII (Michael W. Deem and Ramdas Pophale) SiO2 
 PCOD9140849
Probable space group: C C
;
_chemical_formula_sum "Si O2"
_cell_formula_units_Z 24
_cell_length_a 5.032368
_cell_length_b 17.634630
_cell_length_c 11.280962
_cell_angle_alpha 90.000000
_cell_angle_beta 69.624923
_cell_angle_gamma 90.000000
_cell_volume 938.480734
_symmetry_space_group_name_H-M "C C"
_symmetry_group_IT_number 9
_symmetry_cell_setting 'monoclinic'
loop_
_space_group_symop_operation_xyz
x,y,z
x,-y,1/2+z
1/2+x,1/2+y,z
1/2+x,1/2-y,1/2+z
loop_
_atom_site_type_symbol
_atom_site_label
_atom_site_fract_x
_atom_site_fract_y
_atom_site_fract_z
Si Si1 0.365910 0.113605 0.899140
Si Si2 0.461533 0.832066 0.120875
Si Si3 0.053578 0.760177 0.005743
Si Si4 0.208873 0.522268 0.470665
Si Si5 0.283566 0.601122 0.121333
Si Si6 0.143882 0.118398 0.289203
O O1 0.368998 0.131384 0.759098
O O2 0.526576 0.037546 0.921440
O O3 0.531809 0.180711 0.942425
O O4 0.038357 0.120033 0.990853
O O5 0.747369 0.786024 0.097767
O O6 0.254150 0.773906 0.086727
O O7 0.536446 0.900367 0.018164
O O8 0.949713 0.618478 0.181324
O O9 0.140554 0.819219 0.890513
O O10 0.263720 0.488637 0.593319
O O11 0.515500 0.541434 0.366923
O O12 0.410106 0.629356 0.224576
#
# Coordination Sequence:
#
# PCOD9140849 Si02
#       6
#     4   4   4   4   4   4
#     4  12  30  50  86 122 162 215 280 339 407 487
#     4  11  29  52  80 116 164 211 275 333 407 488
#     4  11  29  52  79 114 161 219 269 331 406 483
#     4  11  27  49  81 121 160 216 275 340 411 485
#     4  12  27  45  78 117 157 205 269 333 410 476
#     4  11  26  50  76 108 164 212 264 332 411 485
#
# _framework density 25.573250999999999
#
# number of rings (size 3 to 8) (size 9 to 14) (size 15 to 20)
#    0.000    0.667    1.667    3.000   16.333    0.000 
#    0.000    0.000    0.000    0.000    0.000    0.000 
#    0.000    0.000    0.000    0.000    0.000    0.000 
#
# Total GULP energy -67165.720561 kJ/mol
# GULP energy per Si atom -5597.143380 kJ/mol
# Density = 2.551504 g / cm^3
# Si number density = 25.573251 Si / 1000 Ang^3
#
#
#
# Elastic Constant Matrix: (Units=GPa)
#
#
# Indices 1 2 3 4 5 6 
#
# 1 184.8221 59.3162 58.8745 0.0000 7.4186 0.0000
# 2 59.3162 112.5820 35.8328 0.0000 0.9147 0.0000
# 3 58.8745 35.8328 146.3577 0.0000 -6.2955 0.0000
# 4 0.0000 0.0000 0.0000 16.7876 0.0000 -16.2743
# 5 7.4186 0.9147 -6.2955 0.0000 32.3572 0.0000
# 6 0.0000 0.0000 0.0000 -16.2743 0.0000 26.5047
#
#
#
# Elastic Compliance Matrix: (Units=1/GPa)
#
#
# Indices 1 2 3 4 5 6 
#
# 1 0.007181 -0.003059 -0.002226 0.000000 -0.001993 0.000000
# 2 -0.003059 0.010954 -0.001446 0.000000 0.000110 0.000000
# 3 -0.002226 -0.001446 0.008174 0.000000 0.002142 0.000000
# 4 0.000000 0.000000 0.000000 0.147169 0.000000 0.090364
# 5 -0.001993 0.000110 0.002142 0.000000 0.031775 0.000000
# 6 0.000000 0.000000 0.000000 0.090364 0.000000 0.093214
#
#
# Mechanical properties :
#
#
# Convention : Reuss Voigt Hill
#
# Bulk Modulus (GPa) = 77.84027 83.53429 80.68728
# Shear Modulus (GPa) = 15.81214 34.44581 25.12897
#
# Velocity S-wave (km/s) = 2.48928 3.67406 3.13809
# Velocity P-wave (km/s) = 6.22625 7.12277 6.68955
#
# Compressibility (1/GPa) = 0.01284682
#
# Stress axis : x y z
#
# Youngs Moduli (GPa) = 139.25015 91.29380 122.33765
#
# Poissons Ratio (x) = 0.27927 0.27227
# Poissons Ratio (y) = 0.42598 0.17696
# Poissons Ratio (z) = 0.30991 0.13205
#
# Static dielectric constant tensor:
#      x y z
#    x 1.977350 0.000000 0.036350 
#    y 0.000000 2.094050 0.000000 
#    z 0.036350 0.000000 2.030060 
# 
# From -- ./inp_files/4072.got.cif
#   From: 2010.05.17/outbox.cif.g08.bks.cpg/sg9_3_cif.got.tgz:4072.got - 2010.06.03 20:04:27.
