data_PCOD9140479
_publ_section_title
;
Structure prediction by ZEFSAII (Michael W. Deem and Ramdas Pophale) SiO2 
 PCOD9140479
Probable space group: C C
;
_chemical_formula_sum "Si O2"
_cell_formula_units_Z 32
_cell_length_a 13.091759
_cell_length_b 18.519537
_cell_length_c 8.603700
_cell_angle_alpha 90.000000
_cell_angle_beta 142.689894
_cell_angle_gamma 90.000000
_cell_volume 1264.381791
_symmetry_space_group_name_H-M "C C"
_symmetry_group_IT_number 9
_symmetry_cell_setting 'monoclinic'
loop_
_space_group_symop_operation_xyz
x,y,z
x,-y,1/2+z
1/2+x,1/2+y,z
1/2+x,1/2-y,1/2+z
loop_
_atom_site_type_symbol
_atom_site_label
_atom_site_fract_x
_atom_site_fract_y
_atom_site_fract_z
Si Si1 0.428120 0.836106 0.188590
Si Si2 0.931532 0.956186 0.153695
Si Si3 0.226337 0.335077 0.793395
Si Si4 0.815305 0.914155 0.361958
Si Si5 0.950960 0.471556 0.033853
Si Si6 0.489422 0.235286 0.236291
Si Si7 0.298264 0.909584 0.546930
Si Si8 0.165961 0.739181 0.747646
O O1 0.575390 0.824461 0.490889
O O2 0.414408 0.920579 0.138736
O O3 0.509234 0.801773 0.133348
O O4 0.251073 0.794277 0.972600
O O5 0.883572 0.934695 0.272872
O O6 0.101806 0.923215 0.290039
O O7 0.788512 0.916516 0.877310
O O8 0.930835 0.041989 0.124063
O O9 0.142823 0.310301 0.852468
O O10 0.394071 0.285431 0.996288
O O11 0.631967 0.948777 0.182324
O O12 0.790960 0.828586 0.360340
O O13 0.829498 0.446722 0.750399
O O14 0.908342 0.550702 0.046106
O O15 0.578833 0.274215 0.490331
O O16 0.356394 0.173042 0.120351
#
# Coordination Sequence:
#
# PCOD9140479 Si02
#       8
#     4   4   4   4   4   4   4   4
#     4  11  26  44  71 104 139 183 231 291 349 419
#     4  12  27  44  72 105 142 182 236 292 353 421
#     4  12  26  44  72 105 142 184 232 294 352 416
#     4  11  24  47  71 102 139 186 234 289 352 417
#     4  11  25  46  73 100 142 186 236 286 355 415
#     4  12  24  47  72 103 137 189 234 290 351 421
#     4  12  26  46  71 106 139 184 236 293 350 423
#     4  11  24  46  72 101 136 186 237 283 352 420
#
# _framework density 25.308812
#
# number of rings (size 3 to 8) (size 9 to 14) (size 15 to 20)
#    0.000    0.500    3.750    4.500    8.750    1.000 
#    2.250    0.000    0.000    0.000    0.000    0.000 
#    0.000    0.000    0.000    0.000    0.000    0.000 
#
# Total GULP energy -89425.153488 kJ/mol
# GULP energy per Si atom -5589.072093 kJ/mol
# Density = 2.525121 g / cm^3
# Si number density = 25.308812 Si / 1000 Ang^3
#
#
#
# Elastic Constant Matrix: (Units=GPa)
#
#
# Indices 1 2 3 4 5 6 
#
# 1 64.3948 13.7141 -13.1737 0.0000 17.6888 0.0000
# 2 13.7141 123.2842 39.6079 0.0000 5.6518 0.0000
# 3 -13.1737 39.6079 95.9131 0.0000 -1.1750 0.0000
# 4 0.0000 0.0000 0.0000 31.5270 0.0000 2.8552
# 5 17.6888 5.6518 -1.1750 0.0000 41.6778 0.0000
# 6 0.0000 0.0000 0.0000 2.8552 0.0000 35.1963
#
#
#
# Elastic Compliance Matrix: (Units=1/GPa)
#
#
# Indices 1 2 3 4 5 6 
#
# 1 0.019004 -0.002970 0.003744 0.000000 -0.007557 0.000000
# 2 -0.002970 0.009896 -0.004497 0.000000 -0.000208 0.000000
# 3 0.003744 -0.004497 0.012790 0.000000 -0.000619 0.000000
# 4 0.000000 0.000000 0.000000 0.031954 0.000000 -0.002592
# 5 -0.007557 -0.000208 -0.000619 0.000000 0.027212 0.000000
# 6 0.000000 0.000000 0.000000 -0.002592 0.000000 0.028622
#
#
# Mechanical properties :
#
#
# Convention : Reuss Voigt Hill
#
# Bulk Modulus (GPa) = 29.20303 40.43208 34.81756
# Shear Modulus (GPa) = 33.70662 37.90978 35.80820
#
# Velocity S-wave (km/s) = 3.65336 3.87446 3.76553
# Velocity P-wave (km/s) = 5.41847 6.00211 5.71774
#
# Compressibility (1/GPa) = 0.03424302
#
# Stress axis : x y z
#
# Youngs Moduli (GPa) = 52.62123 101.04943 78.18628
#
# Poissons Ratio (x) = 0.30016 -0.29275
# Poissons Ratio (y) = 0.15631 0.35162
# Poissons Ratio (z) = -0.19703 0.45444
#
# Static dielectric constant tensor:
#      x y z
#    x 2.038740 0.000000 0.012060 
#    y 0.000000 2.023240 0.000000 
#    z 0.012060 0.000000 2.070760 
# 
# From -- ./inp_files/10105.got.cif
#   From: 2010.05.17/outbox.cif.g08.bks.cpg/sg9_6_cif.got.tgz:10105.got - 2010.06.03 20:04:27.
