data_PCOD9140858
_publ_section_title
;
Structure prediction by ZEFSAII (Michael W. Deem and Ramdas Pophale) SiO2 
 PCOD9140858
Probable space group: C C
;
_chemical_formula_sum "Si O2"
_cell_formula_units_Z 24
_cell_length_a 14.243732
_cell_length_b 15.192046
_cell_length_c 7.907986
_cell_angle_alpha 90.000000
_cell_angle_beta 149.011641
_cell_angle_gamma 90.000000
_cell_volume 881.045633
_symmetry_space_group_name_H-M "C C"
_symmetry_group_IT_number 9
_symmetry_cell_setting 'monoclinic'
loop_
_space_group_symop_operation_xyz
x,y,z
x,-y,1/2+z
1/2+x,1/2+y,z
1/2+x,1/2-y,1/2+z
loop_
_atom_site_type_symbol
_atom_site_label
_atom_site_fract_x
_atom_site_fract_y
_atom_site_fract_z
Si Si1 0.031890 0.126882 0.224230
Si Si2 0.850400 0.456870 0.060674
Si Si3 0.185669 0.421995 0.070569
Si Si4 0.114922 0.866306 0.219485
Si Si5 0.034099 0.320833 0.153125
Si Si6 0.762227 0.818822 0.859388
O O1 0.244483 0.103212 0.531763
O O2 0.994462 0.134998 0.362651
O O3 0.988892 0.218497 0.066355
O O4 0.896951 0.056230 0.932201
O O5 0.051867 0.496485 0.383940
O O6 0.868096 0.389440 0.930270
O O7 0.728816 0.544452 0.876836
O O8 0.134131 0.355597 0.141951
O O9 0.172867 0.379451 0.866366
O O10 0.245621 0.781389 0.400597
O O11 0.968453 0.849861 0.140766
O O12 0.148062 0.320444 0.506720
#
# Coordination Sequence:
#
# PCOD9140858 Si02
#       6
#     4   4   4   4   4   4
#     4  11  27  52  82 114 159 221 257 336 406 473
#     4  12  29  48  83 121 157 210 273 338 394 479
#     4  12  28  49  82 119 157 211 273 329 395 475
#     4  11  26  52  79 117 166 205 272 327 407 464
#     4  11  27  53  78 114 163 204 271 327 406 469
#     4  11  27  50  82 115 162 215 252 337 398 476
#
# _framework density 27.240358000000001
#
# number of rings (size 3 to 8) (size 9 to 14) (size 15 to 20)
#    0.000    0.667    1.667    3.000   18.667    2.667 
#    0.000    0.000    0.000    0.000    0.000    0.000 
#    0.000    0.000    0.000    0.000    0.000    0.000 
#
# Total GULP energy -67250.190300 kJ/mol
# GULP energy per Si atom -5604.182525 kJ/mol
# Density = 2.717836 g / cm^3
# Si number density = 27.240358 Si / 1000 Ang^3
#
#
#
# Elastic Constant Matrix: (Units=GPa)
#
#
# Indices 1 2 3 4 5 6 
#
# 1 203.3078 66.4978 42.6990 0.0000 11.7650 0.0000
# 2 66.4978 185.2513 45.5508 0.0000 28.1988 0.0000
# 3 42.6990 45.5508 107.5399 0.0000 18.0544 0.0000
# 4 0.0000 0.0000 0.0000 19.5240 0.0000 11.1952
# 5 11.7650 28.1988 18.0544 0.0000 47.6316 0.0000
# 6 0.0000 0.0000 0.0000 11.1952 0.0000 42.0904
#
#
#
# Elastic Compliance Matrix: (Units=1/GPa)
#
#
# Indices 1 2 3 4 5 6 
#
# 1 0.005808 -0.001718 -0.001611 0.000000 0.000193 0.000000
# 2 -0.001718 0.006899 -0.001736 0.000000 -0.003002 0.000000
# 3 -0.001611 -0.001736 0.011143 0.000000 -0.002798 0.000000
# 4 0.000000 0.000000 0.000000 0.060436 0.000000 -0.016075
# 5 0.000193 -0.003002 -0.002798 0.000000 0.023784 0.000000
# 6 0.000000 0.000000 0.000000 -0.016075 0.000000 0.028034
#
#
# Mechanical properties :
#
#
# Convention : Reuss Voigt Hill
#
# Bulk Modulus (GPa) = 72.88412 89.51047 81.19729
# Shear Modulus (GPa) = 33.15484 44.60595 38.88039
#
# Velocity S-wave (km/s) = 3.49251 4.05099 3.78207
# Velocity P-wave (km/s) = 6.56335 7.40348 6.99604
#
# Compressibility (1/GPa) = 0.01372041
#
# Stress axis : x y z
#
# Youngs Moduli (GPa) = 172.18519 144.95786 89.73861
#
# Poissons Ratio (x) = 0.24905 0.14454
# Poissons Ratio (y) = 0.29583 0.15578
# Poissons Ratio (z) = 0.27733 0.25163
#
# Static dielectric constant tensor:
#      x y z
#    x 2.065990 0.000000 -0.013470 
#    y 0.000000 2.093010 0.000000 
#    z -0.013470 0.000000 2.222410 
# 
# From -- ./inp_files/9976.got.cif
#   From: 2010.05.17/outbox.cif.g08.bks.cpg/sg9_5_cif.got.tgz:9976.got - 2010.06.03 20:04:27.
