data_PCOD9140949
_publ_section_title
;
Structure prediction by ZEFSAII (Michael W. Deem and Ramdas Pophale) SiO2 
 PCOD9140949
Probable space group: C C
;
_chemical_formula_sum "Si O2"
_cell_formula_units_Z 28
_cell_length_a 9.309977
_cell_length_b 12.369448
_cell_length_c 10.361220
_cell_angle_alpha 90.000000
_cell_angle_beta 61.684936
_cell_angle_gamma 90.000000
_cell_volume 1050.428537
_symmetry_space_group_name_H-M "C C"
_symmetry_group_IT_number 9
_symmetry_cell_setting 'monoclinic'
loop_
_space_group_symop_operation_xyz
x,y,z
x,-y,1/2+z
1/2+x,1/2+y,z
1/2+x,1/2-y,1/2+z
loop_
_atom_site_type_symbol
_atom_site_label
_atom_site_fract_x
_atom_site_fract_y
_atom_site_fract_z
Si Si1 0.716970 0.959809 0.006940
Si Si2 0.509854 0.843501 0.518499
Si Si3 0.127614 0.111909 0.174694
Si Si4 0.729617 0.510532 0.875222
Si Si5 0.936178 0.699650 0.655047
Si Si6 0.294260 0.404958 0.250979
Si Si7 0.299977 0.785266 0.936985
O O1 0.598898 0.859531 0.033845
O O2 0.815355 0.933060 0.094034
O O3 0.593587 0.064107 0.074133
O O4 0.815275 0.993917 0.837695
O O5 0.316850 0.841502 0.596955
O O6 0.596582 0.882097 0.348111
O O7 0.604882 0.733308 0.507844
O O8 0.131217 0.038676 0.298426
O O9 0.996869 0.206000 0.221999
O O10 0.126296 0.048386 0.041211
O O11 0.823640 0.612144 0.773916
O O12 0.834357 0.408969 0.886637
O O13 0.851590 0.740891 0.559816
O O14 0.362870 0.302661 0.304933
#
# Coordination Sequence:
#
# PCOD9140949 Si02
#       7
#     4   4   4   4   4   4   4
#     4   9  17  35  63  93 128 175 234 278 352 418
#     4   8  20  39  70  99 141 184 244 294 355 444
#     4  12  26  43  78 108 143 199 255 297 378 444
#     4  12  23  49  74 104 152 199 242 312 375 446
#     4  12  24  43  72 112 139 202 248 301 376 449
#     4   8  18  36  66  96 130 186 230 288 353 436
#     4   9  22  43  69  96 149 189 241 298 381 429
#
# _framework density 26.655788999999999
#
# number of rings (size 3 to 8) (size 9 to 14) (size 15 to 20)
#    1.714    0.000    2.857    1.714    4.000    0.000 
#    7.714    5.714    0.000    1.714    0.000    0.000 
#    0.000    0.000    0.000    0.000    0.000    0.000 
#
# Total GULP energy -78272.025450 kJ/mol
# GULP energy per Si atom -5590.858961 kJ/mol
# Density = 2.659512 g / cm^3
# Si number density = 26.655789 Si / 1000 Ang^3
#
#
#
# Elastic Constant Matrix: (Units=GPa)
#
#
# Indices 1 2 3 4 5 6 
#
# 1 109.0531 46.6341 54.4891 0.0000 27.5196 0.0000
# 2 46.6341 157.0034 58.2996 0.0000 23.2577 0.0000
# 3 54.4891 58.2996 185.4317 0.0000 30.0150 0.0000
# 4 0.0000 0.0000 0.0000 45.4065 0.0000 19.3372
# 5 27.5196 23.2577 30.0150 0.0000 47.1059 0.0000
# 6 0.0000 0.0000 0.0000 19.3372 0.0000 36.3980
#
#
#
# Elastic Compliance Matrix: (Units=1/GPa)
#
#
# Indices 1 2 3 4 5 6 
#
# 1 0.012393 -0.002160 -0.002189 0.000000 -0.004779 0.000000
# 2 -0.002160 0.007831 -0.001567 0.000000 -0.001606 0.000000
# 3 -0.002189 -0.001567 0.006909 0.000000 -0.002350 0.000000
# 4 0.000000 0.000000 0.000000 0.028463 0.000000 -0.015122
# 5 -0.004779 -0.001606 -0.002350 0.000000 0.026310 0.000000
# 6 0.000000 0.000000 0.000000 -0.015122 0.000000 0.035508
#
#
# Mechanical properties :
#
#
# Convention : Reuss Voigt Hill
#
# Bulk Modulus (GPa) = 65.35985 85.59265 75.47625
# Shear Modulus (GPa) = 37.21677 45.25313 41.23495
#
# Velocity S-wave (km/s) = 3.74063 4.12477 3.93738
# Velocity P-wave (km/s) = 6.57492 7.40709 7.00338
#
# Compressibility (1/GPa) = 0.01529991
#
# Stress axis : x y z
#
# Youngs Moduli (GPa) = 80.68812 127.70097 144.73544
#
# Poissons Ratio (x) = 0.27589 0.31683
# Poissons Ratio (y) = 0.17432 0.22684
# Poissons Ratio (z) = 0.17663 0.20014
#
# Static dielectric constant tensor:
#      x y z
#    x 2.166770 0.000000 -0.073920 
#    y 0.000000 2.153690 0.000000 
#    z -0.073920 0.000000 2.087510 
# 
# From -- ./inp_files/8960.got.cif
#   From: 2010.05.17/outbox.cif.g08.bks.cpg/sg9_5_cif.got.tgz:8960.got - 2010.06.03 20:04:27.
