data_PCOD9140895
_publ_section_title
;
Structure prediction by ZEFSAII (Michael W. Deem and Ramdas Pophale) SiO2 
 PCOD9140895
Probable space group: C C
;
_chemical_formula_sum "Si O2"
_cell_formula_units_Z 28
_cell_length_a 22.251232
_cell_length_b 9.341974
_cell_length_c 8.452900
_cell_angle_alpha 90.000000
_cell_angle_beta 135.766530
_cell_angle_gamma 90.000000
_cell_volume 1225.730008
_symmetry_space_group_name_H-M "C C"
_symmetry_group_IT_number 9
_symmetry_cell_setting 'monoclinic'
loop_
_space_group_symop_operation_xyz
x,y,z
x,-y,1/2+z
1/2+x,1/2+y,z
1/2+x,1/2-y,1/2+z
loop_
_atom_site_type_symbol
_atom_site_label
_atom_site_fract_x
_atom_site_fract_y
_atom_site_fract_z
Si Si1 0.998830 0.271628 0.603480
Si Si2 0.839770 0.416112 0.484453
Si Si3 0.088602 0.435817 0.239943
Si Si4 0.139178 0.228386 0.078815
Si Si5 0.825557 0.289665 0.807936
Si Si6 0.486015 0.703735 0.227107
Si Si7 0.171348 0.179638 0.483306
O O1 0.919134 0.336710 0.548820
O O2 0.969981 0.208553 0.382927
O O3 0.065316 0.400760 0.686421
O O4 0.059844 0.173100 0.825964
O O5 0.835263 0.362279 0.655324
O O6 0.845883 0.587188 0.477226
O O7 0.752575 0.377023 0.226860
O O8 0.100356 0.373270 0.085509
O O9 0.169010 0.355618 0.476732
O O10 0.010880 0.353246 0.182076
O O11 0.226573 0.253189 0.148027
O O12 0.165000 0.140686 0.285423
O O13 0.896686 0.166243 0.971649
O O14 0.579864 0.633442 0.382699
#
# Coordination Sequence:
#
# PCOD9140895 Si02
#       7
#     4   4   4   4   4   4   4
#     4  12  18  33  59  87 110 146 183 234 282 330
#     4  12  22  33  58  83 114 146 192 233 284 327
#     4   8  19  33  52  78 113 142 180 231 276 321
#     4   9  21  34  51  83 117 145 184 229 283 332
#     4  12  22  35  53  86 112 150 189 235 276 336
#     4   9  19  31  53  79 113 138 184 222 282 324
#     4   8  19  35  48  80 113 147 174 232 277 334
#
# _framework density 22.843530000000001
#
# number of rings (size 3 to 8) (size 9 to 14) (size 15 to 20)
#    1.714    0.000    1.429    6.000    0.000    0.000 
#    0.000    0.000    0.000    1.714    7.429    0.000 
#    0.000    0.000    0.000    0.000    0.000    0.000 
#
# Total GULP energy -77964.837205 kJ/mol
# GULP energy per Si atom -5568.916943 kJ/mol
# Density = 2.279154 g / cm^3
# Si number density = 22.843530 Si / 1000 Ang^3
#
#
#
# Elastic Constant Matrix: (Units=GPa)
#
#
# Indices 1 2 3 4 5 6 
#
# 1 145.5810 1.8505 55.5816 0.0000 2.0750 0.0000
# 2 1.8505 40.6892 12.3905 0.0000 0.7748 0.0000
# 3 55.5816 12.3905 157.8353 0.0000 16.3888 0.0000
# 4 0.0000 0.0000 0.0000 17.5191 0.0000 5.1329
# 5 2.0750 0.7748 16.3888 0.0000 47.3413 0.0000
# 6 0.0000 0.0000 0.0000 5.1329 0.0000 11.3042
#
#
#
# Elastic Compliance Matrix: (Units=1/GPa)
#
#
# Indices 1 2 3 4 5 6 
#
# 1 0.007965 0.000512 -0.002913 0.000000 0.000651 0.000000
# 2 0.000512 0.025215 -0.002194 0.000000 0.000324 0.000000
# 3 -0.002913 -0.002194 0.007797 0.000000 -0.002536 0.000000
# 4 0.000000 0.000000 0.000000 0.065840 0.000000 -0.029896
# 5 0.000651 0.000324 -0.002536 0.000000 0.021967 0.000000
# 6 0.000000 0.000000 0.000000 -0.029896 0.000000 0.102037
#
#
# Mechanical properties :
#
#
# Convention : Reuss Voigt Hill
#
# Bulk Modulus (GPa) = 31.45709 53.75009 42.60359
# Shear Modulus (GPa) = 19.95166 33.51843 26.73505
#
# Velocity S-wave (km/s) = 2.95855 3.83470 3.42476
# Velocity P-wave (km/s) = 5.04691 6.57170 5.85912
#
# Compressibility (1/GPa) = 0.03178933
#
# Stress axis : x y z
#
# Youngs Moduli (GPa) = 125.54431 39.65885 128.25550
#
# Poissons Ratio (x) = -0.02032 0.37358
# Poissons Ratio (y) = -0.06432 0.28133
# Poissons Ratio (z) = 0.36568 0.08699
#
# Static dielectric constant tensor:
#      x y z
#    x 1.859440 0.000000 -0.013000 
#    y 0.000000 1.939830 0.000000 
#    z -0.013000 0.000000 1.903080 
# 
# From -- ./inp_files/12157.got.cif
#   From: 2010.05.17/outbox.cif.g08.bks.cpg/sg9_7_cif.got.tgz:12157.got - 2010.06.03 20:04:27.
