data_PCOD9140618
_publ_section_title
;
Structure prediction by ZEFSAII (Michael W. Deem and Ramdas Pophale) SiO2 
 PCOD9140618
Probable space group: C C
;
_chemical_formula_sum "Si O2"
_cell_formula_units_Z 32
_cell_length_a 12.947977
_cell_length_b 7.135503
_cell_length_c 14.115825
_cell_angle_alpha 90.000000
_cell_angle_beta 118.085459
_cell_angle_gamma 90.000000
_cell_volume 1150.595472
_symmetry_space_group_name_H-M "C C"
_symmetry_group_IT_number 9
_symmetry_cell_setting 'monoclinic'
loop_
_space_group_symop_operation_xyz
x,y,z
x,-y,1/2+z
1/2+x,1/2+y,z
1/2+x,1/2-y,1/2+z
loop_
_atom_site_type_symbol
_atom_site_label
_atom_site_fract_x
_atom_site_fract_y
_atom_site_fract_z
Si Si1 0.123330 0.024916 0.333030
Si Si2 0.760928 0.953342 0.987865
Si Si3 0.512894 0.757210 0.913194
Si Si4 0.474172 0.826660 0.537626
Si Si5 0.331628 0.144961 0.800575
Si Si6 0.720764 0.314512 0.072849
Si Si7 0.292286 0.582043 0.793075
Si Si8 0.055156 0.710883 0.636513
O O1 0.181833 0.093628 0.457005
O O2 0.063274 0.172687 0.236304
O O3 0.028561 0.882601 0.331162
O O4 0.220495 0.912074 0.316215
O O5 0.633678 0.869713 0.956418
O O6 0.743960 0.045645 0.877678
O O7 0.869299 0.807524 0.027418
O O8 0.784649 0.124381 0.068057
O O9 0.372943 0.765728 0.839774
O O10 0.519322 0.681295 0.025058
O O11 0.443264 0.893955 0.415987
O O12 0.601283 0.732833 0.580060
O O13 0.483287 0.016656 0.602081
O O14 0.303753 0.078255 0.682443
O O15 0.337977 0.372591 0.792699
O O16 0.188052 0.640019 0.680714
#
# Coordination Sequence:
#
# PCOD9140618 Si02
#       8
#     4   4   4   4   4   4   4   4
#     4  12  26  48  79 121 163 217 283 334 423 502
#     4  11  24  52  88 119 171 221 280 339 424 502
#     4  12  26  52  81 118 168 225 276 339 432 489
#     4  11  25  51  82 124 169 212 288 346 412 510
#     4  11  25  52  79 116 170 213 276 352 402 511
#     4  12  25  53  81 121 170 219 279 346 426 495
#     4  11  24  53  82 116 169 212 282 346 406 514
#     4  12  27  51  82 123 168 219 282 354 413 513
#
# _framework density 27.811686000000002
#
# number of rings (size 3 to 8) (size 9 to 14) (size 15 to 20)
#    0.000    0.500    6.250    2.250    1.750    0.000 
#   22.500    0.000    0.000    0.000    0.000    0.000 
#    0.000    0.000    0.000    0.000    0.000    0.000 
#
# Total GULP energy -89518.146310 kJ/mol
# GULP energy per Si atom -5594.884144 kJ/mol
# Density = 2.774839 g / cm^3
# Si number density = 27.811686 Si / 1000 Ang^3
#
#
#
# Elastic Constant Matrix: (Units=GPa)
#
#
# Indices 1 2 3 4 5 6 
#
# 1 121.4289 42.5791 53.0709 0.0000 -2.8998 0.0000
# 2 42.5791 57.1009 11.0829 0.0000 2.4998 0.0000
# 3 53.0709 11.0829 170.7675 0.0000 1.4833 0.0000
# 4 0.0000 0.0000 0.0000 62.7153 0.0000 8.7906
# 5 -2.8998 2.4998 1.4833 0.0000 45.4631 0.0000
# 6 0.0000 0.0000 0.0000 8.7906 0.0000 0.1738
#
#
#
# Elastic Compliance Matrix: (Units=1/GPa)
#
#
# Indices 1 2 3 4 5 6 
#
# 1 0.012951 -0.009051 -0.003450 0.000000 0.001436 0.000000
# 2 -0.009051 0.024101 0.001265 0.000000 -0.001944 0.000000
# 3 -0.003450 0.001265 0.006850 0.000000 -0.000513 0.000000
# 4 0.000000 0.000000 0.000000 -0.002618 0.000000 0.132437
# 5 0.001436 -0.001944 -0.000513 0.000000 0.022211 0.000000
# 6 0.000000 0.000000 0.000000 0.132437 0.000000 -0.944854
#
#
# Mechanical properties :
#
#
# Convention : Reuss Voigt Hill
#
# Bulk Modulus (GPa) = 46.65844 62.52925 54.59384
# Shear Modulus (GPa) = -5.87031 37.84139 15.98554
#
# Velocity S-wave (km/s) = -1.45441 3.69267 2.40005
# Velocity P-wave (km/s) = 3.74066 6.38067 5.22999
#
# Compressibility (1/GPa) = 0.02143235
#
# Stress axis : x y z
#
# Youngs Moduli (GPa) = 77.21421 41.49175 145.97630
#
# Poissons Ratio (x) = 0.37552 0.50362
# Poissons Ratio (y) = 0.69883 -0.18472
# Poissons Ratio (z) = 0.26639 -0.05250
#
# Static dielectric constant tensor:
#      x y z
#    x 2.196230 0.000000 0.028580 
#    y 0.000000 2.385770 0.000000 
#    z 0.028580 0.000000 2.111990 
# 
# From -- ./inp_files/25702.got.cif
#   From: 2010.05.17/outbox.cif.g08.bks.cpg/sg9_13_cif.got.tgz:25702.got - 2010.06.03 20:04:27.
