data_PCOD9140871
_publ_section_title
;
Structure prediction by ZEFSAII (Michael W. Deem and Ramdas Pophale) SiO2 
 PCOD9140871
Probable space group: C C
;
_chemical_formula_sum "Si O2"
_cell_formula_units_Z 32
_cell_length_a 31.181037
_cell_length_b 5.159516
_cell_length_c 17.876228
_cell_angle_alpha 90.000000
_cell_angle_beta 152.380777
_cell_angle_gamma 90.000000
_cell_volume 1333.253052
_symmetry_space_group_name_H-M "C C"
_symmetry_group_IT_number 9
_symmetry_cell_setting 'monoclinic'
loop_
_space_group_symop_operation_xyz
x,y,z
x,-y,1/2+z
1/2+x,1/2+y,z
1/2+x,1/2-y,1/2+z
loop_
_atom_site_type_symbol
_atom_site_label
_atom_site_fract_x
_atom_site_fract_y
_atom_site_fract_z
Si Si1 0.150430 0.418947 0.206390
Si Si2 0.393351 0.307112 0.972589
Si Si3 0.082791 0.434208 0.761229
Si Si4 0.244633 0.081059 0.017340
Si Si5 0.844982 0.918229 0.735942
Si Si6 0.050081 0.918235 0.987788
Si Si7 0.501713 0.307111 0.751141
Si Si8 0.812272 0.565791 0.462501
O O1 0.134669 0.443207 0.270944
O O2 0.115065 0.680456 0.113371
O O3 0.255091 0.324248 0.354152
O O4 0.088600 0.182648 0.081212
O O5 0.447531 0.500000 0.111865
O O6 0.478243 0.127432 0.074780
O O7 0.349722 0.436774 0.832832
O O8 0.323876 0.124225 0.910632
O O9 0.071187 0.624222 0.813098
O O10 0.139971 0.175749 0.869577
O O11 0.306460 0.317363 0.142513
O O12 0.280000 0.819556 0.110364
O O13 0.260395 0.056793 0.952787
O O14 0.947531 0.873029 0.861865
O O15 0.045341 0.936772 0.890899
O O16 0.416820 0.127431 0.648950
#
# Coordination Sequence:
#
# PCOD9140871 Si02
#       8
#     4   4   4   4   4   4   4   4
#     4  12  27  47  78 110 146 200 253 311 363 457
#     4  11  27  49  76 108 155 203 246 313 383 450
#     4  11  27  48  75 111 151 201 252 305 386 444
#     4  12  27  47  78 110 146 200 253 311 363 457
#     4  12  26  47  75 111 152 194 255 307 380 441
#     4  12  26  47  75 111 152 194 255 307 380 441
#     4  11  27  49  76 108 155 203 246 313 383 450
#     4  11  27  48  75 111 151 201 252 305 386 444
#
# _framework density 24.001448
#
# number of rings (size 3 to 8) (size 9 to 14) (size 15 to 20)
#    0.000    0.500    2.500    3.750   14.000    2.000 
#    0.000    0.000    0.000    0.000    0.000    0.000 
#    0.000    0.000    0.000    0.000    0.000    0.000 
#
# Total GULP energy -89741.328549 kJ/mol
# GULP energy per Si atom -5608.833034 kJ/mol
# Density = 2.394682 g / cm^3
# Si number density = 24.001448 Si / 1000 Ang^3
#
#
#
# Elastic Constant Matrix: (Units=GPa)
#
#
# Indices 1 2 3 4 5 6 
#
# 1 98.4808 27.2267 45.4798 -0.0001 -9.6355 0.0000
# 2 27.2267 109.1887 37.9309 0.0004 -2.5767 0.0004
# 3 45.4798 37.9309 104.5346 0.0000 -1.6680 0.0001
# 4 -0.0001 0.0004 0.0000 64.4791 0.0000 -3.2451
# 5 -9.6355 -2.5767 -1.6680 0.0000 52.2443 0.0000
# 6 0.0000 0.0004 0.0001 -3.2451 0.0000 38.2432
#
#
#
# Elastic Compliance Matrix: (Units=1/GPa)
#
#
# Indices 1 2 3 4 5 6 
#
# 1 0.013151 -0.001433 -0.005167 0.000000 0.002190 0.000000
# 2 -0.001433 0.010644 -0.003236 0.000000 0.000157 0.000000
# 3 -0.005167 -0.003236 0.012977 0.000000 -0.000698 0.000000
# 4 0.000000 0.000000 0.000000 0.015575 0.000000 0.001322
# 5 0.002190 0.000157 -0.000698 0.000000 0.019530 0.000000
# 6 0.000000 0.000000 0.000000 0.001322 0.000000 0.026261
#
#
# Mechanical properties :
#
#
# Convention : Reuss Voigt Hill
#
# Bulk Modulus (GPa) = 58.47842 59.27543 58.87692
# Shear Modulus (GPa) = 40.48290 44.43110 42.45700
#
# Velocity S-wave (km/s) = 4.11138 4.30721 4.21043
# Velocity P-wave (km/s) = 6.85240 7.03465 6.94412
#
# Compressibility (1/GPa) = 0.01710032
#
# Stress axis : x y z
#
# Youngs Moduli (GPa) = 76.04206 93.95267 77.05812
#
# Poissons Ratio (x) = 0.13460 0.39813
# Poissons Ratio (y) = 0.10894 0.24938
# Poissons Ratio (z) = 0.39288 0.30406
#
# Static dielectric constant tensor:
#      x y z
#    x 1.897670 0.000000 0.050850 
#    y 0.000000 1.939290 0.000000 
#    z 0.050850 0.000000 1.897860 
# 
# From -- ./inp_files/31758.got.cif
#   From: 2010.05.17/outbox.cif.g08.bks.cpg/sg9_16_cif.got.tgz:31758.got - 2010.06.03 20:04:27.
