data_PCOD9140565
_publ_section_title
;
Structure prediction by ZEFSAII (Michael W. Deem and Ramdas Pophale) SiO2 
 PCOD9140565
Probable space group: C C
;
_chemical_formula_sum "Si O2"
_cell_formula_units_Z 28
_cell_length_a 9.528685
_cell_length_b 12.306401
_cell_length_c 14.306988
_cell_angle_alpha 90.000000
_cell_angle_beta 45.010200
_cell_angle_gamma 90.000000
_cell_volume 1186.518594
_symmetry_space_group_name_H-M "C C"
_symmetry_group_IT_number 9
_symmetry_cell_setting 'monoclinic'
loop_
_space_group_symop_operation_xyz
x,y,z
x,-y,1/2+z
1/2+x,1/2+y,z
1/2+x,1/2-y,1/2+z
loop_
_atom_site_type_symbol
_atom_site_label
_atom_site_fract_x
_atom_site_fract_y
_atom_site_fract_z
Si Si1 0.318020 0.327402 0.282500
Si Si2 0.194114 0.747815 0.485633
Si Si3 0.186209 0.036158 0.658498
Si Si4 0.890347 0.148690 0.226592
Si Si5 0.991046 0.807363 0.007683
Si Si6 0.203380 0.026781 0.871323
Si Si7 0.543112 0.028092 0.349386
O O1 0.524593 0.369346 0.224764
O O2 0.206585 0.246563 0.403263
O O3 0.368526 0.278769 0.157380
O O4 0.170143 0.427644 0.331028
O O5 0.263641 0.658528 0.380403
O O6 0.372676 0.742664 0.476021
O O7 0.659557 0.355374 0.438007
O O8 0.995241 0.742380 0.640709
O O9 0.221062 0.019947 0.751552
O O10 0.071110 0.932777 0.665795
O O11 0.379952 0.058025 0.505128
O O12 0.718058 0.110364 0.239091
O O13 0.036942 0.936333 0.978614
O O14 0.411976 0.998519 0.821421
#
# Coordination Sequence:
#
# PCOD9140565 Si02
#       7
#     4   4   4   4   4   4   4
#     4  11  25  46  75 106 146 190 251 307 375 448
#     4  12  25  47  74 111 146 193 252 302 376 453
#     4  11  24  48  72 110 147 194 251 311 374 447
#     4  11  25  46  75 106 151 195 247 311 378 447
#     4  12  24  46  79 107 146 199 244 307 377 450
#     4  12  25  46  74 107 148 194 247 304 375 440
#     4  11  24  49  71 107 152 189 252 316 361 455
#
# _framework density 23.59845
#
# number of rings (size 3 to 8) (size 9 to 14) (size 15 to 20)
#    0.000    0.571    5.714    1.714    4.000    1.143 
#    5.143    0.000    0.000    0.000    0.000    0.000 
#    0.000    0.000    0.000    0.000    0.000    0.000 
#
# Total GULP energy -78257.600774 kJ/mol
# GULP energy per Si atom -5589.828627 kJ/mol
# Density = 2.354474 g / cm^3
# Si number density = 23.598450 Si / 1000 Ang^3
#
#
#
# Elastic Constant Matrix: (Units=GPa)
#
#
# Indices 1 2 3 4 5 6 
#
# 1 95.1362 -7.0065 50.5858 0.0000 -1.0373 0.0000
# 2 -7.0065 40.9783 28.0982 0.0000 -14.2572 0.0000
# 3 50.5858 28.0982 118.3503 -0.0001 -22.7824 0.0001
# 4 0.0000 0.0000 -0.0001 42.0875 0.0000 1.2688
# 5 -1.0373 -14.2572 -22.7824 0.0000 37.3404 0.0000
# 6 0.0000 0.0000 0.0001 1.2688 0.0000 9.8598
#
#
#
# Elastic Compliance Matrix: (Units=1/GPa)
#
#
# Indices 1 2 3 4 5 6 
#
# 1 0.015999 0.008357 -0.009204 0.000000 -0.001980 0.000000
# 2 0.008357 0.035683 -0.010624 0.000000 0.007374 0.000000
# 3 -0.009204 -0.010624 0.015949 0.000000 0.005419 0.000000
# 4 0.000000 0.000000 0.000000 0.023853 0.000000 -0.003069
# 5 -0.001980 0.007374 0.005419 0.000000 0.032847 0.000000
# 6 0.000000 0.000000 0.000000 -0.003069 0.000000 0.101817
#
#
# Mechanical properties :
#
#
# Convention : Reuss Voigt Hill
#
# Bulk Modulus (GPa) = 22.37663 44.20220 33.28941
# Shear Modulus (GPa) = 18.94047 30.04336 24.49191
#
# Velocity S-wave (km/s) = 2.83612 3.57193 3.22508
# Velocity P-wave (km/s) = 4.49751 5.98191 5.29202
#
# Compressibility (1/GPa) = 0.04468949
#
# Stress axis : x y z
#
# Youngs Moduli (GPa) = 62.50422 28.02480 62.70068
#
# Poissons Ratio (x) = -0.23422 0.57707
# Poissons Ratio (y) = -0.52238 0.66615
# Poissons Ratio (z) = 0.57527 0.29774
#
# Static dielectric constant tensor:
#      x y z
#    x 1.891220 0.000000 0.014920 
#    y 0.000000 2.016580 0.000000 
#    z 0.014920 0.000000 1.920910 
# 
# From -- ./inp_files/23320.got.cif
#   From: 2010.05.17/outbox.cif.g08.bks.cpg/sg9_12_cif.got.tgz:23320.got - 2010.06.03 20:04:27.
