data_PCOD9140136
_publ_section_title
;
Structure prediction by ZEFSAII (Michael W. Deem and Ramdas Pophale) SiO2 
 PCOD9140136
Probable space group: C C
;
_chemical_formula_sum "Si O2"
_cell_formula_units_Z 28
_cell_length_a 4.943904
_cell_length_b 22.478738
_cell_length_c 9.657149
_cell_angle_alpha 90.000000
_cell_angle_beta 110.616482
_cell_angle_gamma 90.000000
_cell_volume 1004.494075
_symmetry_space_group_name_H-M "C C"
_symmetry_group_IT_number 9
_symmetry_cell_setting 'monoclinic'
loop_
_space_group_symop_operation_xyz
x,y,z
x,-y,1/2+z
1/2+x,1/2+y,z
1/2+x,1/2-y,1/2+z
loop_
_atom_site_type_symbol
_atom_site_label
_atom_site_fract_x
_atom_site_fract_y
_atom_site_fract_z
Si Si1 0.714050 0.041099 0.393920
Si Si2 0.335354 0.262210 0.741764
Si Si3 0.768594 0.066588 0.090099
Si Si4 0.997521 0.710594 0.429671
Si Si5 0.495219 0.671948 0.030809
Si Si6 0.297674 0.904910 0.036923
Si Si7 0.759671 0.371753 0.327702
O O1 0.682984 0.038760 0.222360
O O2 0.442486 0.052439 0.447038
O O3 0.955984 0.091876 0.453948
O O4 0.847969 0.982883 0.491209
O O5 0.677483 0.271473 0.822290
O O6 0.270456 0.287946 0.578760
O O7 0.275703 0.193215 0.759275
O O8 0.163567 0.302286 0.818807
O O9 0.027396 0.115806 0.139414
O O10 0.502684 0.105174 0.978808
O O11 0.168709 0.768288 0.519066
O O12 0.956466 0.656691 0.526290
O O13 0.482096 0.638246 0.879161
O O14 0.303563 0.915111 0.204089
#
# Coordination Sequence:
#
# PCOD9140136 Si02
#       7
#     4   4   4   4   4   4   4
#     4  12  32  50  86 104 161 205 272 318 394 451
#     4  11  24  44  70 115 153 206 244 317 389 476
#     4  12  28  54  76 118 149 213 262 332 379 474
#     4  11  23  43  72 108 154 198 253 313 388 462
#     4  11  25  44  77 111 158 201 253 319 398 462
#     4  12  27  53  76 119 151 212 255 333 380 477
#     4  11  27  46  81 113 166 197 263 322 392 468
#
# _framework density 27.874725000000002
#
# number of rings (size 3 to 8) (size 9 to 14) (size 15 to 20)
#    0.000    0.571    2.857    3.429   12.000    0.000 
#    0.000    0.000    0.000    0.000    0.000    0.000 
#    0.000    0.000    0.000    0.000    0.000    0.000 
#
# Total GULP energy -78054.283842 kJ/mol
# GULP energy per Si atom -5575.305989 kJ/mol
# Density = 2.781128 g / cm^3
# Si number density = 27.874725 Si / 1000 Ang^3
#
#
#
# Elastic Constant Matrix: (Units=GPa)
#
#
# Indices 1 2 3 4 5 6 
#
# 1 131.6218 6.5415 53.2345 0.0000 -35.8106 0.0000
# 2 6.5415 118.6419 45.5149 0.0000 -12.2437 0.0000
# 3 53.2345 45.5149 234.4653 0.0000 -49.5568 0.0000
# 4 0.0000 0.0000 0.0000 41.1615 0.0000 -15.3449
# 5 -35.8106 -12.2437 -49.5568 0.0000 55.7163 0.0000
# 6 0.0000 0.0000 0.0000 -15.3449 0.0000 30.5177
#
#
#
# Elastic Compliance Matrix: (Units=1/GPa)
#
#
# Indices 1 2 3 4 5 6 
#
# 1 0.009438 0.000449 -0.001142 0.000000 0.005149 0.000000
# 2 0.000449 0.009141 -0.001713 0.000000 0.000774 0.000000
# 3 -0.001142 -0.001713 0.005692 0.000000 0.003953 0.000000
# 4 0.000000 0.000000 0.000000 0.029899 0.000000 0.015034
# 5 0.005149 0.000774 0.003953 0.000000 0.024943 0.000000
# 6 0.000000 0.000000 0.000000 0.015034 0.000000 0.040327
#
#
# Mechanical properties :
#
#
# Convention : Reuss Voigt Hill
#
# Bulk Modulus (GPa) = 51.38731 77.25674 64.32202
# Shear Modulus (GPa) = 38.24428 50.77497 44.50963
#
# Velocity S-wave (km/s) = 3.70808 4.27258 4.00030
# Velocity P-wave (km/s) = 6.06698 7.21913 6.66798
#
# Compressibility (1/GPa) = 0.01946006
#
# Stress axis : x y z
#
# Youngs Moduli (GPa) = 105.95550 109.39809 175.67948
#
# Poissons Ratio (x) = -0.04912 0.20057
# Poissons Ratio (y) = -0.04757 0.30091
# Poissons Ratio (z) = 0.12096 0.18738
#
# Static dielectric constant tensor:
#      x y z
#    x 2.323900 0.000000 0.087870 
#    y 0.000000 2.283320 0.000000 
#    z 0.087870 0.000000 2.280470 
# 
# From -- ./inp_files/4005.got.cif
#   From: 2010.05.17/outbox.cif.g08.bks.cpg/sg9_3_cif.got.tgz:4005.got - 2010.06.03 20:04:27.
