data_PCOD9140066
_publ_section_title
;
Structure prediction by ZEFSAII (Michael W. Deem and Ramdas Pophale) SiO2 
 PCOD9140066
Probable space group: C C
;
_chemical_formula_sum "Si O2"
_cell_formula_units_Z 32
_cell_length_a 12.654069
_cell_length_b 9.968700
_cell_length_c 12.541364
_cell_angle_alpha 90.000000
_cell_angle_beta 62.372049
_cell_angle_gamma 90.000000
_cell_volume 1401.638994
_symmetry_space_group_name_H-M "C C"
_symmetry_group_IT_number 9
_symmetry_cell_setting 'monoclinic'
loop_
_space_group_symop_operation_xyz
x,y,z
x,-y,1/2+z
1/2+x,1/2+y,z
1/2+x,1/2-y,1/2+z
loop_
_atom_site_type_symbol
_atom_site_label
_atom_site_fract_x
_atom_site_fract_y
_atom_site_fract_z
Si Si1 0.500000 0.841665 0.477400
Si Si2 0.814609 0.657620 0.230719
Si Si3 0.125526 0.929870 0.986493
Si Si4 0.128493 0.627120 0.721620
Si Si5 0.803686 0.087309 0.225503
Si Si6 0.987104 0.127693 0.734878
Si Si7 0.482970 0.677373 0.979823
Si Si8 0.128835 0.405350 0.974138
O O1 0.383552 0.895173 0.593220
O O2 0.531837 0.685408 0.486182
O O3 0.508119 0.860441 0.346625
O O4 0.608754 0.935176 0.470678
O O5 0.742237 0.583674 0.358280
O O6 0.717337 0.759755 0.226539
O O7 0.925504 0.731392 0.236159
O O8 0.077663 0.079802 0.993552
O O9 0.115179 0.893932 0.117701
O O10 0.195114 0.488914 0.718531
O O11 0.115924 0.635685 0.601975
O O12 0.749950 0.141927 0.360568
O O13 0.901054 0.979809 0.218774
O O14 0.865788 0.175325 0.107052
O O15 0.977513 0.114566 0.865293
O O16 0.528867 0.827791 0.954445
#
# Coordination Sequence:
#
# PCOD9140066 Si02
#       8
#     4   4   4   4   4   4   4   4
#     4   9  20  37  56  80 109 146 184 217 269 333
#     4   9  18  35  60  82 104 146 190 222 264 322
#     4   9  20  37  56  80 109 146 184 217 269 333
#     4   9  19  37  58  79 109 148 186 219 265 334
#     4   9  20  37  56  76 108 156 184 206 272 346
#     4   9  19  37  58  79 109 148 186 219 265 334
#     4  11  23  36  55  86 114 138 180 235 276 311
#     4  11  23  36  55  86 114 138 180 235 276 311
#
# _framework density 22.830414000000001
#
# number of rings (size 3 to 8) (size 9 to 14) (size 15 to 20)
#    0.000    2.500    0.000    2.250    0.000   11.000 
#    0.000    2.500    0.000    0.000    0.000    0.000 
#    0.000    0.000    0.000    0.000    0.000    0.000 
#
# Total GULP energy -89144.980185 kJ/mol
# GULP energy per Si atom -5571.561262 kJ/mol
# Density = 2.277845 g / cm^3
# Si number density = 22.830414 Si / 1000 Ang^3
#
#
#
# Elastic Constant Matrix: (Units=GPa)
#
#
# Indices 1 2 3 4 5 6 
#
# 1 17.8331 0.2265 29.1463 0.0000 -8.0152 0.0000
# 2 0.2265 44.9043 6.6627 0.0000 -4.3089 0.0000
# 3 29.1463 6.6627 236.7777 0.0000 -31.6090 0.0000
# 4 0.0000 0.0000 0.0000 28.8898 0.0000 -7.3728
# 5 -8.0152 -4.3089 -31.6090 0.0000 41.9557 0.0000
# 6 0.0000 0.0000 0.0000 -7.3728 0.0000 13.0876
#
#
#
# Elastic Compliance Matrix: (Units=1/GPa)
#
#
# Indices 1 2 3 4 5 6 
#
# 1 0.072603 0.001582 -0.007903 0.000000 0.008078 0.000000
# 2 0.001582 0.022553 -0.000533 0.000000 0.002217 0.000000
# 3 -0.007903 -0.000533 0.005562 0.000000 0.002626 0.000000
# 4 0.000000 0.000000 0.000000 0.040426 0.000000 0.022774
# 5 0.008078 0.002217 0.002626 0.000000 0.027584 0.000000
# 6 0.000000 0.000000 0.000000 0.022774 0.000000 0.089238
#
#
# Mechanical properties :
#
#
# Convention : Reuss Voigt Hill
#
# Bulk Modulus (GPa) = 11.49316 41.28734 26.39025
# Shear Modulus (GPa) = 16.62902 34.35191 25.49047
#
# Velocity S-wave (km/s) = 2.70176 3.88320 3.34505
# Velocity P-wave (km/s) = 3.84419 6.18298 5.14816
#
# Compressibility (1/GPa) = 0.08700831
#
# Stress axis : x y z
#
# Youngs Moduli (GPa) = 13.77349 44.33908 179.80016
#
# Poissons Ratio (x) = -0.07013 1.42100
# Poissons Ratio (y) = -0.02178 0.09591
# Poissons Ratio (z) = 0.10885 0.02365
#
# Static dielectric constant tensor:
#      x y z
#    x 1.855440 0.000000 -0.034510 
#    y 0.000000 1.831080 0.000000 
#    z -0.034510 0.000000 1.973900 
# 
# From -- ./inp_files/18179.got.cif
#   From: 2010.05.17/outbox.cif.g08.bks.cpg/sg9_10_cif.got.tgz:18179.got - 2010.06.03 20:04:27.
