data_PCOD9140541
_publ_section_title
;
Structure prediction by ZEFSAII (Michael W. Deem and Ramdas Pophale) SiO2 
 PCOD9140541
Probable space group: C C
;
_chemical_formula_sum "Si O2"
_cell_formula_units_Z 20
_cell_length_a 6.028078
_cell_length_b 8.341236
_cell_length_c 17.956737
_cell_angle_alpha 90.000000
_cell_angle_beta 114.456784
_cell_angle_gamma 90.000000
_cell_volume 821.880613
_symmetry_space_group_name_H-M "C C"
_symmetry_group_IT_number 9
_symmetry_cell_setting 'monoclinic'
loop_
_space_group_symop_operation_xyz
x,y,z
x,-y,1/2+z
1/2+x,1/2+y,z
1/2+x,1/2-y,1/2+z
loop_
_atom_site_type_symbol
_atom_site_label
_atom_site_fract_x
_atom_site_fract_y
_atom_site_fract_z
Si Si1 0.504600 0.017966 0.161250
Si Si2 0.026618 0.988685 0.815000
Si Si3 0.692151 0.000978 0.529001
Si Si4 0.365937 0.279757 0.422092
Si Si5 0.607484 0.644484 0.683339
O O1 0.771332 0.019449 0.235707
O O2 0.436680 0.200459 0.173915
O O3 0.511708 0.029869 0.073130
O O4 0.356126 0.865609 0.169913
O O5 0.158693 0.824507 0.852605
O O6 0.977332 0.087677 0.882674
O O7 0.184557 0.079289 0.774499
O O8 0.579470 0.155361 0.472920
O O9 0.942700 0.034972 0.606983
O O10 0.744779 0.863063 0.477032
#
# Coordination Sequence:
#
# PCOD9140541 Si02
#       5
#     4   4   4   4   4
#     4  11  24  47  76 101 143 196 244 299 358 447
#     4  11  28  46  70 111 144 192 248 299 370 434
#     4  11  28  46  70 111 144 192 248 299 370 434
#     4  12  28  46  76 108 154 192 240 314 368 428
#     4  11  24  47  76 101 143 196 244 299 358 447
#
# _framework density 24.334432
#
# number of rings (size 3 to 8) (size 9 to 14) (size 15 to 20)
#    0.000    0.800    0.000    4.800   16.800    6.400 
#    0.000    0.000    0.000    0.000    0.000    0.000 
#    0.000    0.000    0.000    0.000    0.000    0.000 
#
# Total GULP energy -55878.679184 kJ/mol
# GULP energy per Si atom -5587.867918 kJ/mol
# Density = 2.427905 g / cm^3
# Si number density = 24.334432 Si / 1000 Ang^3
#
#
#
# Elastic Constant Matrix: (Units=GPa)
#
#
# Indices 1 2 3 4 5 6 
#
# 1 64.4003 9.7631 16.0878 0.0000 -6.2536 0.0000
# 2 9.7631 66.1549 12.7524 0.0000 -1.9205 0.0000
# 3 16.0878 12.7524 96.5461 0.0000 -8.5840 0.0000
# 4 0.0000 0.0000 0.0000 51.1255 0.0000 -3.3499
# 5 -6.2536 -1.9205 -8.5840 0.0000 31.9155 0.0000
# 6 0.0000 0.0000 0.0000 -3.3499 0.0000 38.6861
#
#
#
# Elastic Compliance Matrix: (Units=1/GPa)
#
#
# Indices 1 2 3 4 5 6 
#
# 1 0.016640 -0.001941 -0.002292 0.000000 0.002527 0.000000
# 2 -0.001941 0.015742 -0.001747 0.000000 0.000097 0.000000
# 3 -0.002292 -0.001747 0.011189 0.000000 0.002455 0.000000
# 4 0.000000 0.000000 0.000000 0.019671 0.000000 0.001703
# 5 0.002527 0.000097 0.002455 0.000000 0.032494 0.000000
# 6 0.000000 0.000000 0.000000 0.001703 0.000000 0.025997
#
#
# Mechanical properties :
#
#
# Convention : Reuss Voigt Hill
#
# Bulk Modulus (GPa) = 31.63407 33.81198 32.72303
# Shear Modulus (GPa) = 34.66704 36.91195 35.78949
#
# Velocity S-wave (km/s) = 3.77849 3.89892 3.83918
# Velocity P-wave (km/s) = 5.66250 5.84753 5.75576
#
# Compressibility (1/GPa) = 0.03161149
#
# Stress axis : x y z
#
# Youngs Moduli (GPa) = 60.09621 63.52401 89.37581
#
# Poissons Ratio (x) = 0.12327 0.20483
# Poissons Ratio (y) = 0.11662 0.15617
# Poissons Ratio (z) = 0.13772 0.11100
#
# Static dielectric constant tensor:
#      x y z
#    x 2.022970 0.000000 -0.007060 
#    y 0.000000 2.120130 0.000000 
#    z -0.007060 0.000000 1.873610 
# 
# From -- ./inp_files/21530.got.cif
#   From: 2010.05.17/outbox.cif.g08.bks.cpg/sg9_11_cif.got.tgz:21530.got - 2010.06.03 20:04:27.
