data_PCOD9140168
_publ_section_title
;
Structure prediction by ZEFSAII (Michael W. Deem and Ramdas Pophale) SiO2 
 PCOD9140168
Probable space group: C C
;
_chemical_formula_sum "Si O2"
_cell_formula_units_Z 24
_cell_length_a 12.803226
_cell_length_b 4.984255
_cell_length_c 14.655227
_cell_angle_alpha 90.000000
_cell_angle_beta 91.109727
_cell_angle_gamma 90.000000
_cell_volume 935.041206
_symmetry_space_group_name_H-M "C C"
_symmetry_group_IT_number 9
_symmetry_cell_setting 'monoclinic'
loop_
_space_group_symop_operation_xyz
x,y,z
x,-y,1/2+z
1/2+x,1/2+y,z
1/2+x,1/2-y,1/2+z
loop_
_atom_site_type_symbol
_atom_site_label
_atom_site_fract_x
_atom_site_fract_y
_atom_site_fract_z
Si Si1 0.150960 0.081389 0.892330
Si Si2 0.828931 0.573257 0.528369
Si Si3 0.458538 0.550504 0.485467
Si Si4 0.792443 0.578655 0.223157
Si Si5 0.583723 0.361774 0.657877
Si Si6 0.022089 0.373122 0.765028
O O1 0.092858 0.351791 0.856926
O O2 0.232574 0.018776 0.812514
O O3 0.222748 0.038386 0.981504
O O4 0.042763 0.917087 0.906678
O O5 0.862396 0.842945 0.475572
O O6 0.816910 0.616866 0.637125
O O7 0.913321 0.334783 0.515928
O O8 0.526567 0.388335 0.561621
O O9 0.701768 0.749265 0.170604
O O10 0.899780 0.705752 0.260775
O O11 0.576087 0.662991 0.696829
O O12 0.522555 0.165241 0.722945
#
# Coordination Sequence:
#
# PCOD9140168 Si02
#       6
#     4   4   4   4   4   4
#     4  11  28  47  74 115 148 191 252 307 362 439
#     4  12  27  48  76 107 147 202 243 302 369 441
#     4  12  25  49  73 107 151 189 248 304 365 436
#     4  11  24  47  77 105 145 195 246 297 370 432
#     4  11  23  44  74 105 138 192 241 296 361 431
#     4  11  25  45  72 105 145 187 242 300 361 429
#
# _framework density 25.667318999999999
#
# number of rings (size 3 to 8) (size 9 to 14) (size 15 to 20)
#    0.000    0.667    5.000    1.000    0.000   16.000 
#    0.000    0.000    0.000    0.000    0.000    0.000 
#    0.000    0.000    0.000    0.000    0.000    0.000 
#
# Total GULP energy -66891.922977 kJ/mol
# GULP energy per Si atom -5574.326915 kJ/mol
# Density = 2.560890 g / cm^3
# Si number density = 25.667319 Si / 1000 Ang^3
#
#
#
# Elastic Constant Matrix: (Units=GPa)
#
#
# Indices 1 2 3 4 5 6 
#
# 1 152.8174 7.5536 19.8279 0.0000 -0.2775 0.0000
# 2 7.5536 101.0069 23.7273 0.0000 -15.1568 0.0000
# 3 19.8279 23.7273 91.7400 0.0000 -18.1650 0.0000
# 4 0.0000 0.0000 0.0000 12.5019 0.0000 -0.0836
# 5 -0.2775 -15.1568 -18.1650 0.0000 58.6896 0.0000
# 6 0.0000 0.0000 0.0000 -0.0836 0.0000 16.2502
#
#
#
# Elastic Compliance Matrix: (Units=1/GPa)
#
#
# Indices 1 2 3 4 5 6 
#
# 1 0.006748 -0.000227 -0.001497 0.000000 -0.000490 0.000000
# 2 -0.000227 0.010774 -0.002330 0.000000 0.002060 0.000000
# 3 -0.001497 -0.002330 0.012470 0.000000 0.003251 0.000000
# 4 0.000000 0.000000 0.000000 0.079991 0.000000 0.000411
# 5 -0.000490 0.002060 0.003251 0.000000 0.018575 0.000000
# 6 0.000000 0.000000 0.000000 0.000411 0.000000 0.061540
#
#
# Mechanical properties :
#
#
# Convention : Reuss Voigt Hill
#
# Bulk Modulus (GPa) = 45.69130 49.75354 47.72242
# Shear Modulus (GPa) = 24.33102 37.11869 30.72485
#
# Velocity S-wave (km/s) = 3.08220 3.80695 3.46358
# Velocity P-wave (km/s) = 5.52328 6.22494 5.88458
#
# Compressibility (1/GPa) = 0.02188601
#
# Stress axis : x y z
#
# Youngs Moduli (GPa) = 148.18571 92.81918 80.19171
#
# Poissons Ratio (x) = 0.02103 0.12004
# Poissons Ratio (y) = 0.03357 0.18681
# Poissons Ratio (z) = 0.22182 0.21623
#
# Static dielectric constant tensor:
#      x y z
#    x 2.081740 0.000000 -0.021470 
#    y 0.000000 1.998010 0.000000 
#    z -0.021470 0.000000 2.166680 
# 
# From -- ./inp_files/23913.got.cif
#   From: 2010.05.17/outbox.cif.g08.bks.cpg/sg9_12_cif.got.tgz:23913.got - 2010.06.03 20:04:27.
