data_PCOD9140495
_publ_section_title
;
Structure prediction by ZEFSAII (Michael W. Deem and Ramdas Pophale) SiO2 
 PCOD9140495
Probable space group: C C
;
_chemical_formula_sum "Si O2"
_cell_formula_units_Z 28
_cell_length_a 11.634813
_cell_length_b 7.643003
_cell_length_c 15.691864
_cell_angle_alpha 90.000000
_cell_angle_beta 124.470242
_cell_angle_gamma 90.000000
_cell_volume 1150.394048
_symmetry_space_group_name_H-M "C C"
_symmetry_group_IT_number 9
_symmetry_cell_setting 'monoclinic'
loop_
_space_group_symop_operation_xyz
x,y,z
x,-y,1/2+z
1/2+x,1/2+y,z
1/2+x,1/2-y,1/2+z
loop_
_atom_site_type_symbol
_atom_site_label
_atom_site_fract_x
_atom_site_fract_y
_atom_site_fract_z
Si Si1 0.071690 0.987349 0.889730
Si Si2 0.314779 0.372282 0.086862
Si Si3 0.812717 0.181059 0.201540
Si Si4 0.940119 0.517898 0.649570
Si Si5 0.538531 0.633955 0.561857
Si Si6 0.543221 0.116163 0.358251
Si Si7 0.381491 0.018530 0.947307
O O1 0.019342 0.177724 0.839372
O O2 0.222392 0.973222 0.906752
O O3 0.953333 0.848335 0.814146
O O4 0.081836 0.974760 0.996935
O O5 0.279858 0.489163 0.152793
O O6 0.353354 0.167691 0.116032
O O7 0.449334 0.458302 0.097206
O O8 0.186042 0.397107 0.969595
O O9 0.855683 0.316170 0.146274
O O10 0.665929 0.270297 0.165055
O O11 0.970600 0.559018 0.564007
O O12 0.051013 0.479575 0.770727
O O13 0.429930 0.779791 0.478791
O O14 0.423950 0.042616 0.371421
#
# Coordination Sequence:
#
# PCOD9140495 Si02
#       7
#     4   4   4   4   4   4   4
#     4  12  26  47  73 114 148 199 254 309 386 450
#     4  11  25  47  74 106 150 198 250 309 373 448
#     4  12  25  46  74 105 151 196 250 300 393 432
#     4  11  25  48  74 112 150 192 259 309 364 469
#     4  11  24  46  75 102 150 196 245 315 361 453
#     4  12  24  49  74 110 155 195 251 319 375 443
#     4  11  25  49  74 105 154 194 253 317 366 455
#
# _framework density 24.339485
#
# number of rings (size 3 to 8) (size 9 to 14) (size 15 to 20)
#    0.000    0.571    7.143    0.857    2.000    4.571 
#    7.714    0.000    0.000    0.000    0.000    0.000 
#    0.000    0.000    0.000    0.000    0.000    0.000 
#
# Total GULP energy -78095.794674 kJ/mol
# GULP energy per Si atom -5578.271048 kJ/mol
# Density = 2.428409 g / cm^3
# Si number density = 24.339485 Si / 1000 Ang^3
#
#
#
# Elastic Constant Matrix: (Units=GPa)
#
#
# Indices 1 2 3 4 5 6 
#
# 1 117.6934 15.9259 17.6236 0.0000 14.0022 0.0000
# 2 15.9259 51.7208 2.4037 0.0000 4.9738 0.0000
# 3 17.6236 2.4037 81.9934 0.0000 13.3573 0.0000
# 4 0.0000 0.0000 0.0000 33.2183 0.0000 -4.0705
# 5 14.0022 4.9738 13.3573 0.0000 39.6585 0.0000
# 6 0.0000 0.0000 0.0000 -4.0705 0.0000 31.1659
#
#
#
# Elastic Compliance Matrix: (Units=1/GPa)
#
#
# Indices 1 2 3 4 5 6 
#
# 1 0.009369 -0.002576 -0.001536 0.000000 -0.002467 0.000000
# 2 -0.002576 0.020282 0.000238 0.000000 -0.001714 0.000000
# 3 -0.001536 0.000238 0.013158 0.000000 -0.003919 0.000000
# 4 0.000000 0.000000 0.000000 0.030594 0.000000 0.003996
# 5 -0.002467 -0.001714 -0.003919 0.000000 0.027621 0.000000
# 6 0.000000 0.000000 0.000000 0.003996 0.000000 0.032608
#
#
# Mechanical properties :
#
#
# Convention : Reuss Voigt Hill
#
# Bulk Modulus (GPa) = 28.52236 35.92377 32.22307
# Shear Modulus (GPa) = 32.66561 35.17216 33.91888
#
# Velocity S-wave (km/s) = 3.66742 3.80553 3.73711
# Velocity P-wave (km/s) = 5.44769 5.83960 5.64704
#
# Compressibility (1/GPa) = 0.03506021
#
# Stress axis : x y z
#
# Youngs Moduli (GPa) = 106.73675 49.30570 76.00071
#
# Poissons Ratio (x) = 0.12702 0.11676
# Poissons Ratio (y) = 0.27497 -0.01812
# Poissons Ratio (z) = 0.16398 -0.01176
#
# Static dielectric constant tensor:
#      x y z
#    x 1.961460 0.000000 0.021080 
#    y 0.000000 1.918990 0.000000 
#    z 0.021080 0.000000 2.058320 
# 
# From -- ./inp_files/15934.got.cif
#   From: 2010.05.17/outbox.cif.g08.bks.cpg/sg9_8_cif.got.tgz:15934.got - 2010.06.03 20:04:27.
