data_PCOD9140582
_publ_section_title
;
Structure prediction by ZEFSAII (Michael W. Deem and Ramdas Pophale) SiO2 
 PCOD9140582
Probable space group: C C
;
_chemical_formula_sum "Si O2"
_cell_formula_units_Z 28
_cell_length_a 5.011851
_cell_length_b 14.710776
_cell_length_c 14.754816
_cell_angle_alpha 90.000000
_cell_angle_beta 103.553745
_cell_angle_gamma 90.000000
_cell_volume 1057.550323
_symmetry_space_group_name_H-M "C C"
_symmetry_group_IT_number 9
_symmetry_cell_setting 'monoclinic'
loop_
_space_group_symop_operation_xyz
x,y,z
x,-y,1/2+z
1/2+x,1/2+y,z
1/2+x,1/2-y,1/2+z
loop_
_atom_site_type_symbol
_atom_site_label
_atom_site_fract_x
_atom_site_fract_y
_atom_site_fract_z
Si Si1 0.568020 0.501903 0.541580
Si Si2 0.026803 0.612539 0.486321
Si Si3 0.599269 0.197315 0.307097
Si Si4 0.651779 0.606102 0.877490
Si Si5 0.580765 0.756183 0.145128
Si Si6 0.042331 0.566765 0.755391
Si Si7 0.341971 0.583766 0.184223
O O1 0.254331 0.533440 0.501491
O O2 0.660469 0.419787 0.483395
O O3 0.558448 0.479006 0.647690
O O4 0.754977 0.581573 0.516866
O O5 0.972495 0.644854 0.381240
O O6 0.144500 0.695581 0.555717
O O7 0.711422 0.290048 0.358190
O O8 0.358176 0.218067 0.214971
O O9 0.835709 0.136368 0.279776
O O10 0.345280 0.584217 0.820242
O O11 0.849530 0.550532 0.826099
O O12 0.469695 0.838367 0.199808
O O13 0.362248 0.673777 0.122240
O O14 0.100021 0.487732 0.685930
#
# Coordination Sequence:
#
# PCOD9140582 Si02
#       7
#     4   4   4   4   4   4   4
#     4  12  28  47  76 114 158 212 266 334 406 486
#     4  12  29  52  75 115 164 210 271 334 404 490
#     4  11  27  49  81 116 161 212 270 336 407 492
#     4  11  24  49  71 109 150 203 254 326 389 483
#     4  11  27  49  77 118 156 210 272 336 401 490
#     4  11  25  45  75 104 155 192 262 317 396 472
#     4  12  26  45  79 112 154 209 261 333 407 469
#
# _framework density 26.476279999999999
#
# number of rings (size 3 to 8) (size 9 to 14) (size 15 to 20)
#    0.000    0.571    2.857    3.429   12.000    0.000 
#    2.571    0.000    0.000    0.000    0.000    0.000 
#    0.000    0.000    0.000    0.000    0.000    0.000 
#
# Total GULP energy -78289.505977 kJ/mol
# GULP energy per Si atom -5592.107570 kJ/mol
# Density = 2.641602 g / cm^3
# Si number density = 26.476280 Si / 1000 Ang^3
#
#
#
# Elastic Constant Matrix: (Units=GPa)
#
#
# Indices 1 2 3 4 5 6 
#
# 1 116.6017 20.8087 76.7381 0.0000 -48.1957 0.0000
# 2 20.8087 131.4137 44.4338 0.0000 -25.0353 0.0000
# 3 76.7381 44.4338 163.5172 0.0000 -54.7464 0.0000
# 4 0.0000 0.0000 0.0000 58.3524 0.0000 -23.8197
# 5 -48.1957 -25.0353 -54.7464 0.0000 47.7499 0.0000
# 6 0.0000 0.0000 0.0000 -23.8197 0.0000 31.3046
#
#
#
# Elastic Compliance Matrix: (Units=1/GPa)
#
#
# Indices 1 2 3 4 5 6 
#
# 1 0.015911 0.001073 -0.003560 0.000000 0.012541 0.000000
# 2 0.001073 0.008706 -0.001588 0.000000 0.003827 0.000000
# 3 -0.003560 -0.001588 0.010933 0.000000 0.008109 0.000000
# 4 0.000000 0.000000 0.000000 0.024858 0.000000 0.018915
# 5 0.012541 0.003827 0.008109 0.000000 0.044904 0.000000
# 6 0.000000 0.000000 0.000000 0.018915 0.000000 0.046336
#
#
# Mechanical properties :
#
#
# Convention : Reuss Voigt Hill
#
# Bulk Modulus (GPa) = 36.49628 77.27709 56.88668
# Shear Modulus (GPa) = 29.59795 45.45151 37.52473
#
# Velocity S-wave (km/s) = 3.34713 4.14779 3.76878
# Velocity P-wave (km/s) = 5.36211 7.22423 6.36167
#
# Compressibility (1/GPa) = 0.02740006
#
# Stress axis : x y z
#
# Youngs Moduli (GPa) = 62.84893 114.86813 91.46941
#
# Poissons Ratio (x) = -0.12330 0.32563
# Poissons Ratio (y) = -0.06746 0.14526
# Poissons Ratio (z) = 0.22374 0.18242
#
# Static dielectric constant tensor:
#      x y z
#    x 2.062770 0.000000 0.075230 
#    y 0.000000 2.118520 0.000000 
#    z 0.075230 0.000000 2.068470 
# 
# From -- ./inp_files/21761.got.cif
#   From: 2010.05.17/outbox.cif.g08.bks.cpg/sg9_11_cif.got.tgz:21761.got - 2010.06.03 20:04:27.
