data_PCOD9140280
_publ_section_title
;
Structure prediction by ZEFSAII (Michael W. Deem and Ramdas Pophale) SiO2 
 PCOD9140280
Probable space group: C C
;
_chemical_formula_sum "Si O2"
_cell_formula_units_Z 32
_cell_length_a 10.375249
_cell_length_b 23.802281
_cell_length_c 8.566268
_cell_angle_alpha 90.000000
_cell_angle_beta 138.961554
_cell_angle_gamma 90.000000
_cell_volume 1388.950245
_symmetry_space_group_name_H-M "C C"
_symmetry_group_IT_number 9
_symmetry_cell_setting 'monoclinic'
loop_
_space_group_symop_operation_xyz
x,y,z
x,-y,1/2+z
1/2+x,1/2+y,z
1/2+x,1/2-y,1/2+z
loop_
_atom_site_type_symbol
_atom_site_label
_atom_site_fract_x
_atom_site_fract_y
_atom_site_fract_z
Si Si1 0.074690 0.797889 0.250000
Si Si2 0.971446 0.314365 0.490811
Si Si3 0.499062 0.799940 0.171289
Si Si4 0.339568 0.608158 0.021530
Si Si5 0.158337 0.504158 0.372753
Si Si6 0.929769 0.439058 0.433979
Si Si7 0.630483 0.313420 0.649106
Si Si8 0.966363 0.910694 0.995951
O O1 0.295348 0.819935 0.450434
O O2 0.039979 0.792954 0.401592
O O3 0.082159 0.739457 0.161613
O O4 0.955271 0.847370 0.057695
O O5 0.896710 0.301621 0.247339
O O6 0.037459 0.378344 0.535774
O O7 0.685389 0.840741 0.362253
O O8 0.567187 0.736715 0.206446
O O9 0.360181 0.818580 0.901736
O O10 0.528230 0.628454 0.098766
O O11 0.408058 0.594255 0.260266
O O12 0.237119 0.552606 0.863199
O O13 0.334767 0.548578 0.489122
O O14 0.065750 0.477978 0.447109
O O15 0.963645 0.532824 0.129544
O O16 0.697311 0.430187 0.196558
#
# Coordination Sequence:
#
# PCOD9140280 Si02
#       8
#     4   4   4   4   4   4   4   4
#     4  11  27  44  75 112 152 201 247 336 388 466
#     4  11  23  47  73 106 151 198 257 304 399 472
#     4  12  23  46  72 105 150 206 254 312 388 471
#     4  12  27  47  78 108 148 204 261 316 388 479
#     4  12  26  50  76 110 150 202 267 319 390 475
#     4  11  27  49  75 114 146 210 259 326 388 472
#     4  12  26  45  69 113 158 197 261 325 393 462
#     4  11  27  52  76 112 155 206 268 320 404 473
#
# _framework density 23.038982000000001
#
# number of rings (size 3 to 8) (size 9 to 14) (size 15 to 20)
#    0.000    0.500    3.750    3.750    7.000    0.000 
#    9.000    0.000    0.000    0.000    0.000    0.000 
#    0.000    0.000    0.000    0.000    0.000    0.000 
#
# Total GULP energy -89112.489038 kJ/mol
# GULP energy per Si atom -5569.530565 kJ/mol
# Density = 2.298654 g / cm^3
# Si number density = 23.038982 Si / 1000 Ang^3
#
#
#
# Elastic Constant Matrix: (Units=GPa)
#
#
# Indices 1 2 3 4 5 6 
#
# 1 58.4909 32.9017 18.2731 0.0000 1.7203 0.0000
# 2 32.9017 123.9685 53.4218 0.0000 -16.7130 0.0000
# 3 18.2731 53.4218 123.1886 0.0000 2.4869 0.0000
# 4 0.0000 0.0000 0.0000 40.1789 0.0000 8.5379
# 5 1.7203 -16.7130 2.4869 0.0000 41.3624 0.0000
# 6 0.0000 0.0000 0.0000 8.5379 0.0000 29.7368
#
#
#
# Elastic Compliance Matrix: (Units=1/GPa)
#
#
# Indices 1 2 3 4 5 6 
#
# 1 0.020525 -0.005632 -0.000539 0.000000 -0.003097 0.000000
# 2 -0.005632 0.012282 -0.004601 0.000000 0.005474 0.000000
# 3 -0.000539 -0.004601 0.010243 0.000000 -0.002453 0.000000
# 4 0.000000 0.000000 0.000000 0.026506 0.000000 -0.007610
# 5 -0.003097 0.005474 -0.002453 0.000000 0.026665 0.000000
# 6 0.000000 0.000000 0.000000 -0.007610 0.000000 0.035813
#
#
# Mechanical properties :
#
#
# Convention : Reuss Voigt Hill
#
# Bulk Modulus (GPa) = 46.50499 57.20460 51.85479
# Shear Modulus (GPa) = 31.10476 35.65904 33.38190
#
# Velocity S-wave (km/s) = 3.67835 3.93844 3.81061
# Velocity P-wave (km/s) = 6.18623 6.75019 6.47436
#
# Compressibility (1/GPa) = 0.02150307
#
# Stress axis : x y z
#
# Youngs Moduli (GPa) = 48.72211 81.41854 97.63176
#
# Poissons Ratio (x) = 0.45858 0.05267
# Poissons Ratio (y) = 0.27442 0.44924
# Poissons Ratio (z) = 0.02628 0.37463
#
# Static dielectric constant tensor:
#      x y z
#    x 1.931770 0.000000 0.007520 
#    y 0.000000 1.930500 0.000000 
#    z 0.007520 0.000000 1.906780 
# 
# From -- ./inp_files/8542.got.cif
#   From: 2010.05.17/outbox.cif.g08.bks.cpg/sg9_5_cif.got.tgz:8542.got - 2010.06.03 20:04:27.
