data_PCOD9140908
_publ_section_title
;
Structure prediction by ZEFSAII (Michael W. Deem and Ramdas Pophale) SiO2 
 PCOD9140908
Probable space group: C C
;
_chemical_formula_sum "Si O2"
_cell_formula_units_Z 32
_cell_length_a 26.435346
_cell_length_b 8.306418
_cell_length_c 8.864292
_cell_angle_alpha 90.000000
_cell_angle_beta 138.523596
_cell_angle_gamma 90.000000
_cell_volume 1289.155080
_symmetry_space_group_name_H-M "C C"
_symmetry_group_IT_number 9
_symmetry_cell_setting 'monoclinic'
loop_
_space_group_symop_operation_xyz
x,y,z
x,-y,1/2+z
1/2+x,1/2+y,z
1/2+x,1/2-y,1/2+z
loop_
_atom_site_type_symbol
_atom_site_label
_atom_site_fract_x
_atom_site_fract_y
_atom_site_fract_z
Si Si1 0.080700 0.824925 0.824980
Si Si2 0.002439 0.501798 0.065329
Si Si3 0.338755 0.675393 0.034574
Si Si4 0.673743 0.809627 0.114430
Si Si5 0.874329 0.155853 0.459812
Si Si6 0.039945 0.916557 0.426880
Si Si7 0.139701 0.644133 0.207566
Si Si8 0.895018 0.510966 0.078152
O O1 0.079929 0.938078 0.678080
O O2 0.050911 0.660117 0.686786
O O3 0.146188 0.776771 0.089867
O O4 0.023920 0.914327 0.810281
O O5 0.975584 0.540841 0.172488
O O6 0.920056 0.478882 0.807332
O O7 0.054795 0.627703 0.093396
O O8 0.252371 0.736523 0.870374
O O9 0.372430 0.824020 0.013234
O O10 0.379202 0.647072 0.287804
O O11 0.334796 0.504238 0.938078
O O12 0.604704 0.685279 0.984465
O O13 0.652765 0.977657 0.148207
O O14 0.688264 0.831469 0.967421
O O15 0.842421 0.336375 0.420962
O O16 0.955767 0.156381 0.729721
#
# Coordination Sequence:
#
# PCOD9140908 Si02
#       8
#     4   4   4   4   4   4   4   4
#     4  12  24  41  71 114 147 184 239 318 376 443
#     4  12  21  42  75 110 137 185 247 308 372 443
#     4  12  30  49  74 109 156 204 253 309 389 458
#     4  12  25  49  69 109 155 196 253 307 382 457
#     4  12  26  48  77 108 149 198 254 315 374 456
#     4  12  25  45  72 113 146 187 254 313 370 449
#     4  12  22  43  76 104 144 198 244 308 375 449
#     4  12  25  45  72 107 150 192 246 306 380 451
#
# _framework density 24.82246
#
# number of rings (size 3 to 8) (size 9 to 14) (size 15 to 20)
#    0.000    0.000    6.250    3.750    1.750    0.000 
#    6.750    0.000    0.000    0.000    0.000    0.000 
#    0.000    0.000    0.000    0.000    0.000    0.000 
#
# Total GULP energy -89215.968326 kJ/mol
# GULP energy per Si atom -5575.998020 kJ/mol
# Density = 2.476596 g / cm^3
# Si number density = 24.822460 Si / 1000 Ang^3
#
#
#
# Elastic Constant Matrix: (Units=GPa)
#
#
# Indices 1 2 3 4 5 6 
#
# 1 46.9019 19.0646 33.6882 0.0000 -8.1992 0.0000
# 2 19.0646 97.1718 19.0934 0.0000 -13.4914 0.0000
# 3 33.6882 19.0934 99.5194 0.0000 -22.9649 0.0000
# 4 0.0000 0.0000 0.0000 28.7299 0.0000 -16.9254
# 5 -8.1992 -13.4914 -22.9649 0.0000 47.3745 0.0000
# 6 0.0000 0.0000 0.0000 -16.9254 0.0000 39.8032
#
#
#
# Elastic Compliance Matrix: (Units=1/GPa)
#
#
# Indices 1 2 3 4 5 6 
#
# 1 0.029599 -0.004045 -0.009376 0.000000 -0.000574 0.000000
# 2 -0.004045 0.011476 -0.000270 0.000000 0.002437 0.000000
# 3 -0.009376 -0.000270 0.014504 0.000000 0.005331 0.000000
# 4 0.000000 0.000000 0.000000 0.046441 0.000000 0.019748
# 5 -0.000574 0.002437 0.005331 0.000000 0.024287 0.000000
# 6 0.000000 0.000000 0.000000 0.019748 0.000000 0.033521
#
#
# Mechanical properties :
#
#
# Convention : Reuss Voigt Hill
#
# Bulk Modulus (GPa) = 35.46385 43.03174 39.24779
# Shear Modulus (GPa) = 25.43105 34.63131 30.03118
#
# Velocity S-wave (km/s) = 3.20428 3.73924 3.48205
# Velocity P-wave (km/s) = 5.29225 6.00133 5.65791
#
# Compressibility (1/GPa) = 0.02819773
#
# Stress axis : x y z
#
# Youngs Moduli (GPa) = 33.78450 87.13798 68.94505
#
# Poissons Ratio (x) = 0.35244 0.64644
# Poissons Ratio (y) = 0.13665 0.01863
# Poissons Ratio (z) = 0.31677 0.02355
#
# Static dielectric constant tensor:
#      x y z
#    x 1.969560 0.000000 0.016150 
#    y 0.000000 2.111290 0.000000 
#    z 0.016150 0.000000 1.955590 
# 
# From -- ./inp_files/12708.got.cif
#   From: 2010.05.17/outbox.cif.g08.bks.cpg/sg9_7_cif.got.tgz:12708.got - 2010.06.03 20:04:27.
