data_PCOD9140586
_publ_section_title
;
Structure prediction by ZEFSAII (Michael W. Deem and Ramdas Pophale) SiO2 
 PCOD9140586
Probable space group: C C
;
_chemical_formula_sum "Si O2"
_cell_formula_units_Z 32
_cell_length_a 11.461505
_cell_length_b 13.491819
_cell_length_c 8.691768
_cell_angle_alpha 90.000000
_cell_angle_beta 79.546857
_cell_angle_gamma 90.000000
_cell_volume 1321.758401
_symmetry_space_group_name_H-M "C C"
_symmetry_group_IT_number 9
_symmetry_cell_setting 'monoclinic'
loop_
_space_group_symop_operation_xyz
x,y,z
x,-y,1/2+z
1/2+x,1/2+y,z
1/2+x,1/2-y,1/2+z
loop_
_atom_site_type_symbol
_atom_site_label
_atom_site_fract_x
_atom_site_fract_y
_atom_site_fract_z
Si Si1 0.515620 0.205506 0.969030
Si Si2 0.379723 0.125034 0.583142
Si Si3 0.506652 0.549546 0.979232
Si Si4 0.279267 0.475360 0.709996
Si Si5 0.295117 0.654865 0.507363
Si Si6 0.570459 0.268934 0.630097
Si Si7 0.598336 0.629934 0.636574
Si Si8 0.006117 0.499142 0.815697
O O1 0.384353 0.252979 0.986963
O O2 0.586018 0.251179 0.806563
O O3 0.520240 0.088710 0.938110
O O4 0.566757 0.256074 0.108882
O O5 0.441170 0.228122 0.614039
O O6 0.239122 0.123473 0.617509
O O7 0.432111 0.050677 0.698790
O O8 0.431529 0.088103 0.409194
O O9 0.370413 0.567010 0.061988
O O10 0.582705 0.619194 0.075180
O O11 0.547475 0.438127 0.009236
O O12 0.537017 0.585634 0.802624
O O13 0.298599 0.592582 0.666307
O O14 0.315056 0.421053 0.860345
O O15 0.137476 0.466814 0.732888
O O16 0.164256 0.699180 0.522646
#
# Coordination Sequence:
#
# PCOD9140586 Si02
#       8
#     4   4   4   4   4   4   4   4
#     4  11  25  48  69 107 139 190 244 296 368 432
#     4  11  25  47  68 104 143 192 237 292 369 431
#     4  12  26  45  73 104 145 190 242 302 362 433
#     4  12  22  46  74 104 140 187 247 296 360 427
#     4  12  24  45  77 101 145 191 242 308 363 430
#     4  11  25  47  70 102 144 192 239 298 368 429
#     4  12  27  47  69 108 145 189 242 299 369 437
#     4  11  24  49  74 102 145 191 241 299 363 437
#
# _framework density 24.210173000000001
#
# number of rings (size 3 to 8) (size 9 to 14) (size 15 to 20)
#    0.000    0.500    6.250    2.250    5.250    1.000 
#   11.250    0.000    0.000    0.000    0.000    0.000 
#    0.000    0.000    0.000    0.000    0.000    0.000 
#
# Total GULP energy -89497.690006 kJ/mol
# GULP energy per Si atom -5593.605625 kJ/mol
# Density = 2.415507 g / cm^3
# Si number density = 24.210173 Si / 1000 Ang^3
#
#
#
# Elastic Constant Matrix: (Units=GPa)
#
#
# Indices 1 2 3 4 5 6 
#
# 1 165.0834 17.4112 52.9790 0.0000 -26.5145 0.0000
# 2 17.4112 80.0069 34.5465 0.0000 -8.3351 0.0000
# 3 52.9790 34.5465 89.3389 0.0000 -27.3512 0.0000
# 4 0.0000 0.0000 0.0000 41.6990 0.0000 11.2985
# 5 -26.5145 -8.3351 -27.3512 0.0000 34.8471 0.0000
# 6 0.0000 0.0000 0.0000 11.2985 0.0000 27.9594
#
#
#
# Elastic Compliance Matrix: (Units=1/GPa)
#
#
# Indices 1 2 3 4 5 6 
#
# 1 0.007717 0.000256 -0.003763 0.000000 0.002979 0.000000
# 2 0.000256 0.015056 -0.006333 0.000000 -0.001175 0.000000
# 3 -0.003763 -0.006333 0.019130 0.000000 0.010637 0.000000
# 4 0.000000 0.000000 0.000000 0.026930 0.000000 -0.010883
# 5 0.002979 -0.001175 0.010637 0.000000 0.039032 0.000000
# 6 0.000000 0.000000 0.000000 -0.010883 0.000000 0.040164
#
#
# Mechanical properties :
#
#
# Convention : Reuss Voigt Hill
#
# Bulk Modulus (GPa) = 45.00078 60.47807 52.73942
# Shear Modulus (GPa) = 28.55247 36.20060 32.37653
#
# Velocity S-wave (km/s) = 3.43790 3.87106 3.66089
# Velocity P-wave (km/s) = 5.86403 6.70931 6.30086
#
# Compressibility (1/GPa) = 0.02222184
#
# Stress axis : x y z
#
# Youngs Moduli (GPa) = 129.58968 66.42087 52.27270
#
# Poissons Ratio (x) = -0.01700 0.19670
# Poissons Ratio (y) = -0.03316 0.33106
# Poissons Ratio (z) = 0.48764 0.42067
#
# Static dielectric constant tensor:
#      x y z
#    x 1.922260 0.000000 0.033380 
#    y 0.000000 1.924940 0.000000 
#    z 0.033380 0.000000 1.956380 
# 
# From -- ./inp_files/7427.got.cif
#   From: 2010.05.17/outbox.cif.g08.bks.cpg/sg9_4_cif.got.tgz:7427.got - 2010.06.03 20:04:27.
