data_PCOD9140231
_publ_section_title
;
Structure prediction by ZEFSAII (Michael W. Deem and Ramdas Pophale) SiO2 
 PCOD9140231
Probable space group: C C
;
_chemical_formula_sum "Si O2"
_cell_formula_units_Z 24
_cell_length_a 9.005196
_cell_length_b 10.675523
_cell_length_c 11.377630
_cell_angle_alpha 90.000000
_cell_angle_beta 86.914453
_cell_angle_gamma 90.000000
_cell_volume 1092.204784
_symmetry_space_group_name_H-M "C C"
_symmetry_group_IT_number 9
_symmetry_cell_setting 'monoclinic'
loop_
_space_group_symop_operation_xyz
x,y,z
x,-y,1/2+z
1/2+x,1/2+y,z
1/2+x,1/2-y,1/2+z
loop_
_atom_site_type_symbol
_atom_site_label
_atom_site_fract_x
_atom_site_fract_y
_atom_site_fract_z
Si Si1 0.272170 0.414515 0.779160
Si Si2 0.060865 0.423980 0.008211
Si Si3 0.116562 0.071438 0.287777
Si Si4 0.583812 0.204783 0.100020
Si Si5 0.760626 0.198579 0.687910
Si Si6 0.209627 0.954242 0.025852
O O1 0.145411 0.409395 0.882658
O O2 0.442249 0.399095 0.807910
O O3 0.214043 0.310447 0.691074
O O4 0.277529 0.556812 0.730550
O O5 0.088449 0.568093 0.043803
O O6 0.140171 0.322261 0.089126
O O7 0.883359 0.420092 0.018131
O O8 0.197207 0.204978 0.283687
O O9 0.169998 0.987812 0.397986
O O10 0.158208 0.016888 0.153500
O O11 0.417419 0.238179 0.148475
O O12 0.622157 0.324854 0.024171
#
# Coordination Sequence:
#
# PCOD9140231 Si02
#       6
#     4   4   4   4   4   4
#     4  11  25  43  73 102 141 189 237 297 364 424
#     4  11  25  43  73 102 141 189 237 297 364 424
#     4  12  26  47  72 104 146 189 241 296 357 429
#     4  11  23  46  70 101 143 186 239 293 361 431
#     4  11  23  46  70 101 143 186 239 293 361 431
#     4  12  26  47  72 104 146 189 241 296 357 429
#
# _framework density 21.973903
#
# number of rings (size 3 to 8) (size 9 to 14) (size 15 to 20)
#    0.000    0.667    3.333    4.000    4.667    1.333 
#    6.000    0.000    0.000    0.000    0.000    0.000 
#    0.000    0.000    0.000    0.000    0.000    0.000 
#
# Total GULP energy -66888.019026 kJ/mol
# GULP energy per Si atom -5574.001586 kJ/mol
# Density = 2.192389 g / cm^3
# Si number density = 21.973903 Si / 1000 Ang^3
#
#
#
# Elastic Constant Matrix: (Units=GPa)
#
#
# Indices 1 2 3 4 5 6 
#
# 1 79.1211 -14.8129 -15.0391 0.0000 14.6835 0.0000
# 2 -14.8129 50.1317 6.5187 0.0000 -5.3433 0.0000
# 3 -15.0391 6.5187 67.2082 0.0000 12.4670 0.0000
# 4 0.0000 0.0000 0.0000 27.0396 0.0000 -14.5171
# 5 14.6835 -5.3433 12.4670 0.0000 28.1468 0.0000
# 6 0.0000 0.0000 0.0000 -14.5171 0.0000 37.3259
#
#
#
# Elastic Compliance Matrix: (Units=1/GPa)
#
#
# Indices 1 2 3 4 5 6 
#
# 1 0.016058 0.002995 0.005177 0.000000 -0.010101 0.000000
# 2 0.002995 0.021463 -0.002046 0.000000 0.003418 0.000000
# 3 0.005177 -0.002046 0.018314 0.000000 -0.011200 0.000000
# 4 0.000000 0.000000 0.000000 0.046743 0.000000 0.018180
# 5 -0.010101 0.003418 -0.011200 0.000000 0.046407 0.000000
# 6 0.000000 0.000000 0.000000 0.018180 0.000000 0.033862
#
#
# Mechanical properties :
#
#
# Convention : Reuss Voigt Hill
#
# Bulk Modulus (GPa) = 14.68714 16.64383 15.66549
# Shear Modulus (GPa) = 25.86785 33.15541 29.51163
#
# Velocity S-wave (km/s) = 3.43477 3.88861 3.66871
# Velocity P-wave (km/s) = 4.73588 5.26807 5.00905
#
# Compressibility (1/GPa) = 0.06808679
#
# Stress axis : x y z
#
# Youngs Moduli (GPa) = 62.27350 46.59243 54.60434
#
# Poissons Ratio (x) = -0.13955 -0.28267
# Poissons Ratio (y) = -0.18651 0.11170
# Poissons Ratio (z) = -0.32237 0.09531
#
# Static dielectric constant tensor:
#      x y z
#    x 1.826750 0.000000 0.050610 
#    y 0.000000 1.366320 0.000000 
#    z 0.050610 0.000000 2.012190 
# 
# From -- ./inp_files/14113.got.cif
#   From: 2010.05.17/outbox.cif.g08.bks.cpg/sg9_8_cif.got.tgz:14113.got - 2010.06.03 20:04:27.
