data_PCOD9140978
_publ_section_title
;
Structure prediction by ZEFSAII (Michael W. Deem and Ramdas Pophale) SiO2 
 PCOD9140978
Probable space group: C C
;
_chemical_formula_sum "Si O2"
_cell_formula_units_Z 24
_cell_length_a 9.301028
_cell_length_b 12.241923
_cell_length_c 8.237566
_cell_angle_alpha 90.000000
_cell_angle_beta 91.356090
_cell_angle_gamma 90.000000
_cell_volume 937.686899
_symmetry_space_group_name_H-M "C C"
_symmetry_group_IT_number 9
_symmetry_cell_setting 'monoclinic'
loop_
_space_group_symop_operation_xyz
x,y,z
x,-y,1/2+z
1/2+x,1/2+y,z
1/2+x,1/2-y,1/2+z
loop_
_atom_site_type_symbol
_atom_site_label
_atom_site_fract_x
_atom_site_fract_y
_atom_site_fract_z
Si Si1 0.855260 0.884338 0.250000
Si Si2 0.755490 0.555019 0.265486
Si Si3 0.505910 0.175609 0.119095
Si Si4 0.021536 0.333189 0.256678
Si Si5 0.245892 0.157832 0.606251
Si Si6 0.978374 0.109033 0.115181
O O1 0.685145 0.864687 0.234256
O O2 0.911541 0.869266 0.436499
O O3 0.923489 0.788994 0.144989
O O4 0.904154 0.001071 0.184158
O O5 0.703269 0.612530 0.429013
O O6 0.652097 0.598307 0.118072
O O7 0.919674 0.591533 0.232299
O O8 0.714880 0.427102 0.250995
O O9 0.489637 0.129960 0.937999
O O10 0.669757 0.224969 0.135771
O O11 0.970048 0.206950 0.244349
O O12 0.917683 0.365942 0.107716
#
# Coordination Sequence:
#
# PCOD9140978 Si02
#       6
#     4   4   4   4   4   4
#     4  12  27  47  77 109 149 200 251 306 379 447
#     4  12  25  48  76 109 148 197 253 306 379 447
#     4  12  24  45  74 110 147 194 246 304 375 443
#     4  12  27  47  72 114 149 191 253 309 378 450
#     4  12  27  47  75 110 150 195 248 314 376 445
#     4  12  24  48  76 104 151 193 251 311 365 448
#
# _framework density 25.594895999999999
#
# number of rings (size 3 to 8) (size 9 to 14) (size 15 to 20)
#    0.000    0.000    5.000    5.000    2.333    5.333 
#    0.000    0.000    0.000    0.000    0.000    0.000 
#    0.000    0.000    0.000    0.000    0.000    0.000 
#
# Total GULP energy -66905.681399 kJ/mol
# GULP energy per Si atom -5575.473450 kJ/mol
# Density = 2.553664 g / cm^3
# Si number density = 25.594896 Si / 1000 Ang^3
#
#
#
# Elastic Constant Matrix: (Units=GPa)
#
#
# Indices 1 2 3 4 5 6 
#
# 1 162.0402 11.4329 72.0625 0.0000 26.8078 0.0000
# 2 11.4329 100.5196 15.8960 0.0000 -4.1063 0.0000
# 3 72.0625 15.8960 104.3333 0.0000 4.8929 0.0000
# 4 0.0000 0.0000 0.0000 19.9976 0.0000 -9.5850
# 5 26.8078 -4.1063 4.8929 0.0000 52.1148 0.0000
# 6 0.0000 0.0000 0.0000 -9.5850 0.0000 41.2063
#
#
#
# Elastic Compliance Matrix: (Units=1/GPa)
#
#
# Indices 1 2 3 4 5 6 
#
# 1 0.009841 -0.000267 -0.006547 0.000000 -0.004468 0.000000
# 2 -0.000267 0.010249 -0.001428 0.000000 0.001079 0.000000
# 3 -0.006547 -0.001428 0.014234 0.000000 0.001919 0.000000
# 4 0.000000 0.000000 0.000000 0.056281 0.000000 0.013091
# 5 -0.004468 0.001079 0.001919 0.000000 0.021392 0.000000
# 6 0.000000 0.000000 0.000000 0.013091 0.000000 0.027313
#
#
# Mechanical properties :
#
#
# Convention : Reuss Voigt Hill
#
# Bulk Modulus (GPa) = 56.05120 62.85290 59.45205
# Shear Modulus (GPa) = 30.91396 40.49717 35.70557
#
# Velocity S-wave (km/s) = 3.47914 3.98205 3.73906
# Velocity P-wave (km/s) = 6.17139 6.76405 6.47451
#
# Compressibility (1/GPa) = 0.01784083
#
# Stress axis : x y z
#
# Youngs Moduli (GPa) = 101.61659 97.57524 70.25358
#
# Poissons Ratio (x) = 0.02600 0.45994
# Poissons Ratio (y) = 0.02708 0.10032
# Poissons Ratio (z) = 0.66527 0.13933
#
# Static dielectric constant tensor:
#      x y z
#    x 2.224840 0.000000 0.029270 
#    y 0.000000 2.229560 0.000000 
#    z 0.029270 0.000000 1.902000 
# 
# From -- ./inp_files/4929.got.cif
#   From: 2010.05.17/outbox.cif.g08.bks.cpg/sg9_3_cif.got.tgz:4929.got - 2010.06.03 20:04:27.
