data_PCOD9140730
_publ_section_title
;
Structure prediction by ZEFSAII (Michael W. Deem and Ramdas Pophale) SiO2 
 PCOD9140730
Probable space group: C C
;
_chemical_formula_sum "Si O2"
_cell_formula_units_Z 32
_cell_length_a 9.080540
_cell_length_b 11.904920
_cell_length_c 13.008555
_cell_angle_alpha 90.000000
_cell_angle_beta 108.858604
_cell_angle_gamma 90.000000
_cell_volume 1330.775630
_symmetry_space_group_name_H-M "C C"
_symmetry_group_IT_number 9
_symmetry_cell_setting 'monoclinic'
loop_
_space_group_symop_operation_xyz
x,y,z
x,-y,1/2+z
1/2+x,1/2+y,z
1/2+x,1/2-y,1/2+z
loop_
_atom_site_type_symbol
_atom_site_label
_atom_site_fract_x
_atom_site_fract_y
_atom_site_fract_z
Si Si1 0.654280 0.162971 0.669200
Si Si2 0.972334 0.144388 0.048889
Si Si3 0.980199 0.171314 0.818665
Si Si4 0.009994 0.595197 0.846626
Si Si5 0.513852 0.265139 0.038130
Si Si6 0.218504 0.624488 0.393664
Si Si7 0.718274 0.905854 0.663885
Si Si8 0.670201 0.548278 0.689276
O O1 0.543005 0.231596 0.570744
O O2 0.823367 0.213592 0.729568
O O3 0.572638 0.157587 0.760798
O O4 0.677959 0.035218 0.641542
O O5 0.829342 0.132178 0.095862
O O6 0.938773 0.120847 0.921705
O O7 0.107005 0.063853 0.123103
O O8 0.103809 0.269637 0.862275
O O9 0.056091 0.082537 0.757426
O O10 0.006274 0.689357 0.934007
O O11 0.840580 0.549161 0.776470
O O12 0.121680 0.488646 0.894725
O O13 0.357570 0.339678 0.001158
O O14 0.559166 0.166815 0.128041
O O15 0.647758 0.355624 0.096451
O O16 0.287500 0.610081 0.293441
#
# Coordination Sequence:
#
# PCOD9140730 Si02
#       8
#     4   4   4   4   4   4   4   4
#     4  11  26  47  75 110 156 199 263 325 388 474
#     4  12  28  46  79 114 156 209 265 324 396 474
#     4  12  26  47  73 115 150 204 266 326 388 472
#     4  11  26  49  77 115 155 210 261 322 401 478
#     4  12  24  43  82 110 152 211 260 316 401 467
#     4  11  26  48  80 110 163 210 262 330 399 474
#     4  11  25  48  75 112 160 206 255 333 400 466
#     4  12  27  50  75 114 164 203 264 332 399 471
#
# _framework density 24.046128
#
# number of rings (size 3 to 8) (size 9 to 14) (size 15 to 20)
#    0.000    0.500    3.750    3.000    8.750    3.000 
#    0.000    1.250    0.000    0.000    0.000    0.000 
#    0.000    0.000    0.000    0.000    0.000    0.000 
#
# Total GULP energy -89564.368816 kJ/mol
# GULP energy per Si atom -5597.773051 kJ/mol
# Density = 2.399140 g / cm^3
# Si number density = 24.046128 Si / 1000 Ang^3
#
#
#
# Elastic Constant Matrix: (Units=GPa)
#
#
# Indices 1 2 3 4 5 6 
#
# 1 98.0822 23.7327 46.4648 0.0000 9.4993 0.0000
# 2 23.7327 109.1796 31.7760 0.0000 12.4177 0.0000
# 3 46.4648 31.7760 141.8152 0.0000 3.9462 0.0000
# 4 0.0000 0.0000 0.0000 38.3627 0.0000 17.2003
# 5 9.4993 12.4177 3.9462 0.0000 41.4520 0.0000
# 6 0.0000 0.0000 0.0000 17.2003 0.0000 40.8332
#
#
#
# Elastic Compliance Matrix: (Units=1/GPa)
#
#
# Indices 1 2 3 4 5 6 
#
# 1 0.012500 -0.001395 -0.003725 0.000000 -0.002092 0.000000
# 2 -0.001395 0.010273 -0.001773 0.000000 -0.002589 0.000000
# 3 -0.003725 -0.001773 0.008653 0.000000 0.000561 0.000000
# 4 0.000000 0.000000 0.000000 0.032136 0.000000 -0.013537
# 5 -0.002092 -0.002589 0.000561 0.000000 0.025326 0.000000
# 6 0.000000 0.000000 0.000000 -0.013537 0.000000 0.030192
#
#
# Mechanical properties :
#
#
# Convention : Reuss Voigt Hill
#
# Bulk Modulus (GPa) = 56.68516 61.44712 59.06614
# Shear Modulus (GPa) = 36.03689 40.60313 38.32001
#
# Velocity S-wave (km/s) = 3.87545 4.11366 3.99633
# Velocity P-wave (km/s) = 6.60683 6.94062 6.77578
#
# Compressibility (1/GPa) = 0.01764130
#
# Stress axis : x y z
#
# Youngs Moduli (GPa) = 79.99800 97.34370 115.56120
#
# Poissons Ratio (x) = 0.13582 0.43044
# Poissons Ratio (y) = 0.11161 0.20485
# Poissons Ratio (z) = 0.29798 0.17255
#
# Static dielectric constant tensor:
#      x y z
#    x 1.961980 0.000000 -0.002940 
#    y 0.000000 1.908130 0.000000 
#    z -0.002940 0.000000 1.980570 
# 
# From -- ./inp_files/22923.got.cif
#   From: 2010.05.17/outbox.cif.g08.bks.cpg/sg9_12_cif.got.tgz:22923.got - 2010.06.03 20:04:27.
