data_PCOD9140335
_publ_section_title
;
Structure prediction by ZEFSAII (Michael W. Deem and Ramdas Pophale) SiO2 
 PCOD9140335
Probable space group: C C
;
_chemical_formula_sum "Si O2"
_cell_formula_units_Z 32
_cell_length_a 8.707079
_cell_length_b 12.117955
_cell_length_c 14.258228
_cell_angle_alpha 90.000000
_cell_angle_beta 63.655345
_cell_angle_gamma 90.000000
_cell_volume 1348.166852
_symmetry_space_group_name_H-M "C C"
_symmetry_group_IT_number 9
_symmetry_cell_setting 'monoclinic'
loop_
_space_group_symop_operation_xyz
x,y,z
x,-y,1/2+z
1/2+x,1/2+y,z
1/2+x,1/2-y,1/2+z
loop_
_atom_site_type_symbol
_atom_site_label
_atom_site_fract_x
_atom_site_fract_y
_atom_site_fract_z
Si Si1 0.498310 0.131578 0.213350
Si Si2 0.358924 0.558594 0.147168
Si Si3 0.566458 0.628068 0.697122
Si Si4 0.386129 0.901657 0.430789
Si Si5 0.063619 0.961845 0.397651
Si Si6 0.111996 0.239045 0.119377
Si Si7 0.953151 0.550764 0.570563
Si Si8 0.642873 0.705115 0.324625
O O1 0.656199 0.066464 0.216062
O O2 0.566189 0.248609 0.159608
O O3 0.329700 0.173065 0.314147
O O4 0.455958 0.053519 0.138458
O O5 0.441311 0.453839 0.175885
O O6 0.434177 0.671708 0.169119
O O7 0.431259 0.554683 0.019955
O O8 0.528597 0.616060 0.818303
O O9 0.759247 0.590181 0.630052
O O10 0.262799 0.937804 0.376890
O O11 0.241469 0.840806 0.531476
O O12 0.531128 0.808099 0.386653
O O13 0.470215 0.005353 0.460861
O O14 0.047631 0.088051 0.365202
O O15 0.174065 0.240682 0.208645
O O16 0.079210 0.354324 0.075312
#
# Coordination Sequence:
#
# PCOD9140335 Si02
#       8
#     4   4   4   4   4   4   4   4
#     4  12  28  44  76 109 149 204 250 307 386 450
#     4  11  25  46  78 110 151 203 248 315 389 443
#     4  12  24  50  74 108 156 192 253 320 379 461
#     4  11  26  46  75 113 149 203 256 321 386 449
#     4  11  24  48  76 112 149 196 261 325 375 462
#     4  11  23  51  77 104 154 201 247 318 385 454
#     4  12  24  48  77 108 154 197 249 315 386 458
#     4  12  26  47  77 110 154 198 258 311 382 463
#
# _framework density 23.735935000000001
#
# number of rings (size 3 to 8) (size 9 to 14) (size 15 to 20)
#    0.000    0.500    7.500    0.750    5.250    1.000 
#    4.500    0.000    0.000    0.000    0.000    0.000 
#    0.000    0.000    0.000    0.000    0.000    0.000 
#
# Total GULP energy -89401.603621 kJ/mol
# GULP energy per Si atom -5587.600226 kJ/mol
# Density = 2.368191 g / cm^3
# Si number density = 23.735935 Si / 1000 Ang^3
#
#
#
# Elastic Constant Matrix: (Units=GPa)
#
#
# Indices 1 2 3 4 5 6 
#
# 1 165.7930 72.7434 100.2066 0.0000 67.8485 0.0000
# 2 72.7434 155.9999 40.9760 0.0000 56.6871 0.0000
# 3 100.2066 40.9760 132.3190 0.0000 85.3550 0.0000
# 4 0.0000 0.0000 0.0000 -146.4698 0.0000 -106.9102
# 5 67.8485 56.6871 85.3550 0.0000 98.6368 0.0000
# 6 0.0000 0.0000 0.0000 -106.9102 0.0000 -4.3334
#
#
#
# Elastic Compliance Matrix: (Units=1/GPa)
#
#
# Indices 1 2 3 4 5 6 
#
# 1 0.013000 -0.004197 -0.009808 0.000000 0.001957 0.000000
# 2 -0.004197 0.009531 0.004296 0.000000 -0.006308 0.000000
# 3 -0.009808 0.004296 0.024662 0.000000 -0.017064 0.000000
# 4 0.000000 0.000000 0.000000 0.000401 0.000000 -0.009904
# 5 0.001957 -0.006308 -0.017064 0.000000 0.027184 0.000000
# 6 0.000000 0.000000 0.000000 -0.009904 0.000000 0.013568
#
#
# Mechanical properties :
#
#
# Convention : Reuss Voigt Hill
#
# Bulk Modulus (GPa) = 36.00207 97.99598 66.99903
# Shear Modulus (GPa) = 42.72697 5.57912 24.15305
#
# Velocity S-wave (km/s) = 4.24736 1.53480 3.19340
# Velocity P-wave (km/s) = 6.26531 6.67206 6.47188
#
# Compressibility (1/GPa) = 0.02777618
#
# Stress axis : x y z
#
# Youngs Moduli (GPa) = 76.92238 104.91906 40.54848
#
# Poissons Ratio (x) = 0.44033 0.39769
# Poissons Ratio (y) = 0.32283 -0.17420
# Poissons Ratio (z) = 0.75443 -0.45074
#
# Static dielectric constant tensor:
#      x y z
#    x 1.934480 0.000000 0.012770 
#    y 0.000000 2.120780 0.000000 
#    z 0.012770 0.000000 1.925120 
# 
# From -- ./inp_files/22852.got.cif
#   From: 2010.05.17/outbox.cif.g08.bks.cpg/sg9_12_cif.got.tgz:22852.got - 2010.06.03 20:04:27.
