data_PCOD9140601
_publ_section_title
;
Structure prediction by ZEFSAII (Michael W. Deem and Ramdas Pophale) SiO2 
 PCOD9140601
Probable space group: C C
;
_chemical_formula_sum "Si O2"
_cell_formula_units_Z 28
_cell_length_a 11.441810
_cell_length_b 11.838450
_cell_length_c 16.016702
_cell_angle_alpha 90.000000
_cell_angle_beta 149.595448
_cell_angle_gamma 90.000000
_cell_volume 1097.996539
_symmetry_space_group_name_H-M "C C"
_symmetry_group_IT_number 9
_symmetry_cell_setting 'monoclinic'
loop_
_space_group_symop_operation_xyz
x,y,z
x,-y,1/2+z
1/2+x,1/2+y,z
1/2+x,1/2-y,1/2+z
loop_
_atom_site_type_symbol
_atom_site_label
_atom_site_fract_x
_atom_site_fract_y
_atom_site_fract_z
Si Si1 0.067790 0.405898 0.677130
Si Si2 0.295597 0.397445 0.229685
Si Si3 0.759043 0.148779 0.049967
Si Si4 0.158503 0.988232 0.863194
Si Si5 0.494880 0.696980 0.517160
Si Si6 0.510052 0.307830 0.532017
Si Si7 0.336586 0.997673 0.286132
O O1 0.226147 0.475886 0.710479
O O2 0.855501 0.494888 0.556100
O O3 0.982445 0.292236 0.580404
O O4 0.248269 0.364847 0.856967
O O5 0.490238 0.408092 0.280755
O O6 0.383899 0.346999 0.371224
O O7 0.090612 0.319924 0.072557
O O8 0.593011 0.237295 0.995397
O O9 0.991540 0.119090 0.245824
O O10 0.851033 0.183500 0.015826
O O11 0.602537 0.036631 0.940166
O O12 0.275545 0.006201 0.846372
O O13 0.682501 0.601723 0.651669
O O14 0.735038 0.386797 0.685829
#
# Coordination Sequence:
#
# PCOD9140601 Si02
#       7
#     4   4   4   4   4   4   4
#     4  12  25  46  76 111 152 199 260 317 386 455
#     4  12  28  49  71 112 152 211 246 309 388 468
#     4  11  25  47  82 107 147 201 257 326 376 454
#     4  11  25  48  76 105 156 199 250 317 387 454
#     4  12  23  45  78 112 146 190 267 322 377 449
#     4  11  30  47  73 106 159 198 253 306 390 456
#     4  11  24  50  74 113 142 198 263 319 382 458
#
# _framework density 25.500990999999999
#
# number of rings (size 3 to 8) (size 9 to 14) (size 15 to 20)
#    0.000    0.571    5.714    0.000    8.000    4.571 
#    2.571    0.000    0.000    0.000    0.000    0.000 
#    0.000    0.000    0.000    0.000    0.000    0.000 
#
# Total GULP energy -78389.246568 kJ/mol
# GULP energy per Si atom -5599.231898 kJ/mol
# Density = 2.544295 g / cm^3
# Si number density = 25.500991 Si / 1000 Ang^3
#
#
#
# Elastic Constant Matrix: (Units=GPa)
#
#
# Indices 1 2 3 4 5 6 
#
# 1 52.4635 18.2349 18.3012 0.0007 8.7266 -0.0007
# 2 18.2349 93.3850 35.4369 0.0048 -0.9150 0.0016
# 3 18.3012 35.4369 155.3583 0.0142 -1.8526 0.0046
# 4 0.0007 0.0048 0.0142 71.2949 0.0038 -3.0361
# 5 8.7266 -0.9150 -1.8526 0.0038 30.9233 0.0004
# 6 -0.0007 0.0016 0.0046 -3.0361 0.0004 26.3410
#
#
#
# Elastic Compliance Matrix: (Units=1/GPa)
#
#
# Indices 1 2 3 4 5 6 
#
# 1 0.022049 -0.003672 -0.001837 0.000001 -0.006441 0.000001
# 2 -0.003672 0.012336 -0.002366 0.000000 0.001259 -0.000001
# 3 -0.001837 -0.002366 0.007203 -0.000001 0.000880 -0.000001
# 4 0.000001 0.000000 -0.000001 0.014095 -0.000002 0.001625
# 5 -0.006441 0.001259 0.000880 -0.000002 0.034246 -0.000001
# 6 0.000001 -0.000001 -0.000001 0.001625 -0.000001 0.038151
#
#
# Mechanical properties :
#
#
# Convention : Reuss Voigt Hill
#
# Bulk Modulus (GPa) = 38.70115 49.46142 44.08129
# Shear Modulus (GPa) = 32.79937 40.99408 36.89673
#
# Velocity S-wave (km/s) = 3.59025 4.01377 3.80791
# Velocity P-wave (km/s) = 5.69173 6.39676 6.05452
#
# Compressibility (1/GPa) = 0.02583902
#
# Stress axis : x y z
#
# Youngs Moduli (GPa) = 45.35334 81.06671 138.82504
#
# Poissons Ratio (x) = 0.29764 0.25498
# Poissons Ratio (y) = 0.16652 0.32849
# Poissons Ratio (z) = 0.08330 0.19182
#
# Static dielectric constant tensor:
#      x y z
#    x 1.956330 0.000000 0.012220 
#    y 0.000000 2.002130 0.000000 
#    z 0.012220 0.000000 2.061970 
# 
# From -- ./inp_files/19334.got.cif
#   From: 2010.05.17/outbox.cif.g08.bks.cpg/sg9_10_cif.got.tgz:19334.got - 2010.06.03 20:04:27.
