data_PCOD9140276
_publ_section_title
;
Structure prediction by ZEFSAII (Michael W. Deem and Ramdas Pophale) SiO2 
 PCOD9140276
Probable space group: C C
;
_chemical_formula_sum "Si O2"
_cell_formula_units_Z 32
_cell_length_a 5.323823
_cell_length_b 23.565823
_cell_length_c 11.183893
_cell_angle_alpha 90.000000
_cell_angle_beta 104.042517
_cell_angle_gamma 90.000000
_cell_volume 1361.202891
_symmetry_space_group_name_H-M "C C"
_symmetry_group_IT_number 9
_symmetry_cell_setting 'monoclinic'
loop_
_space_group_symop_operation_xyz
x,y,z
x,-y,1/2+z
1/2+x,1/2+y,z
1/2+x,1/2-y,1/2+z
loop_
_atom_site_type_symbol
_atom_site_label
_atom_site_fract_x
_atom_site_fract_y
_atom_site_fract_z
Si Si1 0.652570 0.793527 0.024830
Si Si2 0.748301 0.205225 0.265885
Si Si3 0.385366 0.486398 0.157916
Si Si4 0.828673 0.478676 0.001374
Si Si5 0.744907 0.325257 0.159372
Si Si6 0.281412 0.833151 0.578085
Si Si7 0.081298 0.900719 0.774449
Si Si8 0.212878 0.911943 0.353244
O O1 0.424532 0.825457 0.065032
O O2 0.647517 0.728236 0.070446
O O3 0.938656 0.818159 0.092206
O O4 0.606293 0.792943 0.877421
O O5 0.823984 0.269410 0.245061
O O6 0.580292 0.183885 0.132885
O O7 0.957411 0.156642 0.308797
O O8 0.605578 0.483548 0.078235
O O9 0.381612 0.551244 0.204441
O O10 0.466455 0.446759 0.278129
O O11 0.109252 0.465792 0.083905
O O12 0.805113 0.380009 0.245535
O O13 0.869725 0.538678 0.937090
O O14 0.743642 0.433385 0.892598
O O15 0.232393 0.878330 0.676553
O O16 0.188075 0.862449 0.446836
#
# Coordination Sequence:
#
# PCOD9140276 Si02
#       8
#     4   4   4   4   4   4   4   4
#     4  11  26  46  71 108 151 192 252 295 363 442
#     4  11  25  45  75 106 149 198 250 301 367 444
#     4  11  27  49  74 110 143 191 253 308 371 433
#     4  11  27  48  76 108 143 193 252 307 373 437
#     4  11  26  46  72 110 146 198 245 304 368 435
#     4  11  23  47  71 108 149 201 239 299 376 444
#     4  11  25  44  77 104 149 194 247 309 370 438
#     4  11  25  49  76 108 154 193 244 309 372 443
#
# _framework density 23.508617999999998
#
# number of rings (size 3 to 8) (size 9 to 14) (size 15 to 20)
#    0.000    1.000    3.750    0.750    5.250    5.000 
#    4.500    0.000    0.000    0.000    0.000    0.000 
#    0.000    0.000    0.000    0.000    0.000    0.000 
#
# Total GULP energy -89472.909739 kJ/mol
# GULP energy per Si atom -5592.056859 kJ/mol
# Density = 2.345511 g / cm^3
# Si number density = 23.508618 Si / 1000 Ang^3
#
#
#
# Elastic Constant Matrix: (Units=GPa)
#
#
# Indices 1 2 3 4 5 6 
#
# 1 82.0850 29.2915 32.5639 0.0000 -5.5515 0.0000
# 2 29.2915 112.1479 31.7400 0.0000 2.9668 0.0000
# 3 32.5639 31.7400 96.2490 0.0000 3.4297 0.0000
# 4 0.0000 0.0000 0.0000 56.0720 0.0000 0.8913
# 5 -5.5515 2.9668 3.4297 0.0000 27.1060 0.0000
# 6 0.0000 0.0000 0.0000 0.8913 0.0000 14.6304
#
#
#
# Elastic Compliance Matrix: (Units=1/GPa)
#
#
# Indices 1 2 3 4 5 6 
#
# 1 0.015188 -0.002843 -0.004343 0.000000 0.003971 0.000000
# 2 -0.002843 0.010379 -0.002410 0.000000 -0.001413 0.000000
# 3 -0.004343 -0.002410 0.012734 0.000000 -0.002237 0.000000
# 4 0.000000 0.000000 0.000000 0.017851 0.000000 -0.001088
# 5 0.003971 -0.001413 -0.002237 0.000000 0.038143 0.000000
# 6 0.000000 0.000000 0.000000 -0.001088 0.000000 0.068417
#
#
# Mechanical properties :
#
#
# Convention : Reuss Voigt Hill
#
# Bulk Modulus (GPa) = 52.33218 53.07473 52.70345
# Shear Modulus (GPa) = 26.55697 32.68745 29.62221
#
# Velocity S-wave (km/s) = 3.36470 3.73291 3.55358
# Velocity P-wave (km/s) = 6.11589 6.41913 6.26935
#
# Compressibility (1/GPa) = 0.01910870
#
# Stress axis : x y z
#
# Youngs Moduli (GPa) = 65.83989 96.34906 78.53266
#
# Poissons Ratio (x) = 0.27392 0.34104
# Poissons Ratio (y) = 0.18718 0.18930
# Poissons Ratio (z) = 0.28592 0.23224
#
# Static dielectric constant tensor:
#      x y z
#    x 1.914570 0.000000 -0.005030 
#    y 0.000000 1.904500 0.000000 
#    z -0.005030 0.000000 1.920080 
# 
# From -- ./inp_files/13623.got.cif
#   From: 2010.05.17/outbox.cif.g08.bks.cpg/sg9_7_cif.got.tgz:13623.got - 2010.06.03 20:04:27.
