data_PCOD9140948
_publ_section_title
;
Structure prediction by ZEFSAII (Michael W. Deem and Ramdas Pophale) SiO2 
 PCOD9140948
Probable space group: C C
;
_chemical_formula_sum "Si O2"
_cell_formula_units_Z 32
_cell_length_a 14.909117
_cell_length_b 8.159579
_cell_length_c 20.074980
_cell_angle_alpha 90.000000
_cell_angle_beta 150.042184
_cell_angle_gamma 90.000000
_cell_volume 1219.524437
_symmetry_space_group_name_H-M "C C"
_symmetry_group_IT_number 9
_symmetry_cell_setting 'monoclinic'
loop_
_space_group_symop_operation_xyz
x,y,z
x,-y,1/2+z
1/2+x,1/2+y,z
1/2+x,1/2-y,1/2+z
loop_
_atom_site_type_symbol
_atom_site_label
_atom_site_fract_x
_atom_site_fract_y
_atom_site_fract_z
Si Si1 0.232260 0.334330 0.850660
Si Si2 0.375734 0.810992 0.699022
Si Si3 0.927362 0.714291 0.526024
Si Si4 0.770189 0.926373 0.622221
Si Si5 0.528912 0.129447 0.096910
Si Si6 0.004449 0.007612 0.935925
Si Si7 0.574936 0.780774 0.376220
Si Si8 0.803764 0.685704 0.295681
O O1 0.403179 0.446247 0.937939
O O2 0.050941 0.377461 0.773678
O O3 0.155014 0.273979 0.729583
O O4 0.334103 0.203990 0.960723
O O5 0.360253 0.610690 0.680964
O O6 0.183817 0.884102 0.553488
O O7 0.382726 0.885802 0.778535
O O8 0.986448 0.547458 0.599952
O O9 0.737789 0.768424 0.429718
O O10 0.894165 0.667692 0.426194
O O11 0.090477 0.833576 0.651521
O O12 0.630358 0.894502 0.592579
O O13 0.661173 0.911352 0.483625
O O14 0.905002 0.769815 0.719324
O O15 0.848442 0.124692 0.809041
O O16 0.042951 0.863869 0.910012
#
# Coordination Sequence:
#
# PCOD9140948 Si02
#       8
#     4   4   4   4   4   4   4   4
#     4  12  27  46  81 114 156 211 269 329 406 477
#     4  12  27  49  83 114 163 215 269 330 411 477
#     4  12  25  45  74 104 156 201 262 318 397 468
#     4  12  23  52  74 114 162 209 259 328 401 468
#     4  12  23  49  72 109 159 205 259 330 397 468
#     4  12  24  50  76 110 157 207 262 331 393 469
#     4  12  25  47  77 111 156 210 260 327 396 471
#     4  12  24  48  71 108 149 206 252 327 389 468
#
# _framework density 26.239737999999999
#
# number of rings (size 3 to 8) (size 9 to 14) (size 15 to 20)
#    0.000    0.000    7.500    2.250    1.750    1.000 
#    6.750    0.000    2.750    0.000    0.000    0.000 
#    0.000    0.000    0.000    0.000    0.000    0.000 
#
# Total GULP energy -89210.601198 kJ/mol
# GULP energy per Si atom -5575.662575 kJ/mol
# Density = 2.618002 g / cm^3
# Si number density = 26.239738 Si / 1000 Ang^3
#
#
#
# Elastic Constant Matrix: (Units=GPa)
#
#
# Indices 1 2 3 4 5 6 
#
# 1 113.2152 -8.0826 45.4408 -0.0001 27.8050 0.0000
# 2 -8.0826 -4.2829 61.4794 -0.0001 14.2169 0.0000
# 3 45.4408 61.4794 176.2561 -0.0003 6.5283 -0.0001
# 4 -0.0001 -0.0001 -0.0003 53.0993 -0.0001 4.1638
# 5 27.8050 14.2169 6.5283 -0.0001 45.4202 0.0000
# 6 0.0000 0.0000 -0.0001 4.1638 0.0000 15.8226
#
#
#
# Elastic Compliance Matrix: (Units=1/GPa)
#
#
# Indices 1 2 3 4 5 6 
#
# 1 0.008381 -0.008948 0.001052 0.000000 -0.002481 0.000000
# 2 -0.008948 -0.025070 0.010614 0.000000 0.011799 0.000000
# 3 0.001052 0.010614 0.001857 0.000000 -0.004233 0.000000
# 4 0.000000 0.000000 0.000000 0.019229 0.000000 -0.005060
# 5 -0.002481 0.011799 -0.004233 0.000000 0.020451 0.000000
# 6 0.000000 0.000000 0.000000 -0.005060 0.000000 0.064532
#
#
# Mechanical properties :
#
#
# Convention : Reuss Voigt Hill
#
# Bulk Modulus (GPa) = -106.44580 53.65152 -26.39714
# Shear Modulus (GPa) = 61.87240 35.29180 48.58210
#
# Velocity S-wave (km/s) = 4.86116 3.67137 4.30754
# Velocity P-wave (km/s) = 3.02439 6.20185 3.82858
#
# Compressibility (1/GPa) = -0.00939445
#
# Stress axis : x y z
#
# Youngs Moduli (GPa) = 119.31814 -39.88876 538.58040
#
# Poissons Ratio (x) = -0.35692 -0.56672
# Poissons Ratio (y) = 1.06763 -5.71666
# Poissons Ratio (z) = -0.12555 0.42339
#
# Static dielectric constant tensor:
#      x y z
#    x 2.105440 0.000000 -0.048900 
#    y 0.000000 2.561550 0.000000 
#    z -0.048900 0.000000 2.068700 
# 
# From -- ./inp_files/33741.got.cif
#   From: 2010.05.17/outbox.cif.g08.bks.cpg/sg9_17_cif.got.tgz:33741.got - 2010.06.03 20:04:27.
