data_PCOD9140887
_publ_section_title
;
Structure prediction by ZEFSAII (Michael W. Deem and Ramdas Pophale) SiO2 
 PCOD9140887
Probable space group: C C
;
_chemical_formula_sum "Si O2"
_cell_formula_units_Z 20
_cell_length_a 11.121079
_cell_length_b 9.033863
_cell_length_c 9.137374
_cell_angle_alpha 90.000000
_cell_angle_beta 131.015646
_cell_angle_gamma 90.000000
_cell_volume 692.657545
_symmetry_space_group_name_H-M "C C"
_symmetry_group_IT_number 9
_symmetry_cell_setting 'monoclinic'
loop_
_space_group_symop_operation_xyz
x,y,z
x,-y,1/2+z
1/2+x,1/2+y,z
1/2+x,1/2-y,1/2+z
loop_
_atom_site_type_symbol
_atom_site_label
_atom_site_fract_x
_atom_site_fract_y
_atom_site_fract_z
Si Si1 0.727360 0.244750 0.159040
Si Si2 0.269577 0.493816 0.881208
Si Si3 0.720228 0.673827 0.223543
Si Si4 0.974278 0.533166 0.804395
Si Si5 0.566269 0.433918 0.289157
O O1 0.832681 0.356430 0.148857
O O2 0.656650 0.336702 0.237641
O O3 0.839606 0.120609 0.320291
O O4 0.598551 0.143382 0.978777
O O5 0.257525 0.658796 0.804929
O O6 0.084325 0.459265 0.770753
O O7 0.377786 0.443782 0.105179
O O8 0.889494 0.590624 0.334547
O O9 0.616227 0.596306 0.266981
O O10 0.627480 0.630413 0.994756
#
# Coordination Sequence:
#
# PCOD9140887 Si02
#       5
#     4   4   4   4   4
#     4  11  27  54  79 123 172 221 285 361 426 521
#     4  12  30  51  91 119 168 240 286 354 445 517
#     4  11  31  54  86 129 172 225 295 359 435 530
#     4  11  29  51  82 120 170 222 284 358 435 511
#     4  11  29  56  84 127 178 220 296 366 429 521
#
# _framework density 28.874299000000001
#
# number of rings (size 3 to 8) (size 9 to 14) (size 15 to 20)
#    0.000    0.800    2.000    0.000   22.400    0.000 
#    0.000    2.000    0.000    0.000    0.000    0.000 
#    0.000    0.000    0.000    0.000    0.000    0.000 
#
# Total GULP energy -55944.974359 kJ/mol
# GULP energy per Si atom -5594.497436 kJ/mol
# Density = 2.880858 g / cm^3
# Si number density = 28.874299 Si / 1000 Ang^3
#
#
#
# Elastic Constant Matrix: (Units=GPa)
#
#
# Indices 1 2 3 4 5 6 
#
# 1 110.4616 4.4190 19.0666 0.0000 9.1936 0.0000
# 2 4.4190 121.0544 -2.5983 0.0000 12.6627 0.0000
# 3 19.0666 -2.5983 166.2376 0.0000 -10.7893 0.0000
# 4 0.0000 0.0000 0.0000 44.5021 0.0000 6.7772
# 5 9.1936 12.6627 -10.7893 0.0000 35.1198 0.0000
# 6 0.0000 0.0000 0.0000 6.7772 0.0000 69.2314
#
#
#
# Elastic Compliance Matrix: (Units=1/GPa)
#
#
# Indices 1 2 3 4 5 6 
#
# 1 0.009514 -0.000076 -0.001278 0.000000 -0.002856 0.000000
# 2 -0.000076 0.008586 -0.000058 0.000000 -0.003094 0.000000
# 3 -0.001278 -0.000058 0.006310 0.000000 0.002294 0.000000
# 4 0.000000 0.000000 0.000000 0.022811 0.000000 -0.002233
# 5 -0.002856 -0.003094 0.002294 0.000000 0.031042 0.000000
# 6 0.000000 0.000000 0.000000 -0.002233 0.000000 0.014663
#
#
# Mechanical properties :
#
#
# Convention : Reuss Voigt Hill
#
# Bulk Modulus (GPa) = 46.32460 48.83646 47.58053
# Shear Modulus (GPa) = 48.56989 54.89509 51.73249
#
# Velocity S-wave (km/s) = 4.10581 4.36498 4.23737
# Velocity P-wave (km/s) = 6.20929 6.50801 6.36040
#
# Compressibility (1/GPa) = 0.02158680
#
# Stress axis : x y z
#
# Youngs Moduli (GPa) = 105.10611 116.47028 158.47825
#
# Poissons Ratio (x) = 0.00885 0.20250
# Poissons Ratio (y) = 0.00799 0.00917
# Poissons Ratio (z) = 0.13430 0.00674
#
# Static dielectric constant tensor:
#      x y z
#    x 2.261960 0.000000 -0.007550 
#    y 0.000000 2.267140 0.000000 
#    z -0.007550 0.000000 2.368070 
# 
# From -- ./inp_files/6656.got.cif
#   From: 2010.05.17/outbox.cif.g08.bks.cpg/sg9_4_cif.got.tgz:6656.got - 2010.06.03 20:04:27.
