data_PCOD9140437
_publ_section_title
;
Structure prediction by ZEFSAII (Michael W. Deem and Ramdas Pophale) SiO2 
 PCOD9140437
Probable space group: C C
;
_chemical_formula_sum "Si O2"
_cell_formula_units_Z 24
_cell_length_a 14.533138
_cell_length_b 12.493849
_cell_length_c 12.072431
_cell_angle_alpha 90.000000
_cell_angle_beta 155.530571
_cell_angle_gamma 90.000000
_cell_volume 907.963748
_symmetry_space_group_name_H-M "C C"
_symmetry_group_IT_number 9
_symmetry_cell_setting 'monoclinic'
loop_
_space_group_symop_operation_xyz
x,y,z
x,-y,1/2+z
1/2+x,1/2+y,z
1/2+x,1/2-y,1/2+z
loop_
_atom_site_type_symbol
_atom_site_label
_atom_site_fract_x
_atom_site_fract_y
_atom_site_fract_z
Si Si1 0.257410 0.126900 0.423650
Si Si2 0.426279 0.374190 0.388008
Si Si3 0.614033 0.174525 0.366894
Si Si4 0.884328 0.297473 0.303279
Si Si5 0.638417 0.590669 0.893924
Si Si6 0.596784 0.986924 0.665442
O O1 0.332945 0.186553 0.616474
O O2 0.121383 0.020742 0.312135
O O3 0.464127 0.080991 0.581201
O O4 0.082313 0.181479 0.148915
O O5 0.567563 0.424779 0.442983
O O6 0.270067 0.463419 0.270799
O O7 0.265105 0.300922 0.138362
O O8 0.559859 0.291888 0.261215
O O9 0.401892 0.111714 0.176667
O O10 0.706265 0.088670 0.380163
O O11 0.142815 0.247639 0.586091
O O12 0.928535 0.407099 0.418461
#
# Coordination Sequence:
#
# PCOD9140437 Si02
#       6
#     4   4   4   4   4   4
#     4  11  27  49  76 113 156 214 257 329 410 483
#     4  12  24  43  79 108 159 195 262 327 400 469
#     4  11  24  45  72 115 148 201 265 324 393 477
#     4  12  32  55  83 119 168 212 274 337 412 491
#     4  11  24  45  72 111 151 199 263 325 391 474
#     4  11  27  47  80 112 154 209 271 326 402 474
#
# _framework density 26.432772
#
# number of rings (size 3 to 8) (size 9 to 14) (size 15 to 20)
#    0.000    0.667    1.667    5.000   11.667    1.333 
#    0.000    0.000    0.000    0.000    0.000    0.000 
#    0.000    0.000    0.000    0.000    0.000    0.000 
#
# Total GULP energy -67072.813738 kJ/mol
# GULP energy per Si atom -5589.401145 kJ/mol
# Density = 2.637261 g / cm^3
# Si number density = 26.432772 Si / 1000 Ang^3
#
#
#
# Elastic Constant Matrix: (Units=GPa)
#
#
# Indices 1 2 3 4 5 6 
#
# 1 155.1670 57.2551 -6.3356 -0.0001 18.8645 -0.0001
# 2 57.2551 98.5187 31.5391 -0.0001 13.0184 0.0000
# 3 -6.3356 31.5391 83.7640 0.0002 -10.4856 0.0002
# 4 -0.0001 -0.0001 0.0002 48.0246 0.0001 2.5977
# 5 18.8645 13.0184 -10.4856 0.0001 51.3012 0.0000
# 6 -0.0001 0.0000 0.0002 2.5977 0.0000 48.6428
#
#
#
# Elastic Compliance Matrix: (Units=1/GPa)
#
#
# Indices 1 2 3 4 5 6 
#
# 1 0.008868 -0.005867 0.002728 0.000000 -0.001215 0.000000
# 2 -0.005867 0.016244 -0.006985 0.000000 -0.003393 0.000000
# 3 0.002728 -0.006985 0.015261 0.000000 0.003889 0.000000
# 4 0.000000 0.000000 0.000000 0.020883 0.000000 -0.001115
# 5 -0.001215 -0.003393 0.003889 0.000000 0.021595 0.000000
# 6 0.000000 0.000000 0.000000 -0.001115 0.000000 0.020618
#
#
# Mechanical properties :
#
#
# Convention : Reuss Voigt Hill
#
# Bulk Modulus (GPa) = 49.68581 55.81854 52.75217
# Shear Modulus (GPa) = 38.33590 46.59315 42.46452
#
# Velocity S-wave (km/s) = 3.81243 4.20301 4.01248
# Velocity P-wave (km/s) = 6.18202 6.68706 6.43949
#
# Compressibility (1/GPa) = 0.02012647
#
# Stress axis : x y z
#
# Youngs Moduli (GPa) = 112.75880 61.56056 65.52512
#
# Poissons Ratio (x) = 0.36116 -0.17873
# Poissons Ratio (y) = 0.66152 0.45767
# Poissons Ratio (z) = -0.30757 0.42998
#
# Static dielectric constant tensor:
#      x y z
#    x 2.099690 0.000000 0.096770 
#    y 0.000000 2.045200 0.000000 
#    z 0.096770 0.000000 2.268120 
# 
# From -- ./inp_files/18403.got.cif
#   From: 2010.05.17/outbox.cif.g08.bks.cpg/sg9_10_cif.got.tgz:18403.got - 2010.06.03 20:04:27.
