data_PCOD9140692
_publ_section_title
;
Structure prediction by ZEFSAII (Michael W. Deem and Ramdas Pophale) SiO2 
 PCOD9140692
Probable space group: C C
;
_chemical_formula_sum "Si O2"
_cell_formula_units_Z 24
_cell_length_a 13.558483
_cell_length_b 13.040612
_cell_length_c 7.500451
_cell_angle_alpha 90.000000
_cell_angle_beta 137.025095
_cell_angle_gamma 90.000000
_cell_volume 904.015154
_symmetry_space_group_name_H-M "C C"
_symmetry_group_IT_number 9
_symmetry_cell_setting 'monoclinic'
loop_
_space_group_symop_operation_xyz
x,y,z
x,-y,1/2+z
1/2+x,1/2+y,z
1/2+x,1/2-y,1/2+z
loop_
_atom_site_type_symbol
_atom_site_label
_atom_site_fract_x
_atom_site_fract_y
_atom_site_fract_z
Si Si1 0.789240 0.222587 0.258240
Si Si2 0.082621 0.891315 0.552115
Si Si3 0.568043 0.993320 0.157608
Si Si4 0.889416 0.939337 0.611319
Si Si5 0.075270 0.291154 0.792812
Si Si6 0.860335 0.400982 0.100824
O O1 0.848913 0.122923 0.236186
O O2 0.646495 0.219594 0.189448
O O3 0.788083 0.304516 0.098934
O O4 0.909507 0.258670 0.557386
O O5 0.133953 0.788958 0.515496
O O6 0.973870 0.874413 0.573971
O O7 0.224442 0.948880 0.817005
O O8 0.992973 0.966397 0.302963
O O9 0.582637 0.086669 0.324705
O O10 0.733850 0.973996 0.332421
O O11 0.493417 0.891536 0.138874
O O12 0.444530 0.038974 0.866816
#
# Coordination Sequence:
#
# PCOD9140692 Si02
#       6
#     4   4   4   4   4   4
#     4  11  25  48  72 103 144 188 238 297 354 424
#     4  12  26  45  74 109 143 189 241 296 357 425
#     4  11  25  47  72 102 142 185 235 297 358 423
#     4  12  25  47  77 108 141 190 245 294 352 430
#     4  11  25  47  71 100 145 192 235 293 356 420
#     4  11  26  44  70 106 143 184 234 295 361 424
#
# _framework density 26.54823
#
# number of rings (size 3 to 8) (size 9 to 14) (size 15 to 20)
#    0.000    0.667    0.000    8.000    0.000   12.000 
#    0.000    0.000    0.000    0.000    0.000    0.000 
#    0.000    0.000    0.000    0.000    0.000    0.000 
#
# Total GULP energy -67112.333123 kJ/mol
# GULP energy per Si atom -5592.694427 kJ/mol
# Density = 2.648780 g / cm^3
# Si number density = 26.548230 Si / 1000 Ang^3
#
#
#
# Elastic Constant Matrix: (Units=GPa)
#
#
# Indices 1 2 3 4 5 6 
#
# 1 159.2112 62.9185 29.9788 0.0000 23.7198 0.0000
# 2 62.9185 100.6222 33.9484 0.0000 8.7049 0.0000
# 3 29.9788 33.9484 186.4657 0.0000 10.6226 0.0000
# 4 0.0000 0.0000 0.0000 -10.5789 0.0000 5.9264
# 5 23.7198 8.7049 10.6226 0.0000 31.9196 0.0000
# 6 0.0000 0.0000 0.0000 5.9264 0.0000 44.5556
#
#
#
# Elastic Compliance Matrix: (Units=1/GPa)
#
#
# Indices 1 2 3 4 5 6 
#
# 1 0.009170 -0.005198 -0.000225 0.000000 -0.005322 0.000000
# 2 -0.005198 0.013702 -0.001698 0.000000 0.000691 0.000000
# 3 -0.000225 -0.001698 0.005782 0.000000 -0.001294 0.000000
# 4 0.000000 0.000000 0.000000 -0.087972 0.000000 0.011701
# 5 -0.005322 0.000691 -0.001294 0.000000 0.035526 0.000000
# 6 0.000000 0.000000 0.000000 0.011701 0.000000 0.020887
#
#
# Mechanical properties :
#
#
# Convention : Reuss Voigt Hill
#
# Bulk Modulus (GPa) = 69.38662 77.77671 73.58167
# Shear Modulus (GPa) = 309.77492 34.47616 172.12554
#
# Velocity S-wave (km/s) = 10.81375 3.60755 8.06076
# Velocity P-wave (km/s) = 13.49478 6.83466 10.69630
#
# Compressibility (1/GPa) = 0.01441200
#
# Stress axis : x y z
#
# Youngs Moduli (GPa) = 109.04684 72.98452 172.95170
#
# Poissons Ratio (x) = 0.37937 0.03888
# Poissons Ratio (y) = 0.56681 0.29371
# Poissons Ratio (z) = 0.02452 0.12394
#
# Static dielectric constant tensor:
#      x y z
#    x 2.142360 0.000000 -0.157960 
#    y 0.000000 2.134000 0.000000 
#    z -0.157960 0.000000 2.103940 
# 
# From -- ./inp_files/9738.got.cif
#   From: 2010.05.17/outbox.cif.g08.bks.cpg/sg9_5_cif.got.tgz:9738.got - 2010.06.03 20:04:27.
