data_PCOD9140666
_publ_section_title
;
Structure prediction by ZEFSAII (Michael W. Deem and Ramdas Pophale) SiO2 
 PCOD9140666
Probable space group: C C
;
_chemical_formula_sum "Si O2"
_cell_formula_units_Z 28
_cell_length_a 8.460338
_cell_length_b 21.261825
_cell_length_c 8.942594
_cell_angle_alpha 90.000000
_cell_angle_beta 132.720754
_cell_angle_gamma 90.000000
_cell_volume 1181.798469
_symmetry_space_group_name_H-M "C C"
_symmetry_group_IT_number 9
_symmetry_cell_setting 'monoclinic'
loop_
_space_group_symop_operation_xyz
x,y,z
x,-y,1/2+z
1/2+x,1/2+y,z
1/2+x,1/2-y,1/2+z
loop_
_atom_site_type_symbol
_atom_site_label
_atom_site_fract_x
_atom_site_fract_y
_atom_site_fract_z
Si Si1 0.720390 0.468900 0.640900
Si Si2 0.163532 0.337578 0.917429
Si Si3 0.952871 0.042366 0.670130
Si Si4 0.097648 0.205206 0.545618
Si Si5 0.971761 0.661360 0.988219
Si Si6 0.871921 0.636014 0.473473
Si Si7 0.101122 0.552989 0.864147
O O1 0.634944 0.533863 0.661974
O O2 0.564940 0.453535 0.403114
O O3 0.763037 0.414702 0.790886
O O4 0.951461 0.492893 0.734516
O O5 0.985450 0.343151 0.673878
O O6 0.024314 0.317965 0.972518
O O7 0.288917 0.401226 0.041004
O O8 0.357098 0.300665 0.959211
O O9 0.827591 0.977569 0.552666
O O10 0.242873 0.177589 0.771740
O O11 0.189356 0.168629 0.459159
O O12 0.120212 0.279732 0.531276
O O13 0.052416 0.596318 0.974614
O O14 0.041040 0.598745 0.688385
#
# Coordination Sequence:
#
# PCOD9140666 Si02
#       7
#     4   4   4   4   4   4   4
#     4  12  25  42  67 114 150 191 236 306 366 448
#     4  12  26  47  75 110 142 195 247 304 365 438
#     4  12  25  40  72 108 151 190 241 296 380 434
#     4  11  26  53  72 107 145 198 246 310 369 432
#     4  11  25  48  78 101 149 194 247 309 370 432
#     4  11  26  48  73 108 153 192 250 302 373 439
#     4  11  25  46  69 106 154 192 235 305 371 453
#
# _framework density 23.692705
#
# number of rings (size 3 to 8) (size 9 to 14) (size 15 to 20)
#    0.000    0.571    4.286    3.429    8.000    0.000 
#    5.143    0.000    0.000    0.000    0.000    0.000 
#    0.000    0.000    0.000    0.000    0.000    0.000 
#
# Total GULP energy -78142.011135 kJ/mol
# GULP energy per Si atom -5581.572224 kJ/mol
# Density = 2.363878 g / cm^3
# Si number density = 23.692705 Si / 1000 Ang^3
#
#
#
# Elastic Constant Matrix: (Units=GPa)
#
#
# Indices 1 2 3 4 5 6 
#
# 1 102.0081 28.2900 27.5228 0.0000 -8.5893 0.0000
# 2 28.2900 68.3883 7.2542 0.0000 -1.6794 0.0000
# 3 27.5228 7.2542 126.7101 0.0000 -15.1795 0.0000
# 4 0.0000 0.0000 0.0000 33.5978 0.0000 2.9980
# 5 -8.5893 -1.6794 -15.1795 0.0000 34.7286 0.0000
# 6 0.0000 0.0000 0.0000 2.9980 0.0000 21.0089
#
#
#
# Elastic Compliance Matrix: (Units=1/GPa)
#
#
# Indices 1 2 3 4 5 6 
#
# 1 0.011795 -0.004614 -0.002084 0.000000 0.001783 0.000000
# 2 -0.004614 0.016521 0.000016 0.000000 -0.000335 0.000000
# 3 -0.002084 0.000016 0.008740 0.000000 0.003305 0.000000
# 4 0.000000 0.000000 0.000000 0.030148 0.000000 -0.004302
# 5 0.001783 -0.000335 0.003305 0.000000 0.030664 0.000000
# 6 0.000000 0.000000 0.000000 -0.004302 0.000000 0.048213
#
#
# Mechanical properties :
#
#
# Convention : Reuss Voigt Hill
#
# Bulk Modulus (GPa) = 42.20916 47.02670 44.61793
# Shear Modulus (GPa) = 29.87870 33.46970 31.67420
#
# Velocity S-wave (km/s) = 3.55504 3.76261 3.66030
# Velocity P-wave (km/s) = 5.89109 6.22640 6.06107
#
# Compressibility (1/GPa) = 0.02369154
#
# Stress axis : x y z
#
# Youngs Moduli (GPa) = 84.77886 60.52800 114.41909
#
# Poissons Ratio (x) = 0.27931 0.23848
# Poissons Ratio (y) = 0.39121 -0.00187
# Poissons Ratio (z) = 0.17670 -0.00099
#
# Static dielectric constant tensor:
#      x y z
#    x 2.108270 0.000000 0.101170 
#    y 0.000000 1.929180 0.000000 
#    z 0.101170 0.000000 1.923180 
# 
# From -- ./inp_files/5876.got.cif
#   From: 2010.05.17/outbox.cif.g08.bks.cpg/sg9_3_cif.got.tgz:5876.got - 2010.06.03 20:04:27.
