data_PCOD9140698
_publ_section_title
;
Structure prediction by ZEFSAII (Michael W. Deem and Ramdas Pophale) SiO2 
 PCOD9140698
Probable space group: C C
;
_chemical_formula_sum "Si O2"
_cell_formula_units_Z 32
_cell_length_a 5.121685
_cell_length_b 19.237637
_cell_length_c 11.714943
_cell_angle_alpha 90.000000
_cell_angle_beta 94.698795
_cell_angle_gamma 90.000000
_cell_volume 1150.383637
_symmetry_space_group_name_H-M "C C"
_symmetry_group_IT_number 9
_symmetry_cell_setting 'monoclinic'
loop_
_space_group_symop_operation_xyz
x,y,z
x,-y,1/2+z
1/2+x,1/2+y,z
1/2+x,1/2-y,1/2+z
loop_
_atom_site_type_symbol
_atom_site_label
_atom_site_fract_x
_atom_site_fract_y
_atom_site_fract_z
Si Si1 0.625000 0.053979 0.798270
Si Si2 0.535791 0.776516 0.428918
Si Si3 0.840878 0.727641 0.222998
Si Si4 0.205256 0.841862 0.240326
Si Si5 0.158654 0.032689 0.950724
Si Si6 0.447729 0.649381 0.099986
Si Si7 0.463676 0.383267 0.009494
Si Si8 0.126348 0.597575 0.293594
O O1 0.466715 0.113321 0.724673
O O2 0.438410 0.045911 0.903903
O O3 0.927527 0.055843 0.851123
O O4 0.586062 0.978611 0.741746
O O5 0.707928 0.770280 0.318902
O O6 0.274297 0.816472 0.374127
O O7 0.516278 0.696330 0.469182
O O8 0.698650 0.826938 0.516941
O O9 0.643732 0.715457 0.112505
O O10 0.110123 0.764828 0.200641
O O11 0.895477 0.650810 0.268320
O O12 0.995602 0.880921 0.147845
O O13 0.129771 0.950952 0.975962
O O14 0.089576 0.081960 0.053473
O O15 0.354033 0.629656 0.223331
O O16 0.201525 0.401074 0.929387
#
# Coordination Sequence:
#
# PCOD9140698 Si02
#       8
#     4   4   4   4   4   4   4   4
#     4  11  27  51  79 117 163 212 279 344 427 504
#     4  12  24  50  70 116 156 207 281 346 427 513
#     4  12  25  44  77 111 158 214 275 344 434 507
#     4  12  27  47  76 113 158 216 272 354 415 521
#     4  11  27  51  80 119 161 218 276 355 416 517
#     4  12  27  47  84 116 164 222 288 358 437 513
#     4  11  25  47  72 110 158 206 277 333 430 494
#     4  11  26  49  78 114 164 215 276 354 432 521
#
# _framework density 27.816808000000002
#
# number of rings (size 3 to 8) (size 9 to 14) (size 15 to 20)
#    0.000    0.500    3.750    3.000    7.000    2.000 
#    4.500    0.000    0.000    0.000    0.000    0.000 
#    0.000    0.000    0.000    0.000    0.000    0.000 
#
# Total GULP energy -89323.390835 kJ/mol
# GULP energy per Si atom -5582.711927 kJ/mol
# Density = 2.775350 g / cm^3
# Si number density = 27.816808 Si / 1000 Ang^3
#
#
#
# Elastic Constant Matrix: (Units=GPa)
#
#
# Indices 1 2 3 4 5 6 
#
# 1 88.1772 33.1531 52.0136 0.0000 27.3235 0.0000
# 2 33.1531 149.6688 37.0466 0.0000 19.5078 0.0000
# 3 52.0136 37.0466 153.8787 0.0000 22.4509 0.0000
# 4 0.0000 0.0000 0.0000 43.6104 0.0000 12.0906
# 5 27.3235 19.5078 22.4509 0.0000 41.1436 0.0000
# 6 0.0000 0.0000 0.0000 12.0906 0.0000 45.1425
#
#
#
# Elastic Compliance Matrix: (Units=1/GPa)
#
#
# Indices 1 2 3 4 5 6 
#
# 1 0.016946 -0.001661 -0.004130 0.000000 -0.008213 0.000000
# 2 -0.001661 0.007543 -0.000971 0.000000 -0.001943 0.000000
# 3 -0.004130 -0.000971 0.008324 0.000000 -0.001339 0.000000
# 4 0.000000 0.000000 0.000000 0.024770 0.000000 -0.006634
# 5 -0.008213 -0.001943 -0.001339 0.000000 0.031411 0.000000
# 6 0.000000 0.000000 0.000000 -0.006634 0.000000 0.023929
#
#
# Mechanical properties :
#
#
# Convention : Reuss Voigt Hill
#
# Bulk Modulus (GPa) = 51.84265 70.68348 61.26307
# Shear Modulus (GPa) = 37.62880 43.94673 40.78777
#
# Velocity S-wave (km/s) = 3.68195 3.97906 3.83338
# Velocity P-wave (km/s) = 6.06245 6.82467 6.45482
#
# Compressibility (1/GPa) = 0.01928914
#
# Stress axis : x y z
#
# Youngs Moduli (GPa) = 59.00933 132.57305 120.13812
#
# Poissons Ratio (x) = 0.22021 0.49617
# Poissons Ratio (y) = 0.09802 0.11665
# Poissons Ratio (z) = 0.24371 0.12873
#
# Static dielectric constant tensor:
#      x y z
#    x 2.192740 0.000000 -0.040910 
#    y 0.000000 2.193390 0.000000 
#    z -0.040910 0.000000 2.186710 
# 
# From -- ./inp_files/13558.got.cif
#   From: 2010.05.17/outbox.cif.g08.bks.cpg/sg9_7_cif.got.tgz:13558.got - 2010.06.03 20:04:27.
