data_PCOD9140850
_publ_section_title
;
Structure prediction by ZEFSAII (Michael W. Deem and Ramdas Pophale) SiO2 
 PCOD9140850
Probable space group: C C
;
_chemical_formula_sum "Si O2"
_cell_formula_units_Z 20
_cell_length_a 15.724817
_cell_length_b 5.141549
_cell_length_c 9.857120
_cell_angle_alpha 90.000000
_cell_angle_beta 98.724784
_cell_angle_gamma 90.000000
_cell_volume 787.725351
_symmetry_space_group_name_H-M "C C"
_symmetry_group_IT_number 9
_symmetry_cell_setting 'monoclinic'
loop_
_space_group_symop_operation_xyz
x,y,z
x,-y,1/2+z
1/2+x,1/2+y,z
1/2+x,1/2-y,1/2+z
loop_
_atom_site_type_symbol
_atom_site_label
_atom_site_fract_x
_atom_site_fract_y
_atom_site_fract_z
Si Si1 0.168880 0.887466 0.755100
Si Si2 0.504059 0.038602 0.800608
Si Si3 0.647542 0.216867 0.470529
Si Si4 0.287773 0.321497 0.485610
Si Si5 0.399649 0.821638 0.527951
O O1 0.158607 0.916248 0.594191
O O2 0.081504 0.735985 0.779847
O O3 0.178119 0.154269 0.838533
O O4 0.252806 0.726345 0.823307
O O5 0.549279 0.843002 0.917419
O O6 0.470014 0.887683 0.660449
O O7 0.432052 0.160914 0.879884
O O8 0.702450 0.963678 0.523640
O O9 0.360105 0.536164 0.529395
O O10 0.328414 0.046530 0.535791
#
# Coordination Sequence:
#
# PCOD9140850 Si02
#       5
#     4   4   4   4   4
#     4  11  26  50  77 110 151 207 252 307 368 464
#     4  11  28  46  74 111 149 201 248 310 377 444
#     4  11  26  50  77 110 151 207 252 306 370 463
#     4  11  28  48  76 111 149 195 248 310 376 440
#     4  12  28  48  76 112 152 192 250 317 375 439
#
# _framework density 25.389559999999999
#
# number of rings (size 3 to 8) (size 9 to 14) (size 15 to 20)
#    0.000    0.800    4.000    0.000   14.000    1.600 
#    0.000    0.000    0.000    0.000    0.000    0.000 
#    0.000    0.000    0.000    0.000    0.000    0.000 
#
# Total GULP energy -55904.654125 kJ/mol
# GULP energy per Si atom -5590.465413 kJ/mol
# Density = 2.533177 g / cm^3
# Si number density = 25.389560 Si / 1000 Ang^3
#
#
#
# Elastic Constant Matrix: (Units=GPa)
#
#
# Indices 1 2 3 4 5 6 
#
# 1 74.8693 17.6693 12.0236 0.0000 11.5999 0.0000
# 2 17.6693 98.7655 -3.3958 0.0000 -0.3183 0.0000
# 3 12.0236 -3.3958 84.8205 0.0000 -1.4380 0.0000
# 4 0.0000 0.0000 0.0000 24.5578 0.0000 -0.0140
# 5 11.5999 -0.3183 -1.4380 0.0000 31.2721 0.0000
# 6 0.0000 0.0000 0.0000 -0.0140 0.0000 33.1161
#
#
#
# Elastic Compliance Matrix: (Units=1/GPa)
#
#
# Indices 1 2 3 4 5 6 
#
# 1 0.015311 -0.002840 -0.002383 0.000000 -0.005818 0.000000
# 2 -0.002840 0.010666 0.000850 0.000000 0.001201 0.000000
# 3 -0.002383 0.000850 0.012186 0.000000 0.001453 0.000000
# 4 0.000000 0.000000 0.000000 0.040720 0.000000 0.000017
# 5 -0.005818 0.001201 0.001453 0.000000 0.034214 0.000000
# 6 0.000000 0.000000 0.000000 0.000017 0.000000 0.030197
#
#
# Mechanical properties :
#
#
# Convention : Reuss Voigt Hill
#
# Bulk Modulus (GPa) = 33.99295 34.56106 34.27701
# Shear Modulus (GPa) = 30.89366 33.26641 32.08003
#
# Velocity S-wave (km/s) = 3.49203 3.62365 3.55845
# Velocity P-wave (km/s) = 5.44763 5.58119 5.51481
#
# Compressibility (1/GPa) = 0.02941786
#
# Stress axis : x y z
#
# Youngs Moduli (GPa) = 65.31320 93.75468 82.06125
#
# Poissons Ratio (x) = 0.26625 0.19553
# Poissons Ratio (y) = 0.18548 -0.06975
# Poissons Ratio (z) = 0.15562 -0.07969
#
# Static dielectric constant tensor:
#      x y z
#    x 2.065970 0.000000 -0.022170 
#    y 0.000000 2.025550 0.000000 
#    z -0.022170 0.000000 1.952120 
# 
# From -- ./inp_files/10264.got.cif
#   From: 2010.05.17/outbox.cif.g08.bks.cpg/sg9_6_cif.got.tgz:10264.got - 2010.06.03 20:04:27.
