data_PCOD9140337
_publ_section_title
;
Structure prediction by ZEFSAII (Michael W. Deem and Ramdas Pophale) SiO2 
 PCOD9140337
Probable space group: C C
;
_chemical_formula_sum "Si O2"
_cell_formula_units_Z 24
_cell_length_a 7.855770
_cell_length_b 11.374483
_cell_length_c 9.962353
_cell_angle_alpha 90.000000
_cell_angle_beta 93.082634
_cell_angle_gamma 90.000000
_cell_volume 888.901173
_symmetry_space_group_name_H-M "C C"
_symmetry_group_IT_number 9
_symmetry_cell_setting 'monoclinic'
loop_
_space_group_symop_operation_xyz
x,y,z
x,-y,1/2+z
1/2+x,1/2+y,z
1/2+x,1/2-y,1/2+z
loop_
_atom_site_type_symbol
_atom_site_label
_atom_site_fract_x
_atom_site_fract_y
_atom_site_fract_z
Si Si1 0.416600 0.405475 0.047990
Si Si2 0.754638 0.921170 0.331831
Si Si3 0.690528 0.696097 0.949236
Si Si4 0.790951 0.488111 0.063993
Si Si5 0.063793 0.371159 0.736503
Si Si6 0.356453 0.728933 0.052384
O O1 0.611261 0.427428 0.095149
O O2 0.395735 0.088193 0.149919
O O3 0.376962 0.503725 0.935084
O O4 0.346933 0.285037 0.979155
O O5 0.598451 0.010794 0.322658
O O6 0.812827 0.912125 0.181910
O O7 0.749440 0.799164 0.410794
O O8 0.552223 0.683069 0.064263
O O9 0.753570 0.564202 0.927710
O O10 0.730025 0.163785 0.152179
O O11 0.894271 0.367801 0.064087
O O12 0.070632 0.258320 0.833319
#
# Coordination Sequence:
#
# PCOD9140337 Si02
#       6
#     4   4   4   4   4   4
#     4  11  25  50  79 113 159 208 274 341 415 490
#     4  11  23  52  78 108 159 213 270 343 406 490
#     4  11  27  51  78 115 163 211 271 346 412 500
#     4  12  27  50  79 119 157 217 270 347 416 497
#     4  11  27  53  78 118 166 211 281 341 417 495
#     4  12  27  48  78 113 158 216 270 334 412 492
#
# _framework density 26.999625999999999
#
# number of rings (size 3 to 8) (size 9 to 14) (size 15 to 20)
#    0.000    0.667    3.333    2.000    7.000    2.667 
#   15.000    0.000    0.000    0.000    0.000    0.000 
#    0.000    0.000    0.000    0.000    0.000    0.000 
#
# Total GULP energy -66918.734402 kJ/mol
# GULP energy per Si atom -5576.561200 kJ/mol
# Density = 2.693817 g / cm^3
# Si number density = 26.999626 Si / 1000 Ang^3
#
#
#
# Elastic Constant Matrix: (Units=GPa)
#
#
# Indices 1 2 3 4 5 6 
#
# 1 155.1405 36.4412 20.0783 0.0000 -1.2328 0.0000
# 2 36.4412 158.2494 6.8160 0.0000 14.4416 0.0000
# 3 20.0783 6.8160 56.8310 0.0000 3.2724 0.0000
# 4 0.0000 0.0000 0.0000 38.5555 0.0000 10.7642
# 5 -1.2328 14.4416 3.2724 0.0000 44.7879 0.0000
# 6 0.0000 0.0000 0.0000 10.7642 0.0000 42.4599
#
#
#
# Elastic Compliance Matrix: (Units=1/GPa)
#
#
# Indices 1 2 3 4 5 6 
#
# 1 0.007142 -0.001624 -0.002380 0.000000 0.000894 0.000000
# 2 -0.001624 0.006905 -0.000124 0.000000 -0.002262 0.000000
# 3 -0.002380 -0.000124 0.018531 0.000000 -0.001379 0.000000
# 4 0.000000 0.000000 0.000000 0.027912 0.000000 -0.007076
# 5 0.000894 -0.002262 -0.001379 0.000000 0.023182 0.000000
# 6 0.000000 0.000000 0.000000 -0.007076 0.000000 0.025346
#
#
# Mechanical properties :
#
#
# Convention : Reuss Voigt Hill
#
# Bulk Modulus (GPa) = 41.11467 55.21022 48.16245
# Shear Modulus (GPa) = 39.87814 45.61968 42.74891
#
# Velocity S-wave (km/s) = 3.84733 4.11498 3.98341
# Velocity P-wave (km/s) = 5.91581 6.56280 6.24769
#
# Compressibility (1/GPa) = 0.02432222
#
# Stress axis : x y z
#
# Youngs Moduli (GPa) = 140.01045 144.82592 53.96295
#
# Poissons Ratio (x) = 0.23517 0.12844
# Poissons Ratio (y) = 0.22735 0.00670
# Poissons Ratio (z) = 0.33324 0.01799
#
# Static dielectric constant tensor:
#      x y z
#    x 2.144800 0.000000 -0.030620 
#    y 0.000000 2.197450 0.000000 
#    z -0.030620 0.000000 2.257070 
# 
# From -- ./inp_files/22456.got.cif
#   From: 2010.05.17/outbox.cif.g08.bks.cpg/sg9_12_cif.got.tgz:22456.got - 2010.06.03 20:04:27.
