data_PCOD9140416
_publ_section_title
;
Structure prediction by ZEFSAII (Michael W. Deem and Ramdas Pophale) SiO2 
 PCOD9140416
Probable space group: C C
;
_chemical_formula_sum "Si O2"
_cell_formula_units_Z 32
_cell_length_a 12.421342
_cell_length_b 9.156518
_cell_length_c 13.522241
_cell_angle_alpha 90.000000
_cell_angle_beta 114.699822
_cell_angle_gamma 90.000000
_cell_volume 1397.259291
_symmetry_space_group_name_H-M "C C"
_symmetry_group_IT_number 9
_symmetry_cell_setting 'monoclinic'
loop_
_space_group_symop_operation_xyz
x,y,z
x,-y,1/2+z
1/2+x,1/2+y,z
1/2+x,1/2-y,1/2+z
loop_
_atom_site_type_symbol
_atom_site_label
_atom_site_fract_x
_atom_site_fract_y
_atom_site_fract_z
Si Si1 0.207830 0.669918 0.476730
Si Si2 0.119060 0.980660 0.401039
Si Si3 0.673465 0.981454 0.304305
Si Si4 0.452364 0.362700 0.960660
Si Si5 0.069697 0.708662 0.606733
Si Si6 0.803061 0.252489 0.994098
Si Si7 0.816272 0.228973 0.234348
Si Si8 0.623581 0.544463 0.678673
O O1 0.120974 0.588352 0.367156
O O2 0.337282 0.631534 0.485689
O O3 0.165469 0.638046 0.569633
O O4 0.194323 0.841261 0.458567
O O5 0.205141 0.119199 0.450151
O O6 0.003819 0.994745 0.425144
O O7 0.079599 0.960059 0.273712
O O8 0.580397 0.884688 0.210127
O O9 0.753973 0.868214 0.398851
O O10 0.743912 0.093440 0.257916
O O11 0.428195 0.265679 0.853740
O O12 0.553951 0.342158 0.081202
O O13 0.935971 0.700642 0.516013
O O14 0.108441 0.876774 0.639796
O O15 0.821605 0.205050 0.117628
O O16 0.752919 0.384956 0.226295
#
# Coordination Sequence:
#
# PCOD9140416 Si02
#       8
#     4   4   4   4   4   4   4   4
#     4  11  25  49  71 111 144 197 262 306 383 467
#     4  12  24  49  77 105 153 201 260 314 382 466
#     4  11  25  45  68 109 152 193 251 322 378 461
#     4  11  24  44  80 102 144 199 248 316 377 447
#     4  12  25  47  73 109 152 198 247 320 388 457
#     4  12  26  48  74 110 153 200 257 320 389 463
#     4  11  24  46  75 109 148 197 260 313 385 464
#     4  12  23  48  78 109 148 207 257 311 392 465
#
# _framework density 22.901976999999999
#
# number of rings (size 3 to 8) (size 9 to 14) (size 15 to 20)
#    0.000    0.500    6.250    3.000    0.000    3.000 
#    4.500    0.000    0.000    0.000    0.000    0.000 
#    0.000    0.000    0.000    0.000    0.000    0.000 
#
# Total GULP energy -89177.559219 kJ/mol
# GULP energy per Si atom -5573.597451 kJ/mol
# Density = 2.284985 g / cm^3
# Si number density = 22.901977 Si / 1000 Ang^3
#
#
#
# Elastic Constant Matrix: (Units=GPa)
#
#
# Indices 1 2 3 4 5 6 
#
# 1 78.0948 19.6986 3.3606 0.0000 -5.2572 0.0000
# 2 19.6986 80.8091 -13.1087 0.0000 13.4574 0.0000
# 3 3.3606 -13.1087 85.6696 0.0000 -4.5466 0.0000
# 4 0.0000 0.0000 0.0000 31.4448 0.0000 -12.3755
# 5 -5.2572 13.4574 -4.5466 0.0000 30.1298 0.0000
# 6 0.0000 0.0000 0.0000 -12.3755 0.0000 19.3437
#
#
#
# Elastic Compliance Matrix: (Units=1/GPa)
#
#
# Indices 1 2 3 4 5 6 
#
# 1 0.014231 -0.004342 -0.000996 0.000000 0.004272 0.000000
# 2 -0.004342 0.014957 0.002081 0.000000 -0.007124 0.000000
# 3 -0.000996 0.002081 0.012068 0.000000 0.000718 0.000000
# 4 0.000000 0.000000 0.000000 0.042504 0.000000 0.027193
# 5 0.004272 -0.007124 0.000718 0.000000 0.037225 0.000000
# 6 0.000000 0.000000 0.000000 0.027193 0.000000 0.069093
#
#
# Mechanical properties :
#
#
# Convention : Reuss Voigt Hill
#
# Bulk Modulus (GPa) = 28.78334 29.38606 29.08470
# Shear Modulus (GPa) = 24.01844 31.82520 27.92182
#
# Velocity S-wave (km/s) = 3.24195 3.73181 3.49548
# Velocity P-wave (km/s) = 5.15839 5.60604 5.38687
#
# Compressibility (1/GPa) = 0.03474232
#
# Stress axis : x y z
#
# Youngs Moduli (GPa) = 70.27111 66.85725 82.86156
#
# Poissons Ratio (x) = 0.29029 0.08252
# Poissons Ratio (y) = 0.30511 -0.17243
# Poissons Ratio (z) = 0.06998 -0.13912
#
# Static dielectric constant tensor:
#      x y z
#    x 1.887530 0.000000 0.005680 
#    y 0.000000 1.863590 0.000000 
#    z 0.005680 0.000000 1.933870 
# 
# From -- ./inp_files/24284.got.cif
#   From: 2010.05.17/outbox.cif.g08.bks.cpg/sg9_13_cif.got.tgz:24284.got - 2010.06.03 20:04:27.
