data_PCOD9140727
_publ_section_title
;
Structure prediction by ZEFSAII (Michael W. Deem and Ramdas Pophale) SiO2 
 PCOD9140727
Probable space group: C C
;
_chemical_formula_sum "Si O2"
_cell_formula_units_Z 28
_cell_length_a 16.350181
_cell_length_b 11.262161
_cell_length_c 11.419529
_cell_angle_alpha 90.000000
_cell_angle_beta 146.153359
_cell_angle_gamma 90.000000
_cell_volume 1171.185701
_symmetry_space_group_name_H-M "C C"
_symmetry_group_IT_number 9
_symmetry_cell_setting 'monoclinic'
loop_
_space_group_symop_operation_xyz
x,y,z
x,-y,1/2+z
1/2+x,1/2+y,z
1/2+x,1/2-y,1/2+z
loop_
_atom_site_type_symbol
_atom_site_label
_atom_site_fract_x
_atom_site_fract_y
_atom_site_fract_z
Si Si1 0.008240 0.321119 0.904200
Si Si2 0.577643 0.176155 0.732584
Si Si3 0.874483 0.254622 0.179110
Si Si4 0.776217 0.519584 0.688866
Si Si5 0.480808 0.416468 0.235699
Si Si6 0.657505 0.076199 0.355587
Si Si7 0.108521 0.817671 0.152638
O O1 0.108353 0.386985 0.927288
O O2 0.874999 0.401479 0.795125
O O3 0.950647 0.207204 0.766766
O O4 0.099659 0.281626 0.126543
O O5 0.445485 0.245721 0.635563
O O6 0.556746 0.034312 0.699983
O O7 0.713117 0.200430 0.980474
O O8 0.849983 0.391598 0.184221
O O9 0.986607 0.203042 0.407608
O O10 0.612538 0.481978 0.456755
O O11 0.745518 0.605986 0.764561
O O12 0.536046 0.390545 0.171409
O O13 0.322283 0.474600 0.045832
O O14 0.648745 0.189294 0.257596
#
# Coordination Sequence:
#
# PCOD9140727 Si02
#       7
#     4   4   4   4   4   4   4
#     4  11  26  48  71 108 148 198 252 312 383 447
#     4  12  28  44  73 105 155 191 253 317 376 452
#     4  12  26  47  71 111 146 204 255 313 382 450
#     4  12  25  47  78 108 152 200 256 315 384 451
#     4  11  27  45  77 108 148 197 256 312 381 447
#     4  11  25  48  75 108 148 198 244 315 382 450
#     4  11  25  49  77 110 153 196 260 310 384 467
#
# _framework density 23.907395000000001
#
# number of rings (size 3 to 8) (size 9 to 14) (size 15 to 20)
#    0.000    0.571    2.857    4.286    6.000    3.429 
#    0.000    0.000    0.000    0.000    0.000    0.000 
#    0.000    0.000    0.000    0.000    0.000    0.000 
#
# Total GULP energy -78325.911660 kJ/mol
# GULP energy per Si atom -5594.707976 kJ/mol
# Density = 2.385298 g / cm^3
# Si number density = 23.907395 Si / 1000 Ang^3
#
#
#
# Elastic Constant Matrix: (Units=GPa)
#
#
# Indices 1 2 3 4 5 6 
#
# 1 116.1503 25.9415 31.7947 0.0000 -11.4248 0.0000
# 2 25.9415 56.6418 7.9548 0.0000 4.9393 0.0000
# 3 31.7947 7.9548 79.5965 0.0000 3.4668 0.0000
# 4 0.0000 0.0000 0.0000 22.1762 0.0000 10.6174
# 5 -11.4248 4.9393 3.4668 0.0000 38.4959 0.0000
# 6 0.0000 0.0000 0.0000 10.6174 0.0000 43.7742
#
#
#
# Elastic Compliance Matrix: (Units=1/GPa)
#
#
# Indices 1 2 3 4 5 6 
#
# 1 0.011300 -0.004966 -0.004208 0.000000 0.004370 0.000000
# 2 -0.004966 0.020266 0.000136 0.000000 -0.004086 0.000000
# 3 -0.004208 0.000136 0.014342 0.000000 -0.002558 0.000000
# 4 0.000000 0.000000 0.000000 0.051018 0.000000 -0.012374
# 5 0.004370 -0.004086 -0.002558 0.000000 0.028028 0.000000
# 6 0.000000 0.000000 0.000000 -0.012374 0.000000 0.025846
#
#
# Mechanical properties :
#
#
# Convention : Reuss Voigt Hill
#
# Bulk Modulus (GPa) = 35.92772 42.64118 39.28445
# Shear Modulus (GPa) = 28.06572 33.33576 30.70074
#
# Velocity S-wave (km/s) = 3.42999 3.73818 3.58739
# Velocity P-wave (km/s) = 5.54499 6.04207 5.79886
#
# Compressibility (1/GPa) = 0.02783367
#
# Stress axis : x y z
#
# Youngs Moduli (GPa) = 88.49379 49.34328 69.72519
#
# Poissons Ratio (x) = 0.24501 0.29340
# Poissons Ratio (y) = 0.43942 -0.00949
# Poissons Ratio (z) = 0.37238 -0.00671
#
# Static dielectric constant tensor:
#      x y z
#    x 1.853180 0.000000 0.004170 
#    y 0.000000 1.931040 0.000000 
#    z 0.004170 0.000000 1.905730 
# 
# From -- ./inp_files/19301.got.cif
#   From: 2010.05.17/outbox.cif.g08.bks.cpg/sg9_10_cif.got.tgz:19301.got - 2010.06.03 20:04:27.
