data_PCOD9140757
_publ_section_title
;
Structure prediction by ZEFSAII (Michael W. Deem and Ramdas Pophale) SiO2 
 PCOD9140757
Probable space group: C C
;
_chemical_formula_sum "Si O2"
_cell_formula_units_Z 20
_cell_length_a 4.966500
_cell_length_b 14.455490
_cell_length_c 10.714941
_cell_angle_alpha 90.000000
_cell_angle_beta 86.847195
_cell_angle_gamma 90.000000
_cell_volume 768.095460
_symmetry_space_group_name_H-M "C C"
_symmetry_group_IT_number 9
_symmetry_cell_setting 'monoclinic'
loop_
_space_group_symop_operation_xyz
x,y,z
x,-y,1/2+z
1/2+x,1/2+y,z
1/2+x,1/2-y,1/2+z
loop_
_atom_site_type_symbol
_atom_site_label
_atom_site_fract_x
_atom_site_fract_y
_atom_site_fract_z
Si Si1 0.231220 0.612458 0.616940
Si Si2 0.161557 0.182050 0.207720
Si Si3 0.475495 0.057316 0.008573
Si Si4 0.655339 0.812937 0.850783
Si Si5 0.533093 0.403263 0.348132
O O1 0.139272 0.707755 0.684445
O O2 0.274669 0.645998 0.474228
O O3 0.462109 0.578766 0.705480
O O4 0.032356 0.527743 0.598855
O O5 0.322284 0.135577 0.091541
O O6 0.349158 0.164919 0.323069
O O7 0.856908 0.151582 0.238284
O O8 0.757444 0.085922 0.935708
O O9 0.264464 0.035044 0.903649
O O10 0.643400 0.701716 0.854464
#
# Coordination Sequence:
#
# PCOD9140757 Si02
#       5
#     4   4   4   4   4
#     4  11  28  49  83 113 158 213 262 327 405 465
#     4  11  26  48  79 110 156 208 265 321 396 470
#     4  12  27  51  78 115 164 202 273 333 388 476
#     4  11  25  49  79 109 154 209 259 320 404 460
#     4  11  26  51  79 117 160 204 271 329 391 487
#
# _framework density 26.038432
#
# number of rings (size 3 to 8) (size 9 to 14) (size 15 to 20)
#    0.000    0.800    2.000    3.600    2.800    9.600 
#    3.600    0.000    0.000    0.000    0.000    0.000 
#    0.000    0.000    0.000    0.000    0.000    0.000 
#
# Total GULP energy -55983.905714 kJ/mol
# GULP energy per Si atom -5598.390571 kJ/mol
# Density = 2.597917 g / cm^3
# Si number density = 26.038432 Si / 1000 Ang^3
#
#
#
# Elastic Constant Matrix: (Units=GPa)
#
#
# Indices 1 2 3 4 5 6 
#
# 1 166.8423 59.4285 73.4517 0.0000 -7.2181 0.0000
# 2 59.4285 144.0107 38.7573 0.0000 9.7991 0.0000
# 3 73.4517 38.7573 121.5584 0.0000 27.7100 0.0000
# 4 0.0000 0.0000 0.0000 29.6671 0.0000 16.0505
# 5 -7.2181 9.7991 27.7100 0.0000 68.8029 0.0000
# 6 0.0000 0.0000 0.0000 16.0505 0.0000 13.2680
#
#
#
# Elastic Compliance Matrix: (Units=1/GPa)
#
#
# Indices 1 2 3 4 5 6 
#
# 1 0.009688 -0.002677 -0.005857 0.000000 0.003757 0.000000
# 2 -0.002677 0.008336 -0.000777 0.000000 -0.001155 0.000000
# 3 -0.005857 -0.000777 0.013354 0.000000 -0.005882 0.000000
# 4 0.000000 0.000000 0.000000 0.097555 0.000000 -0.118013
# 5 0.003757 -0.001155 -0.005882 0.000000 0.017462 0.000000
# 6 0.000000 0.000000 0.000000 -0.118013 0.000000 0.218132
#
#
# Mechanical properties :
#
#
# Convention : Reuss Voigt Hill
#
# Bulk Modulus (GPa) = 78.38992 86.18737 82.28865
# Shear Modulus (GPa) = 12.90650 39.73253 26.31952
#
# Velocity S-wave (km/s) = 2.22878 3.91054 3.18275
# Velocity P-wave (km/s) = 6.06582 7.31858 6.72145
#
# Compressibility (1/GPa) = 0.01275674
#
# Stress axis : x y z
#
# Youngs Moduli (GPa) = 103.21671 119.95472 74.88385
#
# Poissons Ratio (x) = 0.32117 0.43858
# Poissons Ratio (y) = 0.27636 0.05817
# Poissons Ratio (z) = 0.60453 0.09318
#
# Static dielectric constant tensor:
#      x y z
#    x 1.989040 0.000000 0.020760 
#    y 0.000000 2.064230 0.000000 
#    z 0.020760 0.000000 2.081900 
# 
# From -- ./inp_files/12868.got.cif
#   From: 2010.05.17/outbox.cif.g08.bks.cpg/sg9_7_cif.got.tgz:12868.got - 2010.06.03 20:04:27.
