data_PCOD9140823
_publ_section_title
;
Structure prediction by ZEFSAII (Michael W. Deem and Ramdas Pophale) SiO2 
 PCOD9140823
Probable space group: C C
;
_chemical_formula_sum "Si O2"
_cell_formula_units_Z 32
_cell_length_a 4.959372
_cell_length_b 17.472690
_cell_length_c 14.175204
_cell_angle_alpha 90.000000
_cell_angle_beta 95.802465
_cell_angle_gamma 90.000000
_cell_volume 1222.038495
_symmetry_space_group_name_H-M "C C"
_symmetry_group_IT_number 9
_symmetry_cell_setting 'monoclinic'
loop_
_space_group_symop_operation_xyz
x,y,z
x,-y,1/2+z
1/2+x,1/2+y,z
1/2+x,1/2-y,1/2+z
loop_
_atom_site_type_symbol
_atom_site_label
_atom_site_fract_x
_atom_site_fract_y
_atom_site_fract_z
Si Si1 0.399200 0.046762 0.644590
Si Si2 0.708631 0.893654 0.851716
Si Si3 0.300575 0.564264 0.885784
Si Si4 0.071159 0.685790 0.160109
Si Si5 0.752664 0.351710 0.964690
Si Si6 0.458811 0.803398 0.462513
Si Si7 0.187961 0.164127 0.772979
Si Si8 0.420435 0.449130 0.597360
O O1 0.250905 0.095838 0.556915
O O2 0.405112 0.108500 0.729590
O O3 0.674131 0.007648 0.616605
O O4 0.186429 0.979266 0.658992
O O5 0.553089 0.856641 0.758819
O O6 0.553819 0.863314 0.937638
O O7 0.026966 0.877742 0.880131
O O8 0.685245 0.984824 0.845429
O O9 0.079308 0.618049 0.927001
O O10 0.467519 0.608714 0.812355
O O11 0.476652 0.547388 0.986862
O O12 0.101904 0.773844 0.192284
O O13 0.318189 0.634897 0.125127
O O14 0.860069 0.684387 0.065610
O O15 0.680384 0.263407 0.979393
O O16 0.273197 0.784678 0.366636
#
# Coordination Sequence:
#
# PCOD9140823 Si02
#       8
#     4   4   4   4   4   4   4   4
#     4  12  25  51  78 116 152 209 261 320 393 464
#     4  12  26  47  79 110 151 201 261 316 391 457
#     4  11  26  47  76 113 159 202 265 327 394 462
#     4  11  26  50  72 115 149 209 256 322 390 473
#     4  12  24  50  77 111 152 202 254 322 380 473
#     4  11  27  49  72 110 161 204 260 324 395 469
#     4  12  27  48  78 114 155 213 260 328 392 477
#     4  11  27  50  78 113 159 204 259 325 389 467
#
# _framework density 26.185753999999999
#
# number of rings (size 3 to 8) (size 9 to 14) (size 15 to 20)
#    0.000    0.500    5.000    1.500    8.750    1.000 
#    4.500    0.000    0.000    0.000    0.000    0.000 
#    0.000    0.000    0.000    0.000    0.000    0.000 
#
# Total GULP energy -89519.549849 kJ/mol
# GULP energy per Si atom -5594.971866 kJ/mol
# Density = 2.612615 g / cm^3
# Si number density = 26.185754 Si / 1000 Ang^3
#
#
#
# Elastic Constant Matrix: (Units=GPa)
#
#
# Indices 1 2 3 4 5 6 
#
# 1 96.0189 31.7266 24.3057 0.0000 -6.6175 0.0000
# 2 31.7266 150.6036 52.5221 0.0000 -11.4262 0.0000
# 3 24.3057 52.5221 160.7907 0.0000 6.9171 0.0000
# 4 0.0000 0.0000 0.0000 59.6565 0.0000 -2.3827
# 5 -6.6175 -11.4262 6.9171 0.0000 31.8606 0.0000
# 6 0.0000 0.0000 0.0000 -2.3827 0.0000 32.3577
#
#
#
# Elastic Compliance Matrix: (Units=1/GPa)
#
#
# Indices 1 2 3 4 5 6 
#
# 1 0.011468 -0.001840 -0.001218 0.000000 0.001986 0.000000
# 2 -0.001840 0.008138 -0.002513 0.000000 0.003082 0.000000
# 3 -0.001218 -0.002513 0.007342 0.000000 -0.002748 0.000000
# 4 0.000000 0.000000 0.000000 0.016812 0.000000 0.001238
# 5 0.001986 0.003082 -0.002748 0.000000 0.033501 0.000000
# 6 0.000000 0.000000 0.000000 0.001238 0.000000 0.030996
#
#
# Mechanical properties :
#
#
# Convention : Reuss Voigt Hill
#
# Bulk Modulus (GPa) = 63.26588 69.39134 66.32861
# Shear Modulus (GPa) = 40.10683 44.69888 42.40285
#
# Velocity S-wave (km/s) = 3.91785 4.13606 4.02843
# Velocity P-wave (km/s) = 6.68423 7.02613 6.85731
#
# Compressibility (1/GPa) = 0.01580631
#
# Stress axis : x y z
#
# Youngs Moduli (GPa) = 87.19988 122.88482 136.19741
#
# Poissons Ratio (x) = 0.22617 0.16586
# Poissons Ratio (y) = 0.16049 0.34220
# Poissons Ratio (z) = 0.10619 0.30875
#
# Static dielectric constant tensor:
#      x y z
#    x 2.038760 0.000000 0.103060 
#    y 0.000000 2.063090 0.000000 
#    z 0.103060 0.000000 2.156170 
# 
# From -- ./inp_files/22068.got.cif
#   From: 2010.05.17/outbox.cif.g08.bks.cpg/sg9_12_cif.got.tgz:22068.got - 2010.06.03 20:04:27.
