data_PCOD9140293
_publ_section_title
;
Structure prediction by ZEFSAII (Michael W. Deem and Ramdas Pophale) SiO2 
 PCOD9140293
Probable space group: C C
;
_chemical_formula_sum "Si O2"
_cell_formula_units_Z 32
_cell_length_a 11.385969
_cell_length_b 10.002081
_cell_length_c 17.555383
_cell_angle_alpha 90.000000
_cell_angle_beta 141.958158
_cell_angle_gamma 90.000000
_cell_volume 1232.021506
_symmetry_space_group_name_H-M "C C"
_symmetry_group_IT_number 9
_symmetry_cell_setting 'monoclinic'
loop_
_space_group_symop_operation_xyz
x,y,z
x,-y,1/2+z
1/2+x,1/2+y,z
1/2+x,1/2-y,1/2+z
loop_
_atom_site_type_symbol
_atom_site_label
_atom_site_fract_x
_atom_site_fract_y
_atom_site_fract_z
Si Si1 0.366090 0.832977 0.861890
Si Si2 0.806853 0.982857 0.984789
Si Si3 0.618892 0.769211 0.784426
Si Si4 0.748011 0.597613 0.718946
Si Si5 0.645080 0.990146 0.568536
Si Si6 0.055031 0.676915 0.755820
Si Si7 0.391938 0.972062 0.567083
Si Si8 0.971101 0.927947 0.322336
O O1 0.161697 0.817170 0.798765
O O2 0.399208 0.694804 0.836268
O O3 0.351640 0.962482 0.800554
O O4 0.550135 0.863166 0.007256
O O5 0.738687 0.034793 0.033640
O O6 0.031235 0.950854 0.093926
O O7 0.712286 0.845914 0.903652
O O8 0.720492 0.090470 0.882104
O O9 0.750263 0.710576 0.785252
O O10 0.466536 0.866239 0.666810
O O11 0.515573 0.640342 0.764418
O O12 0.866250 0.659589 0.709871
O O13 0.801498 0.975111 0.714260
O O14 0.463236 0.924990 0.519670
O O15 0.990709 0.609661 0.643773
O O16 0.165732 0.985398 0.453750
#
# Coordination Sequence:
#
# PCOD9140293 Si02
#       8
#     4   4   4   4   4   4   4   4
#     4  12  26  48  72 109 152 206 253 317 387 458
#     4  11  25  46  77 106 150 196 250 317 388 456
#     4  11  23  48  71 108 147 205 250 310 383 459
#     4  12  26  48  75 106 157 202 253 320 384 463
#     4  12  24  45  76 114 144 197 253 314 387 460
#     4  11  27  49  72 114 153 199 255 321 382 463
#     4  11  26  46  76 109 148 195 263 313 385 461
#     4  12  23  44  75 106 145 200 255 308 380 460
#
# _framework density 25.973572999999998
#
# number of rings (size 3 to 8) (size 9 to 14) (size 15 to 20)
#    0.000    0.500    5.000    3.000    3.500    1.000 
#    4.500    0.000    0.000    0.000    0.000    0.000 
#    0.000    0.000    0.000    0.000    0.000    0.000 
#
# Total GULP energy -89497.831831 kJ/mol
# GULP energy per Si atom -5593.614489 kJ/mol
# Density = 2.591446 g / cm^3
# Si number density = 25.973573 Si / 1000 Ang^3
#
#
#
# Elastic Constant Matrix: (Units=GPa)
#
#
# Indices 1 2 3 4 5 6 
#
# 1 149.1099 11.3462 38.1387 0.0000 1.5139 0.0000
# 2 11.3462 56.2106 22.6406 0.0000 -0.3868 0.0000
# 3 38.1387 22.6406 159.4932 0.0000 20.4215 0.0000
# 4 0.0000 0.0000 0.0000 23.7275 0.0000 5.1017
# 5 1.5139 -0.3868 20.4215 0.0000 47.2006 0.0000
# 6 0.0000 0.0000 0.0000 5.1017 0.0000 44.0923
#
#
#
# Elastic Compliance Matrix: (Units=1/GPa)
#
#
# Indices 1 2 3 4 5 6 
#
# 1 0.007188 -0.000774 -0.001671 0.000000 0.000486 0.000000
# 2 -0.000774 0.019039 -0.002690 0.000000 0.001345 0.000000
# 3 -0.001671 -0.002690 0.007461 0.000000 -0.003196 0.000000
# 4 0.000000 0.000000 0.000000 0.043220 0.000000 -0.005001
# 5 0.000486 0.001345 -0.003196 0.000000 0.022564 0.000000
# 6 0.000000 0.000000 0.000000 -0.005001 0.000000 0.023258
#
#
# Mechanical properties :
#
#
# Convention : Reuss Voigt Hill
#
# Bulk Modulus (GPa) = 42.70369 56.56273 49.63321
# Shear Modulus (GPa) = 35.50966 42.51663 39.01315
#
# Velocity S-wave (km/s) = 3.70150 4.05027 3.87981
# Velocity P-wave (km/s) = 5.89450 6.61039 6.26268
#
# Compressibility (1/GPa) = 0.02341718
#
# Stress axis : x y z
#
# Youngs Moduli (GPa) = 139.12294 52.52333 134.03903
#
# Poissons Ratio (x) = 0.04068 0.22399
# Poissons Ratio (y) = 0.10774 0.36052
# Poissons Ratio (z) = 0.23249 0.14127
#
# Static dielectric constant tensor:
#      x y z
#    x 2.165240 0.000000 0.043120 
#    y 0.000000 2.020470 0.000000 
#    z 0.043120 0.000000 2.059500 
# 
# From -- ./inp_files/30080.got.cif
#   From: 2010.05.17/outbox.cif.g08.bks.cpg/sg9_16_cif.got.tgz:30080.got - 2010.06.03 20:04:27.
