data_PCOD9140608
_publ_section_title
;
Structure prediction by ZEFSAII (Michael W. Deem and Ramdas Pophale) SiO2 
 PCOD9140608
Probable space group: C C
;
_chemical_formula_sum "Si O2"
_cell_formula_units_Z 28
_cell_length_a 7.391874
_cell_length_b 22.353770
_cell_length_c 7.144694
_cell_angle_alpha 90.000000
_cell_angle_beta 61.553635
_cell_angle_gamma 90.000000
_cell_volume 1038.025356
_symmetry_space_group_name_H-M "C C"
_symmetry_group_IT_number 9
_symmetry_cell_setting 'monoclinic'
loop_
_space_group_symop_operation_xyz
x,y,z
x,-y,1/2+z
1/2+x,1/2+y,z
1/2+x,1/2-y,1/2+z
loop_
_atom_site_type_symbol
_atom_site_label
_atom_site_fract_x
_atom_site_fract_y
_atom_site_fract_z
Si Si1 0.393870 0.955179 0.607650
Si Si2 0.130671 0.291854 0.529949
Si Si3 0.790418 0.582631 0.558010
Si Si4 0.831631 0.909988 0.342678
Si Si5 0.462817 0.400381 0.688778
Si Si6 0.103982 0.670346 0.472095
Si Si7 0.185250 0.785125 0.677602
O O1 0.406286 0.924245 0.803989
O O2 0.613705 0.940660 0.402323
O O3 0.171642 0.934124 0.639131
O O4 0.360033 0.025935 0.644093
O O5 0.295137 0.338849 0.372877
O O6 0.122337 0.298964 0.756915
O O7 0.155742 0.228592 0.413411
O O8 0.911096 0.311869 0.557435
O O9 0.547301 0.579183 0.634373
O O10 0.875624 0.643202 0.607587
O O11 0.887679 0.926768 0.530003
O O12 0.257151 0.387427 0.912202
O O13 0.161292 0.722024 0.587029
O O14 0.537240 0.668620 0.152202
#
# Coordination Sequence:
#
# PCOD9140608 Si02
#       7
#     4   4   4   4   4   4   4
#     4  12  27  52  77 116 152 203 273 326 408 483
#     4  11  26  46  74 112 163 207 266 321 398 481
#     4  12  28  50  83 110 158 209 262 346 402 473
#     4  11  27  50  77 112 159 204 257 338 392 479
#     4  11  24  51  72 112 162 195 262 324 392 482
#     4  11  27  49  75 120 159 205 273 325 405 485
#     4  12  25  44  78 116 153 219 253 326 399 477
#
# _framework density 26.974291999999998
#
# number of rings (size 3 to 8) (size 9 to 14) (size 15 to 20)
#    0.000    0.571    5.714    0.857   10.000    3.429 
#    0.000    0.000    0.000    0.000    0.000    0.000 
#    0.000    0.000    0.000    0.000    0.000    0.000 
#
# Total GULP energy -78345.942497 kJ/mol
# GULP energy per Si atom -5596.138750 kJ/mol
# Density = 2.691290 g / cm^3
# Si number density = 26.974292 Si / 1000 Ang^3
#
#
#
# Elastic Constant Matrix: (Units=GPa)
#
#
# Indices 1 2 3 4 5 6 
#
# 1 180.3672 44.8311 41.6014 0.0000 -24.8928 0.0000
# 2 44.8311 84.0548 33.7947 0.0000 2.3694 0.0000
# 3 41.6014 33.7947 104.8799 0.0000 -20.3118 0.0000
# 4 0.0000 0.0000 0.0000 18.7603 0.0000 -7.4458
# 5 -24.8928 2.3694 -20.3118 0.0000 50.6340 0.0000
# 6 0.0000 0.0000 0.0000 -7.4458 0.0000 47.5828
#
#
#
# Elastic Compliance Matrix: (Units=1/GPa)
#
#
# Indices 1 2 3 4 5 6 
#
# 1 0.007092 -0.003438 -0.001083 0.000000 0.003213 0.000000
# 2 -0.003438 0.015659 -0.004501 0.000000 -0.004228 0.000000
# 3 -0.001083 -0.004501 0.012309 0.000000 0.004616 0.000000
# 4 0.000000 0.000000 0.000000 0.056834 0.000000 0.008893
# 5 0.003213 -0.004228 0.004616 0.000000 0.023379 0.000000
# 6 0.000000 0.000000 0.000000 0.008893 0.000000 0.022408
#
#
# Mechanical properties :
#
#
# Convention : Reuss Voigt Hill
#
# Bulk Modulus (GPa) = 58.76782 67.75069 63.25925
# Shear Modulus (GPa) = 30.97976 40.00041 35.49009
#
# Velocity S-wave (km/s) = 3.39262 3.85503 3.63119
# Velocity P-wave (km/s) = 6.09757 6.70718 6.40963
#
# Compressibility (1/GPa) = 0.01701612
#
# Stress axis : x y z
#
# Youngs Moduli (GPa) = 141.00550 63.85960 81.24369
#
# Poissons Ratio (x) = 0.21952 0.08800
# Poissons Ratio (y) = 0.48472 0.36569
# Poissons Ratio (z) = 0.15273 0.28744
#
# Static dielectric constant tensor:
#      x y z
#    x 2.065930 0.000000 -0.018140 
#    y 0.000000 2.122650 0.000000 
#    z -0.018140 0.000000 2.181770 
# 
# From -- ./inp_files/4443.got.cif
#   From: 2010.05.17/outbox.cif.g08.bks.cpg/sg9_3_cif.got.tgz:4443.got - 2010.06.03 20:04:27.
