data_PCOD9140189
_publ_section_title
;
Structure prediction by ZEFSAII (Michael W. Deem and Ramdas Pophale) SiO2 
 PCOD9140189
Probable space group: C C
;
_chemical_formula_sum "Si O2"
_cell_formula_units_Z 28
_cell_length_a 14.159423
_cell_length_b 11.984423
_cell_length_c 8.394889
_cell_angle_alpha 90.000000
_cell_angle_beta 115.028724
_cell_angle_gamma 90.000000
_cell_volume 1290.778617
_symmetry_space_group_name_H-M "C C"
_symmetry_group_IT_number 9
_symmetry_cell_setting 'monoclinic'
loop_
_space_group_symop_operation_xyz
x,y,z
x,-y,1/2+z
1/2+x,1/2+y,z
1/2+x,1/2-y,1/2+z
loop_
_atom_site_type_symbol
_atom_site_label
_atom_site_fract_x
_atom_site_fract_y
_atom_site_fract_z
Si Si1 0.578760 0.358478 0.280140
Si Si2 0.165881 0.736487 0.638350
Si Si3 0.580368 0.059381 0.808923
Si Si4 0.166113 0.360400 0.692503
Si Si5 0.232370 0.929275 0.917296
Si Si6 0.349548 0.688785 0.522904
Si Si7 0.361016 0.089725 0.820224
O O1 0.592668 0.300768 0.461638
O O2 0.629327 0.266684 0.196096
O O3 0.645092 0.472741 0.340679
O O4 0.458180 0.367156 0.146720
O O5 0.108507 0.632425 0.675325
O O6 0.193906 0.820832 0.799459
O O7 0.270484 0.704796 0.614811
O O8 0.468343 0.082122 0.803159
O O9 0.594285 0.933916 0.758941
O O10 0.656170 0.096408 0.006773
O O11 0.282360 0.376100 0.842518
O O12 0.332484 0.979264 0.897040
O O13 0.271363 0.903538 0.121954
O O14 0.366343 0.809279 0.450371
#
# Coordination Sequence:
#
# PCOD9140189 Si02
#       7
#     4   4   4   4   4   4   4
#     4  11  24  46  68 103 145 184 228 300 356 417
#     4  11  26  45  69 104 145 180 242 292 350 428
#     4  12  26  44  71 104 137 187 239 296 350 417
#     4  11  23  45  68  99 142 178 240 289 348 420
#     4  12  24  44  72 108 143 180 236 303 350 427
#     4  11  24  47  72  99 143 191 231 288 359 426
#     4  12  23  43  74 107 133 190 240 290 353 417
#
# _framework density 21.692333999999999
#
# number of rings (size 3 to 8) (size 9 to 14) (size 15 to 20)
#    0.000    0.571    5.714    3.429    4.000    0.000 
#    5.143    0.000    0.000    0.000    0.000    0.000 
#    0.000    0.000    0.000    0.000    0.000    0.000 
#
# Total GULP energy -78314.467035 kJ/mol
# GULP energy per Si atom -5593.890502 kJ/mol
# Density = 2.164296 g / cm^3
# Si number density = 21.692334 Si / 1000 Ang^3
#
#
#
# Elastic Constant Matrix: (Units=GPa)
#
#
# Indices 1 2 3 4 5 6 
#
# 1 135.3426 40.4929 33.9929 0.0000 19.2562 0.0000
# 2 40.4929 75.0701 6.3235 0.0000 5.3334 0.0000
# 3 33.9929 6.3235 99.3281 0.0000 13.3863 0.0000
# 4 0.0000 0.0000 0.0000 38.9686 0.0000 -10.0831
# 5 19.2562 5.3334 13.3863 0.0000 31.8728 0.0000
# 6 0.0000 0.0000 0.0000 -10.0831 0.0000 18.9251
#
#
#
# Elastic Compliance Matrix: (Units=1/GPa)
#
#
# Indices 1 2 3 4 5 6 
#
# 1 0.010112 -0.004939 -0.002580 0.000000 -0.004199 0.000000
# 2 -0.004939 0.015926 0.000671 0.000000 0.000037 0.000000
# 3 -0.002580 0.000671 0.011356 0.000000 -0.003323 0.000000
# 4 0.000000 0.000000 0.000000 0.029765 0.000000 0.015859
# 5 -0.004199 0.000037 -0.003323 0.000000 0.035301 0.000000
# 6 0.000000 0.000000 0.000000 0.015859 0.000000 0.061289
#
#
# Mechanical properties :
#
#
# Convention : Reuss Voigt Hill
#
# Bulk Modulus (GPa) = 42.19767 52.37328 47.28547
# Shear Modulus (GPa) = 26.97705 33.21541 30.09623
#
# Velocity S-wave (km/s) = 3.53033 3.91731 3.72884
# Velocity P-wave (km/s) = 6.00938 6.68255 6.35489
#
# Compressibility (1/GPa) = 0.02369799
#
# Stress axis : x y z
#
# Youngs Moduli (GPa) = 98.89530 62.79197 88.06125
#
# Poissons Ratio (x) = 0.31010 0.22722
# Poissons Ratio (y) = 0.48841 -0.05911
# Poissons Ratio (z) = 0.25517 -0.04215
#
# Static dielectric constant tensor:
#      x y z
#    x 1.792490 0.000000 0.021450 
#    y 0.000000 1.788820 0.000000 
#    z 0.021450 0.000000 1.811340 
# 
# From -- ./inp_files/9002.got.cif
#   From: 2010.05.17/outbox.cif.g08.bks.cpg/sg9_5_cif.got.tgz:9002.got - 2010.06.03 20:04:27.
