data_PCOD9140828
_publ_section_title
;
Structure prediction by ZEFSAII (Michael W. Deem and Ramdas Pophale) SiO2 
 PCOD9140828
Probable space group: C C
;
_chemical_formula_sum "Si O2"
_cell_formula_units_Z 20
_cell_length_a 4.917922
_cell_length_b 17.420163
_cell_length_c 9.924259
_cell_angle_alpha 90.000000
_cell_angle_beta 76.893708
_cell_angle_gamma 90.000000
_cell_volume 828.073869
_symmetry_space_group_name_H-M "C C"
_symmetry_group_IT_number 9
_symmetry_cell_setting 'monoclinic'
loop_
_space_group_symop_operation_xyz
x,y,z
x,-y,1/2+z
1/2+x,1/2+y,z
1/2+x,1/2-y,1/2+z
loop_
_atom_site_type_symbol
_atom_site_label
_atom_site_fract_x
_atom_site_fract_y
_atom_site_fract_z
Si Si1 0.993630 0.108444 0.654160
Si Si2 0.173718 0.409797 0.781771
Si Si3 0.928682 0.521344 0.040391
Si Si4 0.635573 0.317505 0.857022
Si Si5 0.414952 0.851954 0.326845
O O1 0.038937 0.158183 0.516384
O O2 0.667015 0.105768 0.719755
O O3 0.145450 0.148060 0.763217
O O4 0.161204 0.028919 0.615131
O O5 0.105735 0.449437 0.647648
O O6 0.960947 0.337454 0.813493
O O7 0.477947 0.375634 0.773429
O O8 0.096231 0.466206 0.915872
O O9 0.851271 0.596664 0.963549
O O10 0.534936 0.231860 0.842518
#
# Coordination Sequence:
#
# PCOD9140828 Si02
#       5
#     4   4   4   4   4
#     4  11  26  50  71 109 150 189 254 306 359 447
#     4  11  26  48  73 105 151 189 249 303 369 434
#     4  11  26  49  74 110 142 201 246 308 362 440
#     4  11  27  46  73 106 149 193 242 310 364 443
#     4  12  27  45  79 104 148 198 247 303 378 430
#
# _framework density 24.152435000000001
#
# number of rings (size 3 to 8) (size 9 to 14) (size 15 to 20)
#    0.000    0.800    2.000    3.600    8.400    4.800 
#    0.000    0.000    0.000    0.000    0.000    0.000 
#    0.000    0.000    0.000    0.000    0.000    0.000 
#
# Total GULP energy -56074.978041 kJ/mol
# GULP energy per Si atom -5607.497804 kJ/mol
# Density = 2.409746 g / cm^3
# Si number density = 24.152435 Si / 1000 Ang^3
#
#
#
# Elastic Constant Matrix: (Units=GPa)
#
#
# Indices 1 2 3 4 5 6 
#
# 1 60.6613 -20.0472 1.4526 0.0000 2.8420 0.0000
# 2 -20.0472 147.1490 37.2625 0.0000 14.0015 0.0000
# 3 1.4526 37.2625 112.1883 0.0000 28.4113 0.0000
# 4 0.0000 0.0000 0.0000 -5.7606 0.0000 -29.9127
# 5 2.8420 14.0015 28.4113 0.0000 29.6207 0.0000
# 6 0.0000 0.0000 0.0000 -29.9127 0.0000 -4.8512
#
#
#
# Elastic Compliance Matrix: (Units=1/GPa)
#
#
# Indices 1 2 3 4 5 6 
#
# 1 0.017524 0.002754 -0.000510 0.000000 -0.002494 0.000000
# 2 0.002754 0.007904 -0.002177 0.000000 -0.001913 0.000000
# 3 -0.000510 -0.002177 0.012376 0.000000 -0.010793 0.000000
# 4 0.000000 0.000000 0.000000 0.005597 0.000000 -0.034508
# 5 -0.002494 -0.001913 -0.010793 0.000000 0.045256 0.000000
# 6 0.000000 0.000000 0.000000 -0.034508 0.000000 0.006646
#
#
# Mechanical properties :
#
#
# Convention : Reuss Voigt Hill
#
# Bulk Modulus (GPa) = 26.35778 39.70383 33.03081
# Shear Modulus (GPa) = 46.37573 23.89051 35.13312
#
# Velocity S-wave (km/s) = 4.38668 3.14850 3.81811
# Velocity P-wave (km/s) = 6.04930 5.44903 5.75699
#
# Compressibility (1/GPa) = 0.03793946
#
# Stress axis : x y z
#
# Youngs Moduli (GPa) = 57.06417 126.51521 80.79829
#
# Poissons Ratio (x) = -0.34841 0.04121
# Poissons Ratio (y) = -0.15715 0.17586
# Poissons Ratio (z) = 0.02910 0.27537
#
# Static dielectric constant tensor:
#      x y z
#    x 1.870890 0.000000 -0.022560 
#    y 0.000000 1.946400 0.000000 
#    z -0.022560 0.000000 1.895220 
# 
# From -- ./inp_files/3610.got.cif
#   From: 2010.05.17/outbox.cif.g08.bks.cpg/sg9_2_cif.got.tgz:3610.got - 2010.06.03 20:04:27.
