data_PCOD9140647
_publ_section_title
;
Structure prediction by ZEFSAII (Michael W. Deem and Ramdas Pophale) SiO2 
 PCOD9140647
Probable space group: C C
;
_chemical_formula_sum "Si O2"
_cell_formula_units_Z 32
_cell_length_a 11.782327
_cell_length_b 14.540356
_cell_length_c 8.945668
_cell_angle_alpha 90.000000
_cell_angle_beta 100.431566
_cell_angle_gamma 90.000000
_cell_volume 1507.234510
_symmetry_space_group_name_H-M "C C"
_symmetry_group_IT_number 9
_symmetry_cell_setting 'monoclinic'
loop_
_space_group_symop_operation_xyz
x,y,z
x,-y,1/2+z
1/2+x,1/2+y,z
1/2+x,1/2-y,1/2+z
loop_
_atom_site_type_symbol
_atom_site_label
_atom_site_fract_x
_atom_site_fract_y
_atom_site_fract_z
Si Si1 0.954210 0.318721 0.939130
Si Si2 0.271863 0.874335 0.444264
Si Si3 0.752451 0.008533 0.944371
Si Si4 0.367446 0.982645 0.740342
Si Si5 0.596410 0.055895 0.647201
Si Si6 0.095324 0.777942 0.217985
Si Si7 0.823498 0.187857 0.120120
Si Si8 0.395885 0.319120 0.954250
O O1 0.883456 0.408546 0.874970
O O2 0.018578 0.287531 0.804390
O O3 0.867024 0.248572 0.993735
O O4 0.049389 0.345296 0.086513
O O5 0.285810 0.938704 0.592632
O O6 0.146608 0.850175 0.349587
O O7 0.330442 0.774757 0.489174
O O8 0.329777 0.924531 0.314972
O O9 0.709450 0.050045 0.777185
O O10 0.819438 0.911811 0.952063
O O11 0.816126 0.085211 0.055695
O O12 0.633443 0.991060 0.002660
O O13 0.489888 0.001982 0.692219
O O14 0.201072 0.723833 0.161298
O O15 0.012998 0.823029 0.075313
O O16 0.910453 0.192543 0.280251
#
# Coordination Sequence:
#
# PCOD9140647 Si02
#       8
#     4   4   4   4   4   4   4   4
#     4  12  25  44  75 108 140 189 242 292 359 427
#     4  11  25  45  72 102 146 183 238 297 355 422
#     4  12  25  43  71 104 144 188 236 298 361 427
#     4  12  23  43  71 109 138 187 243 298 349 427
#     4  12  22  40  73 105 138 179 245 300 352 411
#     4  11  26  49  72 104 150 190 230 301 367 416
#     4  11  27  46  70 109 142 191 242 292 356 433
#     4  11  25  48  70 101 152 183 230 306 357 423
#
# _framework density 21.230936
#
# number of rings (size 3 to 8) (size 9 to 14) (size 15 to 20)
#    0.000    0.500    5.000    3.750    5.250    1.000 
#    4.500    0.000    0.000    0.000    0.000    0.000 
#    0.000    0.000    0.000    0.000    0.000    0.000 
#
# Total GULP energy -89356.624553 kJ/mol
# GULP energy per Si atom -5584.789035 kJ/mol
# Density = 2.118261 g / cm^3
# Si number density = 21.230936 Si / 1000 Ang^3
#
#
#
# Elastic Constant Matrix: (Units=GPa)
#
#
# Indices 1 2 3 4 5 6 
#
# 1 43.7406 27.0108 31.5662 0.0000 19.6109 0.0000
# 2 27.0108 94.3936 33.1657 0.0000 -1.1812 0.0000
# 3 31.5662 33.1657 99.4916 0.0000 27.6891 0.0000
# 4 0.0000 0.0000 0.0000 42.1370 0.0000 4.4685
# 5 19.6109 -1.1812 27.6891 0.0000 51.1467 0.0000
# 6 0.0000 0.0000 0.0000 4.4685 0.0000 21.9298
#
#
#
# Elastic Compliance Matrix: (Units=1/GPa)
#
#
# Indices 1 2 3 4 5 6 
#
# 1 0.037703 -0.008900 -0.005787 0.000000 -0.011529 0.000000
# 2 -0.008900 0.014471 -0.003583 0.000000 0.005686 0.000000
# 3 -0.005787 -0.003583 0.014702 0.000000 -0.005823 0.000000
# 4 0.000000 0.000000 0.000000 0.024256 0.000000 -0.004943
# 5 -0.011529 0.005686 -0.005823 0.000000 0.027256 0.000000
# 6 0.000000 0.000000 0.000000 -0.004943 0.000000 0.046607
#
#
# Mechanical properties :
#
#
# Convention : Reuss Voigt Hill
#
# Bulk Modulus (GPa) = 32.96296 46.79013 39.87654
# Shear Modulus (GPa) = 23.62440 32.76823 28.19632
#
# Velocity S-wave (km/s) = 3.33939 3.93290 3.64823
# Velocity P-wave (km/s) = 5.51618 6.53530 6.04725
#
# Compressibility (1/GPa) = 0.03033709
#
# Stress axis : x y z
#
# Youngs Moduli (GPa) = 26.52309 69.10609 68.01804
#
# Poissons Ratio (x) = 0.61503 0.39361
# Poissons Ratio (y) = 0.23605 0.24368
# Poissons Ratio (z) = 0.15349 0.24758
#
# Static dielectric constant tensor:
#      x y z
#    x 1.771790 0.000000 0.019210 
#    y 0.000000 1.803630 0.000000 
#    z 0.019210 0.000000 1.797220 
# 
# From -- ./inp_files/7598.got.cif
#   From: 2010.05.17/outbox.cif.g08.bks.cpg/sg9_4_cif.got.tgz:7598.got - 2010.06.03 20:04:27.
