data_PCOD9140447
_publ_section_title
;
Structure prediction by ZEFSAII (Michael W. Deem and Ramdas Pophale) SiO2 
 PCOD9140447
Probable space group: C C
;
_chemical_formula_sum "Si O2"
_cell_formula_units_Z 32
_cell_length_a 7.688179
_cell_length_b 20.037816
_cell_length_c 14.323350
_cell_angle_alpha 90.000000
_cell_angle_beta 35.301613
_cell_angle_gamma 90.000000
_cell_volume 1275.136244
_symmetry_space_group_name_H-M "C C"
_symmetry_group_IT_number 9
_symmetry_cell_setting 'monoclinic'
loop_
_space_group_symop_operation_xyz
x,y,z
x,-y,1/2+z
1/2+x,1/2+y,z
1/2+x,1/2-y,1/2+z
loop_
_atom_site_type_symbol
_atom_site_label
_atom_site_fract_x
_atom_site_fract_y
_atom_site_fract_z
Si Si1 0.179260 0.778183 0.054730
Si Si2 0.645979 0.550871 0.784649
Si Si3 0.720014 0.700205 0.738851
Si Si4 0.714932 0.431678 0.979882
Si Si5 0.158018 0.852424 0.610548
Si Si6 0.985240 0.742211 0.815322
Si Si7 0.034863 0.522206 0.993689
Si Si8 0.802088 0.048005 0.129053
O O1 0.312959 0.767221 0.100180
O O2 0.831944 0.759724 0.195950
O O3 0.395732 0.732369 0.899109
O O4 0.191676 0.854982 0.017242
O O5 0.699791 0.623696 0.722990
O O6 0.939426 0.508775 0.634600
O O7 0.390097 0.517234 0.833885
O O8 0.494957 0.560985 0.950991
O O9 0.910178 0.703719 0.751095
O O10 0.946829 0.437256 0.791633
O O11 0.398513 0.470690 0.106749
O O12 0.890326 0.476077 0.978874
O O13 0.971698 0.818045 0.777417
O O14 0.306040 0.795065 0.478258
O O15 0.417347 0.902394 0.533712
O O16 0.944215 0.899607 0.641730
#
# Coordination Sequence:
#
# PCOD9140447 Si02
#       8
#     4   4   4   4   4   4   4   4
#     4  12  27  47  75 108 152 198 255 312 388 453
#     4  12  24  46  69 108 140 190 246 311 375 445
#     4  12  27  47  74 110 147 198 255 314 377 466
#     4  11  25  45  72 103 142 196 246 305 384 447
#     4  11  25  47  72 105 147 195 253 311 387 449
#     4  12  25  48  75 107 153 205 249 319 386 457
#     4  11  24  45  74  99 146 189 250 313 375 454
#     4  11  25  45  71 102 147 189 244 313 372 451
#
# _framework density 25.095358999999998
#
# number of rings (size 3 to 8) (size 9 to 14) (size 15 to 20)
#    0.000    0.500    2.500    6.000    5.250    1.000 
#    9.000    0.000    0.000    0.000    0.000    0.000 
#    0.000    0.000    0.000    0.000    0.000    0.000 
#
# Total GULP energy -89446.716740 kJ/mol
# GULP energy per Si atom -5590.419796 kJ/mol
# Density = 2.503824 g / cm^3
# Si number density = 25.095359 Si / 1000 Ang^3
#
#
#
# Elastic Constant Matrix: (Units=GPa)
#
#
# Indices 1 2 3 4 5 6 
#
# 1 45.0075 18.8926 4.1465 -0.0005 9.1091 -0.0006
# 2 18.8926 86.4734 29.8735 -0.0011 3.0123 0.0002
# 3 4.1465 29.8735 98.5217 -0.0017 13.4851 -0.0025
# 4 -0.0005 -0.0011 -0.0017 41.8537 0.0000 1.9686
# 5 9.1091 3.0123 13.4851 0.0000 33.4429 0.0014
# 6 -0.0006 0.0002 -0.0025 1.9686 0.0014 30.6228
#
#
#
# Elastic Compliance Matrix: (Units=1/GPa)
#
#
# Indices 1 2 3 4 5 6 
#
# 1 0.026061 -0.006038 0.001726 0.000000 -0.007251 0.000001
# 2 -0.006038 0.014322 -0.004379 0.000000 0.002120 -0.000001
# 3 0.001726 -0.004379 0.012082 0.000000 -0.004948 0.000001
# 4 0.000000 0.000000 0.000000 0.023965 0.000000 -0.001541
# 5 -0.007251 0.002120 -0.004948 0.000000 0.033681 -0.000002
# 6 0.000001 -0.000001 0.000001 -0.001541 -0.000002 0.032754
#
#
# Mechanical properties :
#
#
# Convention : Reuss Voigt Hill
#
# Bulk Modulus (GPa) = 28.50172 37.31421 32.90796
# Shear Modulus (GPa) = 29.07960 32.98989 31.03475
#
# Velocity S-wave (km/s) = 3.40776 3.62965 3.52045
# Velocity P-wave (km/s) = 5.18322 5.69799 5.44669
#
# Compressibility (1/GPa) = 0.03508560
#
# Stress axis : x y z
#
# Youngs Moduli (GPa) = 38.37099 69.82158 82.76534
#
# Poissons Ratio (x) = 0.42156 -0.14288
# Poissons Ratio (y) = 0.23167 0.36242
# Poissons Ratio (z) = -0.06624 0.30574
#
# Static dielectric constant tensor:
#      x y z
#    x 2.087490 0.000000 0.069630 
#    y 0.000000 1.942570 0.000000 
#    z 0.069630 0.000000 2.000260 
# 
# From -- ./inp_files/23792.got.cif
#   From: 2010.05.17/outbox.cif.g08.bks.cpg/sg9_12_cif.got.tgz:23792.got - 2010.06.03 20:04:27.
