data_PCOD9140857
_publ_section_title
;
Structure prediction by ZEFSAII (Michael W. Deem and Ramdas Pophale) SiO2 
 PCOD9140857
Probable space group: C C
;
_chemical_formula_sum "Si O2"
_cell_formula_units_Z 16
_cell_length_a 6.803202
_cell_length_b 20.403912
_cell_length_c 4.779032
_cell_angle_alpha 90.000000
_cell_angle_beta 69.525815
_cell_angle_gamma 90.000000
_cell_volume 621.480465
_symmetry_space_group_name_H-M "C C"
_symmetry_group_IT_number 9
_symmetry_cell_setting 'monoclinic'
loop_
_space_group_symop_operation_xyz
x,y,z
x,-y,1/2+z
1/2+x,1/2+y,z
1/2+x,1/2-y,1/2+z
loop_
_atom_site_type_symbol
_atom_site_label
_atom_site_fract_x
_atom_site_fract_y
_atom_site_fract_z
Si Si1 0.162350 0.832755 0.478200
Si Si2 0.583115 0.859116 0.916612
Si Si3 0.772067 0.212782 0.812373
Si Si4 0.908466 0.042444 0.298690
O O1 0.366017 0.845487 0.181874
O O2 0.206678 0.782685 0.713005
O O3 0.987931 0.796662 0.372514
O O4 0.073676 0.902596 0.619860
O O5 0.759141 0.829859 0.038625
O O6 0.613262 0.823581 0.605726
O O7 0.672051 0.932379 0.847612
O O8 0.938105 0.023566 0.604969
#
# Coordination Sequence:
#
# PCOD9140857 Si02
#       4
#     4   4   4   4
#     4  11  29  51  84 119 166 214 258 336 417 476
#     4  11  28  49  80 114 163 215 261 331 406 470
#     4  11  29  48  74 125 164 201 270 329 402 497
#     4  11  26  52  78 116 161 208 281 330 379 485
#
# _framework density 25.744978
#
# number of rings (size 3 to 8) (size 9 to 14) (size 15 to 20)
#    0.000    1.000    0.000    3.000   10.500   14.000 
#    0.000    0.000    0.000    0.000    0.000    0.000 
#    0.000    0.000    0.000    0.000    0.000    0.000 
#
# Total GULP energy -44789.536432 kJ/mol
# GULP energy per Si atom -5598.692054 kJ/mol
# Density = 2.568638 g / cm^3
# Si number density = 25.744978 Si / 1000 Ang^3
#
#
#
# Elastic Constant Matrix: (Units=GPa)
#
#
# Indices 1 2 3 4 5 6 
#
# 1 149.6652 22.1190 47.3073 0.0000 2.4108 0.0000
# 2 22.1190 102.3741 34.4708 0.0000 -6.0205 0.0000
# 3 47.3073 34.4708 172.8654 0.0000 -2.5855 0.0000
# 4 0.0000 0.0000 0.0000 45.3136 0.0000 -1.8004
# 5 2.4108 -6.0205 -2.5855 0.0000 61.5822 0.0000
# 6 0.0000 0.0000 0.0000 -1.8004 0.0000 37.9537
#
#
#
# Elastic Compliance Matrix: (Units=1/GPa)
#
#
# Indices 1 2 3 4 5 6 
#
# 1 0.007419 -0.001012 -0.001835 0.000000 -0.000466 0.000000
# 2 -0.001012 0.010664 -0.001834 0.000000 0.001005 0.000000
# 3 -0.001835 -0.001834 0.006655 0.000000 0.000172 0.000000
# 4 0.000000 0.000000 0.000000 0.022110 0.000000 0.001049
# 5 -0.000466 0.001005 0.000172 0.000000 0.016362 0.000000
# 6 0.000000 0.000000 0.000000 0.001049 0.000000 0.026398
#
#
# Mechanical properties :
#
#
# Convention : Reuss Voigt Hill
#
# Bulk Modulus (GPa) = 65.04583 70.29988 67.67286
# Shear Modulus (GPa) = 48.03232 50.37042 49.20137
#
# Velocity S-wave (km/s) = 4.32406 4.42805 4.37636
# Velocity P-wave (km/s) = 7.08874 7.31499 7.20275
#
# Compressibility (1/GPa) = 0.01537378
#
# Stress axis : x y z
#
# Youngs Moduli (GPa) = 134.79176 93.77711 150.25212
#
# Poissons Ratio (x) = 0.09494 0.27577
# Poissons Ratio (y) = 0.13646 0.27561
# Poissons Ratio (z) = 0.24740 0.17202
#
# Static dielectric constant tensor:
#      x y z
#    x 2.073840 0.000000 -0.126890 
#    y 0.000000 2.118340 0.000000 
#    z -0.126890 0.000000 2.057450 
# 
# From -- ./inp_files/155.got.cif
#   From: 2010.05.17/outbox.cif.g08.bks.cpg/sg9_1_cif.got.tgz:155.got - 2010.06.03 20:04:27.
