data_PCOD9140689
_publ_section_title
;
Structure prediction by ZEFSAII (Michael W. Deem and Ramdas Pophale) SiO2 
 PCOD9140689
Probable space group: C C
;
_chemical_formula_sum "Si O2"
_cell_formula_units_Z 28
_cell_length_a 16.847803
_cell_length_b 6.886339
_cell_length_c 23.097663
_cell_angle_alpha 90.000000
_cell_angle_beta 151.161371
_cell_angle_gamma 90.000000
_cell_volume 1292.578510
_symmetry_space_group_name_H-M "C C"
_symmetry_group_IT_number 9
_symmetry_cell_setting 'monoclinic'
loop_
_space_group_symop_operation_xyz
x,y,z
x,-y,1/2+z
1/2+x,1/2+y,z
1/2+x,1/2-y,1/2+z
loop_
_atom_site_type_symbol
_atom_site_label
_atom_site_fract_x
_atom_site_fract_y
_atom_site_fract_z
Si Si1 0.005850 0.980995 0.514670
Si Si2 0.943424 0.515094 0.163601
Si Si3 0.517880 0.261303 0.818766
Si Si4 0.353606 0.834187 0.996038
Si Si5 0.845897 0.499709 0.797760
Si Si6 0.058243 0.890602 0.418390
Si Si7 0.247969 0.809318 0.357582
O O1 0.184517 0.969765 0.656232
O O2 0.017442 0.992381 0.453360
O O3 0.919553 0.789673 0.485195
O O4 0.899171 0.164072 0.466406
O O5 0.949438 0.350611 0.218141
O O6 0.082287 0.681473 0.257182
O O7 0.978788 0.406390 0.124913
O O8 0.758806 0.606077 0.043114
O O9 0.712434 0.218668 0.939486
O O10 0.493738 0.488285 0.821220
O O11 0.446846 0.162454 0.829648
O O12 0.259531 0.018673 0.910485
O O13 0.782070 0.582672 0.818224
O O14 0.963775 0.312126 0.867422
#
# Coordination Sequence:
#
# PCOD9140689 Si02
#       7
#     4   4   4   4   4   4   4
#     4  12  25  46  73 108 144 186 246 298 370 436
#     4  11  26  49  72 108 148 197 243 303 371 442
#     4  11  25  47  70 102 149 184 247 300 364 436
#     4  11  27  46  71 106 146 193 238 305 367 439
#     4  12  27  46  75 105 144 195 240 309 363 436
#     4  11  26  49  72 109 144 192 246 297 372 437
#     4  12  26  49  73 110 145 191 250 302 365 442
#
# _framework density 21.662129
#
# number of rings (size 3 to 8) (size 9 to 14) (size 15 to 20)
#    0.000    0.571    5.714    0.857    8.000    2.286 
#   10.286    0.000    0.000    0.000    0.000    0.000 
#    0.000    0.000    0.000    0.000    0.000    0.000 
#
# Total GULP energy -78095.660370 kJ/mol
# GULP energy per Si atom -5578.261455 kJ/mol
# Density = 2.161283 g / cm^3
# Si number density = 21.662129 Si / 1000 Ang^3
#
#
#
# Elastic Constant Matrix: (Units=GPa)
#
#
# Indices 1 2 3 4 5 6 
#
# 1 140.1028 62.6948 33.3396 0.0000 -13.1395 0.0000
# 2 62.6948 131.7662 66.5539 0.0002 -3.0892 0.0000
# 3 33.3396 66.5539 86.0948 0.0004 2.2562 -0.0001
# 4 0.0000 0.0002 0.0004 93.8775 0.0000 2.4894
# 5 -13.1395 -3.0892 2.2562 0.0000 46.9494 0.0000
# 6 0.0000 0.0000 -0.0001 2.4894 0.0000 35.4491
#
#
#
# Elastic Compliance Matrix: (Units=1/GPa)
#
#
# Indices 1 2 3 4 5 6 
#
# 1 0.009325 -0.004145 -0.000469 0.000000 0.002360 0.000000
# 2 -0.004145 0.014371 -0.009510 0.000000 0.000243 0.000000
# 3 -0.000469 -0.009510 0.019192 0.000000 -0.001679 0.000000
# 4 0.000000 0.000000 0.000000 0.010672 0.000000 -0.000749
# 5 0.002360 0.000243 -0.001679 0.000000 0.022057 0.000000
# 6 0.000000 0.000000 0.000000 -0.000749 0.000000 0.028262
#
#
# Mechanical properties :
#
#
# Convention : Reuss Voigt Hill
#
# Bulk Modulus (GPa) = 68.30441 75.90450 72.10445
# Shear Modulus (GPa) = 36.49457 48.28021 42.38739
#
# Velocity S-wave (km/s) = 4.10898 4.72612 4.42832
# Velocity P-wave (km/s) = 7.35607 8.05592 7.71394
#
# Compressibility (1/GPa) = 0.01464034
#
# Stress axis : x y z
#
# Youngs Moduli (GPa) = 107.23540 69.58698 52.10423
#
# Poissons Ratio (x) = 0.28843 0.02443
# Poissons Ratio (y) = 0.44447 0.49552
# Poissons Ratio (z) = 0.05028 0.66178
#
# Static dielectric constant tensor:
#      x y z
#    x 1.785770 0.000000 -0.025390 
#    y 0.000000 1.762140 0.000000 
#    z -0.025390 0.000000 1.768370 
# 
# From -- ./inp_files/18802.got.cif
#   From: 2010.05.17/outbox.cif.g08.bks.cpg/sg9_10_cif.got.tgz:18802.got - 2010.06.03 20:04:27.
