data_PCOD9140008
_publ_section_title
;
Structure prediction by ZEFSAII (Michael W. Deem and Ramdas Pophale) SiO2 
 PCOD9140008
Probable space group: C C
;
_chemical_formula_sum "Si O2"
_cell_formula_units_Z 32
_cell_length_a 11.708862
_cell_length_b 14.590248
_cell_length_c 9.502976
_cell_angle_alpha 90.000000
_cell_angle_beta 64.042518
_cell_angle_gamma 90.000000
_cell_volume 1459.668445
_symmetry_space_group_name_H-M "C C"
_symmetry_group_IT_number 9
_symmetry_cell_setting 'monoclinic'
loop_
_space_group_symop_operation_xyz
x,y,z
x,-y,1/2+z
1/2+x,1/2+y,z
1/2+x,1/2-y,1/2+z
loop_
_atom_site_type_symbol
_atom_site_label
_atom_site_fract_x
_atom_site_fract_y
_atom_site_fract_z
Si Si1 0.864500 0.851583 0.941150
Si Si2 0.123887 0.737418 0.507535
Si Si3 0.976401 0.988741 0.199799
Si Si4 0.126603 0.788912 0.834902
Si Si5 0.108892 0.075544 0.879364
Si Si6 0.002423 0.548110 0.473794
Si Si7 0.223356 0.593031 0.788154
Si Si8 0.330518 0.050143 0.294793
O O1 0.774798 0.780813 0.908348
O O2 0.983629 0.810507 0.962283
O O3 0.928232 0.918946 0.797468
O O4 0.765421 0.898357 0.101953
O O5 0.113008 0.773662 0.673546
O O6 0.085254 0.819351 0.425606
O O7 0.046946 0.643888 0.520064
O O8 0.858169 0.922893 0.287495
O O9 0.094182 0.950104 0.224338
O O10 0.010152 0.013929 0.022599
O O11 0.167882 0.689649 0.866922
O O12 0.231072 0.867506 0.810964
O O13 0.243387 0.040232 0.863193
O O14 0.914339 0.569451 0.386737
O O15 0.924298 0.480711 0.619132
O O16 0.127068 0.490252 0.361228
#
# Coordination Sequence:
#
# PCOD9140008 Si02
#       8
#     4   4   4   4   4   4   4   4
#     4  11  22  45  71  99 137 185 244 284 353 424
#     4  11  25  43  70 106 140 194 233 294 360 427
#     4  12  22  45  69  98 136 183 237 294 346 421
#     4  11  24  45  74 104 138 190 239 294 364 424
#     4  12  25  43  73 100 138 186 238 291 355 420
#     4  12  28  47  70 109 151 189 240 302 367 432
#     4  11  26  43  72 101 141 189 234 294 357 424
#     4  12  26  47  71 107 149 188 239 305 364 432
#
# _framework density 21.922789000000002
#
# number of rings (size 3 to 8) (size 9 to 14) (size 15 to 20)
#    0.000    0.500    5.000    3.000    8.750    0.000 
#    0.000    1.250    0.000    0.000    0.000    0.000 
#    0.000    0.000    0.000    0.000    0.000    0.000 
#
# Total GULP energy -89385.139871 kJ/mol
# GULP energy per Si atom -5586.571242 kJ/mol
# Density = 2.187289 g / cm^3
# Si number density = 21.922789 Si / 1000 Ang^3
#
#
#
# Elastic Constant Matrix: (Units=GPa)
#
#
# Indices 1 2 3 4 5 6 
#
# 1 123.6104 44.6072 32.1501 0.0000 4.3378 0.0000
# 2 44.6072 116.9457 20.6717 0.0000 1.3484 0.0000
# 3 32.1501 20.6717 57.6768 0.0000 -2.6646 0.0000
# 4 0.0000 0.0000 0.0000 12.4464 0.0000 0.2064
# 5 4.3378 1.3484 -2.6646 0.0000 35.2628 0.0000
# 6 0.0000 0.0000 0.0000 0.2064 0.0000 49.5000
#
#
#
# Elastic Compliance Matrix: (Units=1/GPa)
#
#
# Indices 1 2 3 4 5 6 
#
# 1 0.010532 -0.003149 -0.004813 0.000000 -0.001539 0.000000
# 2 -0.003149 0.010083 -0.001865 0.000000 -0.000139 0.000000
# 3 -0.004813 -0.001865 0.020793 0.000000 0.002235 0.000000
# 4 0.000000 0.000000 0.000000 0.080350 0.000000 -0.000335
# 5 -0.001539 -0.000139 0.002235 0.000000 0.028722 0.000000
# 6 0.000000 0.000000 0.000000 -0.000335 0.000000 0.020203
#
#
# Mechanical properties :
#
#
# Convention : Reuss Voigt Hill
#
# Bulk Modulus (GPa) = 45.96931 54.78787 50.37859
# Shear Modulus (GPa) = 25.30493 32.82874 29.06684
#
# Velocity S-wave (km/s) = 3.40115 3.87392 3.64520
# Velocity P-wave (km/s) = 6.03639 6.71231 6.38331
#
# Compressibility (1/GPa) = 0.02175365
#
# Stress axis : x y z
#
# Youngs Moduli (GPa) = 94.94741 99.17360 48.09361
#
# Poissons Ratio (x) = 0.31227 0.23149
# Poissons Ratio (y) = 0.29897 0.08970
# Poissons Ratio (z) = 0.45702 0.18498
#
# Static dielectric constant tensor:
#      x y z
#    x 1.874230 0.000000 -0.002540 
#    y 0.000000 1.818750 0.000000 
#    z -0.002540 0.000000 1.816130 
# 
# From -- ./inp_files/7559.got.cif
#   From: 2010.05.17/outbox.cif.g08.bks.cpg/sg9_4_cif.got.tgz:7559.got - 2010.06.03 20:04:27.
