data_PCOD9140380
_publ_section_title
;
Structure prediction by ZEFSAII (Michael W. Deem and Ramdas Pophale) SiO2 
 PCOD9140380
Probable space group: C C
;
_chemical_formula_sum "Si O2"
_cell_formula_units_Z 28
_cell_length_a 15.506204
_cell_length_b 9.837107
_cell_length_c 14.390727
_cell_angle_alpha 90.000000
_cell_angle_beta 29.692581
_cell_angle_gamma 90.000000
_cell_volume 1087.337707
_symmetry_space_group_name_H-M "C C"
_symmetry_group_IT_number 9
_symmetry_cell_setting 'monoclinic'
loop_
_space_group_symop_operation_xyz
x,y,z
x,-y,1/2+z
1/2+x,1/2+y,z
1/2+x,1/2-y,1/2+z
loop_
_atom_site_type_symbol
_atom_site_label
_atom_site_fract_x
_atom_site_fract_y
_atom_site_fract_z
Si Si1 0.259380 0.578681 0.899560
Si Si2 0.562444 0.879673 0.944766
Si Si3 0.986307 0.563205 0.306119
Si Si4 0.619066 0.523153 0.141383
Si Si5 0.611137 0.196239 0.755093
Si Si6 0.929519 0.171159 0.569231
Si Si7 0.676320 0.419118 0.377728
O O1 0.424967 0.536581 0.808565
O O2 0.333285 0.688823 0.757230
O O3 0.199500 0.456857 0.884835
O O4 0.097700 0.619698 0.115955
O O5 0.371180 0.921271 0.158165
O O6 0.585295 0.718526 0.931547
O O7 0.570962 0.904449 0.826309
O O8 0.778156 0.582571 0.509924
O O9 0.016813 0.399469 0.270784
O O10 0.625859 0.650279 0.205017
O O11 0.670025 0.582873 0.994061
O O12 0.797048 0.139426 0.609775
O O13 0.515490 0.196306 0.944613
O O14 0.068054 0.051989 0.450886
#
# Coordination Sequence:
#
# PCOD9140380 Si02
#       7
#     4   4   4   4   4   4   4
#     4  11  25  48  73 114 153 197 247 315 374 448
#     4  12  25  46  76 105 154 196 252 306 384 451
#     4  12  25  44  75 109 148 199 252 311 371 453
#     4  11  24  43  75 113 144 187 262 315 361 440
#     4  12  23  43  75 112 143 194 256 314 369 447
#     4  11  25  44  76 108 154 190 247 311 387 437
#     4  11  25  46  74 109 146 199 248 316 378 452
#
# _framework density 25.750968
#
# number of rings (size 3 to 8) (size 9 to 14) (size 15 to 20)
#    0.000    0.571    4.286    4.286    2.000    0.000 
#    0.000    1.429    3.143    0.000    0.000    0.000 
#    0.000    0.000    0.000    0.000    0.000    0.000 
#
# Total GULP energy -78377.614941 kJ/mol
# GULP energy per Si atom -5598.401067 kJ/mol
# Density = 2.569236 g / cm^3
# Si number density = 25.750968 Si / 1000 Ang^3
#
#
#
# Elastic Constant Matrix: (Units=GPa)
#
#
# Indices 1 2 3 4 5 6 
#
# 1 130.8625 32.4957 53.8595 -0.0001 -8.1114 0.0000
# 2 32.4957 54.2859 27.8361 -0.0003 -4.2605 0.0001
# 3 53.8595 27.8361 131.2965 -0.0006 -5.4786 0.0002
# 4 -0.0001 -0.0003 -0.0006 24.4542 0.0002 -12.6044
# 5 -8.1114 -4.2605 -5.4786 0.0002 64.9902 -0.0001
# 6 0.0000 0.0001 0.0002 -12.6044 -0.0001 31.9222
#
#
#
# Elastic Compliance Matrix: (Units=1/GPa)
#
#
# Indices 1 2 3 4 5 6 
#
# 1 0.010073 -0.004343 -0.003182 0.000000 0.000704 0.000000
# 2 -0.004343 0.022604 -0.002982 0.000000 0.000688 0.000000
# 3 -0.003182 -0.002982 0.009563 0.000000 0.000213 0.000000
# 4 0.000000 0.000000 0.000000 0.051342 0.000000 0.020272
# 5 0.000704 0.000688 0.000213 0.000000 0.015538 0.000000
# 6 0.000000 0.000000 0.000000 0.020272 0.000000 0.039330
#
#
# Mechanical properties :
#
#
# Convention : Reuss Voigt Hill
#
# Bulk Modulus (GPa) = 47.11222 60.53638 53.82430
# Shear Modulus (GPa) = 28.32229 37.75689 33.03959
#
# Velocity S-wave (km/s) = 3.32000 3.83329 3.58584
# Velocity P-wave (km/s) = 5.74731 6.56899 6.17184
#
# Compressibility (1/GPa) = 0.02122592
#
# Stress axis : x y z
#
# Youngs Moduli (GPa) = 99.27159 44.24038 104.57201
#
# Poissons Ratio (x) = 0.19214 0.33276
# Poissons Ratio (y) = 0.43114 0.31183
# Poissons Ratio (z) = 0.31589 0.13192
#
# Static dielectric constant tensor:
#      x y z
#    x 2.021000 0.000000 -0.044360 
#    y 0.000000 2.053330 0.000000 
#    z -0.044360 0.000000 2.145320 
# 
# From -- ./inp_files/25890.got.cif
#   From: 2010.05.17/outbox.cif.g08.bks.cpg/sg9_13_cif.got.tgz:25890.got - 2010.06.03 20:04:27.
