data_PCOD9140212
_publ_section_title
;
Structure prediction by ZEFSAII (Michael W. Deem and Ramdas Pophale) SiO2 
 PCOD9140212
Probable space group: C C
;
_chemical_formula_sum "Si O2"
_cell_formula_units_Z 32
_cell_length_a 5.890505
_cell_length_b 28.237908
_cell_length_c 8.553861
_cell_angle_alpha 90.000000
_cell_angle_beta 75.030843
_cell_angle_gamma 90.000000
_cell_volume 1374.527997
_symmetry_space_group_name_H-M "C C"
_symmetry_group_IT_number 9
_symmetry_cell_setting 'monoclinic'
loop_
_space_group_symop_operation_xyz
x,y,z
x,-y,1/2+z
1/2+x,1/2+y,z
1/2+x,1/2-y,1/2+z
loop_
_atom_site_type_symbol
_atom_site_label
_atom_site_fract_x
_atom_site_fract_y
_atom_site_fract_z
Si Si1 0.455510 0.453476 0.822560
Si Si2 0.079224 0.782926 0.284403
Si Si3 0.507036 0.095288 0.456521
Si Si4 0.015654 0.327317 0.151518
Si Si5 0.063513 0.943622 0.174385
Si Si6 0.778485 0.730444 0.090409
Si Si7 0.299668 0.125626 0.187040
Si Si8 0.733238 0.867012 0.401317
O O1 0.528752 0.505554 0.758844
O O2 0.610732 0.415998 0.694497
O O3 0.180697 0.442165 0.849466
O O4 0.488828 0.447771 0.004676
O O5 0.248285 0.817365 0.155217
O O6 0.237069 0.768380 0.407577
O O7 0.994080 0.743056 0.175195
O O8 0.874472 0.817107 0.389237
O O9 0.648715 0.138963 0.506873
O O10 0.336674 0.071619 0.614405
O O11 0.341964 0.120981 0.362546
O O12 0.129566 0.276797 0.152173
O O13 0.035651 0.355311 0.307723
O O14 0.908494 0.906048 0.299984
O O15 0.712097 0.677223 0.150215
O O16 0.564261 0.118780 0.072458
#
# Coordination Sequence:
#
# PCOD9140212 Si02
#       8
#     4   4   4   4   4   4   4   4
#     4  11  28  46  74 107 143 193 246 316 380 459
#     4  11  25  44  70 110 145 210 254 312 374 449
#     4  11  25  47  71 105 152 193 238 318 374 452
#     4  11  23  45  74 100 149 200 248 307 376 445
#     4  11  26  47  73 106 143 192 251 309 388 453
#     4  11  26  42  71 108 154 197 257 308 376 452
#     4  11  27  45  70 112 145 194 249 309 376 449
#     4  11  24  46  71 104 147 195 253 309 376 453
#
# _framework density 23.280718
#
# number of rings (size 3 to 8) (size 9 to 14) (size 15 to 20)
#    0.000    1.000    3.750    0.750    7.000    4.000 
#    0.000    0.000    0.000    0.000    0.000    0.000 
#    0.000    0.000    0.000    0.000    0.000    0.000 
#
# Total GULP energy -89124.402226 kJ/mol
# GULP energy per Si atom -5570.275139 kJ/mol
# Density = 2.322773 g / cm^3
# Si number density = 23.280718 Si / 1000 Ang^3
#
#
#
# Elastic Constant Matrix: (Units=GPa)
#
#
# Indices 1 2 3 4 5 6 
#
# 1 60.5824 51.2136 29.1864 0.0000 -5.5054 0.0000
# 2 51.2136 156.0667 65.7478 0.0000 -18.2786 0.0000
# 3 29.1864 65.7478 93.3006 0.0000 -6.6613 0.0000
# 4 0.0000 0.0000 0.0000 34.6249 0.0000 -3.2953
# 5 -5.5054 -18.2786 -6.6613 0.0000 47.2124 0.0000
# 6 0.0000 0.0000 0.0000 -3.2953 0.0000 30.6860
#
#
#
# Elastic Compliance Matrix: (Units=1/GPa)
#
#
# Indices 1 2 3 4 5 6 
#
# 1 0.023315 -0.006535 -0.002702 0.000000 -0.000193 0.000000
# 2 -0.006535 0.011285 -0.005708 0.000000 0.002802 0.000000
# 3 -0.002702 -0.005708 0.015562 0.000000 -0.000329 0.000000
# 4 0.000000 0.000000 0.000000 0.029179 0.000000 0.003133
# 5 -0.000193 0.002802 -0.000329 0.000000 0.022197 0.000000
# 6 0.000000 0.000000 0.000000 0.003133 0.000000 0.032925
#
#
# Mechanical properties :
#
#
# Convention : Reuss Voigt Hill
#
# Bulk Modulus (GPa) = 49.32927 66.91615 58.12271
# Shear Modulus (GPa) = 29.22097 33.42477 31.32287
#
# Velocity S-wave (km/s) = 3.54666 3.79321 3.67201
# Velocity P-wave (km/s) = 6.16495 6.92749 6.55732
#
# Compressibility (1/GPa) = 0.02027194
#
# Stress axis : x y z
#
# Youngs Moduli (GPa) = 42.89042 88.61477 64.25889
#
# Poissons Ratio (x) = 0.57912 0.17363
# Poissons Ratio (y) = 0.28030 0.36678
# Poissons Ratio (z) = 0.11589 0.50580
#
# Static dielectric constant tensor:
#      x y z
#    x 1.996580 0.000000 0.036320 
#    y 0.000000 1.842960 0.000000 
#    z 0.036320 0.000000 1.957520 
# 
# From -- ./inp_files/4480.got.cif
#   From: 2010.05.17/outbox.cif.g08.bks.cpg/sg9_3_cif.got.tgz:4480.got - 2010.06.03 20:04:27.
