data_PCOD9140802
_publ_section_title
;
Structure prediction by ZEFSAII (Michael W. Deem and Ramdas Pophale) SiO2 
 PCOD9140802
Probable space group: C C
;
_chemical_formula_sum "Si O2"
_cell_formula_units_Z 32
_cell_length_a 16.665042
_cell_length_b 5.159194
_cell_length_c 14.432050
_cell_angle_alpha 90.000000
_cell_angle_beta 97.168162
_cell_angle_gamma 90.000000
_cell_volume 1231.143283
_symmetry_space_group_name_H-M "C C"
_symmetry_group_IT_number 9
_symmetry_cell_setting 'monoclinic'
loop_
_space_group_symop_operation_xyz
x,y,z
x,-y,1/2+z
1/2+x,1/2+y,z
1/2+x,1/2-y,1/2+z
loop_
_atom_site_type_symbol
_atom_site_label
_atom_site_fract_x
_atom_site_fract_y
_atom_site_fract_z
Si Si1 0.417510 0.341097 0.896070
Si Si2 0.213701 0.805220 0.311331
Si Si3 0.589714 0.668947 0.328795
Si Si4 0.710234 0.021204 0.982376
Si Si5 0.852457 0.345725 0.794040
Si Si6 0.949326 0.270271 0.623920
Si Si7 0.123192 0.505673 0.157749
Si Si8 0.386175 0.307655 0.561224
O O1 0.505900 0.339092 0.867273
O O2 0.364959 0.563150 0.837598
O O3 0.385304 0.058278 0.870494
O O4 0.422060 0.451062 0.001542
O O5 0.242287 0.697450 0.415216
O O6 0.201865 0.621209 0.221974
O O7 0.121763 0.879544 0.321693
O O8 0.260119 0.056697 0.279349
O O9 0.653695 0.806328 0.407837
O O10 0.590791 0.799882 0.228065
O O11 0.790028 0.171501 0.031464
O O12 0.657337 0.922857 0.061891
O O13 0.902223 0.391168 0.708766
O O14 0.922308 0.526211 0.556965
O O15 0.047163 0.298550 0.633613
O O16 0.920808 0.972123 0.650833
#
# Coordination Sequence:
#
# PCOD9140802 Si02
#       8
#     4   4   4   4   4   4   4   4
#     4  12  25  47  75 104 148 193 246 304 370 448
#     4  11  26  45  75 106 145 199 248 313 377 447
#     4  11  26  45  75 106 145 199 248 313 377 447
#     4  11  26  47  71 107 149 193 251 310 381 451
#     4  12  25  47  75 104 148 193 246 304 370 448
#     4  12  27  46  72 106 145 193 247 306 372 445
#     4  11  26  47  71 107 149 193 251 310 381 451
#     4  12  27  46  72 106 145 193 247 306 372 445
#
# _framework density 25.992101999999999
#
# number of rings (size 3 to 8) (size 9 to 14) (size 15 to 20)
#    0.000    0.500    2.500    4.500   10.500    1.000 
#    0.000    0.000    0.000    0.000    0.000    0.000 
#    0.000    0.000    0.000    0.000    0.000    0.000 
#
# Total GULP energy -89280.590042 kJ/mol
# GULP energy per Si atom -5580.036878 kJ/mol
# Density = 2.593294 g / cm^3
# Si number density = 25.992102 Si / 1000 Ang^3
#
#
#
# Elastic Constant Matrix: (Units=GPa)
#
#
# Indices 1 2 3 4 5 6 
#
# 1 119.2420 22.8904 21.6036 0.0000 -2.4627 0.0000
# 2 22.8904 89.5031 11.2494 0.0000 8.7724 0.0000
# 3 21.6036 11.2494 297.9445 0.0000 -22.2262 0.0000
# 4 0.0000 0.0000 0.0000 28.7571 0.0000 9.0197
# 5 -2.4627 8.7724 -22.2262 0.0000 44.6727 0.0000
# 6 0.0000 0.0000 0.0000 9.0197 0.0000 50.8962
#
#
#
# Elastic Compliance Matrix: (Units=1/GPa)
#
#
# Indices 1 2 3 4 5 6 
#
# 1 0.008932 -0.002288 -0.000510 0.000000 0.000688 0.000000
# 2 -0.002288 0.012089 -0.000495 0.000000 -0.002747 0.000000
# 3 -0.000510 -0.000495 0.003549 0.000000 0.001835 0.000000
# 4 0.000000 0.000000 0.000000 0.036821 0.000000 -0.006525
# 5 0.000688 -0.002747 0.001835 0.000000 0.023875 0.000000
# 6 0.000000 0.000000 0.000000 -0.006525 0.000000 0.020804
#
#
# Mechanical properties :
#
#
# Convention : Reuss Voigt Hill
#
# Bulk Modulus (GPa) = 55.60481 68.68625 62.14553
# Shear Modulus (GPa) = 42.14024 54.92828 48.53426
#
# Velocity S-wave (km/s) = 4.03087 4.60202 4.32588
# Velocity P-wave (km/s) = 6.56531 7.39738 6.99373
#
# Compressibility (1/GPa) = 0.01798406
#
# Stress axis : x y z
#
# Youngs Moduli (GPa) = 111.95617 82.71738 281.77800
#
# Poissons Ratio (x) = 0.18923 0.14370
# Poissons Ratio (y) = 0.25612 0.13961
# Poissons Ratio (z) = 0.05709 0.04098
#
# Static dielectric constant tensor:
#      x y z
#    x 2.106510 0.000000 0.166380 
#    y 0.000000 2.001730 0.000000 
#    z 0.166380 0.000000 2.420370 
# 
# From -- ./inp_files/26478.got.cif
#   From: 2010.05.17/outbox.cif.g08.bks.cpg/sg9_14_cif.got.tgz:26478.got - 2010.06.03 20:04:27.
