data_PCOD9140794
_publ_section_title
;
Structure prediction by ZEFSAII (Michael W. Deem and Ramdas Pophale) SiO2 
 PCOD9140794
Probable space group: C C
;
_chemical_formula_sum "Si O2"
_cell_formula_units_Z 28
_cell_length_a 16.800845
_cell_length_b 8.936488
_cell_length_c 7.698908
_cell_angle_alpha 90.000000
_cell_angle_beta 80.663585
_cell_angle_gamma 90.000000
_cell_volume 1140.605608
_symmetry_space_group_name_H-M "C C"
_symmetry_group_IT_number 9
_symmetry_cell_setting 'monoclinic'
loop_
_space_group_symop_operation_xyz
x,y,z
x,-y,1/2+z
1/2+x,1/2+y,z
1/2+x,1/2-y,1/2+z
loop_
_atom_site_type_symbol
_atom_site_label
_atom_site_fract_x
_atom_site_fract_y
_atom_site_fract_z
Si Si1 0.842160 0.631382 0.704220
Si Si2 0.557405 0.240991 0.321652
Si Si3 0.886280 0.858577 0.378722
Si Si4 0.144487 0.767898 0.758351
Si Si5 0.521161 0.941752 0.180512
Si Si6 0.805377 0.836508 0.043119
Si Si7 0.680778 0.566531 0.606202
O O1 0.863865 0.746491 0.542142
O O2 0.770755 0.536345 0.643546
O O3 0.924769 0.551675 0.727596
O O4 0.812797 0.717608 0.885676
O O5 0.483550 0.358478 0.337623
O O6 0.545675 0.143488 0.497324
O O7 0.640213 0.323471 0.259477
O O8 0.551137 0.109589 0.182597
O O9 0.856875 0.807577 0.199385
O O10 0.841196 0.011843 0.445787
O O11 0.064337 0.669255 0.801900
O O12 0.214017 0.663637 0.649116
O O13 0.133635 0.910413 0.634615
O O14 0.173434 0.845694 0.927407
#
# Coordination Sequence:
#
# PCOD9140794 Si02
#       7
#     4   4   4   4   4   4   4
#     4  11  26  47  75 113 154 197 255 318 379 458
#     4  11  27  47  76 109 157 198 258 310 386 453
#     4  11  26  44  73 113 148 205 252 319 374 457
#     4  12  28  47  78 111 154 207 255 318 382 463
#     4  11  27  48  75 113 151 202 252 316 385 455
#     4  12  25  45  76 107 156 199 260 309 385 442
#     4  12  27  50  77 114 156 200 260 314 389 456
#
# _framework density 24.548363999999999
#
# number of rings (size 3 to 8) (size 9 to 14) (size 15 to 20)
#    0.000    0.571    2.857    3.429   10.000    2.286 
#    0.000    0.000    0.000    0.000    0.000    0.000 
#    0.000    0.000    0.000    0.000    0.000    0.000 
#
# Total GULP energy -78383.152854 kJ/mol
# GULP energy per Si atom -5598.796632 kJ/mol
# Density = 2.449249 g / cm^3
# Si number density = 24.548364 Si / 1000 Ang^3
#
#
#
# Elastic Constant Matrix: (Units=GPa)
#
#
# Indices 1 2 3 4 5 6 
#
# 1 106.4810 40.1875 28.1080 0.0000 3.9301 0.0000
# 2 40.1875 108.3577 20.9424 0.0000 -9.4518 0.0000
# 3 28.1080 20.9424 153.6651 0.0000 18.9117 0.0000
# 4 0.0000 0.0000 0.0000 31.0026 0.0000 -9.0124
# 5 3.9301 -9.4518 18.9117 0.0000 26.7556 0.0000
# 6 0.0000 0.0000 0.0000 -9.0124 0.0000 35.2784
#
#
#
# Elastic Compliance Matrix: (Units=1/GPa)
#
#
# Indices 1 2 3 4 5 6 
#
# 1 0.011378 -0.004181 -0.001231 0.000000 -0.002278 0.000000
# 2 -0.004181 0.011578 -0.001525 0.000000 0.005782 0.000000
# 3 -0.001231 -0.001525 0.007650 0.000000 -0.005765 0.000000
# 4 0.000000 0.000000 0.000000 0.034843 0.000000 0.008901
# 5 -0.002278 0.005782 -0.005765 0.000000 0.043828 0.000000
# 6 0.000000 0.000000 0.000000 0.008901 0.000000 0.030620
#
#
# Mechanical properties :
#
#
# Convention : Reuss Voigt Hill
#
# Bulk Modulus (GPa) = 59.76085 60.77550 60.26817
# Shear Modulus (GPa) = 31.37779 37.22505 34.30142
#
# Velocity S-wave (km/s) = 3.57907 3.89832 3.74210
# Velocity P-wave (km/s) = 6.44024 6.71370 6.57839
#
# Compressibility (1/GPa) = 0.01673336
#
# Stress axis : x y z
#
# Youngs Moduli (GPa) = 87.88671 86.36849 130.71548
#
# Poissons Ratio (x) = 0.36108 0.16093
# Poissons Ratio (y) = 0.36743 0.19932
# Poissons Ratio (z) = 0.10820 0.13170
#
# Static dielectric constant tensor:
#      x y z
#    x 1.974730 0.000000 0.041940 
#    y 0.000000 1.924090 0.000000 
#    z 0.041940 0.000000 2.002860 
# 
# From -- ./inp_files/10427.got.cif
#   From: 2010.05.17/outbox.cif.g08.bks.cpg/sg9_6_cif.got.tgz:10427.got - 2010.06.03 20:04:27.
