data_PCOD9140580
_publ_section_title
;
Structure prediction by ZEFSAII (Michael W. Deem and Ramdas Pophale) SiO2 
 PCOD9140580
Probable space group: C C
;
_chemical_formula_sum "Si O2"
_cell_formula_units_Z 20
_cell_length_a 12.426956
_cell_length_b 6.788686
_cell_length_c 14.427423
_cell_angle_alpha 90.000000
_cell_angle_beta 141.094697
_cell_angle_gamma 90.000000
_cell_volume 764.404356
_symmetry_space_group_name_H-M "C C"
_symmetry_group_IT_number 9
_symmetry_cell_setting 'monoclinic'
loop_
_space_group_symop_operation_xyz
x,y,z
x,-y,1/2+z
1/2+x,1/2+y,z
1/2+x,1/2-y,1/2+z
loop_
_atom_site_type_symbol
_atom_site_label
_atom_site_fract_x
_atom_site_fract_y
_atom_site_fract_z
Si Si1 0.444480 0.316692 0.590850
Si Si2 0.761957 0.582621 0.825464
Si Si3 0.997179 0.711906 0.360557
Si Si4 0.334969 0.061225 0.083185
Si Si5 0.753765 0.021186 0.779352
O O1 0.577150 0.478495 0.717035
O O2 0.583007 0.149053 0.655409
O O3 0.342950 0.408979 0.436414
O O4 0.320410 0.179089 0.570810
O O5 0.891442 0.445305 0.852719
O O6 0.836675 0.620547 0.977051
O O7 0.735522 0.789917 0.759540
O O8 0.882309 0.907048 0.286693
O O9 0.177634 0.802852 0.513069
O O10 0.992511 0.615230 0.255736
#
# Coordination Sequence:
#
# PCOD9140580 Si02
#       5
#     4   4   4   4   4
#     4  11  24  48  78 110 159 205 264 318 402 465
#     4  11  27  49  79 116 166 206 256 340 396 468
#     4  11  26  49  78 122 158 202 278 317 403 483
#     4  12  26  51  79 115 158 211 264 329 393 482
#     4  11  25  49  80 113 161 210 252 336 394 466
#
# _framework density 26.164161
#
# number of rings (size 3 to 8) (size 9 to 14) (size 15 to 20)
#    0.000    0.800    4.000    3.600    5.600    1.600 
#    3.600    2.000    0.000    0.000    0.000    0.000 
#    0.000    0.000    0.000    0.000    0.000    0.000 
#
# Total GULP energy -55887.350543 kJ/mol
# GULP energy per Si atom -5588.735054 kJ/mol
# Density = 2.610461 g / cm^3
# Si number density = 26.164161 Si / 1000 Ang^3
#
#
#
# Elastic Constant Matrix: (Units=GPa)
#
#
# Indices 1 2 3 4 5 6 
#
# 1 88.6385 48.0776 40.2431 0.0000 1.8937 0.0000
# 2 48.0776 197.4229 41.9715 0.0000 5.0563 0.0000
# 3 40.2431 41.9715 126.8113 0.0000 14.8224 0.0000
# 4 0.0000 0.0000 0.0000 40.8399 0.0000 5.8439
# 5 1.8937 5.0563 14.8224 0.0000 39.5712 0.0000
# 6 0.0000 0.0000 0.0000 5.8439 0.0000 41.5897
#
#
#
# Elastic Compliance Matrix: (Units=1/GPa)
#
#
# Indices 1 2 3 4 5 6 
#
# 1 0.014478 -0.002743 -0.003814 0.000000 0.001086 0.000000
# 2 -0.002743 0.005968 -0.001078 0.000000 -0.000227 0.000000
# 3 -0.003814 -0.001078 0.009847 0.000000 -0.003368 0.000000
# 4 0.000000 0.000000 0.000000 0.024988 0.000000 -0.003511
# 5 0.001086 -0.000227 -0.003368 0.000000 0.026510 0.000000
# 6 0.000000 0.000000 0.000000 -0.003511 0.000000 0.024538
#
#
# Mechanical properties :
#
#
# Convention : Reuss Voigt Hill
#
# Bulk Modulus (GPa) = 66.56436 74.82855 70.69645
# Shear Modulus (GPa) = 39.49283 43.23886 41.36584
#
# Velocity S-wave (km/s) = 3.88935 4.06963 3.98051
# Velocity P-wave (km/s) = 6.75763 7.12350 6.94298
#
# Compressibility (1/GPa) = 0.01502306
#
# Stress axis : x y z
#
# Youngs Moduli (GPa) = 69.07190 167.55243 101.55837
#
# Poissons Ratio (x) = 0.45955 0.38730
# Poissons Ratio (y) = 0.18945 0.10952
# Poissons Ratio (z) = 0.26341 0.18068
#
# Static dielectric constant tensor:
#      x y z
#    x 2.209500 0.000000 0.066490 
#    y 0.000000 2.080560 0.000000 
#    z 0.066490 0.000000 2.074770 
# 
# From -- ./inp_files/25307.got.cif
#   From: 2010.05.17/outbox.cif.g08.bks.cpg/sg9_13_cif.got.tgz:25307.got - 2010.06.03 20:04:27.
