data_PCOD9140176
_publ_section_title
;
Structure prediction by ZEFSAII (Michael W. Deem and Ramdas Pophale) SiO2 
 PCOD9140176
Probable space group: C C
;
_chemical_formula_sum "Si O2"
_cell_formula_units_Z 32
_cell_length_a 12.596547
_cell_length_b 9.849917
_cell_length_c 16.084349
_cell_angle_alpha 90.000000
_cell_angle_beta 38.260098
_cell_angle_gamma 90.000000
_cell_volume 1235.780120
_symmetry_space_group_name_H-M "C C"
_symmetry_group_IT_number 9
_symmetry_cell_setting 'monoclinic'
loop_
_space_group_symop_operation_xyz
x,y,z
x,-y,1/2+z
1/2+x,1/2+y,z
1/2+x,1/2-y,1/2+z
loop_
_atom_site_type_symbol
_atom_site_label
_atom_site_fract_x
_atom_site_fract_y
_atom_site_fract_z
Si Si1 0.687990 0.466521 0.191290
Si Si2 0.195959 0.146479 0.919710
Si Si3 0.541531 0.342820 0.032177
Si Si4 0.116505 0.691916 0.162819
Si Si5 0.708383 0.115306 0.822336
Si Si6 0.816829 0.002291 0.936496
Si Si7 0.964962 0.366291 0.120628
Si Si8 0.411691 0.009870 0.900354
O O1 0.640841 0.306480 0.217455
O O2 0.513986 0.543554 0.320456
O O3 0.856512 0.486567 0.143722
O O4 0.752627 0.480950 0.058129
O O5 0.318135 0.187735 0.770069
O O6 0.341479 0.147505 0.902499
O O7 0.036857 0.246077 0.020770
O O8 0.124819 0.992068 0.968250
O O9 0.571741 0.262171 0.101592
O O10 0.339067 0.359793 0.166582
O O11 0.612967 0.247814 0.915846
O O12 0.969720 0.593798 0.291691
O O13 0.285100 0.610093 0.030339
O O14 0.570329 0.018528 0.864784
O O15 0.797150 0.055240 0.852009
O O16 0.641840 0.916073 0.053051
#
# Coordination Sequence:
#
# PCOD9140176 Si02
#       8
#     4   4   4   4   4   4   4   4
#     4  12  26  44  80 112 151 203 265 320 391 468
#     4  12  29  52  72 110 160 205 257 324 395 464
#     4  11  25  48  76 107 150 204 257 320 385 455
#     4  11  23  44  76 108 147 202 260 320 372 465
#     4  11  25  44  77 111 151 195 265 320 385 457
#     4  11  24  48  73 110 150 198 260 330 379 458
#     4  12  31  50  75 112 160 207 259 327 405 461
#     4  12  25  46  73 112 153 202 259 315 390 466
#
# _framework density 25.894573999999999
#
# number of rings (size 3 to 8) (size 9 to 14) (size 15 to 20)
#    0.000    0.500    5.000    1.500   10.500    1.000 
#    2.250    0.000    0.000    0.000    0.000    0.000 
#    0.000    0.000    0.000    0.000    0.000    0.000 
#
# Total GULP energy -89299.522424 kJ/mol
# GULP energy per Si atom -5581.220151 kJ/mol
# Density = 2.583564 g / cm^3
# Si number density = 25.894574 Si / 1000 Ang^3
#
#
#
# Elastic Constant Matrix: (Units=GPa)
#
#
# Indices 1 2 3 4 5 6 
#
# 1 80.5782 10.5247 22.1180 0.0000 -8.6819 0.0000
# 2 10.5247 47.8543 40.5810 0.0000 -6.3040 0.0000
# 3 22.1180 40.5810 226.6789 -0.0001 -24.6146 0.0000
# 4 0.0000 0.0000 -0.0001 28.9789 0.0000 -3.6548
# 5 -8.6819 -6.3040 -24.6146 0.0000 15.0889 0.0000
# 6 0.0000 0.0000 0.0000 -3.6548 0.0000 23.1261
#
#
#
# Elastic Compliance Matrix: (Units=1/GPa)
#
#
# Indices 1 2 3 4 5 6 
#
# 1 0.013429 -0.001868 -0.000269 0.000000 0.006507 0.000000
# 2 -0.001868 0.025074 -0.003993 0.000000 0.002887 0.000000
# 3 -0.000269 -0.003993 0.006021 0.000000 0.007999 0.000000
# 4 0.000000 0.000000 0.000000 0.035210 0.000000 0.005564
# 5 0.006507 0.002887 0.007999 0.000000 0.084273 0.000000
# 6 0.000000 0.000000 0.000000 0.005564 0.000000 0.044121
#
#
# Mechanical properties :
#
#
# Convention : Reuss Voigt Hill
#
# Bulk Modulus (GPa) = 30.99433 55.72876 43.36154
# Shear Modulus (GPa) = 21.63154 32.23127 26.93141
#
# Velocity S-wave (km/s) = 2.89341 3.53187 3.22846
# Velocity P-wave (km/s) = 4.81226 6.18064 5.53887
#
# Compressibility (1/GPa) = 0.03226396
#
# Stress axis : x y z
#
# Youngs Moduli (GPa) = 74.46386 39.88176 166.07695
#
# Poissons Ratio (x) = 0.07450 0.04473
# Poissons Ratio (y) = 0.13909 0.66317
# Poissons Ratio (z) = 0.02006 0.15925
#
# Static dielectric constant tensor:
#      x y z
#    x 2.160390 0.000000 -0.005940 
#    y 0.000000 2.110600 0.000000 
#    z -0.005940 0.000000 2.079270 
# 
# From -- ./inp_files/30686.got.cif
#   From: 2010.05.17/outbox.cif.g08.bks.cpg/sg9_16_cif.got.tgz:30686.got - 2010.06.03 20:04:27.
