data_PCOD9140512
_publ_section_title
;
Structure prediction by ZEFSAII (Michael W. Deem and Ramdas Pophale) SiO2 
 PCOD9140512
Probable space group: C C
;
_chemical_formula_sum "Si O2"
_cell_formula_units_Z 32
_cell_length_a 9.180053
_cell_length_b 14.908617
_cell_length_c 10.844260
_cell_angle_alpha 90.000000
_cell_angle_beta 59.243314
_cell_angle_gamma 90.000000
_cell_volume 1275.413186
_symmetry_space_group_name_H-M "C C"
_symmetry_group_IT_number 9
_symmetry_cell_setting 'monoclinic'
loop_
_space_group_symop_operation_xyz
x,y,z
x,-y,1/2+z
1/2+x,1/2+y,z
1/2+x,1/2-y,1/2+z
loop_
_atom_site_type_symbol
_atom_site_label
_atom_site_fract_x
_atom_site_fract_y
_atom_site_fract_z
Si Si1 0.475860 0.280028 0.456710
Si Si2 0.066519 0.481433 0.425513
Si Si3 0.602958 0.732725 0.645209
Si Si4 0.111942 0.920518 0.785313
Si Si5 0.750607 0.848946 0.941558
Si Si6 0.514337 0.462955 0.558239
Si Si7 0.289774 0.365611 0.189813
Si Si8 0.947586 0.419590 0.733397
O O1 0.528039 0.314777 0.299790
O O2 0.302494 0.221285 0.531286
O O3 0.642437 0.225029 0.420751
O O4 0.454847 0.362885 0.556633
O O5 0.203128 0.555952 0.403682
O O6 0.155998 0.385469 0.356643
O O7 0.967415 0.473809 0.597262
O O8 0.969570 0.519899 0.346209
O O9 0.457423 0.695970 0.618418
O O10 0.580324 0.838760 0.678254
O O11 0.119061 0.958063 0.641522
O O12 0.270291 0.870828 0.779063
O O13 0.952868 0.853161 0.852426
O O14 0.094679 0.999778 0.895528
O O15 0.691645 0.842329 0.108442
O O16 0.364555 0.534155 0.639260
#
# Coordination Sequence:
#
# PCOD9140512 Si02
#       8
#     4   4   4   4   4   4   4   4
#     4  12  27  50  77 111 154 201 254 317 391 449
#     4  12  23  50  76 108 151 201 250 309 378 455
#     4  12  28  47  78 111 156 200 257 318 387 454
#     4  11  25  46  75 110 149 197 253 308 377 454
#     4  11  25  45  76 106 151 188 250 317 369 446
#     4  11  24  46  79 103 148 201 250 308 375 453
#     4  11  25  47  77 110 149 200 252 312 380 448
#     4  12  27  47  76 115 152 200 254 313 379 461
#
# _framework density 25.089907
#
# number of rings (size 3 to 8) (size 9 to 14) (size 15 to 20)
#    0.000    0.500    3.750    3.750    8.750    2.000 
#    2.250    0.000    0.000    0.000    0.000    0.000 
#    0.000    0.000    0.000    0.000    0.000    0.000 
#
# Total GULP energy -89316.885462 kJ/mol
# GULP energy per Si atom -5582.305341 kJ/mol
# Density = 2.503280 g / cm^3
# Si number density = 25.089907 Si / 1000 Ang^3
#
#
#
# Elastic Constant Matrix: (Units=GPa)
#
#
# Indices 1 2 3 4 5 6 
#
# 1 154.6413 19.9567 51.2279 0.0000 5.9374 0.0000
# 2 19.9567 48.2365 11.9958 0.0000 -0.3886 0.0000
# 3 51.2279 11.9958 111.1543 0.0000 32.5273 0.0000
# 4 0.0000 0.0000 0.0000 27.4095 0.0000 5.3965
# 5 5.9374 -0.3886 32.5273 0.0000 51.0155 0.0000
# 6 0.0000 0.0000 0.0000 5.3965 0.0000 23.2155
#
#
#
# Elastic Compliance Matrix: (Units=1/GPa)
#
#
# Indices 1 2 3 4 5 6 
#
# 1 0.007994 -0.002330 -0.003879 0.000000 0.001525 0.000000
# 2 -0.002330 0.022150 -0.001777 0.000000 0.001573 0.000000
# 3 -0.003879 -0.001777 0.013336 0.000000 -0.008065 0.000000
# 4 0.000000 0.000000 0.000000 0.038233 0.000000 -0.008887
# 5 0.001525 0.001573 -0.008065 0.000000 0.024579 0.000000
# 6 0.000000 0.000000 0.000000 -0.008887 0.000000 0.045141
#
#
# Mechanical properties :
#
#
# Convention : Reuss Voigt Hill
#
# Bulk Modulus (GPa) = 36.35326 53.37695 44.86511
# Shear Modulus (GPa) = 28.31688 35.71821 32.01755
#
# Velocity S-wave (km/s) = 3.36313 3.77717 3.57615
# Velocity P-wave (km/s) = 5.44073 6.35162 5.91374
#
# Compressibility (1/GPa) = 0.02750785
#
# Stress axis : x y z
#
# Youngs Moduli (GPa) = 125.09855 45.14714 74.98500
#
# Poissons Ratio (x) = 0.10521 0.29086
# Poissons Ratio (y) = 0.29152 0.13322
# Poissons Ratio (z) = 0.48524 0.08021
#
# Static dielectric constant tensor:
#      x y z
#    x 2.037220 0.000000 -0.041260 
#    y 0.000000 1.968080 0.000000 
#    z -0.041260 0.000000 2.184480 
# 
# From -- ./inp_files/14721.got.cif
#   From: 2010.05.17/outbox.cif.g08.bks.cpg/sg9_8_cif.got.tgz:14721.got - 2010.06.03 20:04:27.
