data_PCOD9140583
_publ_section_title
;
Structure prediction by ZEFSAII (Michael W. Deem and Ramdas Pophale) SiO2 
 PCOD9140583
Probable space group: C C
;
_chemical_formula_sum "Si O2"
_cell_formula_units_Z 28
_cell_length_a 5.040162
_cell_length_b 24.194534
_cell_length_c 10.012662
_cell_angle_alpha 90.000000
_cell_angle_beta 107.788737
_cell_angle_gamma 90.000000
_cell_volume 1162.611692
_symmetry_space_group_name_H-M "C C"
_symmetry_group_IT_number 9
_symmetry_cell_setting 'monoclinic'
loop_
_space_group_symop_operation_xyz
x,y,z
x,-y,1/2+z
1/2+x,1/2+y,z
1/2+x,1/2-y,1/2+z
loop_
_atom_site_type_symbol
_atom_site_label
_atom_site_fract_x
_atom_site_fract_y
_atom_site_fract_z
Si Si1 0.379620 0.589187 0.068840
Si Si2 0.961030 0.577710 0.760718
Si Si3 0.223089 0.703001 0.110624
Si Si4 0.514946 0.838980 0.860101
Si Si5 0.151267 0.733789 0.819570
Si Si6 0.383100 0.643481 0.661873
Si Si7 0.945171 0.449593 0.711806
O O1 0.433763 0.653456 0.106880
O O2 0.229360 0.561002 0.173249
O O3 0.680053 0.613624 0.713866
O O4 0.153331 0.588008 0.918493
O O5 0.916113 0.512311 0.751339
O O6 0.150531 0.598258 0.667425
O O7 0.672644 0.562131 0.079633
O O8 0.073545 0.680869 0.217994
O O9 0.392617 0.756019 0.182933
O O10 0.057207 0.712261 0.949612
O O11 0.296890 0.792547 0.872494
O O12 0.430803 0.903270 0.826701
O O13 0.780385 0.836310 0.000294
O O14 0.348585 0.691879 0.767909
#
# Coordination Sequence:
#
# PCOD9140583 Si02
#       7
#     4   4   4   4   4   4   4
#     4  11  24  49  72 110 148 204 252 310 381 453
#     4  12  28  48  77 111 153 201 255 320 379 457
#     4  11  26  46  73 108 159 196 256 309 390 449
#     4  11  28  46  76 113 149 206 253 324 378 460
#     4  12  25  46  76 112 153 203 255 317 382 464
#     4  12  29  49  77 114 154 199 259 316 384 459
#     4  11  26  46  77 106 152 197 258 312 384 448
#
# _framework density 24.083704999999998
#
# number of rings (size 3 to 8) (size 9 to 14) (size 15 to 20)
#    0.000    0.571    4.286    1.714   10.000    0.000 
#    0.000    0.000    0.000    0.000    0.000    0.000 
#    0.000    0.000    0.000    0.000    0.000    0.000 
#
# Total GULP energy -78327.690202 kJ/mol
# GULP energy per Si atom -5594.835014 kJ/mol
# Density = 2.402889 g / cm^3
# Si number density = 24.083705 Si / 1000 Ang^3
#
#
#
# Elastic Constant Matrix: (Units=GPa)
#
#
# Indices 1 2 3 4 5 6 
#
# 1 97.3395 23.7789 35.7258 0.0000 13.3459 0.0000
# 2 23.7789 135.3954 43.1865 0.0000 5.1618 0.0000
# 3 35.7258 43.1865 148.8354 0.0000 19.1998 0.0000
# 4 0.0000 0.0000 0.0000 23.7170 0.0000 -1.6419
# 5 13.3459 5.1618 19.1998 0.0000 29.6300 0.0000
# 6 0.0000 0.0000 0.0000 -1.6419 0.0000 36.5231
#
#
#
# Elastic Compliance Matrix: (Units=1/GPa)
#
#
# Indices 1 2 3 4 5 6 
#
# 1 0.011840 -0.001305 -0.001969 0.000000 -0.003829 0.000000
# 2 -0.001305 0.008283 -0.002161 0.000000 0.000545 0.000000
# 3 -0.001969 -0.002161 0.008354 0.000000 -0.004150 0.000000
# 4 0.000000 0.000000 0.000000 0.042295 0.000000 0.001901
# 5 -0.003829 0.000545 -0.004150 0.000000 0.038068 0.000000
# 6 0.000000 0.000000 0.000000 0.001901 0.000000 0.027465
#
#
# Mechanical properties :
#
#
# Convention : Reuss Voigt Hill
#
# Bulk Modulus (GPa) = 56.79561 65.21699 61.00630
# Shear Modulus (GPa) = 32.67001 36.56596 34.61798
#
# Velocity S-wave (km/s) = 3.68709 3.90075 3.79542
# Velocity P-wave (km/s) = 6.46220 6.88664 6.67779
#
# Compressibility (1/GPa) = 0.01760699
#
# Stress axis : x y z
#
# Youngs Moduli (GPa) = 84.45947 120.72375 119.70681
#
# Poissons Ratio (x) = 0.15758 0.23574
# Poissons Ratio (y) = 0.11024 0.25863
# Poissons Ratio (z) = 0.16632 0.26082
#
# Static dielectric constant tensor:
#      x y z
#    x 1.906830 0.000000 -0.007550 
#    y 0.000000 2.004660 0.000000 
#    z -0.007550 0.000000 1.949010 
# 
# From -- ./inp_files/4154.got.cif
#   From: 2010.05.17/outbox.cif.g08.bks.cpg/sg9_3_cif.got.tgz:4154.got - 2010.06.03 20:04:27.
