data_PCOD9140429
_publ_section_title
;
Structure prediction by ZEFSAII (Michael W. Deem and Ramdas Pophale) SiO2 
 PCOD9140429
Probable space group: C C
;
_chemical_formula_sum "Si O2"
_cell_formula_units_Z 32
_cell_length_a 14.670544
_cell_length_b 11.987991
_cell_length_c 8.624052
_cell_angle_alpha 90.000000
_cell_angle_beta 106.297541
_cell_angle_gamma 90.000000
_cell_volume 1455.769389
_symmetry_space_group_name_H-M "C C"
_symmetry_group_IT_number 9
_symmetry_cell_setting 'monoclinic'
loop_
_space_group_symop_operation_xyz
x,y,z
x,-y,1/2+z
1/2+x,1/2+y,z
1/2+x,1/2-y,1/2+z
loop_
_atom_site_type_symbol
_atom_site_label
_atom_site_fract_x
_atom_site_fract_y
_atom_site_fract_z
Si Si1 0.576550 0.892484 0.193630
Si Si2 0.607574 0.573863 0.416344
Si Si3 0.591997 0.343690 0.260755
Si Si4 0.250392 0.258692 0.415471
Si Si5 0.930080 0.794226 0.719717
Si Si6 0.349172 0.435115 0.934360
Si Si7 0.391762 0.646009 0.779903
Si Si8 0.637253 0.105179 0.358169
O O1 0.658905 0.837341 0.342264
O O2 0.483160 0.818214 0.187616
O O3 0.564380 0.020847 0.239930
O O4 0.611304 0.888133 0.029794
O O5 0.621829 0.444365 0.386888
O O6 0.585971 0.606820 0.584563
O O7 0.703791 0.640389 0.425155
O O8 0.520767 0.619158 0.265430
O O9 0.490812 0.303946 0.279591
O O10 0.648740 0.229690 0.296733
O O11 0.330238 0.296701 0.577544
O O12 0.313601 0.265944 0.291269
O O13 0.891142 0.825344 0.872284
O O14 0.403555 0.546585 0.909345
O O15 0.237913 0.448343 0.855613
O O16 0.356117 0.423053 0.118651
#
# Coordination Sequence:
#
# PCOD9140429 Si02
#       8
#     4   4   4   4   4   4   4   4
#     4  11  27  45  72 107 148 186 242 299 360 428
#     4  11  27  45  72 107 148 186 242 299 360 428
#     4  12  26  45  73 107 143 191 238 294 364 431
#     4  11  24  45  72 100 146 190 237 298 359 411
#     4  11  24  45  72 100 146 190 237 298 359 411
#     4  12  22  39  65 102 132 179 239 293 345 416
#     4  12  22  39  65 102 132 179 239 293 345 416
#     4  12  26  45  73 107 143 191 238 294 364 431
#
# _framework density 21.981503
#
# number of rings (size 3 to 8) (size 9 to 14) (size 15 to 20)
#    0.000    0.500    5.000    2.250   10.500    0.000 
#    0.000    6.250    0.000    0.000    0.000    0.000 
#    0.000    0.000    0.000    0.000    0.000    0.000 
#
# Total GULP energy -89192.043631 kJ/mol
# GULP energy per Si atom -5574.502727 kJ/mol
# Density = 2.193147 g / cm^3
# Si number density = 21.981503 Si / 1000 Ang^3
#
#
#
# Elastic Constant Matrix: (Units=GPa)
#
#
# Indices 1 2 3 4 5 6 
#
# 1 94.4251 8.0240 21.2316 0.0000 -12.0356 0.0000
# 2 8.0240 82.5072 27.4262 0.0000 -4.7500 0.0000
# 3 21.2316 27.4262 91.8060 0.0000 0.3779 0.0000
# 4 0.0000 0.0000 0.0000 25.4615 0.0000 -2.5281
# 5 -12.0356 -4.7500 0.3779 0.0000 26.6926 0.0000
# 6 0.0000 0.0000 0.0000 -2.5281 0.0000 58.1641
#
#
#
# Elastic Compliance Matrix: (Units=1/GPa)
#
#
# Indices 1 2 3 4 5 6 
#
# 1 0.011904 0.000086 -0.002801 0.000000 0.005422 0.000000
# 2 0.000086 0.013619 -0.004099 0.000000 0.002520 0.000000
# 3 -0.002801 -0.004099 0.012774 0.000000 -0.002173 0.000000
# 4 0.000000 0.000000 0.000000 0.039445 0.000000 0.001714
# 5 0.005422 0.002520 -0.002173 0.000000 0.040388 0.000000
# 6 0.000000 0.000000 0.000000 0.001714 0.000000 0.017267
#
#
# Mechanical properties :
#
#
# Convention : Reuss Voigt Hill
#
# Bulk Modulus (GPa) = 40.53700 42.45577 41.49638
# Shear Modulus (GPa) = 31.79675 36.20073 33.99874
#
# Velocity S-wave (km/s) = 3.80744 4.06257 3.93707
# Velocity P-wave (km/s) = 6.14901 6.43135 6.29176
#
# Compressibility (1/GPa) = 0.02466882
#
# Stress axis : x y z
#
# Youngs Moduli (GPa) = 84.00498 73.42456 78.28582
#
# Poissons Ratio (x) = -0.00628 0.21927
# Poissons Ratio (y) = -0.00718 0.32088
# Poissons Ratio (z) = 0.23529 0.30095
#
# Static dielectric constant tensor:
#      x y z
#    x 1.856270 0.000000 -0.005150 
#    y 0.000000 1.813890 0.000000 
#    z -0.005150 0.000000 1.906550 
# 
# From -- ./inp_files/9301.got.cif
#   From: 2010.05.17/outbox.cif.g08.bks.cpg/sg9_5_cif.got.tgz:9301.got - 2010.06.03 20:04:27.
