data_PCOD9140953
_publ_section_title
;
Structure prediction by ZEFSAII (Michael W. Deem and Ramdas Pophale) SiO2 
 PCOD9140953
Probable space group: C C
;
_chemical_formula_sum "Si O2"
_cell_formula_units_Z 32
_cell_length_a 13.533220
_cell_length_b 13.642812
_cell_length_c 10.307482
_cell_angle_alpha 90.000000
_cell_angle_beta 42.911918
_cell_angle_gamma 90.000000
_cell_volume 1295.757945
_symmetry_space_group_name_H-M "C C"
_symmetry_group_IT_number 9
_symmetry_cell_setting 'monoclinic'
loop_
_space_group_symop_operation_xyz
x,y,z
x,-y,1/2+z
1/2+x,1/2+y,z
1/2+x,1/2-y,1/2+z
loop_
_atom_site_type_symbol
_atom_site_label
_atom_site_fract_x
_atom_site_fract_y
_atom_site_fract_z
Si Si1 0.259030 0.336269 0.931430
Si Si2 0.562444 0.435246 0.385144
Si Si3 0.772595 0.379169 0.416802
Si Si4 0.232618 0.629839 0.179765
Si Si5 0.503825 0.635651 0.357787
Si Si6 0.424922 0.194512 0.122646
Si Si7 0.658820 0.691940 0.565510
Si Si8 0.041574 0.442645 0.306842
O O1 0.328410 0.230518 0.835620
O O2 0.175883 0.362987 0.880915
O O3 0.395565 0.399578 0.847678
O O4 0.143366 0.355809 0.154969
O O5 0.680629 0.410098 0.380136
O O6 0.404624 0.384999 0.535934
O O7 0.522444 0.548500 0.440284
O O8 0.624992 0.404522 0.183079
O O9 0.658795 0.356643 0.641735
O O10 0.900054 0.446273 0.350896
O O11 0.140152 0.539863 0.209571
O O12 0.214843 0.728066 0.115433
O O13 0.428382 0.727551 0.500006
O O14 0.273613 0.176796 0.339687
O O15 0.523725 0.251644 0.131333
O O16 0.489562 0.095069 0.998249
#
# Coordination Sequence:
#
# PCOD9140953 Si02
#       8
#     4   4   4   4   4   4   4   4
#     4  12  23  49  83 108 155 207 266 319 388 469
#     4  12  28  50  79 114 156 211 262 323 395 472
#     4  12  25  49  78 115 153 203 268 326 380 460
#     4  12  28  50  79 113 157 210 262 323 396 470
#     4  12  26  47  80 111 154 208 261 319 392 468
#     4  12  26  48  79 116 161 206 256 326 399 470
#     4  12  28  48  80 112 164 209 260 319 401 471
#     4  12  28  47  80 121 156 204 265 329 389 464
#
# _framework density 24.695971
#
# number of rings (size 3 to 8) (size 9 to 14) (size 15 to 20)
#    0.000    0.000    7.500    1.500    3.500    3.000 
#    0.000    0.000    0.000    0.000    0.000    0.000 
#    0.000    0.000    0.000    0.000    0.000    0.000 
#
# Total GULP energy -89485.121216 kJ/mol
# GULP energy per Si atom -5592.820076 kJ/mol
# Density = 2.463976 g / cm^3
# Si number density = 24.695971 Si / 1000 Ang^3
#
#
#
# Elastic Constant Matrix: (Units=GPa)
#
#
# Indices 1 2 3 4 5 6 
#
# 1 151.9557 20.3211 13.0208 0.0000 -10.1822 0.0000
# 2 20.3211 70.6308 7.0487 0.0000 -1.3716 0.0000
# 3 13.0208 7.0487 91.8809 0.0000 1.3298 0.0000
# 4 0.0000 0.0000 0.0000 23.5388 0.0000 -1.0656
# 5 -10.1822 -1.3716 1.3298 0.0000 36.5908 0.0000
# 6 0.0000 0.0000 0.0000 -1.0656 0.0000 36.3434
#
#
#
# Elastic Compliance Matrix: (Units=1/GPa)
#
#
# Indices 1 2 3 4 5 6 
#
# 1 0.007039 -0.001900 -0.000880 0.000000 0.001919 0.000000
# 2 -0.001900 0.014792 -0.000866 0.000000 0.000057 0.000000
# 3 -0.000880 -0.000866 0.011085 0.000000 -0.000680 0.000000
# 4 0.000000 0.000000 0.000000 0.042539 0.000000 0.001247
# 5 0.001919 0.000057 -0.000680 0.000000 0.027890 0.000000
# 6 0.000000 0.000000 0.000000 0.001247 0.000000 0.027552
#
#
# Mechanical properties :
#
#
# Convention : Reuss Voigt Hill
#
# Bulk Modulus (GPa) = 39.02607 43.91654 41.47131
# Shear Modulus (GPa) = 34.07599 37.56638 35.82118
#
# Velocity S-wave (km/s) = 3.71862 3.90443 3.81266
# Velocity P-wave (km/s) = 5.85444 6.17637 6.01756
#
# Compressibility (1/GPa) = 0.02562390
#
# Stress axis : x y z
#
# Youngs Moduli (GPa) = 142.06656 67.60240 90.21519
#
# Poissons Ratio (x) = 0.12845 0.07935
# Poissons Ratio (y) = 0.26994 0.07816
# Poissons Ratio (z) = 0.12495 0.05857
#
# Static dielectric constant tensor:
#      x y z
#    x 2.004670 0.000000 0.032960 
#    y 0.000000 1.991760 0.000000 
#    z 0.032960 0.000000 1.989720 
# 
# From -- ./inp_files/18441.got.cif
#   From: 2010.05.17/outbox.cif.g08.bks.cpg/sg9_10_cif.got.tgz:18441.got - 2010.06.03 20:04:27.
