data_PCOD9140324
_publ_section_title
;
Structure prediction by ZEFSAII (Michael W. Deem and Ramdas Pophale) SiO2 
 PCOD9140324
Probable space group: C C
;
_chemical_formula_sum "Si O2"
_cell_formula_units_Z 28
_cell_length_a 15.053222
_cell_length_b 12.143945
_cell_length_c 9.664042
_cell_angle_alpha 90.000000
_cell_angle_beta 142.913150
_cell_angle_gamma 90.000000
_cell_volume 1065.327959
_symmetry_space_group_name_H-M "C C"
_symmetry_group_IT_number 9
_symmetry_cell_setting 'monoclinic'
loop_
_space_group_symop_operation_xyz
x,y,z
x,-y,1/2+z
1/2+x,1/2+y,z
1/2+x,1/2-y,1/2+z
loop_
_atom_site_type_symbol
_atom_site_label
_atom_site_fract_x
_atom_site_fract_y
_atom_site_fract_z
Si Si1 0.813900 0.737454 0.754970
Si Si2 0.196492 0.885213 0.582132
Si Si3 0.218041 0.649422 0.568662
Si Si4 0.411105 0.942548 0.613089
Si Si5 0.510832 0.816594 0.250510
Si Si6 0.415496 0.391868 0.082242
Si Si7 0.997287 0.902170 0.568666
O O1 0.653919 0.791849 0.525656
O O2 0.873339 0.699620 0.681443
O O3 0.848208 0.640294 0.913698
O O4 0.914053 0.839035 0.931135
O O5 0.265797 0.766320 0.691775
O O6 0.289159 0.949610 0.583842
O O7 0.046852 0.836795 0.328218
O O8 0.136389 0.938199 0.647581
O O9 0.263295 0.641469 0.463554
O O10 0.053208 0.607974 0.370211
O O11 0.344284 0.576378 0.796957
O O12 0.478413 0.061056 0.648652
O O13 0.523830 0.720423 0.153726
O O14 0.466772 0.517229 0.157547
#
# Coordination Sequence:
#
# PCOD9140324 Si02
#       7
#     4   4   4   4   4   4   4
#     4  12  26  54  78 117 165 208 278 340 405 495
#     4  11  24  47  79 114 147 206 274 323 414 490
#     4  11  23  49  78 112 147 207 272 330 405 487
#     4  12  26  51  84 119 156 213 273 347 409 476
#     4  12  32  50  77 122 169 213 269 336 418 492
#     4  11  24  48  78 108 151 213 266 331 414 477
#     4  11  29  47  76 112 165 208 266 337 407 495
#
# _framework density 26.282985
#
# number of rings (size 3 to 8) (size 9 to 14) (size 15 to 20)
#    0.000    0.571    2.857    3.429   10.000    3.429 
#    0.000    0.000    0.000    0.000    0.000    0.000 
#    0.000    0.000    0.000    0.000    0.000    0.000 
#
# Total GULP energy -78129.673016 kJ/mol
# GULP energy per Si atom -5580.690930 kJ/mol
# Density = 2.622316 g / cm^3
# Si number density = 26.282985 Si / 1000 Ang^3
#
#
#
# Elastic Constant Matrix: (Units=GPa)
#
#
# Indices 1 2 3 4 5 6 
#
# 1 104.0663 12.9146 32.4223 0.0000 10.5104 0.0000
# 2 12.9146 136.1564 27.0066 0.0000 -3.4072 0.0000
# 3 32.4223 27.0066 120.5848 0.0000 8.9361 0.0000
# 4 0.0000 0.0000 0.0000 29.6467 0.0000 0.9217
# 5 10.5104 -3.4072 8.9361 0.0000 35.5127 0.0000
# 6 0.0000 0.0000 0.0000 0.9217 0.0000 16.6588
#
#
#
# Elastic Compliance Matrix: (Units=1/GPa)
#
#
# Indices 1 2 3 4 5 6 
#
# 1 0.010742 -0.000574 -0.002568 0.000000 -0.002588 0.000000
# 2 -0.000574 0.007767 -0.001684 0.000000 0.001339 0.000000
# 3 -0.002568 -0.001684 0.009493 0.000000 -0.001790 0.000000
# 4 0.000000 0.000000 0.000000 0.033789 0.000000 -0.001869
# 5 -0.002588 0.001339 -0.001790 0.000000 0.029504 0.000000
# 6 0.000000 0.000000 0.000000 -0.001869 0.000000 0.060132
#
#
# Mechanical properties :
#
#
# Convention : Reuss Voigt Hill
#
# Bulk Modulus (GPa) = 54.49895 56.16606 55.33251
# Shear Modulus (GPa) = 29.90519 35.59457 32.74988
#
# Velocity S-wave (km/s) = 3.37681 3.68405 3.53377
# Velocity P-wave (km/s) = 5.99869 6.28589 6.14397
#
# Compressibility (1/GPa) = 0.01834898
#
# Stress axis : x y z
#
# Youngs Moduli (GPa) = 93.09302 128.75741 105.33823
#
# Poissons Ratio (x) = 0.07395 0.27049
# Poissons Ratio (y) = 0.05347 0.17741
# Poissons Ratio (z) = 0.23905 0.21686
#
# Static dielectric constant tensor:
#      x y z
#    x 2.352820 0.000000 -0.027360 
#    y 0.000000 2.428390 0.000000 
#    z -0.027360 0.000000 2.063510 
# 
# From -- ./inp_files/19339.got.cif
#   From: 2010.05.17/outbox.cif.g08.bks.cpg/sg9_10_cif.got.tgz:19339.got - 2010.06.03 20:04:27.
