data_PCOD9140540
_publ_section_title
;
Structure prediction by ZEFSAII (Michael W. Deem and Ramdas Pophale) SiO2 
 PCOD9140540
Probable space group: C C
;
_chemical_formula_sum "Si O2"
_cell_formula_units_Z 32
_cell_length_a 15.250820
_cell_length_b 9.080321
_cell_length_c 20.749851
_cell_angle_alpha 90.000000
_cell_angle_beta 27.101431
_cell_angle_gamma 90.000000
_cell_volume 1309.066687
_symmetry_space_group_name_H-M "C C"
_symmetry_group_IT_number 9
_symmetry_cell_setting 'monoclinic'
loop_
_space_group_symop_operation_xyz
x,y,z
x,-y,1/2+z
1/2+x,1/2+y,z
1/2+x,1/2-y,1/2+z
loop_
_atom_site_type_symbol
_atom_site_label
_atom_site_fract_x
_atom_site_fract_y
_atom_site_fract_z
Si Si1 0.849930 0.889275 0.149530
Si Si2 0.262602 0.658086 0.299237
Si Si3 0.390065 0.993072 0.558156
Si Si4 0.391057 0.126181 0.360215
Si Si5 0.177641 0.121075 0.073425
Si Si6 0.567140 0.640766 0.843349
Si Si7 0.715797 0.070991 0.600886
Si Si8 0.693834 0.749109 0.379336
O O1 0.720096 0.862231 0.171107
O O2 0.796136 0.779149 0.244523
O O3 0.803258 0.043835 0.214211
O O4 0.063469 0.893111 0.978722
O O5 0.442738 0.631301 0.228797
O O6 0.228942 0.815927 0.290164
O O7 0.043269 0.624969 0.464003
O O8 0.187854 0.035604 0.718784
O O9 0.325565 0.934940 0.531023
O O10 0.522367 0.865559 0.499505
O O11 0.492291 0.213945 0.353082
O O12 0.328237 0.256248 0.353080
O O13 0.228195 0.009978 0.489999
O O14 0.525490 0.026138 0.227059
O O15 0.226552 0.297142 0.042031
O O16 0.384777 0.548217 0.985109
#
# Coordination Sequence:
#
# PCOD9140540 Si02
#       8
#     4   4   4   4   4   4   4   4
#     4  11  24  47  75 113 152 212 260 327 397 479
#     4  11  25  48  73 114 158 204 266 336 400 475
#     4  11  26  47  74 112 158 209 271 328 412 482
#     4  12  27  50  80 120 161 208 281 337 413 492
#     4  12  27  49  80 114 158 215 267 341 418 485
#     4  12  28  46  79 113 165 216 269 341 406 484
#     4  12  29  48  79 116 164 213 272 339 421 483
#     4  11  26  45  82 108 160 207 268 329 403 486
#
# _framework density 24.444897000000001
#
# number of rings (size 3 to 8) (size 9 to 14) (size 15 to 20)
#    0.000    0.500    5.000    1.500    8.750    3.000 
#    0.000    0.000    0.000    0.000    0.000    0.000 
#    0.000    0.000    0.000    0.000    0.000    0.000 
#
# Total GULP energy -89109.895247 kJ/mol
# GULP energy per Si atom -5569.368453 kJ/mol
# Density = 2.438926 g / cm^3
# Si number density = 24.444897 Si / 1000 Ang^3
#
#
#
# Elastic Constant Matrix: (Units=GPa)
#
#
# Indices 1 2 3 4 5 6 
#
# 1 -72.8346 225.9790 46.0648 0.0005 -68.2928 0.0017
# 2 225.9790 -125.9260 -5.0094 -0.0082 58.0122 -0.0007
# 3 46.0648 -5.0094 84.8546 -0.0115 3.4907 0.0028
# 4 0.0005 -0.0082 -0.0115 40.1753 0.0022 -8.8127
# 5 -68.2928 58.0122 3.4907 0.0022 19.3767 -0.0003
# 6 0.0017 -0.0007 0.0028 -8.8127 -0.0003 33.8759
#
#
#
# Elastic Compliance Matrix: (Units=1/GPa)
#
#
# Indices 1 2 3 4 5 6 
#
# 1 0.003454 0.005038 -0.001469 0.000001 -0.002646 0.000000
# 2 0.005038 0.004043 -0.002750 0.000000 0.006149 0.000000
# 3 -0.001469 -0.002750 0.012386 0.000003 0.000823 0.000000
# 4 0.000001 0.000000 0.000003 0.026397 0.000000 0.006867
# 5 -0.002646 0.006149 0.000823 0.000000 0.023725 0.000001
# 6 0.000000 0.000000 0.000000 0.006867 0.000001 0.031306
#
#
# Mechanical properties :
#
#
# Convention : Reuss Voigt Hill
#
# Bulk Modulus (GPa) = 46.46157 46.68477 46.57317
# Shear Modulus (GPa) = 46.79640 -6.71046 20.04297
#
# Velocity S-wave (km/s) = 4.38009 -1.65864 2.86654
# Velocity P-wave (km/s) = 6.68043 3.93336 5.48176
#
# Compressibility (1/GPa) = 0.02152316
#
# Stress axis : x y z
#
# Youngs Moduli (GPa) = 289.49868 247.35336 80.73560
#
# Poissons Ratio (x) = -1.24627 0.11859
# Poissons Ratio (y) = -1.45862 0.22198
# Poissons Ratio (z) = 0.42525 0.68010
#
# Static dielectric constant tensor:
#      x y z
#    x 2.018460 0.000000 0.015970 
#    y 0.000000 2.205620 0.000000 
#    z 0.015970 0.000000 2.111580 
# 
# From -- ./inp_files/33703.got.cif
#   From: 2010.05.17/outbox.cif.g08.bks.cpg/sg9_17_cif.got.tgz:33703.got - 2010.06.03 20:04:27.
