data_PCOD9140952
_publ_section_title
;
Structure prediction by ZEFSAII (Michael W. Deem and Ramdas Pophale) SiO2 
 PCOD9140952
Probable space group: C C
;
_chemical_formula_sum "Si O2"
_cell_formula_units_Z 32
_cell_length_a 8.649079
_cell_length_b 13.919718
_cell_length_c 11.484346
_cell_angle_alpha 90.000000
_cell_angle_beta 107.691807
_cell_angle_gamma 90.000000
_cell_volume 1317.240240
_symmetry_space_group_name_H-M "C C"
_symmetry_group_IT_number 9
_symmetry_cell_setting 'monoclinic'
loop_
_space_group_symop_operation_xyz
x,y,z
x,-y,1/2+z
1/2+x,1/2+y,z
1/2+x,1/2-y,1/2+z
loop_
_atom_site_type_symbol
_atom_site_label
_atom_site_fract_x
_atom_site_fract_y
_atom_site_fract_z
Si Si1 0.128600 0.148577 0.187730
Si Si2 0.310122 0.335966 0.179476
Si Si3 0.791260 0.647320 0.593774
Si Si4 0.799509 0.849434 0.708839
Si Si5 0.311648 0.978033 0.321279
Si Si6 0.067318 0.494136 0.052332
Si Si7 0.524519 0.566941 0.926260
Si Si8 0.438435 0.642007 0.473861
O O1 0.193381 0.256821 0.209384
O O2 0.976310 0.103126 0.224165
O O3 0.279946 0.081701 0.257779
O O4 0.077319 0.135198 0.042717
O O5 0.210177 0.417239 0.087777
O O6 0.410002 0.383223 0.306089
O O7 0.418871 0.304369 0.093570
O O8 0.828798 0.756252 0.635933
O O9 0.760333 0.596023 0.710118
O O10 0.626918 0.659108 0.482707
O O11 0.923930 0.575050 0.570519
O O12 0.647387 0.915717 0.639683
O O13 0.810492 0.823530 0.847763
O O14 0.190121 0.960239 0.399450
O O15 0.493354 0.969768 0.413282
O O16 0.438689 0.474550 0.965715
#
# Coordination Sequence:
#
# PCOD9140952 Si02
#       8
#     4   4   4   4   4   4   4   4
#     4  12  26  49  78 111 153 203 254 324 394 466
#     4  12  28  45  78 117 145 204 263 322 394 471
#     4  12  27  47  74 110 153 201 260 318 391 467
#     4  12  28  48  79 112 154 206 256 324 395 465
#     4  12  25  48  73 107 156 201 249 322 392 464
#     4  12  26  48  74 116 151 201 261 322 390 470
#     4  12  23  49  76 103 153 204 249 317 393 463
#     4  12  25  50  74 104 157 200 258 319 391 468
#
# _framework density 24.293216000000001
#
# number of rings (size 3 to 8) (size 9 to 14) (size 15 to 20)
#    0.000    0.000    7.500    0.750    7.000    3.000 
#    0.000    0.000    0.000    0.000    0.000    0.000 
#    0.000    0.000    0.000    0.000    0.000    0.000 
#
# Total GULP energy -89346.429563 kJ/mol
# GULP energy per Si atom -5584.151848 kJ/mol
# Density = 2.423792 g / cm^3
# Si number density = 24.293216 Si / 1000 Ang^3
#
#
#
# Elastic Constant Matrix: (Units=GPa)
#
#
# Indices 1 2 3 4 5 6 
#
# 1 55.3037 11.8019 13.7300 0.0000 16.3672 0.0000
# 2 11.8019 83.6048 8.5165 0.0000 16.9728 0.0000
# 3 13.7300 8.5165 94.3115 0.0000 38.1152 0.0000
# 4 0.0000 0.0000 0.0000 28.2979 0.0000 -2.1083
# 5 16.3672 16.9728 38.1152 0.0000 43.1983 0.0000
# 6 0.0000 0.0000 0.0000 -2.1083 0.0000 25.7530
#
#
#
# Elastic Compliance Matrix: (Units=1/GPa)
#
#
# Indices 1 2 3 4 5 6 
#
# 1 0.020523 -0.001425 0.000089 0.000000 -0.007294 0.000000
# 2 -0.001425 0.013214 0.001390 0.000000 -0.005878 0.000000
# 3 0.000089 0.001390 0.016629 0.000000 -0.015252 0.000000
# 4 0.000000 0.000000 0.000000 0.035555 0.000000 0.002911
# 5 -0.007294 -0.005878 -0.015252 0.000000 0.041679 0.000000
# 6 0.000000 0.000000 0.000000 0.002911 0.000000 0.039069
#
#
# Mechanical properties :
#
#
# Convention : Reuss Voigt Hill
#
# Bulk Modulus (GPa) = 19.81290 33.47963 26.64627
# Shear Modulus (GPa) = 27.26493 32.72794 29.99643
#
# Velocity S-wave (km/s) = 3.35375 3.67441 3.51774
# Velocity P-wave (km/s) = 4.81355 5.64031 5.24325
#
# Compressibility (1/GPa) = 0.05047216
#
# Stress axis : x y z
#
# Youngs Moduli (GPa) = 48.72628 75.67739 60.13756
#
# Poissons Ratio (x) = 0.10786 -0.00534
# Poissons Ratio (y) = 0.06945 -0.08358
# Poissons Ratio (z) = -0.00433 -0.10518
#
# Static dielectric constant tensor:
#      x y z
#    x 2.104110 0.000000 -0.050940 
#    y 0.000000 1.981420 0.000000 
#    z -0.050940 0.000000 1.951130 
# 
# From -- ./inp_files/14655.got.cif
#   From: 2010.05.17/outbox.cif.g08.bks.cpg/sg9_8_cif.got.tgz:14655.got - 2010.06.03 20:04:27.
