data_PCOD9140263
_publ_section_title
;
Structure prediction by ZEFSAII (Michael W. Deem and Ramdas Pophale) SiO2 
 PCOD9140263
Probable space group: C C
;
_chemical_formula_sum "Si O2"
_cell_formula_units_Z 32
_cell_length_a 11.422616
_cell_length_b 7.436280
_cell_length_c 29.147960
_cell_angle_alpha 90.000000
_cell_angle_beta 148.269532
_cell_angle_gamma 90.000000
_cell_volume 1302.124391
_symmetry_space_group_name_H-M "C C"
_symmetry_group_IT_number 9
_symmetry_cell_setting 'monoclinic'
loop_
_space_group_symop_operation_xyz
x,y,z
x,-y,1/2+z
1/2+x,1/2+y,z
1/2+x,1/2-y,1/2+z
loop_
_atom_site_type_symbol
_atom_site_label
_atom_site_fract_x
_atom_site_fract_y
_atom_site_fract_z
Si Si1 0.617730 0.456731 0.880690
Si Si2 0.736781 0.313980 0.258755
Si Si3 0.409538 0.615114 0.564350
Si Si4 0.921354 0.778195 0.416884
Si Si5 0.831890 0.241847 0.684025
Si Si6 0.878642 0.685772 0.550533
Si Si7 0.917230 0.690412 0.316404
Si Si8 0.638363 0.548951 0.554638
O O1 0.372354 0.368246 0.794704
O O2 0.617926 0.670360 0.875576
O O3 0.776321 0.359866 0.897635
O O4 0.696652 0.401430 0.957281
O O5 0.572514 0.348941 0.161187
O O6 0.573702 0.319351 0.248487
O O7 0.914668 0.476919 0.323808
O O8 0.172693 0.705658 0.494091
O O9 0.371606 0.401426 0.544831
O O10 0.525999 0.671578 0.555722
O O11 0.955021 0.953635 0.460240
O O12 0.820633 0.778428 0.331595
O O13 0.615600 0.114460 0.610364
O O14 0.814877 0.299647 0.731373
O O15 0.769971 0.399449 0.628002
O O16 0.817976 0.639225 0.581890
#
# Coordination Sequence:
#
# PCOD9140263 Si02
#       8
#     4   4   4   4   4   4   4   4
#     4  12  27  47  77 113 154 197 253 318 379 454
#     4  12  26  48  74 109 160 199 244 322 380 444
#     4  11  24  48  76 107 148 199 256 311 370 456
#     4  12  25  49  76 109 150 197 256 309 379 456
#     4  11  25  48  75 108 154 193 258 314 358 471
#     4  11  23  49  77 108 145 202 256 310 375 452
#     4  12  27  47  73 112 148 194 246 313 391 434
#     4  11  23  46  78 102 143 193 255 309 374 451
#
# _framework density 24.575222
#
# number of rings (size 3 to 8) (size 9 to 14) (size 15 to 20)
#    0.000    0.500    7.500    1.500    1.750    4.000 
#    4.500    0.000    0.000    0.000    0.000    0.000 
#    0.000    0.000    0.000    0.000    0.000    0.000 
#
# Total GULP energy -89392.006778 kJ/mol
# GULP energy per Si atom -5587.000424 kJ/mol
# Density = 2.451929 g / cm^3
# Si number density = 24.575222 Si / 1000 Ang^3
#
#
#
# Elastic Constant Matrix: (Units=GPa)
#
#
# Indices 1 2 3 4 5 6 
#
# 1 166.3661 20.4597 51.3099 0.0001 0.7771 0.0000
# 2 20.4597 75.0104 31.3672 0.0000 10.6298 0.0000
# 3 51.3099 31.3672 90.7177 0.0001 -7.3210 0.0000
# 4 0.0001 0.0000 0.0001 29.1468 0.0000 -3.7822
# 5 0.7771 10.6298 -7.3210 0.0000 57.3789 0.0000
# 6 0.0000 0.0000 0.0000 -3.7822 0.0000 40.9037
#
#
#
# Elastic Compliance Matrix: (Units=1/GPa)
#
#
# Indices 1 2 3 4 5 6 
#
# 1 0.007306 -0.000189 -0.004114 0.000000 -0.000589 0.000000
# 2 -0.000189 0.016368 -0.005857 0.000000 -0.003777 0.000000
# 3 -0.004114 -0.005857 0.015629 0.000000 0.003135 0.000000
# 4 0.000000 0.000000 0.000000 0.034726 0.000000 0.003211
# 5 -0.000589 -0.003777 0.003135 0.000000 0.018536 0.000000
# 6 0.000000 0.000000 0.000000 0.003211 0.000000 0.024745
#
#
# Mechanical properties :
#
#
# Convention : Reuss Voigt Hill
#
# Bulk Modulus (GPa) = 52.68471 59.81864 56.25167
# Shear Modulus (GPa) = 34.73280 40.74970 37.74125
#
# Velocity S-wave (km/s) = 3.76350 4.07647 3.92311
# Velocity P-wave (km/s) = 6.35373 6.82281 6.59244
#
# Compressibility (1/GPa) = 0.01898084
#
# Stress axis : x y z
#
# Youngs Moduli (GPa) = 136.87850 61.09621 63.98519
#
# Poissons Ratio (x) = 0.01153 0.26326
# Poissons Ratio (y) = 0.02583 0.37479
# Poissons Ratio (z) = 0.56317 0.35787
#
# Static dielectric constant tensor:
#      x y z
#    x 1.960860 0.000000 0.001140 
#    y 0.000000 1.953190 0.000000 
#    z 0.001140 0.000000 2.011500 
# 
# From -- ./inp_files/29924.got.cif
#   From: 2010.05.17/outbox.cif.g08.bks.cpg/sg9_15_cif.got.tgz:29924.got - 2010.06.03 20:04:27.
