data_PCOD9140158
_publ_section_title
;
Structure prediction by ZEFSAII (Michael W. Deem and Ramdas Pophale) SiO2 
 PCOD9140158
Probable space group: C C
;
_chemical_formula_sum "Si O2"
_cell_formula_units_Z 24
_cell_length_a 20.826663
_cell_length_b 5.180904
_cell_length_c 9.319634
_cell_angle_alpha 90.000000
_cell_angle_beta 115.211331
_cell_angle_gamma 90.000000
_cell_volume 909.806934
_symmetry_space_group_name_H-M "C C"
_symmetry_group_IT_number 9
_symmetry_cell_setting 'monoclinic'
loop_
_space_group_symop_operation_xyz
x,y,z
x,-y,1/2+z
1/2+x,1/2+y,z
1/2+x,1/2-y,1/2+z
loop_
_atom_site_type_symbol
_atom_site_label
_atom_site_fract_x
_atom_site_fract_y
_atom_site_fract_z
Si Si1 0.860630 0.361933 0.119770
Si Si2 0.724157 0.894531 0.393758
Si Si3 0.549466 0.216791 0.991382
Si Si4 0.830548 0.251653 0.379053
Si Si5 0.499982 0.283753 0.616660
Si Si6 0.183209 0.897792 0.261106
O O1 0.884820 0.306094 0.304729
O O2 0.914805 0.231048 0.060678
O O3 0.781802 0.238772 0.050334
O O4 0.858347 0.657571 0.061978
O O5 0.665552 0.685988 0.293281
O O6 0.782325 0.998221 0.332564
O O7 0.687720 0.174098 0.388573
O O8 0.518757 0.444275 0.063553
O O9 0.633981 0.271579 0.094891
O O10 0.526963 0.944206 0.038365
O O11 0.528558 0.245037 0.806018
O O12 0.764810 0.452098 0.297458
#
# Coordination Sequence:
#
# PCOD9140158 Si02
#       6
#     4   4   4   4   4   4
#     4  11  23  44  70 106 146 179 248 284 376 426
#     4   9  21  41  67 104 128 186 215 315 345 425
#     4  12  27  52  72 111 146 207 247 309 361 454
#     4   9  23  41  71 105 136 183 229 307 362 415
#     4  12  29  46  78 104 155 202 249 302 370 444
#     4   9  21  44  70 102 139 177 246 289 372 416
#
# _framework density 26.379223
#
# number of rings (size 3 to 8) (size 9 to 14) (size 15 to 20)
#    1.000    0.667    0.000    3.000    4.667    6.667 
#    3.000    0.000    0.000    0.000    0.000    0.000 
#    0.000    0.000    0.000    0.000    0.000    0.000 
#
# Total GULP energy -66870.837660 kJ/mol
# GULP energy per Si atom -5572.569805 kJ/mol
# Density = 2.631918 g / cm^3
# Si number density = 26.379223 Si / 1000 Ang^3
#
#
#
# Elastic Constant Matrix: (Units=GPa)
#
#
# Indices 1 2 3 4 5 6 
#
# 1 52.8547 -8.1896 6.9970 0.0000 -0.2315 0.0000
# 2 -8.1896 158.7859 23.1055 0.0000 -5.6575 0.0000
# 3 6.9970 23.1055 112.5365 0.0000 -7.4653 0.0000
# 4 0.0000 0.0000 0.0000 33.8186 0.0000 2.9822
# 5 -0.2315 -5.6575 -7.4653 0.0000 45.9471 0.0000
# 6 0.0000 0.0000 0.0000 2.9822 0.0000 40.2780
#
#
#
# Elastic Compliance Matrix: (Units=1/GPa)
#
#
# Indices 1 2 3 4 5 6 
#
# 1 0.019298 0.001206 -0.001447 0.000000 0.000011 0.000000
# 2 0.001206 0.006583 -0.001387 0.000000 0.000591 0.000000
# 3 -0.001447 -0.001387 0.009350 0.000000 0.001341 0.000000
# 4 0.000000 0.000000 0.000000 0.029764 0.000000 -0.002204
# 5 0.000011 0.000591 0.001341 0.000000 0.022055 0.000000
# 6 0.000000 0.000000 0.000000 -0.002204 0.000000 0.024991
#
#
# Mechanical properties :
#
#
# Convention : Reuss Voigt Hill
#
# Bulk Modulus (GPa) = 31.27433 40.88922 36.08178
# Shear Modulus (GPa) = 39.69683 44.15968 41.92826
#
# Velocity S-wave (km/s) = 3.88345 4.09593 3.99111
# Velocity P-wave (km/s) = 5.65594 6.15655 5.91155
#
# Compressibility (1/GPa) = 0.03197510
#
# Stress axis : x y z
#
# Youngs Moduli (GPa) = 51.81809 151.90767 106.95454
#
# Poissons Ratio (x) = -0.18324 0.15475
# Poissons Ratio (y) = -0.06251 0.14838
# Poissons Ratio (z) = 0.07497 0.21075
#
# Static dielectric constant tensor:
#      x y z
#    x 2.156270 0.000000 0.045120 
#    y 0.000000 2.207600 0.000000 
#    z 0.045120 0.000000 2.181200 
# 
# From -- ./inp_files/11946.got.cif
#   From: 2010.05.17/outbox.cif.g08.bks.cpg/sg9_6_cif.got.tgz:11946.got - 2010.06.03 20:04:27.
