data_PCOD9140065
_publ_section_title
;
Structure prediction by ZEFSAII (Michael W. Deem and Ramdas Pophale) SiO2 
 PCOD9140065
Probable space group: C C
;
_chemical_formula_sum "Si O2"
_cell_formula_units_Z 28
_cell_length_a 9.541551
_cell_length_b 10.336240
_cell_length_c 10.178833
_cell_angle_alpha 90.000000
_cell_angle_beta 85.190734
_cell_angle_gamma 90.000000
_cell_volume 1000.340466
_symmetry_space_group_name_H-M "C C"
_symmetry_group_IT_number 9
_symmetry_cell_setting 'monoclinic'
loop_
_space_group_symop_operation_xyz
x,y,z
x,-y,1/2+z
1/2+x,1/2+y,z
1/2+x,1/2-y,1/2+z
loop_
_atom_site_type_symbol
_atom_site_label
_atom_site_fract_x
_atom_site_fract_y
_atom_site_fract_z
Si Si1 0.051720 0.585940 0.947980
Si Si2 0.340782 0.494827 0.823065
Si Si3 0.153585 0.834544 0.535607
Si Si4 0.937654 0.375895 0.156515
Si Si5 0.683692 0.225743 0.241590
Si Si6 0.612064 0.384084 0.947417
Si Si7 0.362928 0.209376 0.247076
O O1 0.205793 0.518890 0.926900
O O2 0.985521 0.598240 0.804943
O O3 0.077333 0.735540 0.991621
O O4 0.786458 0.693130 0.115512
O O5 0.278001 0.401333 0.718587
O O6 0.477585 0.425176 0.868561
O O7 0.371734 0.637854 0.773477
O O8 0.188469 0.785280 0.387839
O O9 0.117504 0.986090 0.534669
O O10 0.029673 0.745280 0.600521
O O11 0.774123 0.334457 0.159113
O O12 0.969201 0.491484 0.052773
O O13 0.524960 0.175970 0.246962
O O14 0.756724 0.364879 0.853792
#
# Coordination Sequence:
#
# PCOD9140065 Si02
#       7
#     4   4   4   4   4   4   4
#     4  11  26  57  99 139 201 254 328 408 493 593
#     4  11  22  54  92 130 180 255 313 397 484 581
#     4  12  26  59  97 133 196 254 329 399 494 585
#     4  12  27  61  97 142 200 257 332 401 496 598
#     4  12  27  57  94 136 187 256 324 403 482 588
#     4  11  25  57  95 140 189 248 327 406 486 588
#     4  11  27  59  90 134 191 246 323 402 487 575
#
# _framework density 27.990472
#
# number of rings (size 3 to 8) (size 9 to 14) (size 15 to 20)
#    0.000    0.571    7.143    0.000    0.000    1.143 
#   20.571    7.143    0.000    0.000    0.000    0.000 
#    0.000    0.000    0.000    0.000    0.000    0.000 
#
# Total GULP energy -78552.573900 kJ/mol
# GULP energy per Si atom -5610.898136 kJ/mol
# Density = 2.792676 g / cm^3
# Si number density = 27.990472 Si / 1000 Ang^3
#
#
#
# Elastic Constant Matrix: (Units=GPa)
#
#
# Indices 1 2 3 4 5 6 
#
# 1 185.7247 86.7522 31.8612 0.0000 -30.1003 0.0000
# 2 86.7522 241.8818 54.0916 0.0000 -22.9119 0.0000
# 3 31.8612 54.0916 102.8284 0.0000 -15.8002 0.0000
# 4 0.0000 0.0000 0.0000 49.0536 0.0000 -3.5583
# 5 -30.1003 -22.9119 -15.8002 0.0000 23.3712 0.0000
# 6 0.0000 0.0000 0.0000 -3.5583 0.0000 64.2884
#
#
#
# Elastic Compliance Matrix: (Units=1/GPa)
#
#
# Indices 1 2 3 4 5 6 
#
# 1 0.007576 -0.001954 -0.000128 0.000000 0.007755 0.000000
# 2 -0.001954 0.005424 -0.002028 0.000000 0.001430 0.000000
# 3 -0.000128 -0.002028 0.011718 0.000000 0.005769 0.000000
# 4 0.000000 0.000000 0.000000 0.020468 0.000000 0.001133
# 5 0.007755 0.001430 0.005769 0.000000 0.058077 0.000000
# 6 0.000000 0.000000 0.000000 0.001133 0.000000 0.015618
#
#
# Mechanical properties :
#
#
# Convention : Reuss Voigt Hill
#
# Bulk Modulus (GPa) = 60.61411 97.31608 78.96510
# Shear Modulus (GPa) = 37.70742 51.19129 44.44935
#
# Velocity S-wave (km/s) = 3.67434 4.28118 3.98932
# Velocity P-wave (km/s) = 6.30106 7.69942 7.03507
#
# Compressibility (1/GPa) = 0.01649781
#
# Stress axis : x y z
#
# Youngs Moduli (GPa) = 131.99949 184.36539 85.33975
#
# Poissons Ratio (x) = 0.36023 0.01092
# Poissons Ratio (y) = 0.25791 0.17308
# Poissons Ratio (z) = 0.01688 0.37391
#
# Static dielectric constant tensor:
#      x y z
#    x 2.253210 0.000000 0.103450 
#    y 0.000000 2.147420 0.000000 
#    z 0.103450 0.000000 2.380700 
# 
# From -- ./inp_files/22593.got.cif
#   From: 2010.05.17/outbox.cif.g08.bks.cpg/sg9_12_cif.got.tgz:22593.got - 2010.06.03 20:04:27.
