data_PCOD9140319
_publ_section_title
;
Structure prediction by ZEFSAII (Michael W. Deem and Ramdas Pophale) SiO2 
 PCOD9140319
Probable space group: C C
;
_chemical_formula_sum "Si O2"
_cell_formula_units_Z 32
_cell_length_a 14.801079
_cell_length_b 18.009574
_cell_length_c 5.799799
_cell_angle_alpha 90.000000
_cell_angle_beta 50.977819
_cell_angle_gamma 90.000000
_cell_volume 1201.091661
_symmetry_space_group_name_H-M "C C"
_symmetry_group_IT_number 9
_symmetry_cell_setting 'monoclinic'
loop_
_space_group_symop_operation_xyz
x,y,z
x,-y,1/2+z
1/2+x,1/2+y,z
1/2+x,1/2-y,1/2+z
loop_
_atom_site_type_symbol
_atom_site_label
_atom_site_fract_x
_atom_site_fract_y
_atom_site_fract_z
Si Si1 0.326670 0.171841 0.009510
Si Si2 0.045649 0.487706 0.793227
Si Si3 0.428976 0.720052 0.662185
Si Si4 0.531999 0.823166 0.868240
Si Si5 0.414355 0.562751 0.633018
Si Si6 0.778258 0.087128 0.412444
Si Si7 0.661942 0.751192 0.997331
Si Si8 0.685095 0.533297 0.284689
O O1 0.331882 0.244657 0.155423
O O2 0.257274 0.190636 0.891024
O O3 0.258934 0.105605 0.230567
O O4 0.457731 0.158258 0.717579
O O5 0.984979 0.500928 0.641923
O O6 0.085732 0.401591 0.715495
O O7 0.158122 0.539793 0.635759
O O8 0.453881 0.784632 0.805511
O O9 0.394670 0.639001 0.818245
O O10 0.552944 0.721755 0.326174
O O11 0.619073 0.759742 0.807549
O O12 0.373007 0.602352 0.461224
O O13 0.350141 0.483304 0.680652
O O14 0.545568 0.543660 0.490029
O O15 0.719864 0.167646 0.451979
O O16 0.711461 0.484064 0.470722
#
# Coordination Sequence:
#
# PCOD9140319 Si02
#       8
#     4   4   4   4   4   4   4   4
#     4  11  27  49  75 109 153 211 259 324 405 488
#     4  12  25  45  74 111 156 198 257 330 398 466
#     4  11  26  47  74 110 156 205 265 330 402 488
#     4  11  27  44  74 112 149 205 263 324 401 482
#     4  12  24  44  78 113 157 203 270 333 404 473
#     4  12  23  43  76 114 152 200 265 333 403 465
#     4  11  23  49  73 107 156 199 262 328 403 478
#     4  12  29  53  80 114 159 213 267 330 396 484
#
# _framework density 26.642427999999999
#
# number of rings (size 3 to 8) (size 9 to 14) (size 15 to 20)
#    0.000    0.500    6.250    0.750    3.500    5.000 
#    0.000    0.000    0.000    0.000    0.000    0.000 
#    0.000    0.000    0.000    0.000    0.000    0.000 
#
# Total GULP energy -89093.472923 kJ/mol
# GULP energy per Si atom -5568.342058 kJ/mol
# Density = 2.658179 g / cm^3
# Si number density = 26.642428 Si / 1000 Ang^3
#
#
#
# Elastic Constant Matrix: (Units=GPa)
#
#
# Indices 1 2 3 4 5 6 
#
# 1 82.4768 1.3770 26.5861 0.0000 -2.4868 0.0000
# 2 1.3770 157.6590 22.1327 0.0000 -3.9365 0.0000
# 3 26.5861 22.1327 67.7163 0.0000 -6.1445 0.0000
# 4 0.0000 0.0000 0.0000 23.8461 0.0000 1.7817
# 5 -2.4868 -3.9365 -6.1445 0.0000 40.5955 0.0000
# 6 0.0000 0.0000 0.0000 1.7817 0.0000 47.2428
#
#
#
# Elastic Compliance Matrix: (Units=1/GPa)
#
#
# Indices 1 2 3 4 5 6 
#
# 1 0.013950 0.000679 -0.005694 0.000000 0.000059 0.000000
# 2 0.000679 0.006685 -0.002422 0.000000 0.000323 0.000000
# 3 -0.005694 -0.002422 0.017989 0.000000 0.002139 0.000000
# 4 0.000000 0.000000 0.000000 0.042054 0.000000 -0.001586
# 5 0.000059 0.000323 0.002139 0.000000 0.024992 0.000000
# 6 0.000000 0.000000 0.000000 -0.001586 0.000000 0.021227
#
#
# Mechanical properties :
#
#
# Convention : Reuss Voigt Hill
#
# Bulk Modulus (GPa) = 42.10489 45.33820 43.72154
# Shear Modulus (GPa) = 33.40285 39.52061 36.46173
#
# Velocity S-wave (km/s) = 3.54467 3.85563 3.70342
# Velocity P-wave (km/s) = 5.70885 6.07252 5.89349
#
# Compressibility (1/GPa) = 0.02375021
#
# Stress axis : x y z
#
# Youngs Moduli (GPa) = 71.68258 149.58920 55.59057
#
# Poissons Ratio (x) = -0.10156 0.31651
# Poissons Ratio (y) = -0.04867 0.13465
# Poissons Ratio (z) = 0.40814 0.36233
#
# Static dielectric constant tensor:
#      x y z
#    x 2.010050 0.000000 0.043780 
#    y 0.000000 2.072880 0.000000 
#    z 0.043780 0.000000 2.486410 
# 
# From -- ./inp_files/2568.got.cif
#   From: 2010.05.17/outbox.cif.g08.bks.cpg/sg9_2_cif.got.tgz:2568.got - 2010.06.03 20:04:27.
