data_PCOD9140897
_publ_section_title
;
Structure prediction by ZEFSAII (Michael W. Deem and Ramdas Pophale) SiO2 
 PCOD9140897
Probable space group: C C
;
_chemical_formula_sum "Si O2"
_cell_formula_units_Z 20
_cell_length_a 4.984610
_cell_length_b 13.440639
_cell_length_c 11.614134
_cell_angle_alpha 90.000000
_cell_angle_beta 89.918731
_cell_angle_gamma 90.000000
_cell_volume 778.103729
_symmetry_space_group_name_H-M "C C"
_symmetry_group_IT_number 9
_symmetry_cell_setting 'monoclinic'
loop_
_space_group_symop_operation_xyz
x,y,z
x,-y,1/2+z
1/2+x,1/2+y,z
1/2+x,1/2-y,1/2+z
loop_
_atom_site_type_symbol
_atom_site_label
_atom_site_fract_x
_atom_site_fract_y
_atom_site_fract_z
Si Si1 0.544490 0.343901 0.000000
Si Si2 0.517066 0.238889 0.613412
Si Si3 0.061958 0.936869 0.527469
Si Si4 0.768270 0.976543 0.839523
Si Si5 0.272256 0.914609 0.289414
O O1 0.668883 0.451142 0.041266
O O2 0.398234 0.373065 0.880449
O O3 0.307252 0.304012 0.080858
O O4 0.803332 0.274707 0.007989
O O5 0.537284 0.357307 0.626521
O O6 0.386939 0.175928 0.716556
O O7 0.232628 0.886173 0.424197
O O8 0.781643 0.965730 0.464249
O O9 0.479834 0.992603 0.787319
O O10 0.978738 0.040472 0.765465
#
# Coordination Sequence:
#
# PCOD9140897 Si02
#       5
#     4   4   4   4   4
#     4   9  22  35  59  84 107 152 195 229 283 340
#     4  12  20  36  65  83 109 158 197 218 289 349
#     4   8  23  38  58  79 125 143 185 243 283 320
#     4   8  18  40  54  72 126 143 173 244 289 302
#     4   9  19  35  58  84 115 150 182 244 278 323
#
# _framework density 25.703513000000001
#
# number of rings (size 3 to 8) (size 9 to 14) (size 15 to 20)
#    2.400    0.000    0.000    3.600    2.800    0.000 
#    0.000   10.000    4.400    0.000    0.000    0.000 
#    0.000    0.000    0.000    0.000    0.000    0.000 
#
# Total GULP energy -55673.877434 kJ/mol
# GULP energy per Si atom -5567.387743 kJ/mol
# Density = 2.564501 g / cm^3
# Si number density = 25.703513 Si / 1000 Ang^3
#
#
#
# Elastic Constant Matrix: (Units=GPa)
#
#
# Indices 1 2 3 4 5 6 
#
# 1 136.3484 18.1808 -3.0229 0.0000 -6.9064 0.0000
# 2 18.1808 130.3701 27.0031 0.0000 -1.3977 0.0000
# 3 -3.0229 27.0031 57.5473 0.0000 -9.6893 0.0000
# 4 0.0000 0.0000 0.0000 32.7549 0.0000 6.3214
# 5 -6.9064 -1.3977 -9.6893 0.0000 23.6869 0.0000
# 6 0.0000 0.0000 0.0000 6.3214 0.0000 23.4452
#
#
#
# Elastic Compliance Matrix: (Units=1/GPa)
#
#
# Indices 1 2 3 4 5 6 
#
# 1 0.007689 -0.001355 0.001507 0.000000 0.002779 0.000000
# 2 -0.001355 0.008767 -0.004473 0.000000 -0.001707 0.000000
# 3 0.001507 -0.004473 0.021033 0.000000 0.008779 0.000000
# 4 0.000000 0.000000 0.000000 0.032206 0.000000 -0.008683
# 5 0.002779 -0.001707 0.008779 0.000000 0.046518 0.000000
# 6 0.000000 0.000000 0.000000 -0.008683 0.000000 0.044994
#
#
# Mechanical properties :
#
#
# Convention : Reuss Voigt Hill
#
# Bulk Modulus (GPa) = 34.66242 45.39863 40.03052
# Shear Modulus (GPa) = 27.86084 34.78440 31.32262
#
# Velocity S-wave (km/s) = 3.29588 3.68270 3.49465
# Velocity P-wave (km/s) = 5.29137 5.98196 5.64723
#
# Compressibility (1/GPa) = 0.02884969
#
# Stress axis : x y z
#
# Youngs Moduli (GPa) = 130.05674 114.05783 47.54417
#
# Poissons Ratio (x) = 0.15451 -0.07167
# Poissons Ratio (y) = 0.17619 0.21265
# Poissons Ratio (z) = -0.19605 0.51014
#
# Static dielectric constant tensor:
#      x y z
#    x 1.941940 0.000000 0.048840 
#    y 0.000000 2.031690 0.000000 
#    z 0.048840 0.000000 2.207490 
# 
# From -- ./inp_files/21573.got.cif
#   From: 2010.05.17/outbox.cif.g08.bks.cpg/sg9_11_cif.got.tgz:21573.got - 2010.06.03 20:04:27.
