data_PCOD9140394
_publ_section_title
;
Structure prediction by ZEFSAII (Michael W. Deem and Ramdas Pophale) SiO2 
 PCOD9140394
Probable space group: C C
;
_chemical_formula_sum "Si O2"
_cell_formula_units_Z 32
_cell_length_a 8.790722
_cell_length_b 21.260762
_cell_length_c 12.153136
_cell_angle_alpha 90.000000
_cell_angle_beta 144.099323
_cell_angle_gamma 90.000000
_cell_volume 1331.902110
_symmetry_space_group_name_H-M "C C"
_symmetry_group_IT_number 9
_symmetry_cell_setting 'monoclinic'
loop_
_space_group_symop_operation_xyz
x,y,z
x,-y,1/2+z
1/2+x,1/2+y,z
1/2+x,1/2-y,1/2+z
loop_
_atom_site_type_symbol
_atom_site_label
_atom_site_fract_x
_atom_site_fract_y
_atom_site_fract_z
Si Si1 0.378480 0.951306 0.903930
Si Si2 0.158255 0.193116 0.557885
Si Si3 0.737971 0.389299 0.607506
Si Si4 0.713245 0.094193 0.258133
Si Si5 0.381666 0.817511 0.417597
Si Si6 0.945174 0.023045 0.774968
Si Si7 0.450074 0.758658 0.804082
Si Si8 0.011143 0.676066 0.567921
O O1 0.204696 0.915583 0.710774
O O2 0.454330 0.897645 0.037101
O O3 0.674467 0.971166 0.049482
O O4 0.191608 0.003608 0.845732
O O5 0.906656 0.149341 0.406649
O O6 0.091307 0.263149 0.552867
O O7 0.329073 0.168045 0.759178
O O8 0.279472 0.199629 0.508355
O O9 0.529917 0.417106 0.399441
O O10 0.798752 0.314149 0.646424
O O11 0.012152 0.421241 0.735691
O O12 0.879815 0.035614 0.316027
O O13 0.514170 0.123097 0.052032
O O14 0.132854 0.783450 0.331447
O O15 0.550779 0.803044 0.963283
O O16 0.263666 0.710749 0.760987
#
# Coordination Sequence:
#
# PCOD9140394 Si02
#       8
#     4   4   4   4   4   4   4   4
#     4  11  28  47  76 105 147 194 254 305 379 437
#     4  12  23  44  71 106 150 189 242 303 382 443
#     4  11  26  48  74 105 144 198 247 313 370 450
#     4  12  26  46  71 106 147 190 251 304 372 451
#     4  12  25  43  74 108 146 198 240 307 378 457
#     4  12  27  51  71 107 147 197 253 309 364 457
#     4  11  24  44  70 106 150 188 242 305 381 443
#     4  11  25  43  67 109 145 182 235 308 368 444
#
# _framework density 24.025791000000002
#
# number of rings (size 3 to 8) (size 9 to 14) (size 15 to 20)
#    0.000    0.500    5.000    2.250    7.000    1.000 
#    2.250    0.000    0.000    0.000    0.000    0.000 
#    0.000    0.000    0.000    0.000    0.000    0.000 
#
# Total GULP energy -89238.479262 kJ/mol
# GULP energy per Si atom -5577.404954 kJ/mol
# Density = 2.397111 g / cm^3
# Si number density = 24.025791 Si / 1000 Ang^3
#
#
#
# Elastic Constant Matrix: (Units=GPa)
#
#
# Indices 1 2 3 4 5 6 
#
# 1 59.3187 8.5259 16.9235 0.0000 9.8096 0.0000
# 2 8.5259 96.4395 14.2632 0.0000 -0.3143 0.0000
# 3 16.9235 14.2632 90.7278 0.0000 1.2763 0.0000
# 4 0.0000 0.0000 0.0000 38.6950 0.0000 9.0548
# 5 9.8096 -0.3143 1.2763 0.0000 32.4913 0.0000
# 6 0.0000 0.0000 0.0000 9.0548 0.0000 30.1381
#
#
#
# Elastic Compliance Matrix: (Units=1/GPa)
#
#
# Indices 1 2 3 4 5 6 
#
# 1 0.018883 -0.001206 -0.003254 0.000000 -0.005585 0.000000
# 2 -0.001206 0.010694 -0.001464 0.000000 0.000525 0.000000
# 3 -0.003254 -0.001464 0.011852 0.000000 0.000503 0.000000
# 4 0.000000 0.000000 0.000000 0.027797 0.000000 -0.008352
# 5 -0.005585 0.000525 0.000503 0.000000 0.032449 0.000000
# 6 0.000000 0.000000 0.000000 -0.008352 0.000000 0.035690
#
#
# Mechanical properties :
#
#
# Convention : Reuss Voigt Hill
#
# Bulk Modulus (GPa) = 33.80502 36.21235 35.00868
# Shear Modulus (GPa) = 31.43189 34.04979 32.74084
#
# Velocity S-wave (km/s) = 3.62091 3.76868 3.69553
# Velocity P-wave (km/s) = 5.61980 5.83458 5.72819
#
# Compressibility (1/GPa) = 0.02958141
#
# Stress axis : x y z
#
# Youngs Moduli (GPa) = 52.95643 93.51029 84.37412
#
# Poissons Ratio (x) = 0.11281 0.27456
# Poissons Ratio (y) = 0.06388 0.12349
# Poissons Ratio (z) = 0.17233 0.13686
#
# Static dielectric constant tensor:
#      x y z
#    x 1.929010 0.000000 0.000610 
#    y 0.000000 1.916540 0.000000 
#    z 0.000610 0.000000 2.067580 
# 
# From -- ./inp_files/15642.got.cif
#   From: 2010.05.17/outbox.cif.g08.bks.cpg/sg9_8_cif.got.tgz:15642.got - 2010.06.03 20:04:27.
