data_PCOD9140221
_publ_section_title
;
Structure prediction by ZEFSAII (Michael W. Deem and Ramdas Pophale) SiO2 
 PCOD9140221
Probable space group: C C
;
_chemical_formula_sum "Si O2"
_cell_formula_units_Z 28
_cell_length_a 8.814626
_cell_length_b 11.402331
_cell_length_c 13.630712
_cell_angle_alpha 90.000000
_cell_angle_beta 111.961165
_cell_angle_gamma 90.000000
_cell_volume 1270.576303
_symmetry_space_group_name_H-M "C C"
_symmetry_group_IT_number 9
_symmetry_cell_setting 'monoclinic'
loop_
_space_group_symop_operation_xyz
x,y,z
x,-y,1/2+z
1/2+x,1/2+y,z
1/2+x,1/2-y,1/2+z
loop_
_atom_site_type_symbol
_atom_site_label
_atom_site_fract_x
_atom_site_fract_y
_atom_site_fract_z
Si Si1 0.737580 0.579953 0.652920
Si Si2 0.003583 0.239837 0.484902
Si Si3 0.981945 0.385803 0.747120
Si Si4 0.632840 0.995945 0.475325
Si Si5 0.826317 0.805495 0.755611
Si Si6 0.241973 0.280282 0.096640
Si Si7 0.465101 0.604749 0.084227
O O1 0.667311 0.671270 0.557023
O O2 0.880947 0.488338 0.667841
O O3 0.799551 0.665469 0.751897
O O4 0.581106 0.503181 0.641137
O O5 0.945665 0.172990 0.374038
O O6 0.859047 0.230421 0.529939
O O7 0.039346 0.377250 0.480250
O O8 0.860053 0.272548 0.711167
O O9 0.036823 0.431879 0.867740
O O10 0.148913 0.358610 0.731567
O O11 0.676846 0.086515 0.574187
O O12 0.811262 0.944842 0.486581
O O13 0.902073 0.842409 0.671143
O O14 0.082224 0.197306 0.058120
#
# Coordination Sequence:
#
# PCOD9140221 Si02
#       7
#     4   4   4   4   4   4   4
#     4  11  23  47  67 106 143 180 245 293 363 433
#     4  12  24  48  75 102 154 187 236 306 372 423
#     4  11  23  45  77 101 141 190 240 300 361 423
#     4  12  23  48  71 104 145 189 241 300 365 436
#     4  12  23  46  69 107 142 190 236 307 355 428
#     4  11  25  47  70 106 144 190 246 300 355 441
#     4  11  25  45  69 108 143 186 244 298 359 424
#
# _framework density 22.037246
#
# number of rings (size 3 to 8) (size 9 to 14) (size 15 to 20)
#    0.000    0.571    7.143    0.000    0.000    3.429 
#   12.857    0.000    0.000    0.000    0.000    0.000 
#    0.000    0.000    0.000    0.000    0.000    0.000 
#
# Total GULP energy -78142.660789 kJ/mol
# GULP energy per Si atom -5581.618628 kJ/mol
# Density = 2.198709 g / cm^3
# Si number density = 22.037246 Si / 1000 Ang^3
#
#
#
# Elastic Constant Matrix: (Units=GPa)
#
#
# Indices 1 2 3 4 5 6 
#
# 1 58.3962 53.6382 32.6233 0.0000 13.8867 0.0000
# 2 53.6382 137.4492 40.6218 0.0000 10.1030 0.0000
# 3 32.6233 40.6218 105.6219 0.0000 25.9058 0.0000
# 4 0.0000 0.0000 0.0000 46.5913 0.0000 12.8867
# 5 13.8867 10.1030 25.9058 0.0000 25.0414 0.0000
# 6 0.0000 0.0000 0.0000 12.8867 0.0000 42.1383
#
#
#
# Elastic Compliance Matrix: (Units=1/GPa)
#
#
# Indices 1 2 3 4 5 6 
#
# 1 0.030641 -0.010324 -0.003146 0.000000 -0.009572 0.000000
# 2 -0.010324 0.011687 -0.002082 0.000000 0.003164 0.000000
# 3 -0.003146 -0.002082 0.014212 0.000000 -0.012119 0.000000
# 4 0.000000 0.000000 0.000000 0.023446 0.000000 -0.007170
# 5 -0.009572 0.003164 -0.012119 0.000000 0.056503 0.000000
# 6 0.000000 0.000000 0.000000 -0.007170 0.000000 0.025924
#
#
# Mechanical properties :
#
#
# Convention : Reuss Voigt Hill
#
# Bulk Modulus (GPa) = 39.31294 61.69268 50.50281
# Shear Modulus (GPa) = 24.75296 34.39313 29.57304
#
# Velocity S-wave (km/s) = 3.35510 3.95483 3.66725
# Velocity P-wave (km/s) = 5.73472 6.99355 6.39518
#
# Compressibility (1/GPa) = 0.02543692
#
# Stress axis : x y z
#
# Youngs Moduli (GPa) = 32.63608 85.56482 70.36125
#
# Poissons Ratio (x) = 0.88338 0.22133
# Poissons Ratio (y) = 0.33694 0.14649
# Poissons Ratio (z) = 0.10266 0.17815
#
# Static dielectric constant tensor:
#      x y z
#    x 1.777070 0.000000 0.013170 
#    y 0.000000 1.861330 0.000000 
#    z 0.013170 0.000000 1.856050 
# 
# From -- ./inp_files/14241.got.cif
#   From: 2010.05.17/outbox.cif.g08.bks.cpg/sg9_8_cif.got.tgz:14241.got - 2010.06.03 20:04:27.
