data_PCOD9140051
_publ_section_title
;
Structure prediction by ZEFSAII (Michael W. Deem and Ramdas Pophale) SiO2 
 PCOD9140051
Probable space group: C C
;
_chemical_formula_sum "Si O2"
_cell_formula_units_Z 32
_cell_length_a 15.104075
_cell_length_b 9.272143
_cell_length_c 22.715695
_cell_angle_alpha 90.000000
_cell_angle_beta 153.318103
_cell_angle_gamma 90.000000
_cell_volume 1428.506200
_symmetry_space_group_name_H-M "C C"
_symmetry_group_IT_number 9
_symmetry_cell_setting 'monoclinic'
loop_
_space_group_symop_operation_xyz
x,y,z
x,-y,1/2+z
1/2+x,1/2+y,z
1/2+x,1/2-y,1/2+z
loop_
_atom_site_type_symbol
_atom_site_label
_atom_site_fract_x
_atom_site_fract_y
_atom_site_fract_z
Si Si1 0.570720 0.506378 0.569530
Si Si2 0.774512 0.049204 0.710798
Si Si3 0.634130 0.512946 0.247443
Si Si4 0.759061 0.851692 0.076858
Si Si5 0.427871 0.076986 0.200912
Si Si6 0.156260 0.789596 0.423382
Si Si7 0.202422 0.651296 0.799537
Si Si8 0.960525 0.674095 0.006237
O O1 0.599922 0.501717 0.657125
O O2 0.772541 0.483739 0.654716
O O3 0.410405 0.390798 0.452494
O O4 0.483024 0.661938 0.499819
O O5 0.700386 0.134003 0.608527
O O6 0.708527 0.111562 0.733943
O O7 0.007961 0.074921 0.844827
O O8 0.677828 0.894362 0.643150
O O9 0.437571 0.451046 0.162717
O O10 0.660036 0.679733 0.279651
O O11 0.821843 0.420158 0.380851
O O12 0.798482 0.682190 0.080686
O O13 0.593808 0.851516 0.929442
O O14 0.562194 0.202631 0.308269
O O15 0.544158 0.951766 0.237669
O O16 0.359338 0.829415 0.509868
#
# Coordination Sequence:
#
# PCOD9140051 Si02
#       8
#     4   4   4   4   4   4   4   4
#     4  12  28  50  74 107 150 202 249 321 381 451
#     4  11  27  41  77 108 146 198 257 304 381 447
#     4  12  26  46  78 107 150 191 259 312 383 451
#     4  11  22  47  73 106 143 203 241 305 381 454
#     4  11  24  45  70 101 145 195 249 296 386 440
#     4  11  22  48  75 101 150 199 245 308 379 454
#     4  12  27  48  69 114 150 194 253 322 368 452
#     4  12  26  47  76 108 150 198 257 312 379 457
#
# _framework density 22.401022999999999
#
# number of rings (size 3 to 8) (size 9 to 14) (size 15 to 20)
#    0.000    0.500    5.000    3.000   12.250    0.000 
#    0.000    0.000    0.000    0.000    0.000    0.000 
#    0.000    0.000    0.000    0.000    0.000    0.000 
#
# Total GULP energy -89286.868458 kJ/mol
# GULP energy per Si atom -5580.429279 kJ/mol
# Density = 2.235004 g / cm^3
# Si number density = 22.401023 Si / 1000 Ang^3
#
#
#
# Elastic Constant Matrix: (Units=GPa)
#
#
# Indices 1 2 3 4 5 6 
#
# 1 160.7340 44.4384 43.3820 0.0003 -10.6595 0.0001
# 2 44.4384 136.4203 37.3122 0.0008 8.5460 0.0002
# 3 43.3820 37.3122 80.5920 0.0027 -9.3962 0.0004
# 4 0.0003 0.0008 0.0027 49.4658 0.0004 14.8905
# 5 -10.6595 8.5460 -9.3962 0.0004 45.4313 0.0000
# 6 0.0001 0.0002 0.0004 14.8905 0.0000 31.5593
#
#
#
# Elastic Compliance Matrix: (Units=1/GPa)
#
#
# Indices 1 2 3 4 5 6 
#
# 1 0.007644 -0.001721 -0.003147 0.000000 0.001466 0.000000
# 2 -0.001721 0.009053 -0.003597 0.000000 -0.002851 0.000000
# 3 -0.003147 -0.003597 0.016150 -0.000001 0.003279 0.000000
# 4 0.000000 0.000000 -0.000001 0.023563 0.000000 -0.011117
# 5 0.001466 -0.002851 0.003279 0.000000 0.023570 0.000000
# 6 0.000000 0.000000 0.000000 -0.011117 0.000000 0.036932
#
#
# Mechanical properties :
#
#
# Convention : Reuss Voigt Hill
#
# Bulk Modulus (GPa) = 62.82834 69.77907 66.30371
# Shear Modulus (GPa) = 35.93304 42.13218 39.03261
#
# Velocity S-wave (km/s) = 4.00944 4.34154 4.17879
# Velocity P-wave (km/s) = 7.03862 7.50663 7.27639
#
# Compressibility (1/GPa) = 0.01591638
#
# Stress axis : x y z
#
# Youngs Moduli (GPa) = 130.82364 110.45484 61.91999
#
# Poissons Ratio (x) = 0.19011 0.19485
# Poissons Ratio (y) = 0.22517 0.22275
# Poissons Ratio (z) = 0.41168 0.39736
#
# Static dielectric constant tensor:
#      x y z
#    x 1.832730 0.000000 -0.033000 
#    y 0.000000 1.859610 0.000000 
#    z -0.033000 0.000000 1.977400 
# 
# From -- ./inp_files/35608.got.cif
#   From: 2010.05.17/outbox.cif.g08.bks.cpg/sg9_18_cif.got.tgz:35608.got - 2010.06.03 20:04:27.
