data_PCOD9140964
_publ_section_title
;
Structure prediction by ZEFSAII (Michael W. Deem and Ramdas Pophale) SiO2 
 PCOD9140964
Probable space group: C C
;
_chemical_formula_sum "Si O2"
_cell_formula_units_Z 20
_cell_length_a 7.394292
_cell_length_b 23.591713
_cell_length_c 7.608752
_cell_angle_alpha 90.000000
_cell_angle_beta 37.775739
_cell_angle_gamma 90.000000
_cell_volume 813.068136
_symmetry_space_group_name_H-M "C C"
_symmetry_group_IT_number 9
_symmetry_cell_setting 'monoclinic'
loop_
_space_group_symop_operation_xyz
x,y,z
x,-y,1/2+z
1/2+x,1/2+y,z
1/2+x,1/2-y,1/2+z
loop_
_atom_site_type_symbol
_atom_site_label
_atom_site_fract_x
_atom_site_fract_y
_atom_site_fract_z
Si Si1 0.133830 0.957444 0.169670
Si Si2 0.052542 0.531554 0.655743
Si Si3 0.006442 0.840462 0.113068
Si Si4 0.335295 0.784802 0.178126
Si Si5 0.898291 0.643697 0.969107
O O1 0.412773 0.944463 0.084143
O O2 0.978237 0.899160 0.242647
O O3 0.876489 0.003934 0.406501
O O4 0.314519 0.982448 0.869367
O O5 0.007877 0.580029 0.836321
O O6 0.182271 0.801421 0.112835
O O7 0.680349 0.820297 0.316357
O O8 0.168432 0.853292 0.804291
O O9 0.296676 0.830248 0.362326
O O10 0.173047 0.728788 0.375948
#
# Coordination Sequence:
#
# PCOD9140964 Si02
#       5
#     4   4   4   4   4
#     4  12  24  42  68 104 148 191 239 293 355 435
#     4  12  24  42  68 104 148 191 239 293 355 435
#     4  12  26  47  74 106 148 189 243 302 363 434
#     4  12  28  50  76 106 144 190 246 308 366 424
#     4  12  26  47  74 106 148 189 243 302 363 434
#
# _framework density 24.598184
#
# number of rings (size 3 to 8) (size 9 to 14) (size 15 to 20)
#    0.000    0.000    2.000    9.600    0.000    4.800 
#    0.000    0.000    0.000    0.000    0.000    0.000 
#    0.000    0.000    0.000    0.000    0.000    0.000 
#
# Total GULP energy -55921.759288 kJ/mol
# GULP energy per Si atom -5592.175929 kJ/mol
# Density = 2.454220 g / cm^3
# Si number density = 24.598184 Si / 1000 Ang^3
#
#
#
# Elastic Constant Matrix: (Units=GPa)
#
#
# Indices 1 2 3 4 5 6 
#
# 1 117.9979 15.0575 31.3908 0.0000 -1.4639 0.0000
# 2 15.0575 49.2640 17.0869 0.0000 9.7779 0.0000
# 3 31.3908 17.0869 104.2837 0.0000 -10.8769 0.0000
# 4 0.0000 0.0000 0.0000 26.8784 0.0000 0.5370
# 5 -1.4639 9.7779 -10.8769 0.0000 43.2929 0.0000
# 6 0.0000 0.0000 0.0000 0.5370 0.0000 61.0579
#
#
#
# Elastic Compliance Matrix: (Units=1/GPa)
#
#
# Indices 1 2 3 4 5 6 
#
# 1 0.009397 -0.002044 -0.002477 0.000000 0.000157 0.000000
# 2 -0.002044 0.023542 -0.003906 0.000000 -0.006368 0.000000
# 3 -0.002477 -0.003906 0.011356 0.000000 0.003651 0.000000
# 4 0.000000 0.000000 0.000000 0.037211 0.000000 -0.000327
# 5 0.000157 -0.006368 0.003651 0.000000 0.025459 0.000000
# 6 0.000000 0.000000 0.000000 -0.000327 0.000000 0.016381
#
#
# Mechanical properties :
#
#
# Convention : Reuss Voigt Hill
#
# Bulk Modulus (GPa) = 36.44364 44.29066 40.36715
# Shear Modulus (GPa) = 33.47901 40.11320 36.79611
#
# Velocity S-wave (km/s) = 3.69322 4.04262 3.87187
# Velocity P-wave (km/s) = 5.74755 6.31151 6.03612
#
# Compressibility (1/GPa) = 0.02743963
#
# Stress axis : x y z
#
# Youngs Moduli (GPa) = 106.42251 42.47682 88.06082
#
# Poissons Ratio (x) = 0.08682 0.21814
# Poissons Ratio (y) = 0.21753 0.34399
# Poissons Ratio (z) = 0.26363 0.16593
#
# Static dielectric constant tensor:
#      x y z
#    x 1.971630 0.000000 0.016750 
#    y 0.000000 2.034290 0.000000 
#    z 0.016750 0.000000 1.887590 
# 
# From -- ./inp_files/6194.got.cif
#   From: 2010.05.17/outbox.cif.g08.bks.cpg/sg9_4_cif.got.tgz:6194.got - 2010.06.03 20:04:27.
