data_PCOD9140898
_publ_section_title
;
Structure prediction by ZEFSAII (Michael W. Deem and Ramdas Pophale) SiO2 
 PCOD9140898
Probable space group: C C
;
_chemical_formula_sum "Si O2"
_cell_formula_units_Z 28
_cell_length_a 11.964627
_cell_length_b 19.210639
_cell_length_c 8.416079
_cell_angle_alpha 90.000000
_cell_angle_beta 141.491050
_cell_angle_gamma 90.000000
_cell_volume 1204.441242
_symmetry_space_group_name_H-M "C C"
_symmetry_group_IT_number 9
_symmetry_cell_setting 'monoclinic'
loop_
_space_group_symop_operation_xyz
x,y,z
x,-y,1/2+z
1/2+x,1/2+y,z
1/2+x,1/2-y,1/2+z
loop_
_atom_site_type_symbol
_atom_site_label
_atom_site_fract_x
_atom_site_fract_y
_atom_site_fract_z
Si Si1 0.030820 0.787643 0.301680
Si Si2 0.341357 0.827160 0.423114
Si Si3 0.344675 0.423338 0.231910
Si Si4 0.651705 0.817036 0.226116
Si Si5 0.728461 0.438981 0.748762
Si Si6 0.471170 0.040221 0.215986
Si Si7 0.803370 0.316094 0.024254
O O1 0.206997 0.821613 0.422452
O O2 0.069728 0.730612 0.486735
O O3 0.902269 0.852603 0.199947
O O4 0.956135 0.742072 0.073205
O O5 0.457547 0.895863 0.578330
O O6 0.260366 0.829696 0.158273
O O7 0.248989 0.385802 0.274139
O O8 0.530823 0.463584 0.473583
O O9 0.183883 0.469583 0.979133
O O10 0.784940 0.764005 0.459215
O O11 0.502525 0.835364 0.189711
O O12 0.873455 0.436919 0.769770
O O13 0.686124 0.363455 0.776190
O O14 0.834899 0.482390 0.999225
#
# Coordination Sequence:
#
# PCOD9140898 Si02
#       7
#     4   4   4   4   4   4   4
#     4  12  20  40  72 105 142 188 234 292 367 435
#     4  12  23  40  67 108 149 181 235 303 358 432
#     4  12  24  44  78 104 138 190 246 286 370 426
#     4  12  20  40  72 105 142 188 234 292 367 435
#     4  12  26  48  71 100 142 195 246 297 354 433
#     4  12  26  48  71 100 142 195 246 297 354 433
#     4  12  23  40  67 108 149 181 235 303 358 432
#
# _framework density 23.247295999999999
#
# number of rings (size 3 to 8) (size 9 to 14) (size 15 to 20)
#    0.000    0.000    8.571    1.714    0.000    1.143 
#    0.000    0.000    0.000    0.000    0.000    0.000 
#    0.000    0.000    0.000    0.000    0.000    0.000 
#
# Total GULP energy -78174.009998 kJ/mol
# GULP energy per Si atom -5583.857857 kJ/mol
# Density = 2.319438 g / cm^3
# Si number density = 23.247296 Si / 1000 Ang^3
#
#
#
# Elastic Constant Matrix: (Units=GPa)
#
#
# Indices 1 2 3 4 5 6 
#
# 1 77.1425 1.2518 25.5166 0.0000 4.4358 0.0000
# 2 1.2518 51.7568 25.3074 0.0000 4.4332 0.0000
# 3 25.5166 25.3074 96.4136 0.0000 24.0889 0.0000
# 4 0.0000 0.0000 0.0000 38.1205 0.0000 2.4741
# 5 4.4358 4.4332 24.0889 0.0000 49.3969 0.0000
# 6 0.0000 0.0000 0.0000 2.4741 0.0000 12.2049
#
#
#
# Elastic Compliance Matrix: (Units=1/GPa)
#
#
# Indices 1 2 3 4 5 6 
#
# 1 0.014363 0.001764 -0.004444 0.000000 0.000719 0.000000
# 2 0.001764 0.022423 -0.006616 0.000000 0.001056 0.000000
# 3 -0.004444 -0.006616 0.014846 0.000000 -0.006247 0.000000
# 4 0.000000 0.000000 0.000000 0.026582 0.000000 -0.005389
# 5 0.000719 0.001056 -0.006247 0.000000 0.023131 0.000000
# 6 0.000000 0.000000 0.000000 -0.005389 0.000000 0.083027
#
#
# Mechanical properties :
#
#
# Convention : Reuss Voigt Hill
#
# Bulk Modulus (GPa) = 30.26728 36.60715 33.43721
# Shear Modulus (GPa) = 23.36692 31.49361 27.43027
#
# Velocity S-wave (km/s) = 3.17384 3.68465 3.43874
# Velocity P-wave (km/s) = 5.14578 5.82093 5.49373
#
# Compressibility (1/GPa) = 0.03303898
#
# Stress axis : x y z
#
# Youngs Moduli (GPa) = 69.62347 44.59653 67.36018
#
# Poissons Ratio (x) = -0.07867 0.29934
# Poissons Ratio (y) = -0.12281 0.44569
# Poissons Ratio (z) = 0.30940 0.29507
#
# Static dielectric constant tensor:
#      x y z
#    x 1.861550 0.000000 0.033120 
#    y 0.000000 1.990240 0.000000 
#    z 0.033120 0.000000 1.946180 
# 
# From -- ./inp_files/6123.got.cif
#   From: 2010.05.17/outbox.cif.g08.bks.cpg/sg9_4_cif.got.tgz:6123.got - 2010.06.03 20:04:27.
