data_PCOD9140374
_publ_section_title
;
Structure prediction by ZEFSAII (Michael W. Deem and Ramdas Pophale) SiO2 
 PCOD9140374
Probable space group: C C
;
_chemical_formula_sum "Si O2"
_cell_formula_units_Z 32
_cell_length_a 15.072187
_cell_length_b 17.110004
_cell_length_c 5.001590
_cell_angle_alpha 90.000000
_cell_angle_beta 100.297236
_cell_angle_gamma 90.000000
_cell_volume 1269.061404
_symmetry_space_group_name_H-M "C C"
_symmetry_group_IT_number 9
_symmetry_cell_setting 'monoclinic'
loop_
_space_group_symop_operation_xyz
x,y,z
x,-y,1/2+z
1/2+x,1/2+y,z
1/2+x,1/2-y,1/2+z
loop_
_atom_site_type_symbol
_atom_site_label
_atom_site_fract_x
_atom_site_fract_y
_atom_site_fract_z
Si Si1 0.443510 0.946013 0.719820
Si Si2 0.333985 0.210534 0.141894
Si Si3 0.999693 0.785206 0.550889
Si Si4 0.117207 0.657476 0.368152
Si Si5 0.986806 0.114492 0.569162
Si Si6 0.785167 0.051092 0.480797
Si Si7 0.163304 0.045629 0.536845
Si Si8 0.722054 0.722451 0.585634
O O1 0.370862 0.877482 0.643916
O O2 0.541301 0.904780 0.739418
O O3 0.434986 0.015892 0.505630
O O4 0.410862 0.257183 0.343221
O O5 0.249071 0.222439 0.290947
O O6 0.306641 0.236456 0.830734
O O7 0.987451 0.818060 0.840543
O O8 0.067132 0.712743 0.555467
O O9 0.028818 0.855690 0.371229
O O10 0.206073 0.611388 0.508223
O O11 0.149957 0.715023 0.149484
O O12 0.885827 0.084615 0.563299
O O13 0.054598 0.050130 0.490140
O O14 0.775257 0.977233 0.671096
O O15 0.193354 0.133154 0.618308
O O16 0.195651 0.016261 0.270303
#
# Coordination Sequence:
#
# PCOD9140374 Si02
#       8
#     4   4   4   4   4   4   4   4
#     4  11  25  46  72 102 142 191 236 292 353 425
#     4  11  25  43  68 101 138 181 236 286 354 417
#     4  11  24  43  71 102 135 184 228 295 349 420
#     4  11  26  45  72 107 146 182 237 294 358 429
#     4  12  24  46  70  99 140 182 240 282 354 424
#     4  12  26  45  71 105 143 190 235 293 356 423
#     4  12  26  45  68 100 139 183 237 296 353 423
#     4  12  26  45  70 104 141 185 235 294 359 419
#
# _framework density 25.215488000000001
#
# number of rings (size 3 to 8) (size 9 to 14) (size 15 to 20)
#    0.000    0.500    1.250    6.750    1.750    9.000 
#    0.000    0.000    0.000    0.000    0.000    0.000 
#    0.000    0.000    0.000    0.000    0.000    0.000 
#
# Total GULP energy -89710.237230 kJ/mol
# GULP energy per Si atom -5606.889827 kJ/mol
# Density = 2.515810 g / cm^3
# Si number density = 25.215488 Si / 1000 Ang^3
#
#
#
# Elastic Constant Matrix: (Units=GPa)
#
#
# Indices 1 2 3 4 5 6 
#
# 1 71.6485 10.3997 13.6506 0.0000 3.3796 0.0000
# 2 10.3997 67.0136 -0.5456 0.0000 0.6486 0.0000
# 3 13.6506 -0.5456 93.4600 0.0000 3.1980 0.0000
# 4 0.0000 0.0000 0.0000 38.7357 0.0000 4.8466
# 5 3.3796 0.6486 3.1980 0.0000 30.5170 0.0000
# 6 0.0000 0.0000 0.0000 4.8466 0.0000 58.1246
#
#
#
# Elastic Compliance Matrix: (Units=1/GPa)
#
#
# Indices 1 2 3 4 5 6 
#
# 1 0.014759 -0.002294 -0.002122 0.000000 -0.001363 0.000000
# 2 -0.002294 0.015283 0.000428 0.000000 -0.000116 0.000000
# 3 -0.002122 0.000428 0.011044 0.000000 -0.000931 0.000000
# 4 0.000000 0.000000 0.000000 0.026088 0.000000 -0.002175
# 5 -0.001363 -0.000116 -0.000931 0.000000 0.033020 0.000000
# 6 0.000000 0.000000 0.000000 -0.002175 0.000000 0.017386
#
#
# Mechanical properties :
#
#
# Convention : Reuss Voigt Hill
#
# Bulk Modulus (GPa) = 30.20346 31.01462 30.60904
# Shear Modulus (GPa) = 36.60513 39.38329 37.99421
#
# Velocity S-wave (km/s) = 3.81424 3.95634 3.88594
# Velocity P-wave (km/s) = 5.60375 5.76165 5.68325
#
# Compressibility (1/GPa) = 0.03310879
#
# Stress axis : x y z
#
# Youngs Moduli (GPa) = 67.75651 65.43211 90.54588
#
# Poissons Ratio (x) = 0.15013 0.19217
# Poissons Ratio (y) = 0.15546 -0.03878
# Poissons Ratio (z) = 0.14381 -0.02802
#
# Static dielectric constant tensor:
#      x y z
#    x 2.046390 0.000000 0.018700 
#    y 0.000000 1.968610 0.000000 
#    z 0.018700 0.000000 1.904590 
# 
# From -- ./inp_files/2528.got.cif
#   From: 2010.05.17/outbox.cif.g08.bks.cpg/sg9_2_cif.got.tgz:2528.got - 2010.06.03 20:04:27.
