data_PCOD9140815
_publ_section_title
;
Structure prediction by ZEFSAII (Michael W. Deem and Ramdas Pophale) SiO2 
 PCOD9140815
Probable space group: C C
;
_chemical_formula_sum "Si O2"
_cell_formula_units_Z 32
_cell_length_a 18.299909
_cell_length_b 6.132256
_cell_length_c 14.063372
_cell_angle_alpha 90.000000
_cell_angle_beta 61.318195
_cell_angle_gamma 90.000000
_cell_volume 1384.541948
_symmetry_space_group_name_H-M "C C"
_symmetry_group_IT_number 9
_symmetry_cell_setting 'monoclinic'
loop_
_space_group_symop_operation_xyz
x,y,z
x,-y,1/2+z
1/2+x,1/2+y,z
1/2+x,1/2-y,1/2+z
loop_
_atom_site_type_symbol
_atom_site_label
_atom_site_fract_x
_atom_site_fract_y
_atom_site_fract_z
Si Si1 0.612490 0.002993 0.386240
Si Si2 0.173492 0.889574 0.094170
Si Si3 0.721177 0.604531 0.254901
Si Si4 0.884448 0.786146 0.062552
Si Si5 0.014848 0.625229 0.127326
Si Si6 0.333455 0.402993 0.449074
Si Si7 0.960723 0.528071 0.350999
Si Si8 0.748173 0.288239 0.395350
O O1 0.650037 0.763931 0.340066
O O2 0.560795 0.003246 0.515395
O O3 0.549635 0.076277 0.343866
O O4 0.690024 0.151747 0.361369
O O5 0.083893 0.791543 0.125148
O O6 0.181088 0.952565 0.199389
O O7 0.245040 0.711315 0.024956
O O8 0.198445 0.098287 0.013345
O O9 0.791703 0.731240 0.152897
O O10 0.769606 0.487020 0.311408
O O11 0.943831 0.756391 0.115123
O O12 0.916723 0.626821 0.956924
O O13 0.877122 0.020441 0.019372
O O14 0.983237 0.462540 0.229327
O O15 0.399009 0.229075 0.370270
O O16 0.313719 0.615035 0.396718
#
# Coordination Sequence:
#
# PCOD9140815 Si02
#       8
#     4   4   4   4   4   4   4   4
#     4  11  27  47  76 112 151 194 256 308 392 449
#     4  12  26  49  74 113 145 198 257 309 382 461
#     4  12  26  46  80 110 149 199 265 313 372 459
#     4  11  28  46  74 109 154 196 252 315 377 451
#     4  11  26  47  71 105 157 189 247 308 378 453
#     4  12  25  49  73 111 148 197 255 309 386 454
#     4  11  27  49  71 113 154 195 253 319 379 463
#     4  12  25  45  81 105 148 198 253 315 368 464
#
# _framework density 23.112335000000002
#
# number of rings (size 3 to 8) (size 9 to 14) (size 15 to 20)
#    0.000    0.500    5.000    0.750   12.250    2.000 
#    0.000    0.000    0.000    0.000    0.000    0.000 
#    0.000    0.000    0.000    0.000    0.000    0.000 
#
# Total GULP energy -89428.827338 kJ/mol
# GULP energy per Si atom -5589.301709 kJ/mol
# Density = 2.305973 g / cm^3
# Si number density = 23.112335 Si / 1000 Ang^3
#
#
#
# Elastic Constant Matrix: (Units=GPa)
#
#
# Indices 1 2 3 4 5 6 
#
# 1 119.9618 24.3236 19.1945 -0.0001 22.9538 -0.0001
# 2 24.3236 52.2695 20.2626 -0.0001 13.7275 -0.0002
# 3 19.1945 20.2626 121.5469 0.0000 28.5896 -0.0001
# 4 -0.0001 -0.0001 0.0000 11.2560 0.0000 19.1470
# 5 22.9538 13.7275 28.5896 0.0000 35.6694 0.0000
# 6 -0.0001 -0.0002 -0.0001 19.1470 0.0000 26.8519
#
#
#
# Elastic Compliance Matrix: (Units=1/GPa)
#
#
# Indices 1 2 3 4 5 6 
#
# 1 0.009997 -0.003342 0.000233 0.000000 -0.005334 0.000000
# 2 -0.003342 0.022801 -0.002114 0.000000 -0.004931 0.000000
# 3 0.000233 -0.002114 0.010335 0.000000 -0.007620 0.000000
# 4 0.000000 0.000000 0.000000 -0.417196 0.000000 0.297485
# 5 -0.005334 -0.004931 -0.007620 0.000000 0.039473 0.000000
# 6 0.000000 0.000000 0.000000 0.297485 0.000000 -0.174883
#
#
# Mechanical properties :
#
#
# Convention : Reuss Voigt Hill
#
# Bulk Modulus (GPa) = 30.59169 46.81551 38.70360
# Shear Modulus (GPa) = -10.24311 30.08864 9.92276
#
# Velocity S-wave (km/s) = -2.10749 3.61202 2.07427
# Velocity P-wave (km/s) = 2.70976 6.13964 4.74542
#
# Compressibility (1/GPa) = 0.03268861
#
# Stress axis : x y z
#
# Youngs Moduli (GPa) = 100.03173 43.85804 96.75616
#
# Poissons Ratio (x) = 0.14655 -0.02254
# Poissons Ratio (y) = 0.33426 0.20450
# Poissons Ratio (z) = -0.02330 0.09270
#
# Static dielectric constant tensor:
#      x y z
#    x 1.861860 0.000000 -0.009590 
#    y 0.000000 1.880180 0.000000 
#    z -0.009590 0.000000 1.883740 
# 
# From -- ./inp_files/26445.got.cif
#   From: 2010.05.17/outbox.cif.g08.bks.cpg/sg9_14_cif.got.tgz:26445.got - 2010.06.03 20:04:27.
