data_PCOD9140516
_publ_section_title
;
Structure prediction by ZEFSAII (Michael W. Deem and Ramdas Pophale) SiO2 
 PCOD9140516
Probable space group: C C
;
_chemical_formula_sum "Si O2"
_cell_formula_units_Z 24
_cell_length_a 10.284761
_cell_length_b 12.129321
_cell_length_c 13.422773
_cell_angle_alpha 90.000000
_cell_angle_beta 140.646478
_cell_angle_gamma 90.000000
_cell_volume 1061.776398
_symmetry_space_group_name_H-M "C C"
_symmetry_group_IT_number 9
_symmetry_cell_setting 'monoclinic'
loop_
_space_group_symop_operation_xyz
x,y,z
x,-y,1/2+z
1/2+x,1/2+y,z
1/2+x,1/2-y,1/2+z
loop_
_atom_site_type_symbol
_atom_site_label
_atom_site_fract_x
_atom_site_fract_y
_atom_site_fract_z
Si Si1 0.248000 0.705324 0.560850
Si Si2 0.493562 0.099289 0.680172
Si Si3 0.705482 0.325311 0.359392
Si Si4 0.778705 0.913372 0.878739
Si Si5 0.803839 0.696441 0.379711
Si Si6 0.726173 0.506380 0.700292
O O1 0.461243 0.675907 0.737797
O O2 0.300935 0.812608 0.524858
O O3 0.209493 0.611329 0.453316
O O4 0.042681 0.722911 0.498931
O O5 0.647107 0.201864 0.792442
O O6 0.326359 0.134365 0.498994
O O7 0.382975 0.053133 0.712547
O O8 0.640790 0.997858 0.736171
O O9 0.771648 0.213631 0.339380
O O10 0.755810 0.424727 0.319426
O O11 0.003019 0.964428 0.024204
O O12 0.741664 0.617252 0.250822
#
# Coordination Sequence:
#
# PCOD9140516 Si02
#       6
#     4   4   4   4   4   4
#     4   9  19  41  64  96 128 172 234 270 343 416
#     4  12  27  45  71 103 144 185 236 292 356 419
#     4   9  20  38  72  93 131 184 218 291 346 402
#     4   9  22  44  66  97 134 184 230 286 348 409
#     4  12  26  45  71 103 140 187 226 300 352 414
#     4  11  24  47  66 104 145 174 246 285 343 436
#
# _framework density 22.603629000000002
#
# number of rings (size 3 to 8) (size 9 to 14) (size 15 to 20)
#    1.000    0.667    1.667    2.000    4.667    1.333 
#    6.000    0.000    0.000    0.000    0.000    0.000 
#    0.000    0.000    0.000    0.000    0.000    0.000 
#
# Total GULP energy -66919.931319 kJ/mol
# GULP energy per Si atom -5576.660943 kJ/mol
# Density = 2.255218 g / cm^3
# Si number density = 22.603629 Si / 1000 Ang^3
#
#
#
# Elastic Constant Matrix: (Units=GPa)
#
#
# Indices 1 2 3 4 5 6 
#
# 1 86.5257 28.0986 18.6264 0.0000 9.2355 0.0000
# 2 28.0986 127.9252 38.2937 0.0000 12.5878 0.0000
# 3 18.6264 38.2937 60.2708 0.0000 4.5114 0.0000
# 4 0.0000 0.0000 0.0000 47.4893 0.0000 -3.3970
# 5 9.2355 12.5878 4.5114 0.0000 22.6545 0.0000
# 6 0.0000 0.0000 0.0000 -3.3970 0.0000 20.9190
#
#
#
# Elastic Compliance Matrix: (Units=1/GPa)
#
#
# Indices 1 2 3 4 5 6 
#
# 1 0.013097 -0.001694 -0.002682 0.000000 -0.003864 0.000000
# 2 -0.001694 0.010283 -0.005720 0.000000 -0.003884 0.000000
# 3 -0.002682 -0.005720 0.021049 0.000000 0.000080 0.000000
# 4 0.000000 0.000000 0.000000 0.021305 0.000000 0.003460
# 5 -0.003864 -0.003884 0.000080 0.000000 0.047859 0.000000
# 6 0.000000 0.000000 0.000000 0.003460 0.000000 0.048365
#
#
# Mechanical properties :
#
#
# Convention : Reuss Voigt Hill
#
# Bulk Modulus (GPa) = 41.25690 49.41768 45.33729
# Shear Modulus (GPa) = 26.28414 30.85942 28.57178
#
# Velocity S-wave (km/s) = 3.41373 3.69893 3.55918
# Velocity P-wave (km/s) = 5.81636 6.33663 6.08206
#
# Compressibility (1/GPa) = 0.02423837
#
# Stress axis : x y z
#
# Youngs Moduli (GPa) = 76.35277 97.24416 47.50884
#
# Poissons Ratio (x) = 0.16469 0.12743
# Poissons Ratio (y) = 0.12931 0.27173
# Poissons Ratio (z) = 0.20480 0.55619
#
# Static dielectric constant tensor:
#      x y z
#    x 1.852460 0.000000 -0.010010 
#    y 0.000000 1.880980 0.000000 
#    z -0.010010 0.000000 1.842250 
# 
# From -- ./inp_files/24751.got.cif
#   From: 2010.05.17/outbox.cif.g08.bks.cpg/sg9_13_cif.got.tgz:24751.got - 2010.06.03 20:04:27.
