data_PCOD9140589
_publ_section_title
;
Structure prediction by ZEFSAII (Michael W. Deem and Ramdas Pophale) SiO2 
 PCOD9140589
Probable space group: C C
;
_chemical_formula_sum "Si O2"
_cell_formula_units_Z 24
_cell_length_a 10.006885
_cell_length_b 10.044442
_cell_length_c 11.820315
_cell_angle_alpha 90.000000
_cell_angle_beta 57.812086
_cell_angle_gamma 90.000000
_cell_volume 1005.497429
_symmetry_space_group_name_H-M "C C"
_symmetry_group_IT_number 9
_symmetry_cell_setting 'monoclinic'
loop_
_space_group_symop_operation_xyz
x,y,z
x,-y,1/2+z
1/2+x,1/2+y,z
1/2+x,1/2-y,1/2+z
loop_
_atom_site_type_symbol
_atom_site_label
_atom_site_fract_x
_atom_site_fract_y
_atom_site_fract_z
Si Si1 0.216570 0.305754 0.140970
Si Si2 0.694431 0.910242 0.923136
Si Si3 0.551419 0.930662 0.776388
Si Si4 0.064426 0.952067 0.781045
Si Si5 0.554944 0.805507 0.538515
Si Si6 0.700386 0.464856 0.967712
O O1 0.182328 0.456332 0.192230
O O2 0.120708 0.201537 0.257177
O O3 0.397279 0.262860 0.063430
O O4 0.156697 0.308502 0.039840
O O5 0.632093 0.845941 0.837572
O O6 0.876117 0.951686 0.853302
O O7 0.599406 0.049640 0.971985
O O8 0.521690 0.838432 0.683642
O O9 0.384818 0.000621 0.878402
O O10 0.120357 0.006209 0.881068
O O11 0.133309 0.999527 0.625227
O O12 0.690848 0.696342 0.470669
#
# Coordination Sequence:
#
# PCOD9140589 Si02
#       6
#     4   4   4   4   4   4
#     4  11  24  49  75 103 158 202 245 313 388 448
#     4  11  26  45  76 113 143 202 265 304 382 463
#     4  11  26  45  76 113 143 202 265 304 382 463
#     4  12  27  46  76 111 156 202 251 318 384 452
#     4  11  24  49  75 103 158 202 245 313 388 448
#     4  12  27  46  76 111 156 202 251 318 384 452
#
# _framework density 23.868783000000001
#
# number of rings (size 3 to 8) (size 9 to 14) (size 15 to 20)
#    0.000    0.667    3.333    3.000    9.333    2.667 
#    0.000    0.000    0.000    0.000    0.000    0.000 
#    0.000    0.000    0.000    0.000    0.000    0.000 
#
# Total GULP energy -66989.471549 kJ/mol
# GULP energy per Si atom -5582.455962 kJ/mol
# Density = 2.381446 g / cm^3
# Si number density = 23.868783 Si / 1000 Ang^3
#
#
#
# Elastic Constant Matrix: (Units=GPa)
#
#
# Indices 1 2 3 4 5 6 
#
# 1 107.9715 -0.8390 43.8255 0.0000 1.9546 0.0000
# 2 -0.8390 68.7575 4.9910 0.0000 -4.5417 0.0000
# 3 43.8255 4.9910 138.0634 0.0000 25.7532 0.0000
# 4 0.0000 0.0000 0.0000 37.1386 0.0000 -9.5622
# 5 1.9546 -4.5417 25.7532 0.0000 48.6858 0.0000
# 6 0.0000 0.0000 0.0000 -9.5622 0.0000 30.0482
#
#
#
# Elastic Compliance Matrix: (Units=1/GPa)
#
#
# Indices 1 2 3 4 5 6 
#
# 1 0.010750 0.000506 -0.003727 0.000000 0.001587 0.000000
# 2 0.000506 0.014753 -0.001051 0.000000 0.001912 0.000000
# 3 -0.003727 -0.001051 0.009380 0.000000 -0.004910 0.000000
# 4 0.000000 0.000000 0.000000 0.029329 0.000000 0.009333
# 5 0.001587 0.001912 -0.004910 0.000000 0.023252 0.000000
# 6 0.000000 0.000000 0.000000 0.009333 0.000000 0.036250
#
#
# Mechanical properties :
#
#
# Convention : Reuss Voigt Hill
#
# Bulk Modulus (GPa) = 37.96437 45.63861 41.80149
# Shear Modulus (GPa) = 35.45231 40.96219 38.20725
#
# Velocity S-wave (km/s) = 3.85814 4.14713 4.00524
# Velocity P-wave (km/s) = 5.98222 6.48796 6.24022
#
# Compressibility (1/GPa) = 0.02634048
#
# Stress axis : x y z
#
# Youngs Moduli (GPa) = 93.02754 67.78475 106.61177
#
# Poissons Ratio (x) = -0.03433 0.39729
# Poissons Ratio (y) = -0.04712 0.11201
# Poissons Ratio (z) = 0.34667 0.07122
#
# Static dielectric constant tensor:
#      x y z
#    x 1.930470 0.000000 0.100650 
#    y 0.000000 1.878820 0.000000 
#    z 0.100650 0.000000 2.087880 
# 
# From -- ./inp_files/14181.got.cif
#   From: 2010.05.17/outbox.cif.g08.bks.cpg/sg9_8_cif.got.tgz:14181.got - 2010.06.03 20:04:27.
