data_PCOD9140853
_publ_section_title
;
Structure prediction by ZEFSAII (Michael W. Deem and Ramdas Pophale) SiO2 
 PCOD9140853
Probable space group: C C
;
_chemical_formula_sum "Si O2"
_cell_formula_units_Z 32
_cell_length_a 18.394084
_cell_length_b 5.302060
_cell_length_c 12.973391
_cell_angle_alpha 90.000000
_cell_angle_beta 88.843460
_cell_angle_gamma 90.000000
_cell_volume 1264.992142
_symmetry_space_group_name_H-M "C C"
_symmetry_group_IT_number 9
_symmetry_cell_setting 'monoclinic'
loop_
_space_group_symop_operation_xyz
x,y,z
x,-y,1/2+z
1/2+x,1/2+y,z
1/2+x,1/2-y,1/2+z
loop_
_atom_site_type_symbol
_atom_site_label
_atom_site_fract_x
_atom_site_fract_y
_atom_site_fract_z
Si Si1 0.620400 0.721445 0.026140
Si Si2 0.699123 0.635025 0.681199
Si Si3 0.346923 0.863905 0.677258
Si Si4 0.757837 0.996070 0.043129
Si Si5 0.869854 0.240863 0.902039
Si Si6 0.508697 0.935014 0.639745
Si Si7 0.964750 0.253259 0.424823
Si Si8 0.565960 0.559559 0.814004
O O1 0.659732 0.489062 0.082607
O O2 0.690808 0.877510 0.983466
O O3 0.567255 0.850839 0.111933
O O4 0.571133 0.671413 0.928488
O O5 0.780561 0.548326 0.697321
O O6 0.713121 0.920734 0.647087
O O7 0.648600 0.548541 0.774556
O O8 0.319352 0.693534 0.583206
O O9 0.353017 0.706952 0.781949
O O10 0.423518 0.002758 0.656454
O O11 0.799324 0.211238 0.977368
O O12 0.912951 0.504576 0.910914
O O13 0.919851 0.004589 0.928207
O O14 0.506283 0.785092 0.531185
O O15 0.529672 0.746291 0.731682
O O16 0.022289 0.201291 0.330922
#
# Coordination Sequence:
#
# PCOD9140853 Si02
#       8
#     4   4   4   4   4   4   4   4
#     4  11  28  49  79 116 162 217 274 336 414 488
#     4  11  27  49  75 114 158 213 266 339 401 488
#     4  11  27  47  81 114 153 213 269 337 402 493
#     4  11  26  51  76 115 164 208 269 336 409 483
#     4  12  28  49  82 117 162 210 273 332 408 485
#     4  12  25  52  78 116 158 207 269 342 402 484
#     4  12  28  51  77 122 158 215 266 341 403 479
#     4  12  27  48  80 114 157 215 272 333 413 490
#
# _framework density 25.296602
#
# number of rings (size 3 to 8) (size 9 to 14) (size 15 to 20)
#    0.000    0.500    3.750    2.250    8.750    0.000 
#    0.000    0.000    0.000    0.000    0.000    0.000 
#    0.000    0.000    0.000    0.000    0.000    0.000 
#
# Total GULP energy -89522.842318 kJ/mol
# GULP energy per Si atom -5595.177645 kJ/mol
# Density = 2.523903 g / cm^3
# Si number density = 25.296602 Si / 1000 Ang^3
#
#
#
# Elastic Constant Matrix: (Units=GPa)
#
#
# Indices 1 2 3 4 5 6 
#
# 1 190.2332 51.9754 43.9657 0.0000 -12.5279 0.0000
# 2 51.9754 88.2325 13.4148 0.0000 0.5920 0.0000
# 3 43.9657 13.4148 82.3878 0.0000 -16.1955 0.0000
# 4 0.0000 0.0000 0.0000 31.1650 0.0000 -11.0453
# 5 -12.5279 0.5920 -16.1955 0.0000 48.3367 0.0000
# 6 0.0000 0.0000 0.0000 -11.0453 0.0000 51.0004
#
#
#
# Elastic Compliance Matrix: (Units=1/GPa)
#
#
# Indices 1 2 3 4 5 6 
#
# 1 0.007006 -0.003681 -0.002969 0.000000 0.000866 0.000000
# 2 -0.003681 0.013587 -0.000501 0.000000 -0.001288 0.000000
# 3 -0.002969 -0.000501 0.014616 0.000000 0.004134 0.000000
# 4 0.000000 0.000000 0.000000 0.034755 0.000000 0.007527
# 5 0.000866 -0.001288 0.004134 0.000000 0.022314 0.000000
# 6 0.000000 0.000000 0.000000 0.007527 0.000000 0.021238
#
#
# Mechanical properties :
#
#
# Convention : Reuss Voigt Hill
#
# Bulk Modulus (GPa) = 47.83201 64.39616 56.11409
# Shear Modulus (GPa) = 37.09561 42.86691 39.98126
#
# Velocity S-wave (km/s) = 3.83355 4.12098 3.97986
# Velocity P-wave (km/s) = 6.20841 6.93938 6.58405
#
# Compressibility (1/GPa) = 0.02090650
#
# Stress axis : x y z
#
# Youngs Moduli (GPa) = 142.74091 73.59935 68.41692
#
# Poissons Ratio (x) = 0.27094 0.20312
# Poissons Ratio (y) = 0.52547 0.03428
# Poissons Ratio (z) = 0.42378 0.03688
#
# Static dielectric constant tensor:
#      x y z
#    x 2.029070 0.000000 -0.029370 
#    y 0.000000 2.106950 0.000000 
#    z -0.029370 0.000000 2.030930 
# 
# From -- ./inp_files/26373.got.cif
#   From: 2010.05.17/outbox.cif.g08.bks.cpg/sg9_14_cif.got.tgz:26373.got - 2010.06.03 20:04:27.
