data_PCOD9140309
_publ_section_title
;
Structure prediction by ZEFSAII (Michael W. Deem and Ramdas Pophale) SiO2 
 PCOD9140309
Probable space group: C C
;
_chemical_formula_sum "Si O2"
_cell_formula_units_Z 20
_cell_length_a 7.504516
_cell_length_b 11.517624
_cell_length_c 10.569493
_cell_angle_alpha 90.000000
_cell_angle_beta 53.578517
_cell_angle_gamma 90.000000
_cell_volume 735.119966
_symmetry_space_group_name_H-M "C C"
_symmetry_group_IT_number 9
_symmetry_cell_setting 'monoclinic'
loop_
_space_group_symop_operation_xyz
x,y,z
x,-y,1/2+z
1/2+x,1/2+y,z
1/2+x,1/2-y,1/2+z
loop_
_atom_site_type_symbol
_atom_site_label
_atom_site_fract_x
_atom_site_fract_y
_atom_site_fract_z
Si Si1 0.307110 0.500694 0.834630
Si Si2 0.393802 0.149596 0.606814
Si Si3 0.931379 0.261183 0.822007
Si Si4 0.713283 0.333453 0.649158
Si Si5 0.493552 0.100472 0.788419
O O1 0.341821 0.629219 0.876609
O O2 0.534459 0.433562 0.727534
O O3 0.200998 0.526706 0.741208
O O4 0.132387 0.421518 0.980862
O O5 0.349190 0.157797 0.470849
O O6 0.325904 0.059948 0.752758
O O7 0.196530 0.247871 0.716751
O O8 0.836990 0.301067 0.726105
O O9 0.566174 0.217461 0.677680
O O10 0.876730 0.357692 0.464671
#
# Coordination Sequence:
#
# PCOD9140309 Si02
#       5
#     4   4   4   4   4
#     4  11  26  46  75 107 145 200 252 302 368 444
#     4  12  26  45  74 110 149 190 247 311 374 441
#     4  11  26  48  73 108 149 195 248 308 372 443
#     4  11  23  48  77 104 150 197 250 307 365 445
#     4  11  25  45  73 109 145 192 247 308 371 439
#
# _framework density 27.206441000000002
#
# number of rings (size 3 to 8) (size 9 to 14) (size 15 to 20)
#    0.000    0.800    0.000    7.200    0.000    9.600 
#    0.000    4.000    0.000    0.000    0.000    0.000 
#    0.000    0.000    0.000    0.000    0.000    0.000 
#
# Total GULP energy -55721.072702 kJ/mol
# GULP energy per Si atom -5572.107270 kJ/mol
# Density = 2.714452 g / cm^3
# Si number density = 27.206441 Si / 1000 Ang^3
#
#
#
# Elastic Constant Matrix: (Units=GPa)
#
#
# Indices 1 2 3 4 5 6 
#
# 1 231.3614 90.7068 90.5376 -0.0090 12.9480 0.0088
# 2 90.7068 153.1401 54.9290 -0.0040 -1.3840 0.0038
# 3 90.5376 54.9290 136.9857 -0.0037 32.1006 0.0037
# 4 -0.0090 -0.0040 -0.0037 -251.8752 0.0034 278.9988
# 5 12.9480 -1.3840 32.1006 0.0034 39.9697 -0.0034
# 6 0.0088 0.0038 0.0037 278.9988 -0.0034 -234.8192
#
#
#
# Elastic Compliance Matrix: (Units=1/GPa)
#
#
# Indices 1 2 3 4 5 6 
#
# 1 0.006722 -0.002733 -0.003467 0.000000 0.000512 0.000000
# 2 -0.002733 0.009121 -0.002627 0.000000 0.003311 0.000000
# 3 -0.003467 -0.002627 0.012814 0.000000 -0.009259 0.000000
# 4 0.000000 0.000000 0.000000 0.012560 0.000000 0.014924
# 5 0.000512 0.003311 -0.009259 0.000000 0.032404 0.000000
# 6 0.000000 0.000000 0.000000 0.014924 0.000000 0.013473
#
#
# Mechanical properties :
#
#
# Convention : Reuss Voigt Hill
#
# Bulk Modulus (GPa) = 90.87703 110.42601 100.65152
# Shear Modulus (GPa) = 46.11889 -70.32402 -12.10256
#
# Velocity S-wave (km/s) = 4.12168 -5.08964 -2.11142
# Velocity P-wave (km/s) = 7.49175 2.47731 5.57958
#
# Compressibility (1/GPa) = 0.01100388
#
# Stress axis : x y z
#
# Youngs Moduli (GPa) = 148.77043 109.63654 78.03842
#
# Poissons Ratio (x) = 0.29968 0.27052
# Poissons Ratio (y) = 0.40664 0.20498
# Poissons Ratio (z) = 0.51572 0.28798
#
# Static dielectric constant tensor:
#      x y z
#    x 2.382480 0.000010 0.012700 
#    y 0.000010 5.609480 0.000000 
#    z 0.012700 0.000000 2.113770 
# 
# From -- ./inp_files/14156.got.cif
#   From: 2010.05.17/outbox.cif.g08.bks.cpg/sg9_8_cif.got.tgz:14156.got - 2010.06.03 20:04:27.
