data_PCOD9140638
_publ_section_title
;
Structure prediction by ZEFSAII (Michael W. Deem and Ramdas Pophale) SiO2 
 PCOD9140638
Probable space group: C C
;
_chemical_formula_sum "Si O2"
_cell_formula_units_Z 24
_cell_length_a 4.795025
_cell_length_b 18.874266
_cell_length_c 10.031454
_cell_angle_alpha 90.000000
_cell_angle_beta 81.514833
_cell_angle_gamma 90.000000
_cell_volume 897.934957
_symmetry_space_group_name_H-M "C C"
_symmetry_group_IT_number 9
_symmetry_cell_setting 'monoclinic'
loop_
_space_group_symop_operation_xyz
x,y,z
x,-y,1/2+z
1/2+x,1/2+y,z
1/2+x,1/2-y,1/2+z
loop_
_atom_site_type_symbol
_atom_site_label
_atom_site_fract_x
_atom_site_fract_y
_atom_site_fract_z
Si Si1 0.398410 0.854240 0.580880
Si Si2 0.335910 0.321595 0.334346
Si Si3 0.412078 0.263920 0.733068
Si Si4 0.350852 0.018683 0.558253
Si Si5 0.715874 0.108613 0.334075
Si Si6 0.823177 0.033468 0.724834
O O1 0.628121 0.811754 0.476172
O O2 0.541421 0.863534 0.716334
O O3 0.099886 0.813297 0.614897
O O4 0.369400 0.934550 0.526631
O O5 0.613160 0.276860 0.278869
O O6 0.387986 0.404974 0.322666
O O7 0.125222 0.301153 0.230371
O O8 0.394993 0.322217 0.854422
O O9 0.509770 0.071741 0.450252
O O10 0.508463 0.028468 0.690021
O O11 0.030551 0.043086 0.586636
O O12 0.906423 0.043461 0.273058
#
# Coordination Sequence:
#
# PCOD9140638 Si02
#       6
#     4   4   4   4   4   4
#     4  11  26  51  77 113 157 197 250 324 382 444
#     4  12  28  48  76 112 156 199 250 313 387 452
#     4  12  27  47  72 111 154 200 249 302 385 454
#     4  11  25  44  82 107 149 191 258 322 370 444
#     4  11  25  50  76 110 147 200 257 310 376 450
#     4  11  25  46  73 113 143 195 258 307 376 454
#
# _framework density 26.727993999999999
#
# number of rings (size 3 to 8) (size 9 to 14) (size 15 to 20)
#    0.000    0.667    5.000    1.000    4.667    4.000 
#    0.000    0.000    0.000    0.000    0.000    0.000 
#    0.000    0.000    0.000    0.000    0.000    0.000 
#
# Total GULP energy -66952.428785 kJ/mol
# GULP energy per Si atom -5579.369065 kJ/mol
# Density = 2.666716 g / cm^3
# Si number density = 26.727994 Si / 1000 Ang^3
#
#
#
# Elastic Constant Matrix: (Units=GPa)
#
#
# Indices 1 2 3 4 5 6 
#
# 1 140.0457 68.7577 49.8724 0.0000 -58.0681 0.0000
# 2 68.7577 136.3609 31.4581 0.0000 -11.2631 0.0000
# 3 49.8724 31.4581 78.1881 0.0000 -28.1381 0.0000
# 4 0.0000 0.0000 0.0000 46.9831 0.0000 -18.7856
# 5 -58.0681 -11.2631 -28.1381 0.0000 46.3092 0.0000
# 6 0.0000 0.0000 0.0000 -18.7856 0.0000 32.3527
#
#
#
# Elastic Compliance Matrix: (Units=1/GPa)
#
#
# Indices 1 2 3 4 5 6 
#
# 1 0.022456 -0.008851 -0.001797 0.000000 0.024913 0.000000
# 2 -0.008851 0.011572 -0.002549 0.000000 -0.009832 0.000000
# 3 -0.001797 -0.002549 0.017825 0.000000 0.007958 0.000000
# 4 0.000000 0.000000 0.000000 0.027720 0.000000 0.016096
# 5 0.024913 -0.009832 0.007958 0.000000 0.055277 0.000000
# 6 0.000000 0.000000 0.000000 0.016096 0.000000 0.040255
#
#
# Mechanical properties :
#
#
# Convention : Reuss Voigt Hill
#
# Bulk Modulus (GPa) = 39.27657 72.75235 56.01446
# Shear Modulus (GPa) = 23.81123 38.76276 31.28700
#
# Velocity S-wave (km/s) = 2.98799 3.81237 3.42507
# Velocity P-wave (km/s) = 5.16051 6.83063 6.05345
#
# Compressibility (1/GPa) = 0.02546047
#
# Stress axis : x y z
#
# Youngs Moduli (GPa) = 44.53207 86.41417 56.10065
#
# Poissons Ratio (x) = 0.76482 0.10080
# Poissons Ratio (y) = 0.39414 0.14300
# Poissons Ratio (z) = 0.08001 0.22027
#
# Static dielectric constant tensor:
#      x y z
#    x 2.153100 0.000000 0.087530 
#    y 0.000000 2.090310 0.000000 
#    z 0.087530 0.000000 2.261690 
# 
# From -- ./inp_files/13049.got.cif
#   From: 2010.05.17/outbox.cif.g08.bks.cpg/sg9_7_cif.got.tgz:13049.got - 2010.06.03 20:04:27.
