data_PCOD9140442
_publ_section_title
;
Structure prediction by ZEFSAII (Michael W. Deem and Ramdas Pophale) SiO2 
 PCOD9140442
Probable space group: C C
;
_chemical_formula_sum "Si O2"
_cell_formula_units_Z 32
_cell_length_a 32.000104
_cell_length_b 5.386199
_cell_length_c 8.639167
_cell_angle_alpha 90.000000
_cell_angle_beta 50.702011
_cell_angle_gamma 90.000000
_cell_volume 1152.310243
_symmetry_space_group_name_H-M "C C"
_symmetry_group_IT_number 9
_symmetry_cell_setting 'monoclinic'
loop_
_space_group_symop_operation_xyz
x,y,z
x,-y,1/2+z
1/2+x,1/2+y,z
1/2+x,1/2-y,1/2+z
loop_
_atom_site_type_symbol
_atom_site_label
_atom_site_fract_x
_atom_site_fract_y
_atom_site_fract_z
Si Si1 0.114390 0.770294 0.556560
Si Si2 0.537505 0.131986 0.194627
Si Si3 0.934888 0.314439 0.476775
Si Si4 0.769328 0.971141 0.918487
Si Si5 0.773474 0.358631 0.111175
Si Si6 0.174597 0.189780 0.234150
Si Si7 0.514500 0.478547 0.972287
Si Si8 0.867646 0.682775 0.849098
O O1 0.097645 0.494898 0.527405
O O2 0.129321 0.992844 0.406026
O O3 0.156474 0.794206 0.597167
O O4 0.058933 0.817225 0.776681
O O5 0.532246 0.244345 0.381069
O O6 0.487871 0.947661 0.282005
O O7 0.521492 0.368537 0.126026
O O8 0.904928 0.529085 0.643657
O O9 0.901284 0.206570 0.412829
O O10 0.956592 0.100865 0.540252
O O11 0.765313 0.848673 0.761312
O O12 0.822465 0.853550 0.874619
O O13 0.710045 0.948302 0.142284
O O14 0.779638 0.258919 0.919720
O O15 0.724874 0.547164 0.200595
O O16 0.830043 0.477609 0.018148
#
# Coordination Sequence:
#
# PCOD9140442 Si02
#       8
#     4   4   4   4   4   4   4   4
#     4  11  26  48  77 106 146 197 254 320 386 460
#     4  11  27  48  73 111 150 197 261 317 382 461
#     4  11  24  45  73 105 147 204 256 318 372 452
#     4  11  26  44  72 110 151 201 255 318 378 457
#     4  11  26  43  73 111 151 200 257 315 380 455
#     4  11  25  50  74 107 146 197 253 317 381 466
#     4  11  26  46  74 104 150 196 254 319 382 455
#     4  11  24  46  70 106 155 200 260 310 381 452
#
# _framework density 27.770299000000001
#
# number of rings (size 3 to 8) (size 9 to 14) (size 15 to 20)
#    0.000    1.000    3.750    0.750    5.250    8.000 
#    0.000    1.250    0.000    0.000    0.000    0.000 
#    0.000    0.000    0.000    0.000    0.000    0.000 
#
# Total GULP energy -89219.916023 kJ/mol
# GULP energy per Si atom -5576.244751 kJ/mol
# Density = 2.770709 g / cm^3
# Si number density = 27.770299 Si / 1000 Ang^3
#
#
#
# Elastic Constant Matrix: (Units=GPa)
#
#
# Indices 1 2 3 4 5 6 
#
# 1 195.6463 12.4615 34.9999 0.0000 17.3473 0.0000
# 2 12.4615 51.1460 3.2053 0.0000 15.6137 0.0000
# 3 34.9999 3.2053 70.0062 0.0000 1.7505 0.0000
# 4 0.0000 0.0000 0.0000 -12.5631 0.0000 30.5444
# 5 17.3473 15.6137 1.7505 0.0000 41.0090 0.0000
# 6 0.0000 0.0000 0.0000 30.5444 0.0000 27.2164
#
#
#
# Elastic Compliance Matrix: (Units=1/GPa)
#
#
# Indices 1 2 3 4 5 6 
#
# 1 0.005846 -0.000598 -0.002842 0.000000 -0.002124 0.000000
# 2 -0.000598 0.022230 -0.000514 0.000000 -0.008189 0.000000
# 3 -0.002842 -0.000514 0.015711 0.000000 0.000727 0.000000
# 4 0.000000 0.000000 0.000000 -0.021348 0.000000 0.023959
# 5 -0.002124 -0.008189 0.000727 0.000000 0.028370 0.000000
# 6 0.000000 0.000000 0.000000 0.023959 0.000000 0.009854
#
#
# Mechanical properties :
#
#
# Convention : Reuss Voigt Hill
#
# Bulk Modulus (GPa) = 27.87228 46.45911 37.16570
# Shear Modulus (GPa) = 62.08799 28.87458 45.48128
#
# Velocity S-wave (km/s) = 4.73352 3.22804 4.05132
# Velocity P-wave (km/s) = 6.31930 5.53712 5.94109
#
# Compressibility (1/GPa) = 0.03587794
#
# Stress axis : x y z
#
# Youngs Moduli (GPa) = 171.05274 44.98505 63.65039
#
# Poissons Ratio (x) = 0.02689 0.18091
# Poissons Ratio (y) = 0.10226 0.03273
# Poissons Ratio (z) = 0.48619 0.02313
#
# Static dielectric constant tensor:
#      x y z
#    x 2.128820 0.000000 -0.059210 
#    y 0.000000 2.402710 0.000000 
#    z -0.059210 0.000000 2.278560 
# 
# From -- ./inp_files/12624.got.cif
#   From: 2010.05.17/outbox.cif.g08.bks.cpg/sg9_7_cif.got.tgz:12624.got - 2010.06.03 20:04:27.
