data_PCOD9140208
_publ_section_title
;
Structure prediction by ZEFSAII (Michael W. Deem and Ramdas Pophale) SiO2 
 PCOD9140208
Probable space group: C C
;
_chemical_formula_sum "Si O2"
_cell_formula_units_Z 32
_cell_length_a 10.919022
_cell_length_b 9.271079
_cell_length_c 14.104835
_cell_angle_alpha 90.000000
_cell_angle_beta 85.884054
_cell_angle_gamma 90.000000
_cell_volume 1424.165541
_symmetry_space_group_name_H-M "C C"
_symmetry_group_IT_number 9
_symmetry_cell_setting 'monoclinic'
loop_
_space_group_symop_operation_xyz
x,y,z
x,-y,1/2+z
1/2+x,1/2+y,z
1/2+x,1/2-y,1/2+z
loop_
_atom_site_type_symbol
_atom_site_label
_atom_site_fract_x
_atom_site_fract_y
_atom_site_fract_z
Si Si1 0.586620 0.722053 0.666510
Si Si2 0.002610 0.477705 0.979559
Si Si3 0.165692 0.540819 0.706254
Si Si4 0.396735 0.827251 0.813658
Si Si5 0.896885 0.957063 0.069052
Si Si6 0.780409 0.522536 0.136922
Si Si7 0.752223 0.920835 0.409010
Si Si8 0.054531 0.221645 0.107859
O O1 0.616153 0.891046 0.668648
O O2 0.496385 0.715015 0.763927
O O3 0.504064 0.657053 0.585652
O O4 0.711186 0.628720 0.662530
O O5 0.121097 0.579554 0.968420
O O6 0.957118 0.448153 0.875966
O O7 0.050078 0.324548 0.017308
O O8 0.890488 0.514161 0.055369
O O9 0.278632 0.589659 0.634695
O O10 0.219726 0.518524 0.807204
O O11 0.066260 0.668275 0.696135
O O12 0.329100 0.903120 0.729928
O O13 0.305990 0.736589 0.885369
O O14 0.942151 0.110606 0.109321
O O15 0.849629 0.988576 0.965603
O O16 0.672853 0.621003 0.101148
#
# Coordination Sequence:
#
# PCOD9140208 Si02
#       8
#     4   4   4   4   4   4   4   4
#     4  11  25  46  74 105 146 194 243 304 371 434
#     4  12  26  44  71 110 146 192 249 305 361 444
#     4  12  23  46  71 104 148 194 241 300 374 434
#     4  12  25  47  72 109 149 189 251 308 364 441
#     4  11  24  45  71 106 145 192 242 304 370 438
#     4  11  27  48  74 106 148 198 241 309 371 434
#     4  12  25  45  75 107 147 195 246 300 369 445
#     4  11  23  45  72  99 145 188 239 298 368 428
#
# _framework density 22.469298999999999
#
# number of rings (size 3 to 8) (size 9 to 14) (size 15 to 20)
#    0.000    0.500    6.250    1.500    0.000    1.000 
#    0.000    2.500    0.000    0.000    0.000    0.000 
#    0.000    0.000    0.000    0.000    0.000    0.000 
#
# Total GULP energy -89441.724008 kJ/mol
# GULP energy per Si atom -5590.107751 kJ/mol
# Density = 2.241816 g / cm^3
# Si number density = 22.469299 Si / 1000 Ang^3
#
#
#
# Elastic Constant Matrix: (Units=GPa)
#
#
# Indices 1 2 3 4 5 6 
#
# 1 86.6353 36.8185 22.0566 0.0000 10.2899 0.0000
# 2 36.8185 103.0895 15.0095 0.0000 4.0730 0.0000
# 3 22.0566 15.0095 109.9093 0.0000 36.5284 0.0000
# 4 0.0000 0.0000 0.0000 33.2452 0.0000 -1.5713
# 5 10.2899 4.0730 36.5284 0.0000 39.2704 0.0000
# 6 0.0000 0.0000 0.0000 -1.5713 0.0000 39.4517
#
#
#
# Elastic Compliance Matrix: (Units=1/GPa)
#
#
# Indices 1 2 3 4 5 6 
#
# 1 0.014183 -0.004761 -0.001629 0.000000 -0.001708 0.000000
# 2 -0.004761 0.011498 -0.000916 0.000000 0.000907 0.000000
# 3 -0.001629 -0.000916 0.013573 0.000000 -0.012103 0.000000
# 4 0.000000 0.000000 0.000000 0.030136 0.000000 0.001200
# 5 -0.001708 0.000907 -0.012103 0.000000 0.037076 0.000000
# 6 0.000000 0.000000 0.000000 0.001200 0.000000 0.025395
#
#
# Mechanical properties :
#
#
# Convention : Reuss Voigt Hill
#
# Bulk Modulus (GPa) = 40.57979 49.71147 45.14563
# Shear Modulus (GPa) = 32.32300 37.44342 34.88321
#
# Velocity S-wave (km/s) = 3.79692 4.08662 3.94443
# Velocity P-wave (km/s) = 6.10913 6.66629 6.39378
#
# Compressibility (1/GPa) = 0.02464281
#
# Stress axis : x y z
#
# Youngs Moduli (GPa) = 70.50462 86.96948 73.67595
#
# Poissons Ratio (x) = 0.41407 0.11999
# Poissons Ratio (y) = 0.33568 0.06751
# Poissons Ratio (z) = 0.11482 0.07969
#
# Static dielectric constant tensor:
#      x y z
#    x 1.871570 0.000000 0.006980 
#    y 0.000000 1.841310 0.000000 
#    z 0.006980 0.000000 1.835680 
# 
# From -- ./inp_files/24246.got.cif
#   From: 2010.05.17/outbox.cif.g08.bks.cpg/sg9_13_cif.got.tgz:24246.got - 2010.06.03 20:04:27.
