data_PCOD9140320
_publ_section_title
;
Structure prediction by ZEFSAII (Michael W. Deem and Ramdas Pophale) SiO2 
 PCOD9140320
Probable space group: C C
;
_chemical_formula_sum "Si O2"
_cell_formula_units_Z 28
_cell_length_a 8.506690
_cell_length_b 11.640170
_cell_length_c 11.300116
_cell_angle_alpha 90.000000
_cell_angle_beta 87.473891
_cell_angle_gamma 90.000000
_cell_volume 1117.842447
_symmetry_space_group_name_H-M "C C"
_symmetry_group_IT_number 9
_symmetry_cell_setting 'monoclinic'
loop_
_space_group_symop_operation_xyz
x,y,z
x,-y,1/2+z
1/2+x,1/2+y,z
1/2+x,1/2-y,1/2+z
loop_
_atom_site_type_symbol
_atom_site_label
_atom_site_fract_x
_atom_site_fract_y
_atom_site_fract_z
Si Si1 0.355550 0.294078 0.281070
Si Si2 0.617454 0.624940 0.941665
Si Si3 0.848594 0.411325 0.945671
Si Si4 0.555333 0.209809 0.076778
Si Si5 0.876004 0.177247 0.398519
Si Si6 0.404889 0.743186 0.138127
Si Si7 0.144966 0.470303 0.373240
O O1 0.507904 0.362120 0.328422
O O2 0.303245 0.209096 0.387075
O O3 0.409724 0.215316 0.171719
O O4 0.217514 0.387036 0.271055
O O5 0.717553 0.509266 0.950950
O O6 0.744503 0.727103 0.931723
O O7 0.502017 0.654202 0.054230
O O8 0.990343 0.455968 0.857028
O O9 0.914782 0.367580 0.071655
O O10 0.717440 0.220450 0.141268
O O11 0.504617 0.316800 0.996476
O O12 0.584988 0.104646 0.987120
O O13 0.948667 0.218316 0.271677
O O14 0.785974 0.057254 0.397702
#
# Coordination Sequence:
#
# PCOD9140320 Si02
#       7
#     4   4   4   4   4   4   4
#     4  11  26  49  75 111 153 197 257 323 383 464
#     4  11  23  49  74 109 150 200 253 321 382 461
#     4  11  24  49  76 107 154 204 252 318 397 452
#     4  12  26  48  77 113 150 206 257 314 398 460
#     4  12  27  49  75 116 150 202 266 310 393 467
#     4  11  25  51  73 110 161 193 257 331 374 467
#     4  12  25  49  76 110 154 200 258 319 387 467
#
# _framework density 25.048254
#
# number of rings (size 3 to 8) (size 9 to 14) (size 15 to 20)
#    0.000    0.571    8.571    0.000    2.000    5.714 
#    2.571    0.000    0.000    0.000    0.000    0.000 
#    0.000    0.000    0.000    0.000    0.000    0.000 
#
# Total GULP energy -78277.949965 kJ/mol
# GULP energy per Si atom -5591.282140 kJ/mol
# Density = 2.499124 g / cm^3
# Si number density = 25.048254 Si / 1000 Ang^3
#
#
#
# Elastic Constant Matrix: (Units=GPa)
#
#
# Indices 1 2 3 4 5 6 
#
# 1 40.3513 22.2805 -1.4869 0.0000 -4.6524 0.0000
# 2 22.2805 122.3660 0.3912 0.0000 -11.7286 0.0000
# 3 -1.4869 0.3912 90.0762 0.0000 -16.7944 0.0000
# 4 0.0000 0.0000 0.0000 20.2082 0.0000 -10.4705
# 5 -4.6524 -11.7286 -16.7944 0.0000 35.5740 0.0000
# 6 0.0000 0.0000 0.0000 -10.4705 0.0000 72.1696
#
#
#
# Elastic Compliance Matrix: (Units=1/GPa)
#
#
# Indices 1 2 3 4 5 6 
#
# 1 0.027765 -0.004820 0.000943 0.000000 0.002487 0.000000
# 2 -0.004820 0.009299 0.000366 0.000000 0.002608 0.000000
# 3 0.000943 0.000366 0.012238 0.000000 0.006022 0.000000
# 4 0.000000 0.000000 0.000000 0.053507 0.000000 0.007763
# 5 0.002487 0.002608 0.006022 0.000000 0.032139 0.000000
# 6 0.000000 0.000000 0.000000 0.007763 0.000000 0.014982
#
#
# Mechanical properties :
#
#
# Convention : Reuss Voigt Hill
#
# Bulk Modulus (GPa) = 23.65132 32.79588 28.22360
# Shear Modulus (GPa) = 29.23192 41.03095 35.13143
#
# Velocity S-wave (km/s) = 3.41988 4.05171 3.74913
# Velocity P-wave (km/s) = 5.00569 5.91692 5.48028
#
# Compressibility (1/GPa) = 0.04228095
#
# Stress axis : x y z
#
# Youngs Moduli (GPa) = 36.01604 107.54204 81.70977
#
# Poissons Ratio (x) = 0.51837 -0.07705
# Poissons Ratio (y) = 0.17360 -0.02994
# Poissons Ratio (z) = -0.03396 -0.03940
#
# Static dielectric constant tensor:
#      x y z
#    x 2.044060 0.000000 0.015090 
#    y 0.000000 1.963240 0.000000 
#    z 0.015090 0.000000 2.010700 
# 
# From -- ./inp_files/14217.got.cif
#   From: 2010.05.17/outbox.cif.g08.bks.cpg/sg9_8_cif.got.tgz:14217.got - 2010.06.03 20:04:27.
