data_PCOD9140845
_publ_section_title
;
Structure prediction by ZEFSAII (Michael W. Deem and Ramdas Pophale) SiO2 
 PCOD9140845
Probable space group: C C
;
_chemical_formula_sum "Si O2"
_cell_formula_units_Z 28
_cell_length_a 11.005351
_cell_length_b 8.763636
_cell_length_c 20.001549
_cell_angle_alpha 90.000000
_cell_angle_beta 36.702167
_cell_angle_gamma 90.000000
_cell_volume 1152.929519
_symmetry_space_group_name_H-M "C C"
_symmetry_group_IT_number 9
_symmetry_cell_setting 'monoclinic'
loop_
_space_group_symop_operation_xyz
x,y,z
x,-y,1/2+z
1/2+x,1/2+y,z
1/2+x,1/2-y,1/2+z
loop_
_atom_site_type_symbol
_atom_site_label
_atom_site_fract_x
_atom_site_fract_y
_atom_site_fract_z
Si Si1 0.604170 0.741098 0.725270
Si Si2 0.317607 0.480535 0.200339
Si Si3 0.458861 0.160605 0.099602
Si Si4 0.896929 0.994014 0.411256
Si Si5 0.691523 0.522951 0.100388
Si Si6 0.884967 0.340643 0.384540
Si Si7 0.263460 0.948005 0.823343
O O1 0.552029 0.616656 0.803981
O O2 0.709342 0.652448 0.617290
O O3 0.381522 0.810207 0.807690
O O4 0.747831 0.876899 0.686778
O O5 0.449659 0.343666 0.110053
O O6 0.446237 0.540459 0.206755
O O7 0.110307 0.391285 0.307581
O O8 0.348360 0.082544 0.211732
O O9 0.329479 0.116019 0.091164
O O10 0.683654 0.092010 0.005310
O O11 0.862280 0.160173 0.395092
O O12 0.020608 0.036592 0.424417
O O13 0.749149 0.578106 0.000922
O O14 0.842198 0.407403 0.330205
#
# Coordination Sequence:
#
# PCOD9140845 Si02
#       7
#     4   4   4   4   4   4   4
#     4  11  26  49  81 112 157 204 266 315 400 445
#     4  11  27  52  74 115 160 201 260 332 371 475
#     4  12  28  48  79 111 159 203 262 314 401 451
#     4  12  28  50  79 115 153 212 255 327 384 470
#     4  12  27  49  78 117 151 207 253 329 378 473
#     4  11  28  49  80 112 159 203 267 312 400 450
#     4  11  26  53  73 112 155 208 251 333 372 472
#
# _framework density 24.285958999999998
#
# number of rings (size 3 to 8) (size 9 to 14) (size 15 to 20)
#    0.000    0.571    4.286    0.000   10.000   10.286 
#    0.000    0.000    0.000    0.000    0.000    0.000 
#    0.000    0.000    0.000    0.000    0.000    0.000 
#
# Total GULP energy -78239.777477 kJ/mol
# GULP energy per Si atom -5588.555534 kJ/mol
# Density = 2.423068 g / cm^3
# Si number density = 24.285959 Si / 1000 Ang^3
#
#
#
# Elastic Constant Matrix: (Units=GPa)
#
#
# Indices 1 2 3 4 5 6 
#
# 1 168.4022 79.6804 45.9027 0.0000 -18.4914 0.0000
# 2 79.6804 205.7039 73.1517 0.0000 -7.5442 0.0000
# 3 45.9027 73.1517 61.5920 -0.0001 -2.0845 0.0000
# 4 0.0000 0.0000 -0.0001 39.2208 0.0000 -3.1886
# 5 -18.4914 -7.5442 -2.0845 0.0000 25.0635 0.0000
# 6 0.0000 0.0000 0.0000 -3.1886 0.0000 35.9602
#
#
#
# Elastic Compliance Matrix: (Units=1/GPa)
#
#
# Indices 1 2 3 4 5 6 
#
# 1 0.008424 -0.001554 -0.004250 0.000000 0.005394 0.000000
# 2 -0.001554 0.008776 -0.009240 0.000000 0.000727 0.000000
# 3 -0.004250 -0.009240 0.030263 0.000000 -0.003400 0.000000
# 4 0.000000 0.000000 0.000000 0.025682 0.000000 0.002277
# 5 0.005394 0.000727 -0.003400 0.000000 0.043814 0.000000
# 6 0.000000 0.000000 0.000000 0.002277 0.000000 0.028010
#
#
# Mechanical properties :
#
#
# Convention : Reuss Voigt Hill
#
# Bulk Modulus (GPa) = 57.55670 92.57417 75.06544
# Shear Modulus (GPa) = 27.64723 35.84645 31.74684
#
# Velocity S-wave (km/s) = 3.37768 3.84606 3.61946
# Velocity P-wave (km/s) = 6.24201 7.61079 6.96013
#
# Compressibility (1/GPa) = 0.01737417
#
# Stress axis : x y z
#
# Youngs Moduli (GPa) = 118.70567 113.94803 33.04363
#
# Poissons Ratio (x) = 0.17706 0.14044
# Poissons Ratio (y) = 0.18445 0.30534
# Poissons Ratio (z) = 0.50453 1.05292
#
# Static dielectric constant tensor:
#      x y z
#    x 1.959430 0.000000 -0.003940 
#    y 0.000000 1.909010 0.000000 
#    z -0.003940 0.000000 2.003420 
# 
# From -- ./inp_files/33198.got.cif
#   From: 2010.05.17/outbox.cif.g08.bks.cpg/sg9_17_cif.got.tgz:33198.got - 2010.06.03 20:04:27.
