data_PCOD9140913
_publ_section_title
;
Structure prediction by ZEFSAII (Michael W. Deem and Ramdas Pophale) SiO2 
 PCOD9140913
Probable space group: C C
;
_chemical_formula_sum "Si O2"
_cell_formula_units_Z 24
_cell_length_a 10.736760
_cell_length_b 22.521346
_cell_length_c 9.485150
_cell_angle_alpha 90.000000
_cell_angle_beta 29.216558
_cell_angle_gamma 90.000000
_cell_volume 1119.518288
_symmetry_space_group_name_H-M "C C"
_symmetry_group_IT_number 9
_symmetry_cell_setting 'monoclinic'
loop_
_space_group_symop_operation_xyz
x,y,z
x,-y,1/2+z
1/2+x,1/2+y,z
1/2+x,1/2-y,1/2+z
loop_
_atom_site_type_symbol
_atom_site_label
_atom_site_fract_x
_atom_site_fract_y
_atom_site_fract_z
Si Si1 0.514520 0.106876 0.973030
Si Si2 0.460955 0.790403 0.756031
Si Si3 0.510617 0.537836 0.399274
Si Si4 0.988729 0.717473 0.816545
Si Si5 0.977354 0.659159 0.553934
Si Si6 0.979505 0.079544 0.103601
O O1 0.784180 0.074168 0.699369
O O2 0.501910 0.150075 0.851246
O O3 0.480884 0.152793 0.133872
O O4 0.281938 0.061479 0.187463
O O5 0.699447 0.746312 0.495937
O O6 0.472410 0.816306 0.901743
O O7 0.490100 0.550216 0.250762
O O8 0.481848 0.470582 0.480043
O O9 0.985024 0.714640 0.652509
O O10 0.235465 0.752272 0.622901
O O11 0.226259 0.618907 0.335747
O O12 0.725081 0.621160 0.838251
#
# Coordination Sequence:
#
# PCOD9140913 Si02
#       6
#     4   4   4   4   4   4
#     4  12  25  45  69 101 138 173 227 280 333 405
#     4  12  26  46  69 102 141 182 226 270 336 404
#     4  12  26  46  71 101 133 177 228 281 343 401
#     4  12  22  40  67  96 129 172 216 270 332 390
#     4  12  25  45  69 101 138 173 227 280 333 405
#     4  12  26  46  71 101 133 177 228 281 343 401
#
# _framework density 21.437792000000002
#
# number of rings (size 3 to 8) (size 9 to 14) (size 15 to 20)
#    0.000    0.000    3.333    7.000    4.667    0.000 
#    0.000    0.000    0.000    0.000    0.000    0.000 
#    0.000    0.000    0.000    0.000    0.000    0.000 
#
# Total GULP energy -67194.801830 kJ/mol
# GULP energy per Si atom -5599.566819 kJ/mol
# Density = 2.138900 g / cm^3
# Si number density = 21.437792 Si / 1000 Ang^3
#
#
#
# Elastic Constant Matrix: (Units=GPa)
#
#
# Indices 1 2 3 4 5 6 
#
# 1 102.9889 -0.5193 33.1173 0.0000 36.7127 0.0000
# 2 -0.5193 57.6617 42.8397 0.0000 -4.2721 0.0000
# 3 33.1173 42.8397 180.5659 -0.0004 -10.6601 0.0001
# 4 0.0000 0.0000 -0.0004 26.3109 0.0003 11.7505
# 5 36.7127 -4.2721 -10.6601 0.0003 34.1490 -0.0001
# 6 0.0000 0.0000 0.0001 11.7505 -0.0001 44.4551
#
#
#
# Elastic Compliance Matrix: (Units=1/GPa)
#
#
# Indices 1 2 3 4 5 6 
#
# 1 0.019435 0.002610 -0.005499 0.000000 -0.022284 0.000000
# 2 0.002610 0.021444 -0.005678 0.000000 -0.001895 0.000000
# 3 -0.005499 -0.005678 0.008355 0.000000 0.007810 0.000000
# 4 0.000000 0.000000 0.000000 0.043094 -0.000001 -0.011391
# 5 -0.022284 -0.001895 0.007810 -0.000001 0.055442 0.000000
# 6 0.000000 0.000000 0.000000 -0.011391 0.000000 0.025505
#
#
# Mechanical properties :
#
#
# Convention : Reuss Voigt Hill
#
# Bulk Modulus (GPa) = 31.15394 54.67687 42.91540
# Shear Modulus (GPa) = 24.86186 38.70157 31.78171
#
# Velocity S-wave (km/s) = 3.40916 4.25349 3.85451
# Velocity P-wave (km/s) = 5.48273 7.04863 6.31441
#
# Compressibility (1/GPa) = 0.03209867
#
# Stress axis : x y z
#
# Youngs Moduli (GPa) = 51.45326 46.63253 119.68836
#
# Poissons Ratio (x) = -0.12170 0.65821
# Poissons Ratio (y) = -0.13428 0.67962
# Poissons Ratio (z) = 0.28296 0.26479
#
# Static dielectric constant tensor:
#      x y z
#    x 1.777960 0.000000 0.057060 
#    y 0.000000 1.731230 0.000000 
#    z 0.057060 0.000000 1.665190 
# 
# From -- ./inp_files/1615.got.cif
#   From: 2010.05.17/outbox.cif.g08.bks.cpg/sg9_1_cif.got.tgz:1615.got - 2010.06.03 20:04:27.
