data_PCOD9140595
_publ_section_title
;
Structure prediction by ZEFSAII (Michael W. Deem and Ramdas Pophale) SiO2 
 PCOD9140595
Probable space group: C C
;
_chemical_formula_sum "Si O2"
_cell_formula_units_Z 28
_cell_length_a 13.820534
_cell_length_b 8.361030
_cell_length_c 13.254707
_cell_angle_alpha 90.000000
_cell_angle_beta 41.613135
_cell_angle_gamma 90.000000
_cell_volume 1017.153894
_symmetry_space_group_name_H-M "C C"
_symmetry_group_IT_number 9
_symmetry_cell_setting 'monoclinic'
loop_
_space_group_symop_operation_xyz
x,y,z
x,-y,1/2+z
1/2+x,1/2+y,z
1/2+x,1/2-y,1/2+z
loop_
_atom_site_type_symbol
_atom_site_label
_atom_site_fract_x
_atom_site_fract_y
_atom_site_fract_z
Si Si1 0.157870 0.987014 0.551880
Si Si2 0.411511 0.286770 0.691800
Si Si3 0.342956 0.723818 0.473872
Si Si4 0.244834 0.416482 0.642431
Si Si5 0.431625 0.919172 0.640983
Si Si6 0.974801 0.237464 0.816796
Si Si7 0.635860 0.715297 0.371956
O O1 0.298631 0.912564 0.498155
O O2 0.079794 0.827195 0.573445
O O3 0.060649 0.084252 0.707144
O O4 0.149685 0.096669 0.457950
O O5 0.353138 0.319564 0.847989
O O6 0.345756 0.404934 0.660974
O O7 0.391327 0.104071 0.674699
O O8 0.232272 0.594599 0.609327
O O9 0.501849 0.686868 0.400147
O O10 0.093260 0.334060 0.788307
O O11 0.331022 0.313838 0.488930
O O12 0.448773 0.849436 0.740239
O O13 0.580965 0.880039 0.465808
O O14 0.297217 0.813000 0.701763
#
# Coordination Sequence:
#
# PCOD9140595 Si02
#       7
#     4   4   4   4   4   4   4
#     4  11  24  49  80 116 157 207 274 333 393 497
#     4  12  27  46  82 116 159 211 273 332 402 490
#     4  12  27  49  81 114 165 215 269 336 414 478
#     4  12  28  49  80 117 157 211 269 337 408 482
#     4  11  26  51  78 118 161 211 267 334 401 499
#     4  11  26  51  79 113 161 210 265 332 408 478
#     4  11  26  49  80 118 162 211 267 334 408 478
#
# _framework density 27.527792999999999
#
# number of rings (size 3 to 8) (size 9 to 14) (size 15 to 20)
#    0.000    0.571    4.286    2.571    8.000    0.000 
#    2.571    0.000    0.000    0.000    0.000    0.000 
#    0.000    0.000    0.000    0.000    0.000    0.000 
#
# Total GULP energy -78425.559198 kJ/mol
# GULP energy per Si atom -5601.825657 kJ/mol
# Density = 2.746514 g / cm^3
# Si number density = 27.527793 Si / 1000 Ang^3
#
#
#
# Elastic Constant Matrix: (Units=GPa)
#
#
# Indices 1 2 3 4 5 6 
#
# 1 126.8391 36.6851 33.2676 0.0000 -2.8296 0.0000
# 2 36.6851 153.5360 49.8423 0.0000 -0.6155 0.0000
# 3 33.2676 49.8423 57.5726 0.0000 -8.2621 0.0000
# 4 0.0000 0.0000 0.0000 55.6493 0.0000 -1.3879
# 5 -2.8296 -0.6155 -8.2621 0.0000 55.2912 0.0000
# 6 0.0000 0.0000 0.0000 -1.3879 0.0000 54.4672
#
#
#
# Elastic Compliance Matrix: (Units=1/GPa)
#
#
# Indices 1 2 3 4 5 6 
#
# 1 0.009345 -0.000652 -0.004872 0.000000 -0.000257 0.000000
# 2 -0.000652 0.009170 -0.007717 0.000000 -0.001085 0.000000
# 3 -0.004872 -0.007717 0.027405 0.000000 0.003760 0.000000
# 4 0.000000 0.000000 0.000000 0.017981 0.000000 0.000458
# 5 -0.000257 -0.001085 0.003760 0.000000 0.018623 0.000000
# 6 0.000000 0.000000 0.000000 0.000458 0.000000 0.018371
#
#
# Mechanical properties :
#
#
# Convention : Reuss Voigt Hill
#
# Bulk Modulus (GPa) = 51.44892 64.17089 57.80990
# Shear Modulus (GPa) = 37.35320 47.62506 42.48913
#
# Velocity S-wave (km/s) = 3.68765 4.16393 3.93300
# Velocity P-wave (km/s) = 6.07141 6.81760 6.45529
#
# Compressibility (1/GPa) = 0.01943675
#
# Stress axis : x y z
#
# Youngs Moduli (GPa) = 107.01207 109.05210 36.48922
#
# Poissons Ratio (x) = 0.07113 0.17777
# Poissons Ratio (y) = 0.06980 0.28160
# Poissons Ratio (z) = 0.52136 0.84160
#
# Static dielectric constant tensor:
#      x y z
#    x 2.117230 0.000000 0.007980 
#    y 0.000000 2.079830 0.000000 
#    z 0.007980 0.000000 2.225460 
# 
# From -- ./inp_files/25650.got.cif
#   From: 2010.05.17/outbox.cif.g08.bks.cpg/sg9_13_cif.got.tgz:25650.got - 2010.06.03 20:04:27.
