data_PCOD9140639
_publ_section_title
;
Structure prediction by ZEFSAII (Michael W. Deem and Ramdas Pophale) SiO2 
 PCOD9140639
Probable space group: C C
;
_chemical_formula_sum "Si O2"
_cell_formula_units_Z 32
_cell_length_a 11.081847
_cell_length_b 10.782315
_cell_length_c 12.147501
_cell_angle_alpha 90.000000
_cell_angle_beta 100.328528
_cell_angle_gamma 90.000000
_cell_volume 1427.960230
_symmetry_space_group_name_H-M "C C"
_symmetry_group_IT_number 9
_symmetry_cell_setting 'monoclinic'
loop_
_space_group_symop_operation_xyz
x,y,z
x,-y,1/2+z
1/2+x,1/2+y,z
1/2+x,1/2-y,1/2+z
loop_
_atom_site_type_symbol
_atom_site_label
_atom_site_fract_x
_atom_site_fract_y
_atom_site_fract_z
Si Si1 0.212810 0.289501 0.738470
Si Si2 0.688352 0.678821 0.299450
Si Si3 0.464400 0.813196 0.178078
Si Si4 0.093408 0.081009 0.856955
Si Si5 0.517460 0.064000 0.067155
Si Si6 0.771023 0.313016 0.568678
Si Si7 0.879521 0.829515 0.460162
Si Si8 0.207013 0.443402 0.961383
O O1 0.342848 0.235251 0.719974
O O2 0.136513 0.171496 0.767642
O O3 0.133125 0.363113 0.636345
O O4 0.221031 0.381768 0.844073
O O5 0.587519 0.785517 0.265066
O O6 0.613929 0.558931 0.325193
O O7 0.755440 0.654458 0.194077
O O8 0.786873 0.723568 0.404247
O O9 0.468105 0.954847 0.139153
O O10 0.464680 0.728087 0.068179
O O11 0.958839 0.120989 0.871519
O O12 0.179550 0.109344 0.976302
O O13 0.405015 0.158436 0.041016
O O14 0.571773 0.996010 0.967995
O O15 0.737323 0.168515 0.549352
O O16 0.803255 0.946414 0.489577
#
# Coordination Sequence:
#
# PCOD9140639 Si02
#       8
#     4   4   4   4   4   4   4   4
#     4  11  25  45  68 103 140 192 239 299 363 429
#     4  12  25  45  76 108 148 198 238 298 374 421
#     4  12  24  46  71 105 149 185 248 303 353 442
#     4  11  25  45  69 106 148 187 246 298 355 441
#     4  12  24  45  73  99 143 191 239 299 362 425
#     4  11  25  46  69 106 145 193 242 303 358 430
#     4  12  25  45  72 107 146 192 242 301 365 429
#     4  11  25  45  70 100 145 188 242 297 364 435
#
# _framework density 22.409589
#
# number of rings (size 3 to 8) (size 9 to 14) (size 15 to 20)
#    0.000    0.500    3.750    4.500    0.000    8.000 
#    2.250    0.000    0.000    0.000    0.000    0.000 
#    0.000    0.000    0.000    0.000    0.000    0.000 
#
# Total GULP energy -89572.033711 kJ/mol
# GULP energy per Si atom -5598.252107 kJ/mol
# Density = 2.235858 g / cm^3
# Si number density = 22.409589 Si / 1000 Ang^3
#
#
#
# Elastic Constant Matrix: (Units=GPa)
#
#
# Indices 1 2 3 4 5 6 
#
# 1 126.8792 4.5773 2.4753 0.0000 -20.8995 0.0000
# 2 4.5773 57.6278 -1.1434 0.0000 -6.8171 0.0000
# 3 2.4753 -1.1434 30.5557 0.0000 -10.3046 0.0000
# 4 0.0000 0.0000 0.0000 7.6831 0.0000 -3.7183
# 5 -20.8995 -6.8171 -10.3046 0.0000 30.3880 0.0000
# 6 0.0000 0.0000 0.0000 -3.7183 0.0000 41.7043
#
#
#
# Elastic Compliance Matrix: (Units=1/GPa)
#
#
# Indices 1 2 3 4 5 6 
#
# 1 0.008952 0.000113 0.001540 0.000000 0.006704 0.000000
# 2 0.000113 0.017969 0.002313 0.000000 0.004893 0.000000
# 3 0.001540 0.002313 0.037511 0.000000 0.014298 0.000000
# 4 0.000000 0.000000 0.000000 0.136026 0.000000 0.012128
# 5 0.006704 0.004893 0.014298 0.000000 0.043465 0.000000
# 6 0.000000 0.000000 0.000000 0.012128 0.000000 0.025060
#
#
# Mechanical properties :
#
#
# Convention : Reuss Voigt Hill
#
# Bulk Modulus (GPa) = 13.81929 25.20901 19.51415
# Shear Modulus (GPa) = 17.53340 29.89865 23.71603
#
# Velocity S-wave (km/s) = 2.80019 3.65662 3.25668
# Velocity P-wave (km/s) = 4.07858 5.39458 4.78206
#
# Compressibility (1/GPa) = 0.07236263
#
# Stress axis : x y z
#
# Youngs Moduli (GPa) = 111.71079 55.65293 26.65900
#
# Poissons Ratio (x) = -0.00627 -0.04105
# Poissons Ratio (y) = -0.01258 -0.06167
# Poissons Ratio (z) = -0.17202 -0.12874
#
# Static dielectric constant tensor:
#      x y z
#    x 1.831900 0.000000 -0.040330 
#    y 0.000000 1.791780 0.000000 
#    z -0.040330 0.000000 1.831160 
# 
# From -- ./inp_files/16510.got.cif
#   From: 2010.05.17/outbox.cif.g08.bks.cpg/sg9_9_cif.got.tgz:16510.got - 2010.06.03 20:04:27.
