data_PCOD9140551
_publ_section_title
;
Structure prediction by ZEFSAII (Michael W. Deem and Ramdas Pophale) SiO2 
 PCOD9140551
Probable space group: C C
;
_chemical_formula_sum "Si O2"
_cell_formula_units_Z 32
_cell_length_a 21.492834
_cell_length_b 6.785398
_cell_length_c 17.567498
_cell_angle_alpha 90.000000
_cell_angle_beta 150.907789
_cell_angle_gamma 90.000000
_cell_volume 1245.686330
_symmetry_space_group_name_H-M "C C"
_symmetry_group_IT_number 9
_symmetry_cell_setting 'monoclinic'
loop_
_space_group_symop_operation_xyz
x,y,z
x,-y,1/2+z
1/2+x,1/2+y,z
1/2+x,1/2-y,1/2+z
loop_
_atom_site_type_symbol
_atom_site_label
_atom_site_fract_x
_atom_site_fract_y
_atom_site_fract_z
Si Si1 0.790490 0.679834 0.716760
Si Si2 0.404746 0.393982 0.976661
Si Si3 0.577053 0.567948 0.031358
Si Si4 0.762556 0.280081 0.849097
Si Si5 0.391788 0.494868 0.208279
Si Si6 0.811493 0.600703 0.119842
Si Si7 0.482098 0.958779 0.656525
Si Si8 0.597955 0.658853 0.316073
O O1 0.837145 0.737771 0.849578
O O2 0.641430 0.637271 0.572205
O O3 0.834787 0.843083 0.704014
O O4 0.847743 0.480779 0.741365
O O5 0.302514 0.549917 0.901241
O O6 0.481963 0.523849 0.998337
O O7 0.488194 0.255923 0.122835
O O8 0.691052 0.695249 0.191182
O O9 0.498456 0.625883 0.872382
O O10 0.661451 0.376557 0.800783
O O11 0.893016 0.401019 0.007022
O O12 0.283010 0.330491 0.082643
O O13 0.462287 0.591152 0.210162
O O14 0.911736 0.574852 0.160367
O O15 0.696428 0.455232 0.974560
O O16 0.594064 0.104906 0.802927
#
# Coordination Sequence:
#
# PCOD9140551 Si02
#       8
#     4   4   4   4   4   4   4   4
#     4  11  24  48  69 111 153 196 262 325 372 479
#     4  11  27  46  77 112 152 206 255 322 398 466
#     4  11  25  48  74 111 155 202 259 319 402 445
#     4  11  26  48  74 110 156 193 262 325 381 471
#     4  11  26  49  76 109 156 204 267 320 392 462
#     4  11  26  48  73 108 155 201 255 322 386 461
#     4  11  25  48  74 107 156 194 261 322 382 469
#     4  11  25  49  75 114 151 204 259 321 395 457
#
# _framework density 25.688648000000001
#
# number of rings (size 3 to 8) (size 9 to 14) (size 15 to 20)
#    0.000    1.000    3.750    0.750    8.750    1.000 
#   13.500    0.000    0.000    0.000    0.000    0.000 
#    0.000    0.000    0.000    0.000    0.000    0.000 
#
# Total GULP energy -89169.479466 kJ/mol
# GULP energy per Si atom -5573.092467 kJ/mol
# Density = 2.563018 g / cm^3
# Si number density = 25.688648 Si / 1000 Ang^3
#
#
#
# Elastic Constant Matrix: (Units=GPa)
#
#
# Indices 1 2 3 4 5 6 
#
# 1 111.3675 47.2165 19.4095 0.0000 -0.2585 0.0000
# 2 47.2165 147.6016 49.3444 -0.0001 -7.6689 -0.0001
# 3 19.4095 49.3444 64.3417 0.0000 -19.9498 0.0000
# 4 0.0000 -0.0001 0.0000 48.0676 0.0000 -1.0094
# 5 -0.2585 -7.6689 -19.9498 0.0000 24.6673 0.0000
# 6 0.0000 -0.0001 0.0000 -1.0094 0.0000 37.9528
#
#
#
# Elastic Compliance Matrix: (Units=1/GPa)
#
#
# Indices 1 2 3 4 5 6 
#
# 1 0.010493 -0.002948 -0.001541 0.000000 -0.002053 0.000000
# 2 -0.002948 0.010208 -0.007962 0.000000 -0.003296 0.000000
# 3 -0.001541 -0.007962 0.028483 0.000000 0.020544 0.000000
# 4 0.000000 0.000000 0.000000 0.020816 0.000000 0.000554
# 5 -0.002053 -0.003296 0.020544 0.000000 0.056108 0.000000
# 6 0.000000 0.000000 0.000000 0.000554 0.000000 0.026363
#
#
# Mechanical properties :
#
#
# Convention : Reuss Voigt Hill
#
# Bulk Modulus (GPa) = 41.18147 61.69461 51.43804
# Shear Modulus (GPa) = 26.95895 35.96023 31.45959
#
# Velocity S-wave (km/s) = 3.24304 3.74551 3.50330
# Velocity P-wave (km/s) = 5.48533 6.54015 6.03583
#
# Compressibility (1/GPa) = 0.02428277
#
# Stress axis : x y z
#
# Youngs Moduli (GPa) = 95.30169 97.95793 35.10905
#
# Poissons Ratio (x) = 0.28879 0.05410
# Poissons Ratio (y) = 0.28096 0.27953
# Poissons Ratio (z) = 0.14685 0.77991
#
# Static dielectric constant tensor:
#      x y z
#    x 2.007010 0.000000 -0.056670 
#    y 0.000000 2.110540 0.000000 
#    z -0.056670 0.000000 2.209540 
# 
# From -- ./inp_files/34483.got.cif
#   From: 2010.05.17/outbox.cif.g08.bks.cpg/sg9_18_cif.got.tgz:34483.got - 2010.06.03 20:04:27.
