data_PCOD9140164
_publ_section_title
;
Structure prediction by ZEFSAII (Michael W. Deem and Ramdas Pophale) SiO2 
 PCOD9140164
Probable space group: C C
;
_chemical_formula_sum "Si O2"
_cell_formula_units_Z 32
_cell_length_a 11.984052
_cell_length_b 11.404351
_cell_length_c 15.882153
_cell_angle_alpha 90.000000
_cell_angle_beta 142.913627
_cell_angle_gamma 90.000000
_cell_volume 1308.923035
_symmetry_space_group_name_H-M "C C"
_symmetry_group_IT_number 9
_symmetry_cell_setting 'monoclinic'
loop_
_space_group_symop_operation_xyz
x,y,z
x,-y,1/2+z
1/2+x,1/2+y,z
1/2+x,1/2-y,1/2+z
loop_
_atom_site_type_symbol
_atom_site_label
_atom_site_fract_x
_atom_site_fract_y
_atom_site_fract_z
Si Si1 0.421640 0.502155 0.871830
Si Si2 0.855450 0.490130 0.151307
Si Si3 0.379292 0.759133 0.077390
Si Si4 0.872120 0.506278 0.847554
Si Si5 0.681778 0.844758 0.616851
Si Si6 0.553805 0.338000 0.186113
Si Si7 0.707294 0.852639 0.884537
Si Si8 0.295991 0.248459 0.336242
O O1 0.356571 0.418283 0.756760
O O2 0.339799 0.429008 0.902040
O O3 0.333064 0.631061 0.809783
O O4 0.640038 0.521238 0.015660
O O5 0.890422 0.398890 0.098209
O O6 0.895594 0.437993 0.268531
O O7 0.007753 0.590437 0.245179
O O8 0.238569 0.715998 0.063704
O O9 0.583625 0.714554 0.213788
O O10 0.339501 0.725177 0.958948
O O11 0.662192 0.540755 0.742396
O O12 0.898559 0.366388 0.863070
O O13 0.015726 0.566796 0.996186
O O14 0.612543 0.750707 0.644566
O O15 0.656087 0.279016 0.327161
O O16 0.332150 0.352040 0.044365
#
# Coordination Sequence:
#
# PCOD9140164 Si02
#       8
#     4   4   4   4   4   4   4   4
#     4  11  24  47  68 104 148 189 231 309 376 428
#     4  12  25  43  74 104 143 189 243 296 373 443
#     4  12  24  44  71 109 133 187 256 299 345 450
#     4  12  25  44  69 105 144 193 235 299 381 435
#     4  11  24  44  75 104 137 187 255 305 354 433
#     4  11  23  44  72 102 141 187 239 303 363 427
#     4  11  24  44  73 104 140 184 244 305 359 434
#     4  12  27  44  70 102 152 186 233 302 381 434
#
# _framework density 24.447578
#
# number of rings (size 3 to 8) (size 9 to 14) (size 15 to 20)
#    0.000    0.500    5.000    3.000    3.500    1.000 
#    0.000    2.500    0.000    0.000    0.000    0.000 
#    0.000    0.000    0.000    0.000    0.000    0.000 
#
# Total GULP energy -89442.717732 kJ/mol
# GULP energy per Si atom -5590.169858 kJ/mol
# Density = 2.439193 g / cm^3
# Si number density = 24.447578 Si / 1000 Ang^3
#
#
#
# Elastic Constant Matrix: (Units=GPa)
#
#
# Indices 1 2 3 4 5 6 
#
# 1 40.3712 2.9807 17.0619 0.0001 15.2675 0.0000
# 2 2.9807 97.7210 5.6344 0.0001 10.9041 0.0001
# 3 17.0619 5.6344 133.0777 0.0003 25.6298 0.0002
# 4 0.0001 0.0001 0.0003 35.1996 0.0002 7.9471
# 5 15.2675 10.9041 25.6298 0.0002 33.7078 0.0001
# 6 0.0000 0.0001 0.0002 7.9471 0.0001 22.9887
#
#
#
# Elastic Compliance Matrix: (Units=1/GPa)
#
#
# Indices 1 2 3 4 5 6 
#
# 1 0.030158 0.000587 -0.001434 0.000000 -0.012759 0.000000
# 2 0.000587 0.010635 0.000221 0.000000 -0.003874 0.000000
# 3 -0.001434 0.000221 0.008878 0.000000 -0.006172 0.000000
# 4 0.000000 0.000000 0.000000 0.030814 0.000000 -0.010652
# 5 -0.012759 -0.003874 -0.006172 0.000000 0.041392 0.000000
# 6 0.000000 0.000000 0.000000 -0.010652 0.000000 0.047182
#
#
# Mechanical properties :
#
#
# Convention : Reuss Voigt Hill
#
# Bulk Modulus (GPa) = 20.65414 35.83598 28.24506
# Shear Modulus (GPa) = 26.81659 34.74541 30.78100
#
# Velocity S-wave (km/s) = 3.31554 3.77400 3.55217
# Velocity P-wave (km/s) = 4.80872 5.80352 5.32938
#
# Compressibility (1/GPa) = 0.04841645
#
# Stress axis : x y z
#
# Youngs Moduli (GPa) = 33.15862 94.03052 112.64306
#
# Poissons Ratio (x) = -0.05515 0.16154
# Poissons Ratio (y) = -0.01945 -0.02485
# Poissons Ratio (z) = 0.04755 -0.02074
#
# Static dielectric constant tensor:
#      x y z
#    x 2.038550 0.000000 0.016270 
#    y 0.000000 1.940650 0.000000 
#    z 0.016270 0.000000 1.890260 
# 
# From -- ./inp_files/11569.got.cif
#   From: 2010.05.17/outbox.cif.g08.bks.cpg/sg9_6_cif.got.tgz:11569.got - 2010.06.03 20:04:27.
