data_PCOD9140597
_publ_section_title
;
Structure prediction by ZEFSAII (Michael W. Deem and Ramdas Pophale) SiO2 
 PCOD9140597
Probable space group: C C
;
_chemical_formula_sum "Si O2"
_cell_formula_units_Z 28
_cell_length_a 13.832769
_cell_length_b 8.365784
_cell_length_c 18.232290
_cell_angle_alpha 90.000000
_cell_angle_beta 31.088158
_cell_angle_gamma 90.000000
_cell_volume 1089.448005
_symmetry_space_group_name_H-M "C C"
_symmetry_group_IT_number 9
_symmetry_cell_setting 'monoclinic'
loop_
_space_group_symop_operation_xyz
x,y,z
x,-y,1/2+z
1/2+x,1/2+y,z
1/2+x,1/2-y,1/2+z
loop_
_atom_site_type_symbol
_atom_site_label
_atom_site_fract_x
_atom_site_fract_y
_atom_site_fract_z
Si Si1 0.912330 0.759034 0.859100
Si Si2 0.622797 0.067928 0.262494
Si Si3 0.000854 0.257385 0.136586
Si Si4 0.465057 0.940690 0.007898
Si Si5 0.551414 0.594538 0.744480
Si Si6 0.490318 0.554125 0.551396
Si Si7 0.247938 0.295927 0.328111
O O1 0.007393 0.594836 0.824178
O O2 0.890552 0.740672 0.784633
O O3 0.712254 0.798672 0.023663
O O4 0.025269 0.923026 0.800466
O O5 0.625746 0.120072 0.347014
O O6 0.539124 0.225539 0.282634
O O7 0.836115 0.030277 0.099517
O O8 0.948260 0.365337 0.099696
O O9 0.034046 0.080987 0.082486
O O10 0.274802 0.916499 0.085840
O O11 0.545715 0.118637 0.959844
O O12 0.379779 0.610122 0.799369
O O13 0.363694 0.683199 0.678485
O O14 0.681428 0.620014 0.393637
#
# Coordination Sequence:
#
# PCOD9140597 Si02
#       7
#     4   4   4   4   4   4   4
#     4  12  26  47  76 110 152 204 255 325 393 470
#     4  11  26  47  74 114 154 202 265 323 396 471
#     4  12  24  50  73 104 158 203 257 321 402 464
#     4  11  25  48  73 107 157 202 264 323 393 475
#     4  12  24  44  75 111 150 200 264 322 388 475
#     4  11  24  50  71 109 156 204 258 331 389 476
#     4  11  25  46  76 109 151 203 265 323 395 477
#
# _framework density 25.701090000000001
#
# number of rings (size 3 to 8) (size 9 to 14) (size 15 to 20)
#    0.000    0.571    4.286    3.429    2.000    4.571 
#    5.143    0.000    0.000    0.000    0.000    0.000 
#    0.000    0.000    0.000    0.000    0.000    0.000 
#
# Total GULP energy -78059.489493 kJ/mol
# GULP energy per Si atom -5575.677821 kJ/mol
# Density = 2.564259 g / cm^3
# Si number density = 25.701090 Si / 1000 Ang^3
#
#
#
# Elastic Constant Matrix: (Units=GPa)
#
#
# Indices 1 2 3 4 5 6 
#
# 1 74.2537 34.2048 23.1572 0.0001 -3.8578 0.0000
# 2 34.2048 137.7237 28.5919 -0.0006 11.8237 0.0001
# 3 23.1572 28.5919 80.2131 -0.0013 0.6363 0.0002
# 4 0.0001 -0.0006 -0.0013 40.0529 0.0000 -7.6413
# 5 -3.8578 11.8237 0.6363 0.0000 32.1309 0.0001
# 6 0.0000 0.0001 0.0002 -7.6413 0.0001 46.2233
#
#
#
# Elastic Compliance Matrix: (Units=1/GPa)
#
#
# Indices 1 2 3 4 5 6 
#
# 1 0.016402 -0.003645 -0.003463 0.000000 0.003379 0.000000
# 2 -0.003645 0.008917 -0.002097 0.000000 -0.003677 0.000000
# 3 -0.003463 -0.002097 0.014213 0.000000 0.000074 0.000000
# 4 0.000000 0.000000 0.000000 0.025780 0.000000 0.004262
# 5 0.003379 -0.003677 0.000074 0.000000 0.032880 0.000000
# 6 0.000000 0.000000 0.000000 0.004262 0.000000 0.022339
#
#
# Mechanical properties :
#
#
# Convention : Reuss Voigt Hill
#
# Bulk Modulus (GPa) = 47.34154 51.56648 49.45401
# Shear Modulus (GPa) = 34.25094 37.43054 35.84074
#
# Velocity S-wave (km/s) = 3.65453 3.82039 3.73838
# Velocity P-wave (km/s) = 6.02225 6.29031 6.15774
#
# Compressibility (1/GPa) = 0.02112310
#
# Stress axis : x y z
#
# Youngs Moduli (GPa) = 60.96918 112.14287 70.35610
#
# Poissons Ratio (x) = 0.40873 0.24363
# Poissons Ratio (y) = 0.22221 0.14755
# Poissons Ratio (z) = 0.21112 0.23518
#
# Static dielectric constant tensor:
#      x y z
#    x 2.135690 0.000000 -0.027460 
#    y 0.000000 2.148190 0.000000 
#    z -0.027460 0.000000 2.038110 
# 
# From -- ./inp_files/11388.got.cif
#   From: 2010.05.17/outbox.cif.g08.bks.cpg/sg9_6_cif.got.tgz:11388.got - 2010.06.03 20:04:27.
