data_PCOD9140977
_publ_section_title
;
Structure prediction by ZEFSAII (Michael W. Deem and Ramdas Pophale) SiO2 
 PCOD9140977
Probable space group: C C
;
_chemical_formula_sum "Si O2"
_cell_formula_units_Z 28
_cell_length_a 7.676606
_cell_length_b 16.549287
_cell_length_c 13.747906
_cell_angle_alpha 90.000000
_cell_angle_beta 48.494005
_cell_angle_gamma 90.000000
_cell_volume 1307.979773
_symmetry_space_group_name_H-M "C C"
_symmetry_group_IT_number 9
_symmetry_cell_setting 'monoclinic'
loop_
_space_group_symop_operation_xyz
x,y,z
x,-y,1/2+z
1/2+x,1/2+y,z
1/2+x,1/2-y,1/2+z
loop_
_atom_site_type_symbol
_atom_site_label
_atom_site_fract_x
_atom_site_fract_y
_atom_site_fract_z
Si Si1 0.285190 0.263850 0.847550
Si Si2 0.275349 0.736112 0.122598
Si Si3 0.780172 0.952703 0.235170
Si Si4 0.083595 0.830430 0.026381
Si Si5 0.100100 0.084992 0.214069
Si Si6 0.960246 0.415015 0.756259
Si Si7 0.476761 0.169570 0.943942
O O1 0.280488 0.250138 0.734989
O O2 0.399640 0.352058 0.822322
O O3 0.440956 0.200055 0.847450
O O4 0.030194 0.249961 0.985017
O O5 0.119429 0.799926 0.122856
O O6 0.160735 0.647919 0.147983
O O7 0.671508 0.898307 0.361272
O O8 0.888872 0.898313 0.109057
O O9 0.582831 0.008843 0.260106
O O10 0.977484 0.008854 0.210241
O O11 0.311327 0.869146 0.894073
O O12 0.030153 0.750002 0.985170
O O13 0.280166 0.067732 0.235168
O O14 0.249037 0.130847 0.076241
#
# Coordination Sequence:
#
# PCOD9140977 Si02
#       7
#     4   4   4   4   4   4   4
#     4  12  24  44  77 110 151 198 254 314 376 450
#     4  12  24  44  77 110 151 198 254 314 376 450
#     4  12  28  46  70 110 154 192 252 322 384 446
#     4  12  25  47  75 105 146 201 256 307 374 454
#     4  12  25  47  74 109 155 196 250 317 379 451
#     4  12  25  47  74 109 155 196 250 317 379 451
#     4  12  25  47  75 105 146 201 256 307 374 454
#
# _framework density 21.407059
#
# number of rings (size 3 to 8) (size 9 to 14) (size 15 to 20)
#    0.000    0.000    7.143    2.571    0.000    2.286 
#    0.000    0.000    0.000    0.000    0.000    0.000 
#    0.000    0.000    0.000    0.000    0.000    0.000 
#
# Total GULP energy -78330.670202 kJ/mol
# GULP energy per Si atom -5595.047872 kJ/mol
# Density = 2.135834 g / cm^3
# Si number density = 21.407059 Si / 1000 Ang^3
#
#
#
# Elastic Constant Matrix: (Units=GPa)
#
#
# Indices 1 2 3 4 5 6 
#
# 1 150.8014 68.0002 51.2356 0.0000 21.6839 0.0000
# 2 68.0002 147.9811 74.1165 0.0000 -15.9621 0.0000
# 3 51.2356 74.1165 129.7306 0.0000 -15.8457 0.0000
# 4 0.0000 0.0000 0.0000 51.5556 0.0000 -10.3624
# 5 21.6839 -15.9621 -15.8457 0.0000 42.9927 0.0000
# 6 0.0000 0.0000 0.0000 -10.3624 0.0000 48.5352
#
#
#
# Elastic Compliance Matrix: (Units=1/GPa)
#
#
# Indices 1 2 3 4 5 6 
#
# 1 0.010696 -0.004446 -0.002664 0.000000 -0.008027 0.000000
# 2 -0.004446 0.011420 -0.004164 0.000000 0.004948 0.000000
# 3 -0.002664 -0.004164 0.011639 0.000000 0.004087 0.000000
# 4 0.000000 0.000000 0.000000 0.020266 0.000000 0.004327
# 5 -0.008027 0.004948 0.004087 0.000000 0.030652 0.000000
# 6 0.000000 0.000000 0.000000 0.004327 0.000000 0.021527
#
#
# Mechanical properties :
#
#
# Convention : Reuss Voigt Hill
#
# Bulk Modulus (GPa) = 89.24559 90.57973 89.91266
# Shear Modulus (GPa) = 37.74026 44.29410 41.01718
#
# Velocity S-wave (km/s) = 4.20334 4.55371 4.38203
# Velocity P-wave (km/s) = 8.08318 8.36978 8.22773
#
# Compressibility (1/GPa) = 0.01120504
#
# Stress axis : x y z
#
# Youngs Moduli (GPa) = 93.49572 87.56537 85.91960
#
# Poissons Ratio (x) = 0.38934 0.22892
# Poissons Ratio (y) = 0.41571 0.35777
# Poissons Ratio (z) = 0.24911 0.36463
#
# Static dielectric constant tensor:
#      x y z
#    x 1.829050 0.000000 -0.021970 
#    y 0.000000 1.772070 0.000000 
#    z -0.021970 0.000000 1.756610 
# 
# From -- ./inp_files/23472.got.cif
#   From: 2010.05.17/outbox.cif.g08.bks.cpg/sg9_12_cif.got.tgz:23472.got - 2010.06.03 20:04:27.
