data_PCOD9140662
_publ_section_title
;
Structure prediction by ZEFSAII (Michael W. Deem and Ramdas Pophale) SiO2 
 PCOD9140662
Probable space group: C C
;
_chemical_formula_sum "Si O2"
_cell_formula_units_Z 32
_cell_length_a 11.851598
_cell_length_b 20.657495
_cell_length_c 5.435078
_cell_angle_alpha 90.000000
_cell_angle_beta 71.399308
_cell_angle_gamma 90.000000
_cell_volume 1261.132777
_symmetry_space_group_name_H-M "C C"
_symmetry_group_IT_number 9
_symmetry_cell_setting 'monoclinic'
loop_
_space_group_symop_operation_xyz
x,y,z
x,-y,1/2+z
1/2+x,1/2+y,z
1/2+x,1/2-y,1/2+z
loop_
_atom_site_type_symbol
_atom_site_label
_atom_site_fract_x
_atom_site_fract_y
_atom_site_fract_z
Si Si1 0.994460 0.657559 0.319250
Si Si2 0.010550 0.511952 0.245640
Si Si3 0.851782 0.679880 0.915353
Si Si4 0.862173 0.182377 0.185610
Si Si5 0.609645 0.652585 0.229092
Si Si6 0.190484 0.284798 0.426542
Si Si7 0.981118 0.960576 0.091385
Si Si8 0.228274 0.588387 0.601881
O O1 0.929420 0.661255 0.624314
O O2 0.044975 0.585763 0.253871
O O3 0.912885 0.668823 0.136137
O O4 0.103569 0.706496 0.222074
O O5 0.941567 0.493562 0.539220
O O6 0.126509 0.465688 0.151947
O O7 0.835017 0.757364 0.887191
O O8 0.730359 0.638909 0.997618
O O9 0.789221 0.118465 0.315181
O O10 0.999221 0.165618 0.126426
O O11 0.821708 0.208139 0.949696
O O12 0.648236 0.718829 0.336937
O O13 0.563730 0.600110 0.457247
O O14 0.173817 0.347929 0.269482
O O15 0.000918 0.010483 0.848977
O O16 0.842102 0.939009 0.170708
#
# Coordination Sequence:
#
# PCOD9140662 Si02
#       8
#     4   4   4   4   4   4   4   4
#     4  12  28  47  77 115 172 208 269 323 413 491
#     4  12  24  43  73 111 158 207 252 322 407 477
#     4  12  27  52  74 119 161 219 265 332 400 497
#     4  11  26  46  80 121 162 210 268 348 417 477
#     4  11  27  54  82 115 166 217 279 334 409 491
#     4  12  25  48  82 125 163 206 266 356 417 487
#     4  11  28  51  79 115 159 217 275 335 399 488
#     4  11  25  45  77 125 161 196 268 348 420 472
#
# _framework density 25.374013999999999
#
# number of rings (size 3 to 8) (size 9 to 14) (size 15 to 20)
#    0.000    0.500    3.750    3.000    7.000    2.000 
#    2.250    3.750    0.000    0.000    0.000    0.000 
#    0.000    0.000    0.000    0.000    0.000    0.000 
#
# Total GULP energy -89640.063272 kJ/mol
# GULP energy per Si atom -5602.503954 kJ/mol
# Density = 2.531626 g / cm^3
# Si number density = 25.374014 Si / 1000 Ang^3
#
#
#
# Elastic Constant Matrix: (Units=GPa)
#
#
# Indices 1 2 3 4 5 6 
#
# 1 107.9147 24.9174 45.2236 0.0000 8.5055 0.0000
# 2 24.9174 139.9388 43.6096 0.0000 -3.1638 0.0000
# 3 45.2236 43.6096 152.6686 0.0000 12.0993 0.0000
# 4 0.0000 0.0000 0.0000 42.7378 0.0000 -0.6432
# 5 8.5055 -3.1638 12.0993 0.0000 31.9953 0.0000
# 6 0.0000 0.0000 0.0000 -0.6432 0.0000 43.5569
#
#
#
# Elastic Compliance Matrix: (Units=1/GPa)
#
#
# Indices 1 2 3 4 5 6 
#
# 1 0.010824 -0.001120 -0.002731 0.000000 -0.001955 0.000000
# 2 -0.001120 0.008048 -0.002117 0.000000 0.001894 0.000000
# 3 -0.002731 -0.002117 0.008168 0.000000 -0.002572 0.000000
# 4 0.000000 0.000000 0.000000 0.023404 0.000000 0.000346
# 5 -0.001955 0.001894 -0.002572 0.000000 0.032934 0.000000
# 6 0.000000 0.000000 0.000000 0.000346 0.000000 0.022964
#
#
# Mechanical properties :
#
#
# Convention : Reuss Voigt Hill
#
# Bulk Modulus (GPa) = 66.21544 69.78035 67.99790
# Shear Modulus (GPa) = 40.54719 42.77612 41.66165
#
# Velocity S-wave (km/s) = 4.00181 4.11033 4.05644
# Velocity P-wave (km/s) = 6.89239 7.07721 6.98541
#
# Compressibility (1/GPa) = 0.01510222
#
# Stress axis : x y z
#
# Youngs Moduli (GPa) = 92.38745 124.25331 122.43194
#
# Poissons Ratio (x) = 0.13921 0.33440
# Poissons Ratio (y) = 0.10351 0.25921
# Poissons Ratio (z) = 0.25234 0.26307
#
# Static dielectric constant tensor:
#      x y z
#    x 2.022080 0.000000 0.019560 
#    y 0.000000 2.011360 0.000000 
#    z 0.019560 0.000000 2.122190 
# 
# From -- ./inp_files/1859.got.cif
#   From: 2010.05.17/outbox.cif.g08.bks.cpg/sg9_1_cif.got.tgz:1859.got - 2010.06.03 20:04:27.
