data_PCOD9140236
_publ_section_title
;
Structure prediction by ZEFSAII (Michael W. Deem and Ramdas Pophale) SiO2 
 PCOD9140236
Probable space group: C C
;
_chemical_formula_sum "Si O2"
_cell_formula_units_Z 24
_cell_length_a 15.127345
_cell_length_b 14.342541
_cell_length_c 9.049137
_cell_angle_alpha 90.000000
_cell_angle_beta 33.713592
_cell_angle_gamma 90.000000
_cell_volume 1089.736868
_symmetry_space_group_name_H-M "C C"
_symmetry_group_IT_number 9
_symmetry_cell_setting 'monoclinic'
loop_
_space_group_symop_operation_xyz
x,y,z
x,-y,1/2+z
1/2+x,1/2+y,z
1/2+x,1/2-y,1/2+z
loop_
_atom_site_type_symbol
_atom_site_label
_atom_site_fract_x
_atom_site_fract_y
_atom_site_fract_z
Si Si1 0.540520 0.649748 0.486650
Si Si2 0.669713 0.200183 0.003079
Si Si3 0.962265 0.550585 0.134851
Si Si4 0.094068 0.650340 0.446687
Si Si5 0.238945 0.023539 0.715627
Si Si6 0.246077 0.202374 0.920248
O O1 0.621390 0.696684 0.518508
O O2 0.582208 0.539748 0.428543
O O3 0.355608 0.676012 0.737148
O O4 0.627947 0.690083 0.220481
O O5 0.568634 0.137595 0.029349
O O6 0.616272 0.175285 0.243395
O O7 0.813226 0.547406 0.454617
O O8 0.879238 0.540174 0.092547
O O9 0.074123 0.459547 0.994622
O O10 0.224141 0.701790 0.363341
O O11 0.925076 0.693648 0.728721
O O12 0.223152 0.115959 0.837272
#
# Coordination Sequence:
#
# PCOD9140236 Si02
#       6
#     4   4   4   4   4   4
#     4  12  26  42  69 102 132 176 224 275 334 394
#     4  12  26  42  69 102 132 176 224 275 334 394
#     4  11  23  46  70  94 136 179 220 272 335 395
#     4  11  24  43  66  96 133 174 218 272 334 390
#     4  11  23  46  70  94 136 179 220 272 335 395
#     4  11  24  43  66  96 133 174 218 272 334 390
#
# _framework density 22.023665999999999
#
# number of rings (size 3 to 8) (size 9 to 14) (size 15 to 20)
#    0.000    0.667    6.667    3.000    4.667    2.667 
#    0.000    0.000    0.000    0.000    0.000    0.000 
#    0.000    0.000    0.000    0.000    0.000    0.000 
#
# Total GULP energy -67138.033618 kJ/mol
# GULP energy per Si atom -5594.836135 kJ/mol
# Density = 2.197354 g / cm^3
# Si number density = 22.023666 Si / 1000 Ang^3
#
#
#
# Elastic Constant Matrix: (Units=GPa)
#
#
# Indices 1 2 3 4 5 6 
#
# 1 43.2390 2.9216 9.6406 0.0001 -1.5106 0.0000
# 2 2.9216 65.5878 10.3748 0.0001 -4.3543 -0.0001
# 3 9.6406 10.3748 111.8605 0.0001 0.7140 -0.0001
# 4 0.0001 0.0001 0.0001 16.8508 -0.0001 -2.2833
# 5 -1.5106 -4.3543 0.7140 -0.0001 45.0815 0.0001
# 6 0.0000 -0.0001 -0.0001 -2.2833 0.0001 45.4606
#
#
#
# Elastic Compliance Matrix: (Units=1/GPa)
#
#
# Indices 1 2 3 4 5 6 
#
# 1 0.023641 -0.000690 -0.001978 0.000000 0.000757 0.000000
# 2 -0.000690 0.015598 -0.001397 0.000000 0.001506 0.000000
# 3 -0.001978 -0.001397 0.009242 0.000000 -0.000348 0.000000
# 4 0.000000 0.000000 0.000000 0.059751 0.000000 0.003001
# 5 0.000757 0.001506 -0.000348 0.000000 0.022358 0.000000
# 6 0.000000 0.000000 0.000000 0.003001 0.000000 0.022148
#
#
# Mechanical properties :
#
#
# Convention : Reuss Voigt Hill
#
# Bulk Modulus (GPa) = 24.78222 29.61791 27.20007
# Shear Modulus (GPa) = 28.68291 34.66192 31.67241
#
# Velocity S-wave (km/s) = 3.61275 3.97148 3.79635
# Velocity P-wave (km/s) = 5.35533 5.87432 5.62082
#
# Compressibility (1/GPa) = 0.04035151
#
# Stress axis : x y z
#
# Youngs Moduli (GPa) = 42.29869 64.10921 108.20193
#
# Poissons Ratio (x) = 0.04423 0.21406
# Poissons Ratio (y) = 0.02918 0.15114
# Poissons Ratio (z) = 0.08368 0.08955
#
# Static dielectric constant tensor:
#      x y z
#    x 1.793230 0.000000 0.004700 
#    y 0.000000 1.842430 0.000000 
#    z 0.004700 0.000000 1.767020 
# 
# From -- ./inp_files/5192.got.cif
#   From: 2010.05.17/outbox.cif.g08.bks.cpg/sg9_3_cif.got.tgz:5192.got - 2010.06.03 20:04:27.
