data_PCOD9140489
_publ_section_title
;
Structure prediction by ZEFSAII (Michael W. Deem and Ramdas Pophale) SiO2 
 PCOD9140489
Probable space group: C C
;
_chemical_formula_sum "Si O2"
_cell_formula_units_Z 28
_cell_length_a 24.378653
_cell_length_b 12.249310
_cell_length_c 12.564639
_cell_angle_alpha 90.000000
_cell_angle_beta 18.922169
_cell_angle_gamma 90.000000
_cell_volume 1216.735385
_symmetry_space_group_name_H-M "C C"
_symmetry_group_IT_number 9
_symmetry_cell_setting 'monoclinic'
loop_
_space_group_symop_operation_xyz
x,y,z
x,-y,1/2+z
1/2+x,1/2+y,z
1/2+x,1/2-y,1/2+z
loop_
_atom_site_type_symbol
_atom_site_label
_atom_site_fract_x
_atom_site_fract_y
_atom_site_fract_z
Si Si1 0.153380 0.730359 0.325920
Si Si2 0.520902 0.182262 0.118452
Si Si3 0.041835 0.404032 0.360119
Si Si4 0.720886 0.986735 0.840080
Si Si5 0.253607 0.878493 0.727181
Si Si6 0.076055 0.904249 0.638943
Si Si7 0.359315 0.118399 0.786561
O O1 0.205565 0.615858 0.287469
O O2 0.065894 0.809378 0.571427
O O3 0.013602 0.703884 0.493591
O O4 0.322873 0.790738 0.977437
O O5 0.589301 0.169016 0.872855
O O6 0.570229 0.072663 0.091187
O O7 0.616634 0.283993 0.993497
O O8 0.910956 0.354475 0.515746
O O9 0.941839 0.504768 0.597387
O O10 0.196603 0.444914 0.004639
O O11 0.894166 0.052030 0.507861
O O12 0.309653 0.885026 0.501562
O O13 0.171872 0.992925 0.910694
O O14 0.196167 0.862698 0.513562
#
# Coordination Sequence:
#
# PCOD9140489 Si02
#       7
#     4   4   4   4   4   4   4
#     4  12  25  51  77 109 151 194 254 309 368 447
#     4  12  26  46  79 108 151 199 244 313 374 440
#     4  11  24  46  73 105 151 196 245 312 370 441
#     4  12  26  50  73 114 147 195 253 307 370 447
#     4  11  24  46  73 109 150 194 253 301 376 445
#     4  11  27  48  76 107 151 199 245 310 374 443
#     4  11  24  47  73 106 149 197 244 308 368 439
#
# _framework density 23.0124
#
# number of rings (size 3 to 8) (size 9 to 14) (size 15 to 20)
#    0.000    0.571    4.286    3.429    2.000    4.571 
#    2.571    0.000    0.000    0.000    0.000    0.000 
#    0.000    0.000    0.000    0.000    0.000    0.000 
#
# Total GULP energy -78448.680109 kJ/mol
# GULP energy per Si atom -5603.477151 kJ/mol
# Density = 2.296002 g / cm^3
# Si number density = 23.012400 Si / 1000 Ang^3
#
#
#
# Elastic Constant Matrix: (Units=GPa)
#
#
# Indices 1 2 3 4 5 6 
#
# 1 87.1854 35.1667 26.7203 0.0001 -4.0212 -0.0001
# 2 35.1667 106.4264 31.7945 0.0001 -11.6925 -0.0001
# 3 26.7203 31.7945 124.6899 0.0002 -13.7877 -0.0001
# 4 0.0001 0.0001 0.0002 46.0111 -0.0001 -2.1653
# 5 -4.0212 -11.6925 -13.7877 -0.0001 37.5901 0.0001
# 6 -0.0001 -0.0001 -0.0001 -2.1653 0.0001 35.0218
#
#
#
# Elastic Compliance Matrix: (Units=1/GPa)
#
#
# Indices 1 2 3 4 5 6 
#
# 1 0.013655 -0.003979 -0.001967 0.000000 -0.000498 0.000000
# 2 -0.003979 0.011526 -0.001810 0.000000 0.002496 0.000000
# 3 -0.001967 -0.001810 0.009190 0.000000 0.002597 0.000000
# 4 0.000000 0.000000 0.000000 0.021797 0.000000 0.001348
# 5 -0.000498 0.002496 0.002597 0.000000 0.028278 0.000000
# 6 0.000000 0.000000 0.000000 0.001348 0.000000 0.028637
#
#
# Mechanical properties :
#
#
# Convention : Reuss Voigt Hill
#
# Bulk Modulus (GPa) = 53.02621 56.18495 54.60558
# Shear Modulus (GPa) = 37.06954 38.69928 37.88441
#
# Velocity S-wave (km/s) = 4.01789 4.10527 4.06182
# Velocity P-wave (km/s) = 6.67960 6.85121 6.76595
#
# Compressibility (1/GPa) = 0.01885860
#
# Stress axis : x y z
#
# Youngs Moduli (GPa) = 73.23571 86.76031 108.81223
#
# Poissons Ratio (x) = 0.34523 0.21399
# Poissons Ratio (y) = 0.29142 0.19699
# Poissons Ratio (z) = 0.14402 0.15707
#
# Static dielectric constant tensor:
#      x y z
#    x 1.836480 0.000000 -0.010420 
#    y 0.000000 1.859470 0.000000 
#    z -0.010420 0.000000 1.863220 
# 
# From -- ./inp_files/20937.got.cif
#   From: 2010.05.17/outbox.cif.g08.bks.cpg/sg9_11_cif.got.tgz:20937.got - 2010.06.03 20:04:27.
