data_PCOD9140082
_publ_section_title
;
Structure prediction by ZEFSAII (Michael W. Deem and Ramdas Pophale) SiO2 
 PCOD9140082
Probable space group: C C
;
_chemical_formula_sum "Si O2"
_cell_formula_units_Z 24
_cell_length_a 8.117911
_cell_length_b 12.723237
_cell_length_c 13.340888
_cell_angle_alpha 90.000000
_cell_angle_beta 127.359505
_cell_angle_gamma 90.000000
_cell_volume 1095.237678
_symmetry_space_group_name_H-M "C C"
_symmetry_group_IT_number 9
_symmetry_cell_setting 'monoclinic'
loop_
_space_group_symop_operation_xyz
x,y,z
x,-y,1/2+z
1/2+x,1/2+y,z
1/2+x,1/2-y,1/2+z
loop_
_atom_site_type_symbol
_atom_site_label
_atom_site_fract_x
_atom_site_fract_y
_atom_site_fract_z
Si Si1 0.160520 0.495165 0.044720
Si Si2 0.230239 0.249346 0.825680
Si Si3 0.785669 0.761754 0.077078
Si Si4 0.235279 0.018035 0.783447
Si Si5 0.370812 0.470534 0.808338
Si Si6 0.972992 0.107556 0.037231
O O1 0.285684 0.387813 0.070883
O O2 0.658301 0.540409 0.156128
O O3 0.282565 0.595256 0.043866
O O4 0.947773 0.479251 0.909676
O O5 0.266903 0.142183 0.778830
O O6 0.359736 0.350776 0.840885
O O7 0.986941 0.272182 0.714526
O O8 0.165100 0.490908 0.665649
O O9 0.575707 0.718876 0.050748
O O10 0.780061 0.723447 0.960049
O O11 0.060183 0.994267 0.802941
O O12 0.394282 0.549854 0.908551
#
# Coordination Sequence:
#
# PCOD9140082 Si02
#       6
#     4   4   4   4   4   4
#     4  11  24  43  65 101 140 172 229 287 339 406
#     4  12  22  42  70  96 133 187 224 279 350 398
#     4  12  22  42  70  96 133 187 224 279 350 398
#     4  11  24  43  65 101 140 172 229 287 339 406
#     4  11  23  41  66 100 134 177 230 276 340 409
#     4  11  23  41  66 100 134 177 230 276 340 409
#
# _framework density 21.913052
#
# number of rings (size 3 to 8) (size 9 to 14) (size 15 to 20)
#    0.000    0.667    6.667    2.000    0.000    1.333 
#    0.000    3.333    0.000    0.000    0.000    0.000 
#    0.000    0.000    0.000    0.000    0.000    0.000 
#
# Total GULP energy -67031.512759 kJ/mol
# GULP energy per Si atom -5585.959397 kJ/mol
# Density = 2.186318 g / cm^3
# Si number density = 21.913052 Si / 1000 Ang^3
#
#
#
# Elastic Constant Matrix: (Units=GPa)
#
#
# Indices 1 2 3 4 5 6 
#
# 1 20.2272 -1.0424 27.0699 0.0000 -9.1549 0.0000
# 2 -1.0424 51.8694 -13.3437 0.0000 11.8119 0.0000
# 3 27.0699 -13.3437 123.8300 0.0000 -9.6264 0.0000
# 4 0.0000 0.0000 0.0000 36.2759 0.0000 3.5995
# 5 -9.1549 11.8119 -9.6264 0.0000 33.7036 0.0000
# 6 0.0000 0.0000 0.0000 3.5995 0.0000 29.3538
#
#
#
# Elastic Compliance Matrix: (Units=1/GPa)
#
#
# Indices 1 2 3 4 5 6 
#
# 1 0.080459 -0.007169 -0.016841 0.000000 0.019557 0.000000
# 2 -0.007169 0.021957 0.003256 0.000000 -0.008712 0.000000
# 3 -0.016841 0.003256 0.011928 0.000000 -0.002309 0.000000
# 4 0.000000 0.000000 0.000000 0.027906 0.000000 -0.003422
# 5 0.019557 -0.008712 -0.002309 0.000000 0.037377 0.000000
# 6 0.000000 0.000000 0.000000 -0.003422 0.000000 0.034487
#
#
# Mechanical properties :
#
#
# Convention : Reuss Voigt Hill
#
# Bulk Modulus (GPa) = 13.72952 24.58824 19.15888
# Shear Modulus (GPa) = 17.86349 32.08285 24.97317
#
# Velocity S-wave (km/s) = 2.85827 3.83050 3.37953
# Velocity P-wave (km/s) = 4.14391 5.55057 4.89800
#
# Compressibility (1/GPa) = 0.07283578
#
# Stress axis : x y z
#
# Youngs Moduli (GPa) = 12.42873 45.54402 83.83298
#
# Poissons Ratio (x) = 0.32651 1.41182
# Poissons Ratio (y) = 0.08910 -0.27296
# Poissons Ratio (z) = 0.20931 -0.14829
#
# Static dielectric constant tensor:
#      x y z
#    x 1.811680 0.000000 0.011670 
#    y 0.000000 1.784850 0.000000 
#    z 0.011670 0.000000 1.859820 
# 
# From -- ./inp_files/32605.got.cif
#   From: 2010.05.17/outbox.cif.g08.bks.cpg/sg9_17_cif.got.tgz:32605.got - 2010.06.03 20:04:27.
