data_PCOD9140365
_publ_section_title
;
Structure prediction by ZEFSAII (Michael W. Deem and Ramdas Pophale) SiO2 
 PCOD9140365
Probable space group: C C
;
_chemical_formula_sum "Si O2"
_cell_formula_units_Z 32
_cell_length_a 6.315587
_cell_length_b 18.175883
_cell_length_c 14.426800
_cell_angle_alpha 90.000000
_cell_angle_beta 131.386516
_cell_angle_gamma 90.000000
_cell_volume 1242.495752
_symmetry_space_group_name_H-M "C C"
_symmetry_group_IT_number 9
_symmetry_cell_setting 'monoclinic'
loop_
_space_group_symop_operation_xyz
x,y,z
x,-y,1/2+z
1/2+x,1/2+y,z
1/2+x,1/2-y,1/2+z
loop_
_atom_site_type_symbol
_atom_site_label
_atom_site_fract_x
_atom_site_fract_y
_atom_site_fract_z
Si Si1 0.934940 0.698723 0.950980
Si Si2 0.243891 0.756651 0.578026
Si Si3 0.079385 0.397383 0.103481
Si Si4 0.064415 0.985279 0.168663
Si Si5 0.477126 0.470669 0.932972
Si Si6 0.104649 0.606810 0.819800
Si Si7 0.493738 0.652581 0.169526
Si Si8 0.343052 0.676108 0.313155
O O1 0.983734 0.784808 0.942472
O O2 0.997850 0.663495 0.867845
O O3 0.693724 0.709596 0.960503
O O4 0.154925 0.651155 0.073253
O O5 0.168687 0.670910 0.564570
O O6 0.563827 0.775514 0.707917
O O7 0.065531 0.797728 0.604048
O O8 0.341750 0.453685 0.176662
O O9 0.058910 0.365631 0.202089
O O10 0.797826 0.444810 0.000147
O O11 0.373746 0.955648 0.271711
O O12 0.092488 0.071684 0.181438
O O13 0.955809 0.959377 0.037048
O O14 0.390595 0.556865 0.900482
O O15 0.294083 0.409457 0.824297
O O16 0.560332 0.680638 0.290618
#
# Coordination Sequence:
#
# PCOD9140365 Si02
#       8
#     4   4   4   4   4   4   4   4
#     4  11  24  44  70 101 142 185 246 299 368 443
#     4  11  25  45  71 102 145 192 247 308 375 446
#     4  11  25  45  75 109 150 198 253 317 380 453
#     4  11  24  45  71 108 149 191 247 313 374 452
#     4  11  24  45  72 107 151 195 255 309 385 452
#     4  11  24  46  72 109 146 198 251 307 378 454
#     4  11  24  45  67 100 142 185 239 304 370 439
#     4  11  24  43  68 104 141 192 244 309 368 455
#
# _framework density 25.754615999999999
#
# number of rings (size 3 to 8) (size 9 to 14) (size 15 to 20)
#    0.000    1.000    1.250    4.500    0.000   14.000 
#    4.500    0.000    0.000    0.000    0.000    0.000 
#    0.000    0.000    0.000    0.000    0.000    0.000 
#
# Total GULP energy -89253.218450 kJ/mol
# GULP energy per Si atom -5578.326153 kJ/mol
# Density = 2.569600 g / cm^3
# Si number density = 25.754616 Si / 1000 Ang^3
#
#
#
# Elastic Constant Matrix: (Units=GPa)
#
#
# Indices 1 2 3 4 5 6 
#
# 1 100.1458 34.6031 21.7016 0.0000 -10.0695 0.0000
# 2 34.6031 123.6681 2.5686 0.0000 -0.3347 0.0000
# 3 21.7016 2.5686 35.9410 0.0000 2.5039 0.0000
# 4 0.0000 0.0000 0.0000 35.5192 0.0000 -4.1750
# 5 -10.0695 -0.3347 2.5039 0.0000 33.3695 0.0000
# 6 0.0000 0.0000 0.0000 -4.1750 0.0000 48.2739
#
#
#
# Elastic Compliance Matrix: (Units=1/GPa)
#
#
# Indices 1 2 3 4 5 6 
#
# 1 0.013468 -0.003586 -0.008199 0.000000 0.004643 0.000000
# 2 -0.003586 0.009053 0.001595 0.000000 -0.001111 0.000000
# 3 -0.008199 0.001595 0.033004 0.000000 -0.004935 0.000000
# 4 0.000000 0.000000 0.000000 0.028443 0.000000 0.002460
# 5 0.004643 -0.001111 -0.004935 0.000000 0.031728 0.000000
# 6 0.000000 0.000000 0.000000 0.002460 0.000000 0.020928
#
#
# Mechanical properties :
#
#
# Convention : Reuss Voigt Hill
#
# Bulk Modulus (GPa) = 28.45257 41.94461 35.19859
# Shear Modulus (GPa) = 29.63513 36.82461 33.22987
#
# Velocity S-wave (km/s) = 3.39584 3.78541 3.59590
# Velocity P-wave (km/s) = 5.14268 5.95209 5.56213
#
# Compressibility (1/GPa) = 0.03514621
#
# Stress axis : x y z
#
# Youngs Moduli (GPa) = 74.24976 110.45719 30.29927
#
# Poissons Ratio (x) = 0.39605 0.24844
# Poissons Ratio (y) = 0.26623 -0.04834
# Poissons Ratio (z) = 0.60881 -0.17622
#
# Static dielectric constant tensor:
#      x y z
#    x 2.064280 0.000000 0.018880 
#    y 0.000000 1.959570 0.000000 
#    z 0.018880 0.000000 2.211430 
# 
# From -- ./inp_files/22111.got.cif
#   From: 2010.05.17/outbox.cif.g08.bks.cpg/sg9_12_cif.got.tgz:22111.got - 2010.06.03 20:04:27.
