data_PCOD9140594
_publ_section_title
;
Structure prediction by ZEFSAII (Michael W. Deem and Ramdas Pophale) SiO2 
 PCOD9140594
Probable space group: C C
;
_chemical_formula_sum "Si O2"
_cell_formula_units_Z 32
_cell_length_a 5.222918
_cell_length_b 16.321299
_cell_length_c 14.408766
_cell_angle_alpha 90.000000
_cell_angle_beta 75.928952
_cell_angle_gamma 90.000000
_cell_volume 1191.418142
_symmetry_space_group_name_H-M "C C"
_symmetry_group_IT_number 9
_symmetry_cell_setting 'monoclinic'
loop_
_space_group_symop_operation_xyz
x,y,z
x,-y,1/2+z
1/2+x,1/2+y,z
1/2+x,1/2-y,1/2+z
loop_
_atom_site_type_symbol
_atom_site_label
_atom_site_fract_x
_atom_site_fract_y
_atom_site_fract_z
Si Si1 0.200290 0.033093 0.980740
Si Si2 0.981665 0.696825 0.990245
Si Si3 0.557050 0.208797 0.643238
Si Si4 0.333509 0.841172 0.972815
Si Si5 0.334480 0.323577 0.800820
Si Si6 0.038553 0.543428 0.705696
Si Si7 0.255629 0.602637 0.113790
Si Si8 0.975762 0.998403 0.313672
O O1 0.313139 0.940404 0.970691
O O2 0.975183 0.024963 0.921019
O O3 0.372631 0.116010 0.946840
O O4 0.034223 0.056641 0.086626
O O5 0.217056 0.660404 0.030952
O O6 0.748946 0.725701 0.079818
O O7 0.971384 0.741159 0.752244
O O8 0.350721 0.183691 0.580242
O O9 0.206451 0.348134 0.711855
O O10 0.685224 0.121536 0.651847
O O11 0.107260 0.783493 0.944899
O O12 0.605619 0.816864 0.896905
O O13 0.514675 0.403127 0.804923
O O14 0.051648 0.470960 0.630449
O O15 0.209738 0.517957 0.780306
O O16 0.731082 0.550970 0.755293
#
# Coordination Sequence:
#
# PCOD9140594 Si02
#       8
#     4   4   4   4   4   4   4   4
#     4  12  27  51  83 118 168 224 296 355 443 531
#     4  12  26  50  81 122 167 224 290 359 447 519
#     4  12  27  52  78 126 167 223 279 371 431 532
#     4  12  29  51  84 130 169 231 292 367 445 531
#     4  11  26  54  78 116 176 218 288 359 443 513
#     4  11  27  48  84 117 165 221 289 347 437 522
#     4  11  24  49  80 108 164 222 275 356 426 519
#     4  11  28  53  78 125 156 233 283 354 436 525
#
# _framework density 26.858749
#
# number of rings (size 3 to 8) (size 9 to 14) (size 15 to 20)
#    0.000    0.500    2.500    3.750   14.000    2.000 
#    2.250    0.000    0.000    0.000    0.000    0.000 
#    0.000    0.000    0.000    0.000    0.000    0.000 
#
# Total GULP energy -89420.648240 kJ/mol
# GULP energy per Si atom -5588.790515 kJ/mol
# Density = 2.679762 g / cm^3
# Si number density = 26.858749 Si / 1000 Ang^3
#
#
#
# Elastic Constant Matrix: (Units=GPa)
#
#
# Indices 1 2 3 4 5 6 
#
# 1 100.5725 18.5143 10.2453 0.0000 5.5572 0.0000
# 2 18.5143 146.9723 20.4548 0.0000 17.0222 0.0000
# 3 10.2453 20.4548 71.9530 0.0000 -3.9002 0.0000
# 4 0.0000 0.0000 0.0000 55.8997 0.0000 1.4615
# 5 5.5572 17.0222 -3.9002 0.0000 38.2965 0.0000
# 6 0.0000 0.0000 0.0000 1.4615 0.0000 50.5156
#
#
#
# Elastic Compliance Matrix: (Units=1/GPa)
#
#
# Indices 1 2 3 4 5 6 
#
# 1 0.010318 -0.000988 -0.001253 0.000000 -0.001186 0.000000
# 2 -0.000988 0.007640 -0.002220 0.000000 -0.003479 0.000000
# 3 -0.001253 -0.002220 0.014853 0.000000 0.002681 0.000000
# 4 0.000000 0.000000 0.000000 0.017903 0.000000 -0.000518
# 5 -0.001186 -0.003479 0.002681 0.000000 0.028103 0.000000
# 6 0.000000 0.000000 0.000000 -0.000518 0.000000 0.019811
#
#
# Mechanical properties :
#
#
# Convention : Reuss Voigt Hill
#
# Bulk Modulus (GPa) = 41.85845 46.43628 44.14736
# Shear Modulus (GPa) = 43.28536 46.96125 45.12331
#
# Velocity S-wave (km/s) = 4.01882 4.18599 4.10325
# Velocity P-wave (km/s) = 6.09533 6.37886 6.23871
#
# Compressibility (1/GPa) = 0.02389004
#
# Stress axis : x y z
#
# Youngs Moduli (GPa) = 96.91715 130.88443 67.32784
#
# Poissons Ratio (x) = 0.12933 0.08433
# Poissons Ratio (y) = 0.09577 0.14946
# Poissons Ratio (z) = 0.12139 0.29054
#
# Static dielectric constant tensor:
#      x y z
#    x 2.141230 0.000000 0.057390 
#    y 0.000000 2.093800 0.000000 
#    z 0.057390 0.000000 2.127450 
# 
# From -- ./inp_files/28585.got.cif
#   From: 2010.05.17/outbox.cif.g08.bks.cpg/sg9_15_cif.got.tgz:28585.got - 2010.06.03 20:04:27.
