data_PCOD9140297
_publ_section_title
;
Structure prediction by ZEFSAII (Michael W. Deem and Ramdas Pophale) SiO2 
 PCOD9140297
Probable space group: C C
;
_chemical_formula_sum "Si O2"
_cell_formula_units_Z 32
_cell_length_a 23.969645
_cell_length_b 5.220075
_cell_length_c 15.191527
_cell_angle_alpha 90.000000
_cell_angle_beta 142.543397
_cell_angle_gamma 90.000000
_cell_volume 1156.000118
_symmetry_space_group_name_H-M "C C"
_symmetry_group_IT_number 9
_symmetry_cell_setting 'monoclinic'
loop_
_space_group_symop_operation_xyz
x,y,z
x,-y,1/2+z
1/2+x,1/2+y,z
1/2+x,1/2-y,1/2+z
loop_
_atom_site_type_symbol
_atom_site_label
_atom_site_fract_x
_atom_site_fract_y
_atom_site_fract_z
Si Si1 0.647160 0.913504 0.803170
Si Si2 0.380923 0.947622 0.100797
Si Si3 0.174510 0.720116 0.529590
Si Si4 0.056807 0.222283 0.397575
Si Si5 0.356574 0.995757 0.770029
Si Si6 0.441434 0.713214 0.537004
Si Si7 0.515189 0.616714 0.993555
Si Si8 0.704586 0.597537 0.292588
O O1 0.664460 0.213289 0.816424
O O2 0.694766 0.838743 0.952737
O O3 0.538639 0.864922 0.659648
O O4 0.689389 0.706108 0.787292
O O5 0.338186 0.920231 0.145515
O O6 0.478413 0.812707 0.233645
O O7 0.401046 0.230184 0.083384
O O8 0.311051 0.840317 0.939789
O O9 0.128796 0.450912 0.500957
O O10 0.270191 0.818115 0.689410
O O11 0.104813 0.958926 0.430962
O O12 0.007562 0.140758 0.426683
O O13 0.448471 0.827674 0.872553
O O14 0.373430 0.183231 0.874325
O O15 0.476741 0.444735 0.542148
O O16 0.624444 0.672930 0.122855
#
# Coordination Sequence:
#
# PCOD9140297 Si02
#       8
#     4   4   4   4   4   4   4   4
#     4  11  23  48  73 106 157 198 252 317 388 453
#     4  12  27  49  82 115 156 209 267 322 395 478
#     4  12  28  46  82 114 159 206 265 324 397 471
#     4  12  28  49  81 115 157 209 266 323 397 471
#     4  12  27  52  78 118 160 209 266 330 397 472
#     4  11  26  49  75 114 159 205 264 322 400 463
#     4  11  27  50  80 109 166 205 263 332 397 469
#     4  11  26  47  75 111 150 205 253 322 387 459
#
# _framework density 27.681660000000001
#
# number of rings (size 3 to 8) (size 9 to 14) (size 15 to 20)
#    0.000    0.500    5.000    1.500    5.250    1.000 
#    2.250    0.000    0.000    0.000    0.000    0.000 
#    0.000    0.000    0.000    0.000    0.000    0.000 
#
# Total GULP energy -89388.978952 kJ/mol
# GULP energy per Si atom -5586.811184 kJ/mol
# Density = 2.761866 g / cm^3
# Si number density = 27.681660 Si / 1000 Ang^3
#
#
#
# Elastic Constant Matrix: (Units=GPa)
#
#
# Indices 1 2 3 4 5 6 
#
# 1 51.9366 3.1232 6.4923 -0.0001 10.3383 -0.0002
# 2 3.1232 76.9626 34.6392 0.0025 2.7219 0.0016
# 3 6.4923 34.6392 159.0030 -0.0002 8.4619 0.0003
# 4 -0.0001 0.0025 -0.0002 46.9119 0.0004 -0.9186
# 5 10.3383 2.7219 8.4619 0.0004 32.3331 0.0004
# 6 -0.0002 0.0016 0.0003 -0.9186 0.0004 35.4568
#
#
#
# Elastic Compliance Matrix: (Units=1/GPa)
#
#
# Indices 1 2 3 4 5 6 
#
# 1 0.020614 -0.000426 -0.000406 0.000000 -0.006449 0.000000
# 2 -0.000426 0.014420 -0.003110 -0.000001 -0.000264 -0.000001
# 3 -0.000406 -0.003110 0.007061 0.000000 -0.001456 0.000000
# 4 0.000000 -0.000001 0.000000 0.021327 0.000000 0.000553
# 5 -0.006449 -0.000264 -0.001456 0.000000 0.033393 0.000000
# 6 0.000000 -0.000001 0.000000 0.000553 0.000000 0.028218
#
#
# Mechanical properties :
#
#
# Convention : Reuss Voigt Hill
#
# Bulk Modulus (GPa) = 29.22974 41.82352 35.52663
# Shear Modulus (GPa) = 34.64520 39.18354 36.91437
#
# Velocity S-wave (km/s) = 3.54157 3.76640 3.65572
# Velocity P-wave (km/s) = 5.22550 5.83575 5.53903
#
# Compressibility (1/GPa) = 0.03421173
#
# Stress axis : x y z
#
# Youngs Moduli (GPa) = 48.50999 69.34984 141.62765
#
# Poissons Ratio (x) = 0.02953 0.05746
# Poissons Ratio (y) = 0.02066 0.44045
# Poissons Ratio (z) = 0.01968 0.21567
#
# Static dielectric constant tensor:
#      x y z
#    x 2.374510 0.000000 -0.096490 
#    y 0.000000 2.130990 0.000000 
#    z -0.096490 0.000000 2.199150 
# 
# From -- ./inp_files/31780.got.cif
#   From: 2010.05.17/outbox.cif.g08.bks.cpg/sg9_16_cif.got.tgz:31780.got - 2010.06.03 20:04:27.
