data_PCOD9140669
_publ_section_title
;
Structure prediction by ZEFSAII (Michael W. Deem and Ramdas Pophale) SiO2 
 PCOD9140669
Probable space group: C C
;
_chemical_formula_sum "Si O2"
_cell_formula_units_Z 32
_cell_length_a 15.435586
_cell_length_b 11.076116
_cell_length_c 9.284506
_cell_angle_alpha 90.000000
_cell_angle_beta 60.799280
_cell_angle_gamma 90.000000
_cell_volume 1385.612670
_symmetry_space_group_name_H-M "C C"
_symmetry_group_IT_number 9
_symmetry_cell_setting 'monoclinic'
loop_
_space_group_symop_operation_xyz
x,y,z
x,-y,1/2+z
1/2+x,1/2+y,z
1/2+x,1/2-y,1/2+z
loop_
_atom_site_type_symbol
_atom_site_label
_atom_site_fract_x
_atom_site_fract_y
_atom_site_fract_z
Si Si1 0.584520 0.374465 0.940510
Si Si2 0.103450 0.241010 0.121972
Si Si3 0.744263 0.552772 0.922780
Si Si4 0.581605 0.995993 0.298416
Si Si5 0.932916 0.840479 0.559260
Si Si6 0.363428 0.915141 0.056384
Si Si7 0.181488 0.633573 0.978572
Si Si8 0.405296 0.555940 0.780607
O O1 0.572714 0.344708 0.781883
O O2 0.648484 0.492979 0.924745
O O3 0.647879 0.264489 0.954916
O O4 0.482366 0.380022 0.110723
O O5 0.094528 0.375264 0.190809
O O6 0.211326 0.187952 0.993030
O O7 0.030659 0.222092 0.046464
O O8 0.776795 0.472911 0.031266
O O9 0.836829 0.549290 0.740441
O O10 0.628764 0.959403 0.411648
O O11 0.467941 0.033185 0.416180
O O12 0.641722 0.100691 0.168698
O O13 0.867002 0.729473 0.556880
O O14 0.946130 0.926834 0.409791
O O15 0.893434 0.922402 0.722516
O O16 0.297709 0.615123 0.867272
#
# Coordination Sequence:
#
# PCOD9140669 Si02
#       8
#     4   4   4   4   4   4   4   4
#     4  11  25  47  73 106 151 199 255 316 383 467
#     4  11  25  46  74 108 155 196 251 324 377 449
#     4  12  25  47  76 115 151 202 259 316 383 472
#     4  11  25  49  72 111 152 201 253 320 382 472
#     4  12  26  46  74 110 151 204 250 325 381 468
#     4  12  27  48  80 112 155 205 262 317 401 465
#     4  11  25  46  72 105 151 199 251 314 393 464
#     4  12  26  45  71 109 150 200 257 314 392 461
#
# _framework density 23.094477000000001
#
# number of rings (size 3 to 8) (size 9 to 14) (size 15 to 20)
#    0.000    0.500    2.500    5.250    3.500    3.000 
#    4.500    0.000    0.000    0.000    0.000    0.000 
#    0.000    0.000    0.000    0.000    0.000    0.000 
#
# Total GULP energy -89552.684028 kJ/mol
# GULP energy per Si atom -5597.042752 kJ/mol
# Density = 2.304191 g / cm^3
# Si number density = 23.094477 Si / 1000 Ang^3
#
#
#
# Elastic Constant Matrix: (Units=GPa)
#
#
# Indices 1 2 3 4 5 6 
#
# 1 81.7807 20.0223 30.9123 0.0000 -13.0533 0.0000
# 2 20.0223 77.5443 36.5516 0.0000 10.7803 0.0000
# 3 30.9123 36.5516 120.9284 0.0000 -12.6823 0.0000
# 4 0.0000 0.0000 0.0000 44.1119 0.0000 1.9035
# 5 -13.0533 10.7803 -12.6823 0.0000 42.9000 0.0000
# 6 0.0000 0.0000 0.0000 1.9035 0.0000 34.4924
#
#
#
# Elastic Compliance Matrix: (Units=1/GPa)
#
#
# Indices 1 2 3 4 5 6 
#
# 1 0.014639 -0.003371 -0.002237 0.000000 0.004640 0.000000
# 2 -0.003371 0.017074 -0.005012 0.000000 -0.006798 0.000000
# 3 -0.002237 -0.005012 0.010750 0.000000 0.003757 0.000000
# 4 0.000000 0.000000 0.000000 0.022724 0.000000 -0.001254
# 5 0.004640 -0.006798 0.003757 0.000000 0.027541 0.000000
# 6 0.000000 0.000000 0.000000 -0.001254 0.000000 0.029061
#
#
# Mechanical properties :
#
#
# Convention : Reuss Voigt Hill
#
# Bulk Modulus (GPa) = 47.11599 50.58064 48.84831
# Shear Modulus (GPa) = 33.31079 37.15201 35.23140
#
# Velocity S-wave (km/s) = 3.80198 4.01521 3.91005
# Velocity P-wave (km/s) = 6.30231 6.59128 6.44841
#
# Compressibility (1/GPa) = 0.02122422
#
# Stress axis : x y z
#
# Youngs Moduli (GPa) = 68.31006 58.56987 93.02331
#
# Poissons Ratio (x) = 0.19742 0.20806
# Poissons Ratio (y) = 0.23025 0.46623
# Poissons Ratio (z) = 0.15279 0.29355
#
# Static dielectric constant tensor:
#      x y z
#    x 1.849250 0.000000 0.014890 
#    y 0.000000 1.883710 0.000000 
#    z 0.014890 0.000000 1.834550 
# 
# From -- ./inp_files/9223.got.cif
#   From: 2010.05.17/outbox.cif.g08.bks.cpg/sg9_5_cif.got.tgz:9223.got - 2010.06.03 20:04:27.
