data_PCOD9140981
_publ_section_title
;
Structure prediction by ZEFSAII (Michael W. Deem and Ramdas Pophale) SiO2 
 PCOD9140981
Probable space group: C C
;
_chemical_formula_sum "Si O2"
_cell_formula_units_Z 28
_cell_length_a 7.756821
_cell_length_b 20.513230
_cell_length_c 9.090144
_cell_angle_alpha 90.000000
_cell_angle_beta 54.551117
_cell_angle_gamma 90.000000
_cell_volume 1178.286026
_symmetry_space_group_name_H-M "C C"
_symmetry_group_IT_number 9
_symmetry_cell_setting 'monoclinic'
loop_
_space_group_symop_operation_xyz
x,y,z
x,-y,1/2+z
1/2+x,1/2+y,z
1/2+x,1/2-y,1/2+z
loop_
_atom_site_type_symbol
_atom_site_label
_atom_site_fract_x
_atom_site_fract_y
_atom_site_fract_z
Si Si1 0.104750 0.429035 0.686300
Si Si2 0.081349 0.807626 0.201213
Si Si3 0.867636 0.853943 0.801906
Si Si4 0.226316 0.946249 0.066512
Si Si5 0.228061 0.224950 0.958906
Si Si6 0.090172 0.318161 0.485240
Si Si7 0.978110 0.982806 0.919773
O O1 0.244453 0.383392 0.724139
O O2 0.001438 0.380146 0.619093
O O3 0.260420 0.477605 0.525017
O O4 0.940279 0.463918 0.876308
O O5 0.217072 0.868146 0.075996
O O6 0.168002 0.791067 0.320360
O O7 0.836904 0.830093 0.329602
O O8 0.089226 0.745228 0.091777
O O9 0.729494 0.803454 0.964953
O O10 0.952164 0.913734 0.854504
O O11 0.053550 0.809140 0.646159
O O12 0.169457 0.976527 0.251195
O O13 0.036274 0.971797 0.059586
O O14 0.448135 0.197911 0.914751
#
# Coordination Sequence:
#
# PCOD9140981 Si02
#       7
#     4   4   4   4   4   4   4
#     4  12  26  51  78 114 159 213 265 335 397 477
#     4  12  24  47  72 116 160 200 272 334 392 484
#     4  12  26  50  75 116 156 202 271 330 397 488
#     4  12  28  48  77 112 155 213 262 335 399 475
#     4  12  25  47  79 114 157 214 260 336 413 471
#     4  12  24  45  77 113 159 210 263 331 407 467
#     4  12  27  54  74 115 160 206 275 323 403 496
#
# _framework density 23.763328999999999
#
# number of rings (size 3 to 8) (size 9 to 14) (size 15 to 20)
#    0.000    0.000    5.714    3.429    4.000    0.000 
#    5.143    0.000    0.000    0.000    0.000    0.000 
#    0.000    0.000    0.000    0.000    0.000    0.000 
#
# Total GULP energy -78473.553004 kJ/mol
# GULP energy per Si atom -5605.253786 kJ/mol
# Density = 2.370924 g / cm^3
# Si number density = 23.763329 Si / 1000 Ang^3
#
#
#
# Elastic Constant Matrix: (Units=GPa)
#
#
# Indices 1 2 3 4 5 6 
#
# 1 109.1575 10.1811 22.0827 0.0000 5.0389 0.0000
# 2 10.1811 99.4760 37.5213 0.0000 -15.5370 0.0000
# 3 22.0827 37.5213 112.2739 0.0000 -19.3812 0.0000
# 4 0.0000 0.0000 0.0000 43.4317 0.0000 -0.3737
# 5 5.0389 -15.5370 -19.3812 0.0000 26.8422 0.0000
# 6 0.0000 0.0000 0.0000 -0.3737 0.0000 23.5808
#
#
#
# Elastic Compliance Matrix: (Units=1/GPa)
#
#
# Indices 1 2 3 4 5 6 
#
# 1 0.009899 -0.000737 -0.002393 0.000000 -0.004013 0.000000
# 2 -0.000737 0.012039 -0.003029 0.000000 0.004920 0.000000
# 3 -0.002393 -0.003029 0.011612 0.000000 0.007080 0.000000
# 4 0.000000 0.000000 0.000000 0.023028 0.000000 0.000365
# 5 -0.004013 0.004920 0.007080 0.000000 0.045968 0.000000
# 6 0.000000 0.000000 0.000000 0.000365 0.000000 0.042413
#
#
# Mechanical properties :
#
#
# Convention : Reuss Voigt Hill
#
# Bulk Modulus (GPa) = 47.10105 51.16416 49.13261
# Shear Modulus (GPa) = 30.42172 35.51242 32.96707
#
# Velocity S-wave (km/s) = 3.58186 3.86997 3.72870
# Velocity P-wave (km/s) = 6.08032 6.44564 6.26564
#
# Compressibility (1/GPa) = 0.02123095
#
# Stress axis : x y z
#
# Youngs Moduli (GPa) = 101.01741 83.06273 86.11688
#
# Poissons Ratio (x) = 0.06123 0.20612
# Poissons Ratio (y) = 0.07447 0.26086
# Poissons Ratio (z) = 0.24178 0.25161
#
# Static dielectric constant tensor:
#      x y z
#    x 1.888280 0.000000 -0.030270 
#    y 0.000000 1.884210 0.000000 
#    z -0.030270 0.000000 1.929490 
# 
# From -- ./inp_files/5841.got.cif
#   From: 2010.05.17/outbox.cif.g08.bks.cpg/sg9_3_cif.got.tgz:5841.got - 2010.06.03 20:04:27.
