data_PCOD9140909
_publ_section_title
;
Structure prediction by ZEFSAII (Michael W. Deem and Ramdas Pophale) SiO2 
 PCOD9140909
Probable space group: C C
;
_chemical_formula_sum "Si O2"
_cell_formula_units_Z 32
_cell_length_a 11.409911
_cell_length_b 21.280775
_cell_length_c 12.113788
_cell_angle_alpha 90.000000
_cell_angle_beta 152.922559
_cell_angle_gamma 90.000000
_cell_volume 1338.895085
_symmetry_space_group_name_H-M "C C"
_symmetry_group_IT_number 9
_symmetry_cell_setting 'monoclinic'
loop_
_space_group_symop_operation_xyz
x,y,z
x,-y,1/2+z
1/2+x,1/2+y,z
1/2+x,1/2-y,1/2+z
loop_
_atom_site_type_symbol
_atom_site_label
_atom_site_fract_x
_atom_site_fract_y
_atom_site_fract_z
Si Si1 0.370670 0.971255 0.176410
Si Si2 0.560040 0.101032 0.270079
Si Si3 0.381274 0.493143 0.892351
Si Si4 0.675183 0.587606 0.298713
Si Si5 0.218765 0.287037 0.306458
Si Si6 0.505377 0.210921 0.065444
Si Si7 0.205113 0.642378 0.013013
Si Si8 0.171871 0.611270 0.596772
O O1 0.587827 0.927913 0.412676
O O2 0.393715 0.046465 0.190159
O O3 0.347652 0.949664 0.031157
O O4 0.111980 0.958033 0.024993
O O5 0.440126 0.158170 0.102773
O O6 0.721944 0.125197 0.511060
O O7 0.715364 0.059881 0.311888
O O8 0.251095 0.540458 0.695967
O O9 0.497140 0.538166 0.084999
O O10 0.503488 0.633880 0.229093
O O11 0.870818 0.618441 0.377198
O O12 0.478083 0.249952 0.553383
O O13 0.107279 0.318917 0.324618
O O14 0.303101 0.341085 0.291355
O O15 0.623564 0.176953 0.055510
O O16 0.744271 0.252562 0.312626
#
# Coordination Sequence:
#
# PCOD9140909 Si02
#       8
#     4   4   4   4   4   4   4   4
#     4  12  26  41  81 117 153 200 251 341 410 469
#     4  12  27  50  77 114 159 211 263 328 401 487
#     4  12  25  45  75 117 156 200 253 327 419 476
#     4  12  21  43  74 114 163 187 255 323 417 475
#     4  12  26  46  79 110 149 204 263 326 386 456
#     4  12  33  57  81 113 163 228 277 320 388 485
#     4  12  26  49  79 118 156 199 270 334 400 472
#     4  12  26  47  72 117 155 203 260 323 407 480
#
# _framework density 23.900303999999998
#
# number of rings (size 3 to 8) (size 9 to 14) (size 15 to 20)
#    0.000    0.000    6.250    3.000    7.000    2.000 
#    0.000    0.000    0.000    0.000    0.000    0.000 
#    0.000    0.000    0.000    0.000    0.000    0.000 
#
# Total GULP energy -89544.321935 kJ/mol
# GULP energy per Si atom -5596.520121 kJ/mol
# Density = 2.384591 g / cm^3
# Si number density = 23.900304 Si / 1000 Ang^3
#
#
#
# Elastic Constant Matrix: (Units=GPa)
#
#
# Indices 1 2 3 4 5 6 
#
# 1 81.4362 28.5612 24.7981 0.0001 -12.5144 -0.0002
# 2 28.5612 119.3699 65.8433 -0.0004 -19.2213 -0.0004
# 3 24.7981 65.8433 113.9462 0.0001 -7.7296 0.0006
# 4 0.0001 -0.0004 0.0001 45.8895 0.0006 -15.2475
# 5 -12.5144 -19.2213 -7.7296 0.0006 50.7193 0.0006
# 6 -0.0002 -0.0004 0.0006 -15.2475 0.0006 40.5871
#
#
#
# Elastic Compliance Matrix: (Units=1/GPa)
#
#
# Indices 1 2 3 4 5 6 
#
# 1 0.013866 -0.001990 -0.001705 0.000000 0.002408 0.000000
# 2 -0.001990 0.013275 -0.007002 0.000000 0.003473 0.000000
# 3 -0.001705 -0.007002 0.013120 0.000000 -0.001075 0.000000
# 4 0.000000 0.000000 0.000000 0.024900 0.000000 0.009354
# 5 0.002408 0.003473 -0.001075 0.000000 0.021463 0.000000
# 6 0.000000 0.000000 0.000000 0.009354 0.000000 0.028152
#
#
# Mechanical properties :
#
#
# Convention : Reuss Voigt Hill
#
# Bulk Modulus (GPa) = 52.99880 61.46194 57.23037
# Shear Modulus (GPa) = 35.09770 40.47583 37.78676
#
# Velocity S-wave (km/s) = 3.83626 4.11971 3.98051
# Velocity P-wave (km/s) = 6.46882 6.95710 6.71740
#
# Compressibility (1/GPa) = 0.01886835
#
# Stress axis : x y z
#
# Youngs Moduli (GPa) = 72.11642 75.32947 76.21735
#
# Poissons Ratio (x) = 0.14990 0.12992
# Poissons Ratio (y) = 0.14350 0.53370
# Poissons Ratio (z) = 0.12293 0.52748
#
# Static dielectric constant tensor:
#      x y z
#    x 1.883220 0.000000 -0.013000 
#    y 0.000000 1.964590 0.000000 
#    z -0.013000 0.000000 1.987030 
# 
# From -- ./inp_files/17162.got.cif
#   From: 2010.05.17/outbox.cif.g08.bks.cpg/sg9_9_cif.got.tgz:17162.got - 2010.06.03 20:04:27.
