data_PCOD9140327
_publ_section_title
;
Structure prediction by ZEFSAII (Michael W. Deem and Ramdas Pophale) SiO2 
 PCOD9140327
Probable space group: C C
;
_chemical_formula_sum "Si O2"
_cell_formula_units_Z 28
_cell_length_a 6.646512
_cell_length_b 14.373377
_cell_length_c 15.271906
_cell_angle_alpha 90.000000
_cell_angle_beta 115.627251
_cell_angle_gamma 90.000000
_cell_volume 1315.445078
_symmetry_space_group_name_H-M "C C"
_symmetry_group_IT_number 9
_symmetry_cell_setting 'monoclinic'
loop_
_space_group_symop_operation_xyz
x,y,z
x,-y,1/2+z
1/2+x,1/2+y,z
1/2+x,1/2-y,1/2+z
loop_
_atom_site_type_symbol
_atom_site_label
_atom_site_fract_x
_atom_site_fract_y
_atom_site_fract_z
Si Si1 0.057970 0.512203 0.181530
Si Si2 0.232019 0.233397 0.848933
Si Si3 0.422805 0.048297 0.462909
Si Si4 0.277883 0.818028 0.704518
Si Si5 0.600351 0.902664 0.362504
Si Si6 0.494149 0.609062 0.307933
Si Si7 0.014698 0.768250 0.484103
O O1 0.110517 0.434295 0.264018
O O2 0.294595 0.563421 0.216040
O O3 0.884746 0.583866 0.193876
O O4 0.968663 0.480983 0.070952
O O5 0.370395 0.152863 0.830115
O O6 0.376412 0.326402 0.858312
O O7 0.197728 0.210900 0.944013
O O8 0.988305 0.251675 0.762923
O O9 0.164205 0.037523 0.385323
O O10 0.461466 0.159045 0.463743
O O11 0.575914 0.990929 0.423538
O O12 0.137048 0.831871 0.765756
O O13 0.119535 0.783018 0.598394
O O14 0.803317 0.835576 0.428807
#
# Coordination Sequence:
#
# PCOD9140327 Si02
#       7
#     4   4   4   4   4   4   4
#     4  11  27  43  73 107 139 191 243 299 364 436
#     4  11  24  46  72 102 144 192 229 305 360 430
#     4  12  25  47  71 108 141 192 246 296 370 436
#     4  11  24  48  72 104 143 190 242 296 368 433
#     4  12  26  48  72 107 150 188 242 302 370 435
#     4  11  23  50  72 101 153 181 241 305 359 436
#     4  12  27  46  74 105 146 194 243 301 371 438
#
# _framework density 21.285571999999998
#
# number of rings (size 3 to 8) (size 9 to 14) (size 15 to 20)
#    0.000    0.571    4.286    2.571    8.000    2.286 
#    5.143    0.000    0.000    0.000    0.000    0.000 
#    0.000    0.000    0.000    0.000    0.000    0.000 
#
# Total GULP energy -78331.017771 kJ/mol
# GULP energy per Si atom -5595.072698 kJ/mol
# Density = 2.123713 g / cm^3
# Si number density = 21.285572 Si / 1000 Ang^3
#
#
#
# Elastic Constant Matrix: (Units=GPa)
#
#
# Indices 1 2 3 4 5 6 
#
# 1 123.3113 37.9467 54.6110 0.0000 3.4042 0.0000
# 2 37.9467 84.9538 27.8618 0.0000 2.5801 0.0000
# 3 54.6110 27.8618 126.6033 0.0000 -18.9533 0.0000
# 4 0.0000 0.0000 0.0000 33.6392 0.0000 -0.8738
# 5 3.4042 2.5801 -18.9533 0.0000 28.3604 0.0000
# 6 0.0000 0.0000 0.0000 -0.8738 0.0000 37.6306
#
#
#
# Elastic Compliance Matrix: (Units=1/GPa)
#
#
# Indices 1 2 3 4 5 6 
#
# 1 0.011401 -0.003384 -0.004813 0.000000 -0.004277 0.000000
# 2 -0.003384 0.013985 -0.001942 0.000000 -0.002164 0.000000
# 3 -0.004813 -0.001942 0.011684 0.000000 0.008563 0.000000
# 4 0.000000 0.000000 0.000000 0.029745 0.000000 0.000691
# 5 -0.004277 -0.002164 0.008563 0.000000 0.041694 0.000000
# 6 0.000000 0.000000 0.000000 0.000691 0.000000 0.026590
#
#
# Mechanical properties :
#
#
# Convention : Reuss Voigt Hill
#
# Bulk Modulus (GPa) = 59.55375 63.96750 61.76063
# Shear Modulus (GPa) = 31.06073 34.22263 32.64168
#
# Velocity S-wave (km/s) = 3.82414 4.01407 3.92026
# Velocity P-wave (km/s) = 6.89478 7.18338 7.04056
#
# Compressibility (1/GPa) = 0.01679155
#
# Stress axis : x y z
#
# Youngs Moduli (GPa) = 87.71405 71.50390 85.58476
#
# Poissons Ratio (x) = 0.24196 0.41195
# Poissons Ratio (y) = 0.29681 0.16621
# Poissons Ratio (z) = 0.42220 0.13887
#
# Static dielectric constant tensor:
#      x y z
#    x 1.762770 0.000000 0.011490 
#    y 0.000000 1.828270 0.000000 
#    z 0.011490 0.000000 1.726470 
# 
# From -- ./inp_files/21695.got.cif
#   From: 2010.05.17/outbox.cif.g08.bks.cpg/sg9_11_cif.got.tgz:21695.got - 2010.06.03 20:04:27.
