data_PCOD9140083
_publ_section_title
;
Structure prediction by ZEFSAII (Michael W. Deem and Ramdas Pophale) SiO2 
 PCOD9140083
Probable space group: C C
;
_chemical_formula_sum "Si O2"
_cell_formula_units_Z 28
_cell_length_a 11.879598
_cell_length_b 19.956685
_cell_length_c 5.552535
_cell_angle_alpha 90.000000
_cell_angle_beta 100.487181
_cell_angle_gamma 90.000000
_cell_volume 1294.391260
_symmetry_space_group_name_H-M "C C"
_symmetry_group_IT_number 9
_symmetry_cell_setting 'monoclinic'
loop_
_space_group_symop_operation_xyz
x,y,z
x,-y,1/2+z
1/2+x,1/2+y,z
1/2+x,1/2-y,1/2+z
loop_
_atom_site_type_symbol
_atom_site_label
_atom_site_fract_x
_atom_site_fract_y
_atom_site_fract_z
Si Si1 0.626140 0.398274 0.400830
Si Si2 0.777398 0.036686 0.510400
Si Si3 0.034335 0.952863 0.964171
Si Si4 0.461103 0.195734 0.734575
Si Si5 0.435035 0.656944 0.083204
Si Si6 0.331619 0.819336 0.675917
Si Si7 0.221524 0.327221 0.194574
O O1 0.592895 0.475984 0.438590
O O2 0.524133 0.344166 0.396537
O O3 0.732505 0.373481 0.591874
O O4 0.632615 0.405354 0.116753
O O5 0.734245 0.113334 0.505215
O O6 0.916681 0.038274 0.572528
O O7 0.742809 0.999423 0.746772
O O8 0.981464 0.907121 0.736994
O O9 0.449507 0.276169 0.736615
O O10 0.391174 0.175933 0.461994
O O11 0.592745 0.178131 0.736682
O O12 0.414457 0.172110 0.975600
O O13 0.307666 0.649869 0.939811
O O14 0.271151 0.745527 0.638031
#
# Coordination Sequence:
#
# PCOD9140083 Si02
#       7
#     4   4   4   4   4   4   4
#     4  12  23  41  69 107 142 179 235 306 366 413
#     4  12  23  40  64 104 135 169 231 292 356 408
#     4  12  22  37  70 108 142 177 230 310 368 406
#     4  11  27  48  70 101 148 191 241 284 358 441
#     4  11  23  41  66 110 137 183 235 297 367 415
#     4  11  28  46  71 107 142 194 240 291 357 440
#     4  11  24  47  74 101 146 191 234 306 354 429
#
# _framework density 21.631788
#
# number of rings (size 3 to 8) (size 9 to 14) (size 15 to 20)
#    0.000    0.571    5.714    1.714    4.000    5.714 
#    0.000    0.000    9.429    0.000    0.000    0.000 
#    0.000    0.000    0.000    0.000    0.000    0.000 
#
# Total GULP energy -78070.289819 kJ/mol
# GULP energy per Si atom -5576.449273 kJ/mol
# Density = 2.158255 g / cm^3
# Si number density = 21.631788 Si / 1000 Ang^3
#
#
#
# Elastic Constant Matrix: (Units=GPa)
#
#
# Indices 1 2 3 4 5 6 
#
# 1 109.5937 23.8640 51.0910 0.0000 7.8701 0.0000
# 2 23.8640 47.9593 32.5546 0.0000 5.4330 0.0000
# 3 51.0910 32.5546 110.9039 0.0000 -2.2165 0.0000
# 4 0.0000 0.0000 0.0000 20.0120 0.0000 13.2146
# 5 7.8701 5.4330 -2.2165 0.0000 30.0181 0.0000
# 6 0.0000 0.0000 0.0000 13.2146 0.0000 27.6680
#
#
#
# Elastic Compliance Matrix: (Units=1/GPa)
#
#
# Indices 1 2 3 4 5 6 
#
# 1 0.012184 -0.002315 -0.004996 0.000000 -0.003144 0.000000
# 2 -0.002315 0.027344 -0.007057 0.000000 -0.004863 0.000000
# 3 -0.004996 -0.007057 0.013462 0.000000 0.003581 0.000000
# 4 0.000000 0.000000 0.000000 0.072990 0.000000 -0.034861
# 5 -0.003144 -0.004863 0.003581 0.000000 0.035282 0.000000
# 6 0.000000 0.000000 0.000000 -0.034861 0.000000 0.052793
#
#
# Mechanical properties :
#
#
# Convention : Reuss Voigt Hill
#
# Bulk Modulus (GPa) = 41.23236 53.71956 47.47596
# Shear Modulus (GPa) = 19.93022 26.26945 23.09983
#
# Velocity S-wave (km/s) = 3.03865 3.48859 3.27137
# Velocity P-wave (km/s) = 5.60478 6.41206 6.02197
#
# Compressibility (1/GPa) = 0.02425279
#
# Stress axis : x y z
#
# Youngs Moduli (GPa) = 82.07789 36.57064 74.28566
#
# Poissons Ratio (x) = 0.08466 0.37113
# Poissons Ratio (y) = 0.19001 0.52426
# Poissons Ratio (z) = 0.41006 0.25809
#
# Static dielectric constant tensor:
#      x y z
#    x 1.916270 0.000000 -0.240590 
#    y 0.000000 1.815880 0.000000 
#    z -0.240590 0.000000 2.285090 
# 
# From -- ./inp_files/1868.got.cif
#   From: 2010.05.17/outbox.cif.g08.bks.cpg/sg9_1_cif.got.tgz:1868.got - 2010.06.03 20:04:27.
