data_PCOD9140717
_publ_section_title
;
Structure prediction by ZEFSAII (Michael W. Deem and Ramdas Pophale) SiO2 
 PCOD9140717
Probable space group: C C
;
_chemical_formula_sum "Si O2"
_cell_formula_units_Z 32
_cell_length_a 12.324993
_cell_length_b 8.576434
_cell_length_c 14.554306
_cell_angle_alpha 90.000000
_cell_angle_beta 61.232994
_cell_angle_gamma 90.000000
_cell_volume 1348.585387
_symmetry_space_group_name_H-M "C C"
_symmetry_group_IT_number 9
_symmetry_cell_setting 'monoclinic'
loop_
_space_group_symop_operation_xyz
x,y,z
x,-y,1/2+z
1/2+x,1/2+y,z
1/2+x,1/2-y,1/2+z
loop_
_atom_site_type_symbol
_atom_site_label
_atom_site_fract_x
_atom_site_fract_y
_atom_site_fract_z
Si Si1 0.234090 0.797542 0.025700
Si Si2 0.093620 0.119266 0.253423
Si Si3 0.869544 0.121187 0.814833
Si Si4 0.307673 0.108045 0.694702
Si Si5 0.663239 0.134300 0.361623
Si Si6 0.473339 0.888637 0.418193
Si Si7 0.682181 0.370085 0.513322
Si Si8 0.990133 0.364910 0.631434
O O1 0.303177 0.861339 0.087555
O O2 0.132485 0.669609 0.096395
O O3 0.157546 0.944027 0.013950
O O4 0.329445 0.727919 0.915766
O O5 0.050256 0.259763 0.332872
O O6 0.135321 0.169753 0.134351
O O7 0.208640 0.029106 0.250834
O O8 0.984472 0.992202 0.288779
O O9 0.910449 0.231299 0.714160
O O10 0.750422 0.011720 0.850008
O O11 0.250970 0.260182 0.762768
O O12 0.435245 0.035190 0.678158
O O13 0.631773 0.248633 0.459641
O O14 0.540237 0.054175 0.372287
O O15 0.331435 0.868056 0.445970
O O16 0.478495 0.858552 0.525679
#
# Coordination Sequence:
#
# PCOD9140717 Si02
#       8
#     4   4   4   4   4   4   4   4
#     4  11  25  48  73 107 149 192 245 308 375 442
#     4  11  25  48  71 103 148 192 239 306 372 436
#     4  12  25  46  73 103 146 195 241 304 374 433
#     4  11  26  46  74 106 145 191 245 303 373 444
#     4  12  28  44  73 113 140 194 253 299 378 444
#     4  12  26  47  75 106 147 198 246 304 373 443
#     4  11  25  51  70 108 151 189 245 315 366 440
#     4  12  24  48  75 104 148 197 242 303 373 444
#
# _framework density 23.728567999999999
#
# number of rings (size 3 to 8) (size 9 to 14) (size 15 to 20)
#    0.000    0.500    7.500    1.500    3.500    4.000 
#    2.250    0.000    0.000    0.000    0.000    0.000 
#    0.000    0.000    0.000    0.000    0.000    0.000 
#
# Total GULP energy -89614.706084 kJ/mol
# GULP energy per Si atom -5600.919130 kJ/mol
# Density = 2.367456 g / cm^3
# Si number density = 23.728568 Si / 1000 Ang^3
#
#
#
# Elastic Constant Matrix: (Units=GPa)
#
#
# Indices 1 2 3 4 5 6 
#
# 1 77.0543 50.1570 10.9910 0.0000 -24.4754 0.0000
# 2 50.1570 150.5982 81.6695 0.0000 -6.1950 0.0000
# 3 10.9910 81.6695 131.5583 0.0000 -13.7994 0.0000
# 4 0.0000 0.0000 0.0000 51.9575 0.0000 -4.1226
# 5 -24.4754 -6.1950 -13.7994 0.0000 28.5815 0.0000
# 6 0.0000 0.0000 0.0000 -4.1226 0.0000 46.5893
#
#
#
# Elastic Compliance Matrix: (Units=1/GPa)
#
#
# Indices 1 2 3 4 5 6 
#
# 1 0.028217 -0.012842 0.008277 0.000000 0.025376 0.000000
# 2 -0.012842 0.015876 -0.010086 0.000000 -0.012426 0.000000
# 3 0.008277 -0.010086 0.014415 0.000000 0.011861 0.000000
# 4 0.000000 0.000000 0.000000 0.019383 0.000000 0.001715
# 5 0.025376 -0.012426 0.011861 0.000000 0.059751 0.000000
# 6 0.000000 0.000000 0.000000 0.001715 0.000000 0.021616
#
#
# Mechanical properties :
#
#
# Convention : Reuss Voigt Hill
#
# Bulk Modulus (GPa) = 34.24102 71.64955 52.94528
# Shear Modulus (GPa) = 25.21486 39.85188 32.53337
#
# Velocity S-wave (km/s) = 3.26335 4.10260 3.70680
# Velocity P-wave (km/s) = 5.35359 7.25967 6.37823
#
# Compressibility (1/GPa) = 0.02920474
#
# Stress axis : x y z
#
# Youngs Moduli (GPa) = 35.43957 62.98906 69.37193
#
# Poissons Ratio (x) = 0.80892 -0.57417
# Poissons Ratio (y) = 0.45513 0.69968
# Poissons Ratio (z) = -0.29332 0.63530
#
# Static dielectric constant tensor:
#      x y z
#    x 1.917730 0.000000 -0.013660 
#    y 0.000000 1.907690 0.000000 
#    z -0.013660 0.000000 1.914990 
# 
# From -- ./inp_files/24350.got.cif
#   From: 2010.05.17/outbox.cif.g08.bks.cpg/sg9_13_cif.got.tgz:24350.got - 2010.06.03 20:04:27.
