data_PCOD9140060
_publ_section_title
;
Structure prediction by ZEFSAII (Michael W. Deem and Ramdas Pophale) SiO2 
 PCOD9140060
Probable space group: C C
;
_chemical_formula_sum "Si O2"
_cell_formula_units_Z 28
_cell_length_a 27.023844
_cell_length_b 4.872870
_cell_length_c 18.811757
_cell_angle_alpha 90.000000
_cell_angle_beta 26.579024
_cell_angle_gamma 90.000000
_cell_volume 1108.378437
_symmetry_space_group_name_H-M "C C"
_symmetry_group_IT_number 9
_symmetry_cell_setting 'monoclinic'
loop_
_space_group_symop_operation_xyz
x,y,z
x,-y,1/2+z
1/2+x,1/2+y,z
1/2+x,1/2-y,1/2+z
loop_
_atom_site_type_symbol
_atom_site_label
_atom_site_fract_x
_atom_site_fract_y
_atom_site_fract_z
Si Si1 0.434310 0.517410 0.833180
Si Si2 0.045256 0.825330 0.976891
Si Si3 0.746209 0.743506 0.498364
Si Si4 0.155927 0.985921 0.982301
Si Si5 0.657541 0.234737 0.690913
Si Si6 0.424332 0.056347 0.941482
Si Si7 0.390453 0.167635 0.640173
O O1 0.548367 0.388757 0.659021
O O2 0.367811 0.286397 0.963514
O O3 0.448829 0.788754 0.862497
O O4 0.368420 0.635524 0.849515
O O5 0.108101 0.885996 0.969081
O O6 0.141131 0.808113 0.793880
O O7 0.973603 0.547809 0.070789
O O8 0.955877 0.050709 0.066036
O O9 0.695688 0.754071 0.485264
O O10 0.725252 0.436060 0.552333
O O11 0.686107 0.921767 0.636036
O O12 0.267074 0.161030 0.829760
O O13 0.529797 0.235604 0.828994
O O14 0.377879 0.935941 0.074667
#
# Coordination Sequence:
#
# PCOD9140060 Si02
#       7
#     4   4   4   4   4   4   4
#     4  12  26  44  75 110 151 196 259 310 384 461
#     4  11  27  49  77 112 154 204 253 324 381 469
#     4  12  26  44  75 110 151 200 260 314 379 467
#     4  12  28  50  76 116 158 201 247 331 395 446
#     4  11  22  49  73 107 148 201 256 313 378 460
#     4  11  22  49  73 107 147 200 253 316 373 464
#     4  11  27  49  77 110 155 196 262 312 390 463
#
# _framework density 25.262128000000001
#
# number of rings (size 3 to 8) (size 9 to 14) (size 15 to 20)
#    0.000    0.571    2.857    5.143    4.000    8.000 
#    0.000    0.000    0.000    0.000    0.000    0.000 
#    0.000    0.000    0.000    0.000    0.000    0.000 
#
# Total GULP energy -78297.060663 kJ/mol
# GULP energy per Si atom -5592.647190 kJ/mol
# Density = 2.520463 g / cm^3
# Si number density = 25.262128 Si / 1000 Ang^3
#
#
#
# Elastic Constant Matrix: (Units=GPa)
#
#
# Indices 1 2 3 4 5 6 
#
# 1 150.8589 15.2862 46.5854 0.0265 27.6607 -0.0062
# 2 15.2862 86.6976 12.9219 -0.0056 6.5139 -0.0058
# 3 46.5854 12.9219 143.1515 0.0014 3.3846 -0.0272
# 4 0.0265 -0.0056 0.0014 34.5091 -0.0097 -7.1733
# 5 27.6607 6.5139 3.3846 -0.0097 42.5589 0.0052
# 6 -0.0062 -0.0058 -0.0272 -7.1733 0.0052 16.3877
#
#
#
# Elastic Compliance Matrix: (Units=1/GPa)
#
#
# Indices 1 2 3 4 5 6 
#
# 1 0.008440 -0.000718 -0.002560 -0.000009 -0.005172 -0.000003
# 2 -0.000718 0.011878 -0.000808 0.000003 -0.001287 0.000004
# 3 -0.002560 -0.000808 0.007864 0.000005 0.001162 0.000013
# 4 -0.000009 0.000003 0.000005 0.031878 0.000010 0.013954
# 5 -0.005172 -0.001287 0.001162 0.000010 0.026963 -0.000005
# 6 -0.000003 0.000004 0.000013 0.013954 -0.000005 0.067129
#
#
# Mechanical properties :
#
#
# Convention : Reuss Voigt Hill
#
# Bulk Modulus (GPa) = 49.97278 58.92168 54.44723
# Shear Modulus (GPa) = 29.58673 39.08545 34.33609
#
# Velocity S-wave (km/s) = 3.42598 3.93771 3.69072
# Velocity P-wave (km/s) = 5.95604 6.63693 6.30568
#
# Compressibility (1/GPa) = 0.02001089
#
# Stress axis : x y z
#
# Youngs Moduli (GPa) = 118.48050 84.18860 127.16113
#
# Poissons Ratio (x) = 0.06045 0.32548
# Poissons Ratio (y) = 0.08508 0.10276
# Poissons Ratio (z) = 0.30326 0.06803
#
# Static dielectric constant tensor:
#      x y z
#    x 2.114190 -0.000010 -0.072070 
#    y -0.000010 1.904860 0.000020 
#    z -0.072070 0.000020 2.081940 
# 
# From -- ./inp_files/31656.got.cif
#   From: 2010.05.17/outbox.cif.g08.bks.cpg/sg9_16_cif.got.tgz:31656.got - 2010.06.03 20:04:27.
