data_PCOD9140426
_publ_section_title
;
Structure prediction by ZEFSAII (Michael W. Deem and Ramdas Pophale) SiO2 
 PCOD9140426
Probable space group: C C
;
_chemical_formula_sum "Si O2"
_cell_formula_units_Z 32
_cell_length_a 11.947999
_cell_length_b 8.555955
_cell_length_c 13.865474
_cell_angle_alpha 90.000000
_cell_angle_beta 93.227611
_cell_angle_gamma 90.000000
_cell_volume 1415.171072
_symmetry_space_group_name_H-M "C C"
_symmetry_group_IT_number 9
_symmetry_cell_setting 'monoclinic'
loop_
_space_group_symop_operation_xyz
x,y,z
x,-y,1/2+z
1/2+x,1/2+y,z
1/2+x,1/2-y,1/2+z
loop_
_atom_site_type_symbol
_atom_site_label
_atom_site_fract_x
_atom_site_fract_y
_atom_site_fract_z
Si Si1 0.595150 0.748070 0.086720
Si Si2 0.745256 0.493258 0.058831
Si Si3 0.918338 0.887640 0.234958
Si Si4 0.164045 0.501605 0.465322
Si Si5 0.345582 0.334637 0.597941
Si Si6 0.056360 0.928907 0.891174
Si Si7 0.461903 0.208820 0.039966
Si Si8 0.175071 0.338727 0.276752
O O1 0.664858 0.597008 0.122045
O O2 0.467658 0.710037 0.065393
O O3 0.618293 0.872478 0.171815
O O4 0.648896 0.821049 0.994998
O O5 0.782019 0.329971 0.107713
O O6 0.663925 0.465274 0.963458
O O7 0.853040 0.597784 0.037963
O O8 0.806412 0.802486 0.268444
O O9 0.869509 0.051817 0.189109
O O10 0.967914 0.792140 0.145694
O O11 0.001731 0.933574 0.325269
O O12 0.275329 0.430569 0.516867
O O13 0.164760 0.477652 0.352089
O O14 0.064084 0.401626 0.510404
O O15 0.102725 0.799300 0.819935
O O16 0.967245 0.845908 0.959415
#
# Coordination Sequence:
#
# PCOD9140426 Si02
#       8
#     4   4   4   4   4   4   4   4
#     4  12  25  47  71 105 146 190 242 301 365 426
#     4  12  25  46  73 104 143 192 239 300 368 433
#     4  12  26  45  77 103 145 196 242 304 371 434
#     4  11  25  48  71 102 149 191 238 301 361 431
#     4  12  24  44  73 101 139 190 235 298 365 426
#     4  11  27  46  70 109 149 183 245 305 361 441
#     4  11  24  49  72 106 145 193 247 297 372 436
#     4  11  24  45  71 106 142 187 248 294 353 445
#
# _framework density 22.612107000000002
#
# number of rings (size 3 to 8) (size 9 to 14) (size 15 to 20)
#    0.000    0.500    7.500    0.750    5.250    0.000 
#    6.750    2.500    0.000    0.000    0.000    0.000 
#    0.000    0.000    0.000    0.000    0.000    0.000 
#
# Total GULP energy -89450.361907 kJ/mol
# GULP energy per Si atom -5590.647619 kJ/mol
# Density = 2.256064 g / cm^3
# Si number density = 22.612107 Si / 1000 Ang^3
#
#
#
# Elastic Constant Matrix: (Units=GPa)
#
#
# Indices 1 2 3 4 5 6 
#
# 1 82.0721 14.2855 5.5237 0.0000 12.5762 0.0000
# 2 14.2855 60.5097 -1.9714 0.0000 3.3760 0.0000
# 3 5.5237 -1.9714 66.6921 0.0000 -1.0177 0.0000
# 4 0.0000 0.0000 0.0000 29.7458 0.0000 4.2010
# 5 12.5762 3.3760 -1.0177 0.0000 38.9024 0.0000
# 6 0.0000 0.0000 0.0000 4.2010 0.0000 41.0281
#
#
#
# Elastic Compliance Matrix: (Units=1/GPa)
#
#
# Indices 1 2 3 4 5 6 
#
# 1 0.013418 -0.002980 -0.001262 0.000000 -0.004112 0.000000
# 2 -0.002980 0.017283 0.000750 0.000000 -0.000517 0.000000
# 3 -0.001262 0.000750 0.015132 0.000000 0.000739 0.000000
# 4 0.000000 0.000000 0.000000 0.034112 0.000000 -0.003493
# 5 -0.004112 -0.000517 0.000739 0.000000 0.027099 0.000000
# 6 0.000000 0.000000 0.000000 -0.003493 0.000000 0.024731
#
#
# Mechanical properties :
#
#
# Convention : Reuss Voigt Hill
#
# Bulk Modulus (GPa) = 25.74036 27.21661 26.47849
# Shear Modulus (GPa) = 32.95792 34.69766 33.82779
#
# Velocity S-wave (km/s) = 3.82191 3.92148 3.87202
# Velocity P-wave (km/s) = 5.55735 5.70671 5.63252
#
# Compressibility (1/GPa) = 0.03884949
#
# Stress axis : x y z
#
# Youngs Moduli (GPa) = 74.52626 57.86040 66.08400
#
# Poissons Ratio (x) = 0.17240 0.08341
# Poissons Ratio (y) = 0.22205 -0.04955
# Poissons Ratio (z) = 0.09406 -0.04338
#
# Static dielectric constant tensor:
#      x y z
#    x 1.830210 0.000000 -0.010120 
#    y 0.000000 1.915720 0.000000 
#    z -0.010120 0.000000 1.862970 
# 
# From -- ./inp_files/24247.got.cif
#   From: 2010.05.17/outbox.cif.g08.bks.cpg/sg9_13_cif.got.tgz:24247.got - 2010.06.03 20:04:27.
