data_PCOD9140396
_publ_section_title
;
Structure prediction by ZEFSAII (Michael W. Deem and Ramdas Pophale) SiO2 
 PCOD9140396
Probable space group: C C
;
_chemical_formula_sum "Si O2"
_cell_formula_units_Z 28
_cell_length_a 5.598384
_cell_length_b 24.542363
_cell_length_c 8.566359
_cell_angle_alpha 90.000000
_cell_angle_beta 123.589697
_cell_angle_gamma 90.000000
_cell_volume 980.462853
_symmetry_space_group_name_H-M "C C"
_symmetry_group_IT_number 9
_symmetry_cell_setting 'monoclinic'
loop_
_space_group_symop_operation_xyz
x,y,z
x,-y,1/2+z
1/2+x,1/2+y,z
1/2+x,1/2-y,1/2+z
loop_
_atom_site_type_symbol
_atom_site_label
_atom_site_fract_x
_atom_site_fract_y
_atom_site_fract_z
Si Si1 0.920950 0.049129 0.525020
Si Si2 0.486182 0.758706 0.697470
Si Si3 0.550536 0.238087 0.912098
Si Si4 0.555788 0.981583 0.204954
Si Si5 0.284530 0.153990 0.342466
Si Si6 0.792728 0.884574 0.480655
Si Si7 0.846846 0.860288 0.182574
O O1 0.773384 0.029621 0.637051
O O2 0.995176 0.112387 0.588044
O O3 0.210245 0.019744 0.570167
O O4 0.668047 0.039051 0.311472
O O5 0.285296 0.757091 0.444204
O O6 0.754605 0.750427 0.671632
O O7 0.425541 0.819264 0.737161
O O8 0.334684 0.703747 0.693554
O O9 0.704538 0.289639 0.894360
O O10 0.626309 0.173798 0.922447
O O11 0.616906 0.938192 0.370823
O O12 0.515232 0.124152 0.531803
O O13 0.012918 0.117586 0.201753
O O14 0.980279 0.880818 0.389456
#
# Coordination Sequence:
#
# PCOD9140396 Si02
#       7
#     4   4   4   4   4   4   4
#     4  11  26  51  79 111 147 191 246 314 378 441
#     4  12  22  39  62  95 137 184 237 285 350 426
#     4  12  22  39  62  95 137 184 237 285 350 426
#     4  11  26  51  79 111 147 191 246 314 378 441
#     4  12  24  42  64 102 138 192 232 294 350 440
#     4  11  24  44  70  99 145 183 244 296 367 429
#     4  11  24  44  70  99 145 183 244 296 367 429
#
# _framework density 28.557941
#
# number of rings (size 3 to 8) (size 9 to 14) (size 15 to 20)
#    0.000    0.571    4.286    4.286    2.000    2.286 
#    5.143    0.000    0.000    0.000    0.000    0.000 
#    0.000    0.000    0.000    0.000    0.000    0.000 
#
# Total GULP energy -78056.198012 kJ/mol
# GULP energy per Si atom -5575.442715 kJ/mol
# Density = 2.849294 g / cm^3
# Si number density = 28.557941 Si / 1000 Ang^3
#
#
#
# Elastic Constant Matrix: (Units=GPa)
#
#
# Indices 1 2 3 4 5 6 
#
# 1 112.7405 10.1155 39.5984 0.0000 24.3833 0.0000
# 2 10.1155 74.8955 16.7625 0.0000 3.0052 0.0000
# 3 39.5984 16.7625 127.8005 0.0000 25.1097 0.0000
# 4 0.0000 0.0000 0.0000 48.1214 0.0000 -3.1472
# 5 24.3833 3.0052 25.1097 0.0000 51.2328 0.0000
# 6 0.0000 0.0000 0.0000 -3.1472 0.0000 34.8258
#
#
#
# Elastic Compliance Matrix: (Units=1/GPa)
#
#
# Indices 1 2 3 4 5 6 
#
# 1 0.010619 -0.000734 -0.002445 0.000000 -0.003813 0.000000
# 2 -0.000734 0.013807 -0.001652 0.000000 0.000349 0.000000
# 3 -0.002445 -0.001652 0.009462 0.000000 -0.003377 0.000000
# 4 0.000000 0.000000 0.000000 0.020904 0.000000 0.001889
# 5 -0.003813 0.000349 -0.003377 0.000000 0.022968 0.000000
# 6 0.000000 0.000000 0.000000 0.001889 0.000000 0.028885
#
#
# Mechanical properties :
#
#
# Convention : Reuss Voigt Hill
#
# Bulk Modulus (GPa) = 41.27747 49.82104 45.54926
# Shear Modulus (GPa) = 40.19832 43.43333 41.81583
#
# Velocity S-wave (km/s) = 3.75588 3.90408 3.83070
# Velocity P-wave (km/s) = 5.77011 6.14865 5.96239
#
# Compressibility (1/GPa) = 0.02422629
#
# Stress axis : x y z
#
# Youngs Moduli (GPa) = 94.16977 72.42797 105.68086
#
# Poissons Ratio (x) = 0.05317 0.25838
# Poissons Ratio (y) = 0.06912 0.17459
# Poissons Ratio (z) = 0.23024 0.11966
#
# Static dielectric constant tensor:
#      x y z
#    x 2.304800 0.000000 0.099150 
#    y 0.000000 2.142700 0.000000 
#    z 0.099150 0.000000 3.807070 
# 
# From -- ./inp_files/4079.got.cif
#   From: 2010.05.17/outbox.cif.g08.bks.cpg/sg9_3_cif.got.tgz:4079.got - 2010.06.03 20:04:27.
