data_PCOD9140990
_publ_section_title
;
Structure prediction by ZEFSAII (Michael W. Deem and Ramdas Pophale) SiO2 
 PCOD9140990
Probable space group: C C
;
_chemical_formula_sum "Si O2"
_cell_formula_units_Z 28
_cell_length_a 13.305583
_cell_length_b 14.163370
_cell_length_c 9.040335
_cell_angle_alpha 90.000000
_cell_angle_beta 138.732853
_cell_angle_gamma 90.000000
_cell_volume 1123.689822
_symmetry_space_group_name_H-M "C C"
_symmetry_group_IT_number 9
_symmetry_cell_setting 'monoclinic'
loop_
_space_group_symop_operation_xyz
x,y,z
x,-y,1/2+z
1/2+x,1/2+y,z
1/2+x,1/2-y,1/2+z
loop_
_atom_site_type_symbol
_atom_site_label
_atom_site_fract_x
_atom_site_fract_y
_atom_site_fract_z
Si Si1 0.929030 0.682505 0.445670
Si Si2 0.704054 0.931916 0.355459
Si Si3 0.844852 0.372751 0.331011
Si Si4 0.598448 0.351130 0.524837
Si Si5 0.903707 0.969479 0.841594
Si Si6 0.436161 0.972952 0.700650
Si Si7 0.061726 0.202631 0.650300
O O1 0.752237 0.666469 0.289226
O O2 0.940429 0.613236 0.317468
O O3 0.076567 0.649397 0.701719
O O4 0.961260 0.789913 0.440958
O O5 0.837732 0.920168 0.621882
O O6 0.775717 0.968364 0.282812
O O7 0.598700 0.014814 0.304213
O O8 0.826731 0.447960 0.444490
O O9 0.886147 0.434196 0.234695
O O10 0.691351 0.312854 0.170076
O O11 0.976686 0.299880 0.523139
O O12 0.542346 0.459199 0.457154
O O13 0.621881 0.307507 0.385374
O O14 0.950414 0.886466 0.004380
#
# Coordination Sequence:
#
# PCOD9140990 Si02
#       7
#     4   4   4   4   4   4   4
#     4  12  25  45  78 110 152 204 263 314 391 468
#     4  12  26  48  78 108 156 202 259 320 394 459
#     4  12  28  48  81 111 156 200 262 317 395 463
#     4  12  25  48  79 113 157 211 263 319 397 484
#     4  12  27  49  77 114 159 204 264 329 392 467
#     4  12  24  46  78 108 148 201 254 315 384 464
#     4  12  27  48  79 114 156 204 263 322 395 473
#
# _framework density 24.917908000000001
#
# number of rings (size 3 to 8) (size 9 to 14) (size 15 to 20)
#    0.000    0.000    7.143    1.714    4.000    0.000 
#    5.143    0.000    0.000    0.000    0.000    0.000 
#    0.000    0.000    0.000    0.000    0.000    0.000 
#
# Total GULP energy -78340.440274 kJ/mol
# GULP energy per Si atom -5595.745734 kJ/mol
# Density = 2.486119 g / cm^3
# Si number density = 24.917908 Si / 1000 Ang^3
#
#
#
# Elastic Constant Matrix: (Units=GPa)
#
#
# Indices 1 2 3 4 5 6 
#
# 1 91.4111 36.4681 18.8194 0.0000 9.5241 0.0000
# 2 36.4681 130.1649 55.7466 0.0000 4.0261 0.0000
# 3 18.8194 55.7466 113.8492 0.0000 14.7062 0.0000
# 4 0.0000 0.0000 0.0000 33.7404 0.0000 9.2179
# 5 9.5241 4.0261 14.7062 0.0000 33.7330 0.0000
# 6 0.0000 0.0000 0.0000 9.2179 0.0000 44.1206
#
#
#
# Elastic Compliance Matrix: (Units=1/GPa)
#
#
# Indices 1 2 3 4 5 6 
#
# 1 0.012643 -0.003447 0.000006 0.000000 -0.003161 0.000000
# 2 -0.003447 0.010691 -0.004902 0.000000 0.001834 0.000000
# 3 0.000006 -0.004902 0.011770 0.000000 -0.004548 0.000000
# 4 0.000000 0.000000 0.000000 0.031432 0.000000 -0.006567
# 5 -0.003161 0.001834 -0.004548 0.000000 0.032301 0.000000
# 6 0.000000 0.000000 0.000000 -0.006567 0.000000 0.024037
#
#
# Mechanical properties :
#
#
# Convention : Reuss Voigt Hill
#
# Bulk Modulus (GPa) = 54.29313 61.94371 58.11842
# Shear Modulus (GPa) = 34.31723 37.27819 35.79771
#
# Velocity S-wave (km/s) = 3.71511 3.87206 3.79440
# Velocity P-wave (km/s) = 6.34340 6.70101 6.52466
#
# Compressibility (1/GPa) = 0.01841854
#
# Stress axis : x y z
#
# Youngs Moduli (GPa) = 79.09632 93.53661 84.95973
#
# Poissons Ratio (x) = 0.32242 -0.00053
# Poissons Ratio (y) = 0.27265 0.41647
# Poissons Ratio (z) = -0.00050 0.45852
#
# Static dielectric constant tensor:
#      x y z
#    x 1.981720 0.000000 0.029660 
#    y 0.000000 1.941200 0.000000 
#    z 0.029660 0.000000 2.025950 
# 
# From -- ./inp_files/9748.got.cif
#   From: 2010.05.17/outbox.cif.g08.bks.cpg/sg9_5_cif.got.tgz:9748.got - 2010.06.03 20:04:27.
