data_PCOD9140650
_publ_section_title
;
Structure prediction by ZEFSAII (Michael W. Deem and Ramdas Pophale) SiO2 
 PCOD9140650
Probable space group: C C
;
_chemical_formula_sum "Si O2"
_cell_formula_units_Z 28
_cell_length_a 21.311765
_cell_length_b 8.492997
_cell_length_c 8.184787
_cell_angle_alpha 90.000000
_cell_angle_beta 47.214351
_cell_angle_gamma 90.000000
_cell_volume 1087.238123
_symmetry_space_group_name_H-M "C C"
_symmetry_group_IT_number 9
_symmetry_cell_setting 'monoclinic'
loop_
_space_group_symop_operation_xyz
x,y,z
x,-y,1/2+z
1/2+x,1/2+y,z
1/2+x,1/2-y,1/2+z
loop_
_atom_site_type_symbol
_atom_site_label
_atom_site_fract_x
_atom_site_fract_y
_atom_site_fract_z
Si Si1 0.610220 0.332491 0.957050
Si Si2 0.356692 0.650200 0.297041
Si Si3 0.587281 0.033198 0.825197
Si Si4 0.925104 0.853396 0.342766
Si Si5 0.397526 0.000776 0.755786
Si Si6 0.711879 0.449518 0.077720
Si Si7 0.188413 0.680824 0.366674
O O1 0.596276 0.149049 0.964689
O O2 0.674575 0.385419 0.702808
O O3 0.515935 0.400726 0.106130
O O4 0.649015 0.376516 0.059347
O O5 0.361141 0.490733 0.394376
O O6 0.376420 0.817906 0.353720
O O7 0.271164 0.648526 0.334849
O O8 0.428952 0.638542 0.030066
O O9 0.609694 0.135873 0.625723
O O10 0.659864 0.909805 0.749545
O O11 0.487585 0.985190 0.001531
O O12 0.905615 0.669410 0.335528
O O13 0.305929 0.964206 0.835508
O O14 0.706195 0.350402 0.255924
#
# Coordination Sequence:
#
# PCOD9140650 Si02
#       7
#     4   4   4   4   4   4   4
#     4  11  25  45  72 112 148 198 255 322 383 471
#     4  12  26  50  76 111 159 199 267 321 388 468
#     4  11  27  46  75 110 154 199 263 318 396 458
#     4  11  27  48  76 114 151 207 259 323 394 455
#     4  11  28  49  76 115 155 205 259 325 384 476
#     4  12  25  48  78 107 158 197 262 319 401 464
#     4  12  26  46  75 113 145 209 253 326 392 466
#
# _framework density 25.753329000000001
#
# number of rings (size 3 to 8) (size 9 to 14) (size 15 to 20)
#    0.000    0.571    1.429    5.143   10.000    2.286 
#    0.000    0.000    0.000    0.000    0.000    0.000 
#    0.000    0.000    0.000    0.000    0.000    0.000 
#
# Total GULP energy -78074.818466 kJ/mol
# GULP energy per Si atom -5576.772748 kJ/mol
# Density = 2.569471 g / cm^3
# Si number density = 25.753329 Si / 1000 Ang^3
#
#
#
# Elastic Constant Matrix: (Units=GPa)
#
#
# Indices 1 2 3 4 5 6 
#
# 1 120.3437 82.9881 35.0887 0.0000 -15.8789 0.0000
# 2 82.9881 165.3303 43.7576 0.0000 7.8778 0.0000
# 3 35.0887 43.7576 101.2666 0.0000 -23.2969 0.0000
# 4 0.0000 0.0000 0.0000 32.6968 0.0000 12.3616
# 5 -15.8789 7.8778 -23.2969 0.0000 48.2235 0.0000
# 6 0.0000 0.0000 0.0000 12.3616 0.0000 55.6092
#
#
#
# Elastic Compliance Matrix: (Units=1/GPa)
#
#
# Indices 1 2 3 4 5 6 
#
# 1 0.014209 -0.007272 -0.000485 0.000000 0.005632 0.000000
# 2 -0.007272 0.010921 -0.003556 0.000000 -0.005896 0.000000
# 3 -0.000485 -0.003556 0.013136 0.000000 0.006767 0.000000
# 4 0.000000 0.000000 0.000000 0.033390 0.000000 -0.007422
# 5 0.005632 -0.005896 0.006767 0.000000 0.026824 0.000000
# 6 0.000000 0.000000 0.000000 -0.007422 0.000000 0.019633
#
#
# Mechanical properties :
#
#
# Convention : Reuss Voigt Hill
#
# Bulk Modulus (GPa) = 63.93903 78.95659 71.44781
# Shear Modulus (GPa) = 34.25778 42.31299 38.28538
#
# Velocity S-wave (km/s) = 3.65118 4.05780 3.85985
# Velocity P-wave (km/s) = 6.53117 7.25808 6.90420
#
# Compressibility (1/GPa) = 0.01563990
#
# Stress axis : x y z
#
# Youngs Moduli (GPa) = 70.37770 91.56840 76.12490
#
# Poissons Ratio (x) = 0.66590 0.03695
# Poissons Ratio (y) = 0.51180 0.27067
# Poissons Ratio (z) = 0.03416 0.32558
#
# Static dielectric constant tensor:
#      x y z
#    x 2.028730 0.000000 -0.011360 
#    y 0.000000 2.112490 0.000000 
#    z -0.011360 0.000000 2.015570 
# 
# From -- ./inp_files/11411.got.cif
#   From: 2010.05.17/outbox.cif.g08.bks.cpg/sg9_6_cif.got.tgz:11411.got - 2010.06.03 20:04:27.
