data_PCOD9140973
_publ_section_title
;
Structure prediction by ZEFSAII (Michael W. Deem and Ramdas Pophale) SiO2 
 PCOD9140973
Probable space group: C C
;
_chemical_formula_sum "Si O2"
_cell_formula_units_Z 24
_cell_length_a 4.908681
_cell_length_b 18.988775
_cell_length_c 12.147421
_cell_angle_alpha 90.000000
_cell_angle_beta 75.723610
_cell_angle_gamma 90.000000
_cell_volume 1097.292084
_symmetry_space_group_name_H-M "C C"
_symmetry_group_IT_number 9
_symmetry_cell_setting 'monoclinic'
loop_
_space_group_symop_operation_xyz
x,y,z
x,-y,1/2+z
1/2+x,1/2+y,z
1/2+x,1/2-y,1/2+z
loop_
_atom_site_type_symbol
_atom_site_label
_atom_site_fract_x
_atom_site_fract_y
_atom_site_fract_z
Si Si1 0.062320 0.074534 0.782140
Si Si2 0.464592 0.774976 0.991037
Si Si3 0.790849 0.426519 0.677119
Si Si4 0.114056 0.660099 0.710731
Si Si5 0.065331 0.201288 0.344424
Si Si6 0.388805 0.607974 0.032188
O O1 0.323925 0.125836 0.780552
O O2 0.865682 0.105351 0.705064
O O3 0.195931 0.000452 0.736364
O O4 0.879094 0.074969 0.911640
O O5 0.195305 0.803808 0.953231
O O6 0.732769 0.786938 0.885680
O O7 0.543746 0.814666 0.095004
O O8 0.407567 0.692727 0.020790
O O9 0.655017 0.365009 0.763991
O O10 0.663366 0.418340 0.568108
O O11 0.122362 0.414782 0.631508
O O12 0.188149 0.728627 0.775295
#
# Coordination Sequence:
#
# PCOD9140973 Si02
#       6
#     4   4   4   4   4   4
#     4  12  27  47  70 105 144 188 234 295 357 428
#     4  12  25  42  76 108 138 185 241 295 351 418
#     4  12  28  45  73 105 147 186 239 297 356 432
#     4  12  24  44  72 103 140 185 242 287 348 426
#     4  12  24  44  71 107 137 185 240 294 343 424
#     4  12  24  46  74 102 142 195 234 292 371 418
#
# _framework density 21.872026000000002
#
# number of rings (size 3 to 8) (size 9 to 14) (size 15 to 20)
#    0.000    0.000    5.000    5.000    2.333    4.000 
#    0.000    0.000    0.000    0.000    0.000    0.000 
#    0.000    0.000    0.000    0.000    0.000    0.000 
#
# Total GULP energy -67205.220918 kJ/mol
# GULP energy per Si atom -5600.435076 kJ/mol
# Density = 2.182224 g / cm^3
# Si number density = 21.872026 Si / 1000 Ang^3
#
#
#
# Elastic Constant Matrix: (Units=GPa)
#
#
# Indices 1 2 3 4 5 6 
#
# 1 95.6602 19.0021 3.5375 0.0000 2.4463 0.0000
# 2 19.0021 110.7829 50.3144 0.0000 -8.4306 0.0000
# 3 3.5375 50.3144 77.2101 0.0000 3.2525 0.0000
# 4 0.0000 0.0000 0.0000 7.8534 0.0000 -5.0416
# 5 2.4463 -8.4306 3.2525 0.0000 41.7123 0.0000
# 6 0.0000 0.0000 0.0000 -5.0416 0.0000 20.3771
#
#
#
# Elastic Compliance Matrix: (Units=1/GPa)
#
#
# Indices 1 2 3 4 5 6 
#
# 1 0.010940 -0.002510 0.001187 0.000000 -0.001241 0.000000
# 2 -0.002510 0.013853 -0.009066 0.000000 0.003654 0.000000
# 3 0.001187 -0.009066 0.018948 0.000000 -0.003379 0.000000
# 4 0.000000 0.000000 0.000000 0.151378 0.000000 0.037454
# 5 -0.001241 0.003654 -0.003379 0.000000 0.025049 0.000000
# 6 0.000000 0.000000 0.000000 0.037454 0.000000 0.058341
#
#
# Mechanical properties :
#
#
# Convention : Reuss Voigt Hill
#
# Bulk Modulus (GPa) = 43.55075 47.70681 45.62878
# Shear Modulus (GPa) = 16.28974 28.04182 22.16578
#
# Velocity S-wave (km/s) = 2.73202 3.58451 3.18690
# Velocity P-wave (km/s) = 5.46871 6.24426 5.86930
#
# Compressibility (1/GPa) = 0.02296172
#
# Stress axis : x y z
#
# Youngs Moduli (GPa) = 91.40673 72.18715 52.77679
#
# Poissons Ratio (x) = 0.18119 -0.06263
# Poissons Ratio (y) = 0.22943 0.47849
# Poissons Ratio (z) = -0.10847 0.65447
#
# Static dielectric constant tensor:
#      x y z
#    x 1.759950 0.000000 -0.007500 
#    y 0.000000 1.765640 0.000000 
#    z -0.007500 0.000000 1.820330 
# 
# From -- ./inp_files/13006.got.cif
#   From: 2010.05.17/outbox.cif.g08.bks.cpg/sg9_7_cif.got.tgz:13006.got - 2010.06.03 20:04:27.
