data_PCOD9140631
_publ_section_title
;
Structure prediction by ZEFSAII (Michael W. Deem and Ramdas Pophale) SiO2 
 PCOD9140631
Probable space group: C C
;
_chemical_formula_sum "Si O2"
_cell_formula_units_Z 32
_cell_length_a 8.180777
_cell_length_b 15.401600
_cell_length_c 13.138349
_cell_angle_alpha 90.000000
_cell_angle_beta 119.525059
_cell_angle_gamma 90.000000
_cell_volume 1440.424317
_symmetry_space_group_name_H-M "C C"
_symmetry_group_IT_number 9
_symmetry_cell_setting 'monoclinic'
loop_
_space_group_symop_operation_xyz
x,y,z
x,-y,1/2+z
1/2+x,1/2+y,z
1/2+x,1/2-y,1/2+z
loop_
_atom_site_type_symbol
_atom_site_label
_atom_site_fract_x
_atom_site_fract_y
_atom_site_fract_z
Si Si1 0.577240 0.880035 0.150520
Si Si2 0.203486 0.596634 0.921383
Si Si3 0.029715 0.190637 0.132104
Si Si4 0.932458 0.131192 0.608760
Si Si5 0.288419 0.420680 0.867741
Si Si6 0.437927 0.816316 0.672776
Si Si7 0.911630 0.449313 0.497538
Si Si8 0.556394 0.527562 0.275858
O O1 0.641344 0.880124 0.288213
O O2 0.459804 0.790198 0.111383
O O3 0.736636 0.869368 0.112245
O O4 0.489923 0.972983 0.093714
O O5 0.223205 0.493172 0.926456
O O6 0.053431 0.602839 0.966324
O O7 0.397928 0.643091 0.009114
O O8 0.254670 0.195238 0.185799
O O9 0.022716 0.124912 0.224998
O O10 0.915145 0.136555 0.481566
O O11 0.020195 0.222301 0.670253
O O12 0.028538 0.043096 0.677917
O O13 0.401304 0.473843 0.817137
O O14 0.109805 0.370444 0.771077
O O15 0.350334 0.872372 0.553654
O O16 0.752712 0.498894 0.384673
#
# Coordination Sequence:
#
# PCOD9140631 Si02
#       8
#     4   4   4   4   4   4   4   4
#     4  11  25  44  72 100 136 184 227 280 349 409
#     4  12  23  47  71  95 143 179 225 289 339 400
#     4  11  26  44  70 104 135 179 232 279 345 413
#     4  11  25  44  72 100 136 184 227 280 349 409
#     4  12  23  47  71  95 143 179 225 289 339 400
#     4  11  26  44  70 104 135 179 232 279 345 413
#     4  12  26  45  69 102 136 183 232 281 342 408
#     4  12  26  45  69 102 136 183 232 281 342 408
#
# _framework density 22.215674
#
# number of rings (size 3 to 8) (size 9 to 14) (size 15 to 20)
#    0.000    0.500    5.000    2.250    3.500    3.000 
#    4.500    0.000    0.000    0.000    0.000    0.000 
#    0.000    0.000    0.000    0.000    0.000    0.000 
#
# Total GULP energy -89191.190859 kJ/mol
# GULP energy per Si atom -5574.449429 kJ/mol
# Density = 2.216511 g / cm^3
# Si number density = 22.215674 Si / 1000 Ang^3
#
#
#
# Elastic Constant Matrix: (Units=GPa)
#
#
# Indices 1 2 3 4 5 6 
#
# 1 31.3845 6.5716 10.4788 0.0000 7.5258 0.0000
# 2 6.5716 94.6980 17.7341 0.0000 -3.7690 0.0000
# 3 10.4788 17.7341 103.7098 0.0000 7.3271 0.0000
# 4 0.0000 0.0000 0.0000 27.0646 0.0000 5.0486
# 5 7.5258 -3.7690 7.3271 0.0000 25.3747 0.0000
# 6 0.0000 0.0000 0.0000 5.0486 0.0000 14.9321
#
#
#
# Elastic Compliance Matrix: (Units=1/GPa)
#
#
# Indices 1 2 3 4 5 6 
#
# 1 0.035643 -0.002418 -0.002466 0.000000 -0.010218 0.000000
# 2 -0.002418 0.011195 -0.001876 0.000000 0.002922 0.000000
# 3 -0.002466 -0.001876 0.010392 0.000000 -0.002548 0.000000
# 4 0.000000 0.000000 0.000000 0.039436 0.000000 -0.013334
# 5 -0.010218 0.002922 -0.002548 0.000000 0.043610 0.000000
# 6 0.000000 0.000000 0.000000 -0.013334 0.000000 0.071478
#
#
# Mechanical properties :
#
#
# Convention : Reuss Voigt Hill
#
# Bulk Modulus (GPa) = 22.87848 33.26236 28.07042
# Shear Modulus (GPa) = 20.84674 26.47478 23.66076
#
# Velocity S-wave (km/s) = 3.06662 3.45587 3.26705
# Velocity P-wave (km/s) = 4.78117 5.56139 5.18597
#
# Compressibility (1/GPa) = 0.04370920
#
# Stress axis : x y z
#
# Youngs Moduli (GPa) = 28.05611 89.32228 96.22465
#
# Poissons Ratio (x) = 0.21601 0.23728
# Poissons Ratio (y) = 0.06785 0.18056
# Poissons Ratio (z) = 0.06918 0.16761
#
# Static dielectric constant tensor:
#      x y z
#    x 1.815540 0.000000 0.024490 
#    y 0.000000 1.872930 0.000000 
#    z 0.024490 0.000000 1.842590 
# 
# From -- ./inp_files/14664.got.cif
#   From: 2010.05.17/outbox.cif.g08.bks.cpg/sg9_8_cif.got.tgz:14664.got - 2010.06.03 20:04:27.
