data_PCOD9140463
_publ_section_title
;
Structure prediction by ZEFSAII (Michael W. Deem and Ramdas Pophale) SiO2 
 PCOD9140463
Probable space group: C C
;
_chemical_formula_sum "Si O2"
_cell_formula_units_Z 32
_cell_length_a 6.731080
_cell_length_b 25.725216
_cell_length_c 8.790874
_cell_angle_alpha 90.000000
_cell_angle_beta 74.748944
_cell_angle_gamma 90.000000
_cell_volume 1468.605817
_symmetry_space_group_name_H-M "C C"
_symmetry_group_IT_number 9
_symmetry_cell_setting 'monoclinic'
loop_
_space_group_symop_operation_xyz
x,y,z
x,-y,1/2+z
1/2+x,1/2+y,z
1/2+x,1/2-y,1/2+z
loop_
_atom_site_type_symbol
_atom_site_label
_atom_site_fract_x
_atom_site_fract_y
_atom_site_fract_z
Si Si1 0.423470 0.111559 0.980250
Si Si2 0.481996 0.546635 0.475736
Si Si3 0.431240 0.073955 0.317005
Si Si4 0.637618 0.683386 0.865790
Si Si5 0.727537 0.187548 0.773642
Si Si6 0.965015 0.766508 0.707164
Si Si7 0.723858 0.978467 0.310594
Si Si8 0.736378 0.856545 0.932595
O O1 0.228842 0.130413 0.920043
O O2 0.578474 0.160089 0.925791
O O3 0.549025 0.062398 0.891904
O O4 0.379320 0.098620 0.163885
O O5 0.726932 0.547893 0.427070
O O6 0.372816 0.498527 0.413742
O O7 0.375584 0.547339 0.659902
O O8 0.404460 0.597808 0.405233
O O9 0.531066 0.117826 0.404446
O O10 0.602793 0.028629 0.269108
O O11 0.455565 0.677031 0.783949
O O12 0.815870 0.716499 0.747739
O O13 0.546392 0.716291 0.026628
O O14 0.661024 0.247678 0.767935
O O15 0.702214 0.163674 0.610277
O O16 0.832907 0.812021 0.809126
#
# Coordination Sequence:
#
# PCOD9140463 Si02
#       8
#     4   4   4   4   4   4   4   4
#     4  11  24  47  66 105 147 183 235 296 357 430
#     4  11  25  43  72 104 138 191 233 294 362 421
#     4  11  26  45  76 101 145 190 235 301 361 426
#     4  11  26  42  73 102 138 195 232 293 365 417
#     4  11  25  45  71 103 141 187 237 295 353 428
#     4  11  24  46  67 104 142 183 241 291 357 424
#     4  11  24  46  68 106 144 182 244 292 355 439
#     4  11  24  46  69 107 141 183 243 292 350 435
#
# _framework density 21.789373999999999
#
# number of rings (size 3 to 8) (size 9 to 14) (size 15 to 20)
#    0.000    1.000    3.750    1.500    3.500    6.000 
#    0.000    0.000    0.000    0.000    0.000    0.000 
#    0.000    0.000    0.000    0.000    0.000    0.000 
#
# Total GULP energy -89445.607199 kJ/mol
# GULP energy per Si atom -5590.350450 kJ/mol
# Density = 2.173978 g / cm^3
# Si number density = 21.789374 Si / 1000 Ang^3
#
#
#
# Elastic Constant Matrix: (Units=GPa)
#
#
# Indices 1 2 3 4 5 6 
#
# 1 139.1878 45.3459 63.1223 0.0000 -7.2129 0.0000
# 2 45.3459 87.9337 37.9086 0.0000 4.4402 0.0000
# 3 63.1223 37.9086 107.7995 0.0000 -6.7300 0.0000
# 4 0.0000 0.0000 0.0000 25.8054 0.0000 -11.7516
# 5 -7.2129 4.4402 -6.7300 0.0000 26.0366 0.0000
# 6 0.0000 0.0000 0.0000 -11.7516 0.0000 33.0367
#
#
#
# Elastic Compliance Matrix: (Units=1/GPa)
#
#
# Indices 1 2 3 4 5 6 
#
# 1 0.010651 -0.003514 -0.004858 0.000000 0.002294 0.000000
# 2 -0.003514 0.014897 -0.003456 0.000000 -0.004407 0.000000
# 3 -0.004858 -0.003456 0.013507 0.000000 0.002735 0.000000
# 4 0.000000 0.000000 0.000000 0.046242 0.000000 0.016449
# 5 0.002294 -0.004407 0.002735 0.000000 0.040502 0.000000
# 6 0.000000 0.000000 0.000000 0.016449 0.000000 0.036120
#
#
# Mechanical properties :
#
#
# Convention : Reuss Voigt Hill
#
# Bulk Modulus (GPa) = 64.93898 69.74163 67.34030
# Shear Modulus (GPa) = 26.21794 29.54537 27.88165
#
# Velocity S-wave (km/s) = 3.47254 3.68632 3.58103
# Velocity P-wave (km/s) = 6.77834 7.08486 6.93329
#
# Compressibility (1/GPa) = 0.01539907
#
# Stress axis : x y z
#
# Youngs Moduli (GPa) = 93.88386 67.12800 74.03528
#
# Poissons Ratio (x) = 0.23591 0.35965
# Poissons Ratio (y) = 0.32994 0.25586
# Poissons Ratio (z) = 0.45608 0.23199
#
# Static dielectric constant tensor:
#      x y z
#    x 1.804890 0.000000 0.010940 
#    y 0.000000 1.824100 0.000000 
#    z 0.010940 0.000000 1.778650 
# 
# From -- ./inp_files/4487.got.cif
#   From: 2010.05.17/outbox.cif.g08.bks.cpg/sg9_3_cif.got.tgz:4487.got - 2010.06.03 20:04:27.
