data_PCOD9140878
_publ_section_title
;
Structure prediction by ZEFSAII (Michael W. Deem and Ramdas Pophale) SiO2 
 PCOD9140878
Probable space group: C C
;
_chemical_formula_sum "Si O2"
_cell_formula_units_Z 28
_cell_length_a 13.086585
_cell_length_b 14.551111
_cell_length_c 10.394672
_cell_angle_alpha 90.000000
_cell_angle_beta 147.732125
_cell_angle_gamma 90.000000
_cell_volume 1056.758072
_symmetry_space_group_name_H-M "C C"
_symmetry_group_IT_number 9
_symmetry_cell_setting 'monoclinic'
loop_
_space_group_symop_operation_xyz
x,y,z
x,-y,1/2+z
1/2+x,1/2+y,z
1/2+x,1/2-y,1/2+z
loop_
_atom_site_type_symbol
_atom_site_label
_atom_site_fract_x
_atom_site_fract_y
_atom_site_fract_z
Si Si1 0.381780 0.920895 0.462250
Si Si2 0.981870 0.750253 0.242634
Si Si3 0.258512 0.249747 0.218435
Si Si4 0.858601 0.920895 0.498817
Si Si5 0.120191 0.602766 0.980534
Si Si6 0.963292 0.112116 0.499258
Si Si7 0.777090 0.612116 0.461809
O O1 0.472923 0.839896 0.642757
O O2 0.516888 0.949567 0.487903
O O3 0.182361 0.885228 0.189812
O O4 0.330271 0.005301 0.499603
O O5 0.236327 0.753162 0.533247
O O6 0.963404 0.841756 0.138656
O O7 0.504056 0.253162 0.427822
O O8 0.267459 0.339896 0.318311
O O9 0.276979 0.158244 0.322413
O O10 0.723494 0.949567 0.473166
O O11 0.910109 0.005302 0.461463
O O12 0.058020 0.885227 0.771255
O O13 0.295683 0.655495 0.235017
O O14 0.944698 0.655494 0.726051
#
# Coordination Sequence:
#
# PCOD9140878 Si02
#       7
#     4   4   4   4   4   4   4
#     4  11  27  49  75 113 152 200 249 311 381 439
#     4  12  25  48  80 108 146 195 262 305 367 454
#     4  12  25  48  80 108 146 195 262 305 367 454
#     4  11  27  49  75 113 152 200 249 311 381 439
#     4  12  26  46  76 106 156 188 256 298 382 450
#     4  11  27  49  76 112 151 202 241 317 381 437
#     4  11  27  49  76 112 151 202 241 317 381 437
#
# _framework density 26.496130999999998
#
# number of rings (size 3 to 8) (size 9 to 14) (size 15 to 20)
#    0.000    0.571    2.857    3.429    6.000    1.143 
#    0.000    0.000    0.000    0.000    0.000    0.000 
#    0.000    0.000    0.000    0.000    0.000    0.000 
#
# Total GULP energy -78322.744324 kJ/mol
# GULP energy per Si atom -5594.481737 kJ/mol
# Density = 2.643583 g / cm^3
# Si number density = 26.496131 Si / 1000 Ang^3
#
#
#
# Elastic Constant Matrix: (Units=GPa)
#
#
# Indices 1 2 3 4 5 6 
#
# 1 125.2156 -1.7705 31.2491 0.0000 32.2638 0.0000
# 2 -1.7705 88.8372 30.0778 0.0000 -12.6381 0.0000
# 3 31.2491 30.0778 305.2560 0.0000 13.7721 0.0000
# 4 0.0000 0.0000 0.0000 22.2591 0.0000 9.7433
# 5 32.2638 -12.6381 13.7721 0.0000 56.2051 0.0000
# 6 0.0000 0.0000 0.0000 9.7433 0.0000 23.7425
#
#
#
# Elastic Compliance Matrix: (Units=1/GPa)
#
#
# Indices 1 2 3 4 5 6 
#
# 1 0.009543 -0.000338 -0.000701 0.000000 -0.005383 0.000000
# 2 -0.000338 0.012155 -0.001310 0.000000 0.003248 0.000000
# 3 -0.000701 -0.001310 0.003511 0.000000 -0.000752 0.000000
# 4 0.000000 0.000000 0.000000 0.054762 0.000000 -0.022473
# 5 -0.005383 0.003248 -0.000752 0.000000 0.021797 0.000000
# 6 0.000000 0.000000 0.000000 -0.022473 0.000000 0.051341
#
#
# Mechanical properties :
#
#
# Convention : Reuss Voigt Hill
#
# Bulk Modulus (GPa) = 48.75228 70.93576 59.84402
# Shear Modulus (GPa) = 30.36861 51.09148 40.73004
#
# Velocity S-wave (km/s) = 3.38916 4.39596 3.92498
# Velocity P-wave (km/s) = 5.80990 7.25232 6.57081
#
# Compressibility (1/GPa) = 0.02051186
#
# Stress axis : x y z
#
# Youngs Moduli (GPa) = 104.78648 82.26849 284.84619
#
# Poissons Ratio (x) = 0.02783 0.19961
# Poissons Ratio (y) = 0.03545 0.37304
# Poissons Ratio (z) = 0.07343 0.10774
#
# Static dielectric constant tensor:
#      x y z
#    x 2.132730 0.000000 0.217280 
#    y 0.000000 1.880920 0.000000 
#    z 0.217280 0.000000 2.354120 
# 
# From -- ./inp_files/18472.got.cif
#   From: 2010.05.17/outbox.cif.g08.bks.cpg/sg9_10_cif.got.tgz:18472.got - 2010.06.03 20:04:27.
