data_PCOD9140553
_publ_section_title
;
Structure prediction by ZEFSAII (Michael W. Deem and Ramdas Pophale) SiO2 
 PCOD9140553
Probable space group: C C
;
_chemical_formula_sum "Si O2"
_cell_formula_units_Z 32
_cell_length_a 9.132643
_cell_length_b 13.572986
_cell_length_c 10.175354
_cell_angle_alpha 90.000000
_cell_angle_beta 98.246915
_cell_angle_gamma 90.000000
_cell_volume 1248.265700
_symmetry_space_group_name_H-M "C C"
_symmetry_group_IT_number 9
_symmetry_cell_setting 'monoclinic'
loop_
_space_group_symop_operation_xyz
x,y,z
x,-y,1/2+z
1/2+x,1/2+y,z
1/2+x,1/2-y,1/2+z
loop_
_atom_site_type_symbol
_atom_site_label
_atom_site_fract_x
_atom_site_fract_y
_atom_site_fract_z
Si Si1 0.269960 0.542492 0.387100
Si Si2 0.162461 0.294058 0.573170
Si Si3 0.436518 0.339223 0.482542
Si Si4 0.676618 0.201640 0.572435
Si Si5 0.577594 0.418541 0.968813
Si Si6 0.920803 0.702410 0.234726
Si Si7 0.237276 0.996674 0.734727
Si Si8 0.036209 0.604325 0.799528
O O1 0.376652 0.445372 0.430553
O O2 0.174163 0.604600 0.481633
O O3 0.415145 0.609259 0.389965
O O4 0.143461 0.490503 0.285285
O O5 0.333644 0.322872 0.595241
O O6 0.150433 0.185213 0.515008
O O7 0.079140 0.362159 0.453097
O O8 0.087921 0.303815 0.705433
O O9 0.604648 0.304706 0.517059
O O10 0.394445 0.256393 0.368640
O O11 0.846366 0.222364 0.623431
O O12 0.590649 0.179433 0.696211
O O13 0.662465 0.475617 0.864485
O O14 0.612207 0.477799 0.110377
O O15 0.833753 0.600792 0.216669
O O16 0.364237 0.079786 0.762761
#
# Coordination Sequence:
#
# PCOD9140553 Si02
#       8
#     4   4   4   4   4   4   4   4
#     4  11  26  45  74 108 150 198 255 317 385 477
#     4  11  24  48  70 104 147 191 245 318 381 473
#     4  11  25  48  71 106 148 198 248 317 384 463
#     4  12  24  49  73 105 150 198 246 320 386 462
#     4  12  26  47  74 111 151 196 257 314 400 470
#     4  12  24  48  70 102 151 188 253 317 381 471
#     4  12  27  46  77 111 149 204 255 327 390 486
#     4  11  26  47  73 107 146 191 263 312 393 472
#
# _framework density 25.635570000000001
#
# number of rings (size 3 to 8) (size 9 to 14) (size 15 to 20)
#    0.000    0.500    5.000    3.000    8.750    0.000 
#    2.250    0.000    0.000    0.000    0.000    0.000 
#    0.000    0.000    0.000    0.000    0.000    0.000 
#
# Total GULP energy -89290.620586 kJ/mol
# GULP energy per Si atom -5580.663787 kJ/mol
# Density = 2.557722 g / cm^3
# Si number density = 25.635570 Si / 1000 Ang^3
#
#
#
# Elastic Constant Matrix: (Units=GPa)
#
#
# Indices 1 2 3 4 5 6 
#
# 1 80.0917 -19.9526 21.0810 0.0000 2.2314 0.0000
# 2 -19.9526 61.0185 24.3187 0.0000 -5.6008 0.0000
# 3 21.0810 24.3187 81.8617 0.0000 -8.4869 0.0000
# 4 0.0000 0.0000 0.0000 3.2067 0.0000 32.9553
# 5 2.2314 -5.6008 -8.4869 0.0000 39.4973 0.0000
# 6 0.0000 0.0000 0.0000 32.9553 0.0000 17.1770
#
#
#
# Elastic Compliance Matrix: (Units=1/GPa)
#
#
# Indices 1 2 3 4 5 6 
#
# 1 0.016216 0.007832 -0.006630 0.000000 -0.001230 0.000000
# 2 0.007832 0.022457 -0.008596 0.000000 0.000895 0.000000
# 3 -0.006630 -0.008596 0.016763 0.000000 0.002758 0.000000
# 4 0.000000 0.000000 0.000000 -0.016661 0.000000 0.031965
# 5 -0.001230 0.000895 0.002758 0.000000 0.026107 0.000000
# 6 0.000000 0.000000 0.000000 0.031965 0.000000 -0.003110
#
#
# Mechanical properties :
#
#
# Convention : Reuss Voigt Hill
#
# Bulk Modulus (GPa) = 24.60095 30.42958 27.51526
# Shear Modulus (GPa) = 55.48843 25.14454 40.31649
#
# Velocity S-wave (km/s) = 4.65748 3.13524 3.97000
# Velocity P-wave (km/s) = 6.20806 5.00022 5.63659
#
# Compressibility (1/GPa) = 0.04064883
#
# Stress axis : x y z
#
# Youngs Moduli (GPa) = 61.66646 44.52872 59.65685
#
# Poissons Ratio (x) = -0.34876 0.39554
# Poissons Ratio (y) = -0.48298 0.51279
# Poissons Ratio (z) = 0.40886 0.38275
#
# Static dielectric constant tensor:
#      x y z
#    x 2.149340 0.000000 0.028530 
#    y 0.000000 2.170170 0.000000 
#    z 0.028530 0.000000 2.031250 
# 
# From -- ./inp_files/14768.got.cif
#   From: 2010.05.17/outbox.cif.g08.bks.cpg/sg9_8_cif.got.tgz:14768.got - 2010.06.03 20:04:27.
