data_PCOD9140007
_publ_section_title
;
Structure prediction by ZEFSAII (Michael W. Deem and Ramdas Pophale) SiO2 
 PCOD9140007
Probable space group: C C
;
_chemical_formula_sum "Si O2"
_cell_formula_units_Z 20
_cell_length_a 11.631416
_cell_length_b 7.916090
_cell_length_c 9.427284
_cell_angle_alpha 90.000000
_cell_angle_beta 101.116516
_cell_angle_gamma 90.000000
_cell_volume 851.733785
_symmetry_space_group_name_H-M "C C"
_symmetry_group_IT_number 9
_symmetry_cell_setting 'monoclinic'
loop_
_space_group_symop_operation_xyz
x,y,z
x,-y,1/2+z
1/2+x,1/2+y,z
1/2+x,1/2-y,1/2+z
loop_
_atom_site_type_symbol
_atom_site_label
_atom_site_fract_x
_atom_site_fract_y
_atom_site_fract_z
Si Si1 0.270970 0.030380 0.776460
Si Si2 0.416195 0.614152 0.585584
Si Si3 0.125803 0.886650 0.516562
Si Si4 0.520687 0.901780 0.804555
Si Si5 0.264917 0.597016 0.269174
O O1 0.220534 0.883481 0.664408
O O2 0.410087 0.010068 0.827515
O O3 0.194598 0.031419 0.900474
O O4 0.248070 0.214749 0.701203
O O5 0.521635 0.501636 0.550135
O O6 0.470977 0.779733 0.669438
O O7 0.327844 0.636205 0.433894
O O8 0.348016 0.512742 0.691529
O O9 0.067833 0.716229 0.443400
O O10 0.638603 0.985186 0.771151
#
# Coordination Sequence:
#
# PCOD9140007 Si02
#       5
#     4   4   4   4   4
#     4  11  25  46  70 101 137 180 226 279 338 402
#     4  12  23  47  69  99 139 180 225 283 337 399
#     4  11  22  45  71  95 139 178 220 279 341 393
#     4  11  24  45  70 101 135 176 232 277 336 406
#     4  11  26  45  68 102 136 178 231 276 338 400
#
# _framework density 23.481515000000002
#
# number of rings (size 3 to 8) (size 9 to 14) (size 15 to 20)
#    0.000    0.800    6.000    2.400    2.800    3.200 
#   10.800    0.000    0.000    0.000    0.000    0.000 
#    0.000    0.000    0.000    0.000    0.000    0.000 
#
# Total GULP energy -55977.806962 kJ/mol
# GULP energy per Si atom -5597.780696 kJ/mol
# Density = 2.342807 g / cm^3
# Si number density = 23.481515 Si / 1000 Ang^3
#
#
#
# Elastic Constant Matrix: (Units=GPa)
#
#
# Indices 1 2 3 4 5 6 
#
# 1 177.4786 8.7033 21.9407 0.0000 3.7213 0.0000
# 2 8.7033 16.0771 17.8629 0.0000 2.7325 0.0000
# 3 21.9407 17.8629 84.6988 0.0000 1.3885 0.0000
# 4 0.0000 0.0000 0.0000 27.7276 0.0000 4.9497
# 5 3.7213 2.7325 1.3885 0.0000 37.0457 0.0000
# 6 0.0000 0.0000 0.0000 4.9497 0.0000 46.5929
#
#
#
# Elastic Compliance Matrix: (Units=1/GPa)
#
#
# Indices 1 2 3 4 5 6 
#
# 1 0.005873 -0.001863 -0.001122 0.000000 -0.000410 0.000000
# 2 -0.001863 0.082902 -0.016914 0.000000 -0.005294 0.000000
# 3 -0.001122 -0.016914 0.015652 0.000000 0.000774 0.000000
# 4 0.000000 0.000000 0.000000 0.036762 0.000000 -0.003905
# 5 -0.000410 -0.005294 0.000774 0.000000 0.027396 0.000000
# 6 0.000000 0.000000 0.000000 -0.003905 0.000000 0.021877
#
#
# Mechanical properties :
#
#
# Convention : Reuss Voigt Hill
#
# Bulk Modulus (GPa) = 15.47327 41.69648 28.58487
# Shear Modulus (GPa) = 19.85673 37.58977 28.72325
#
# Velocity S-wave (km/s) = 2.91113 4.00537 3.50126
# Velocity P-wave (km/s) = 4.23124 6.25990 5.34274
#
# Compressibility (1/GPa) = 0.06462759
#
# Stress axis : x y z
#
# Youngs Moduli (GPa) = 170.26689 12.06248 63.89105
#
# Poissons Ratio (x) = 0.02248 0.07167
# Poissons Ratio (y) = 0.31727 1.08068
# Poissons Ratio (z) = 0.19099 0.20403
#
# Static dielectric constant tensor:
#      x y z
#    x 1.896620 0.000000 0.040740 
#    y 0.000000 1.896740 0.000000 
#    z 0.040740 0.000000 1.893440 
# 
# From -- ./inp_files/4614.got.cif
#   From: 2010.05.17/outbox.cif.g08.bks.cpg/sg9_3_cif.got.tgz:4614.got - 2010.06.03 20:04:27.
