data_PCOD9140220
_publ_section_title
;
Structure prediction by ZEFSAII (Michael W. Deem and Ramdas Pophale) SiO2 
 PCOD9140220
Probable space group: C C
;
_chemical_formula_sum "Si O2"
_cell_formula_units_Z 32
_cell_length_a 11.499167
_cell_length_b 14.303955
_cell_length_c 10.759970
_cell_angle_alpha 90.000000
_cell_angle_beta 48.653078
_cell_angle_gamma 90.000000
_cell_volume 1328.658949
_symmetry_space_group_name_H-M "C C"
_symmetry_group_IT_number 9
_symmetry_cell_setting 'monoclinic'
loop_
_space_group_symop_operation_xyz
x,y,z
x,-y,1/2+z
1/2+x,1/2+y,z
1/2+x,1/2-y,1/2+z
loop_
_atom_site_type_symbol
_atom_site_label
_atom_site_fract_x
_atom_site_fract_y
_atom_site_fract_z
Si Si1 0.177340 0.260014 0.910230
Si Si2 0.846082 0.270802 0.065070
Si Si3 0.588367 0.045031 0.121361
Si Si4 0.168928 0.058922 0.015409
Si Si5 0.418746 0.241082 0.235907
Si Si6 0.376191 0.575259 0.376054
Si Si7 0.911543 0.518455 0.500629
Si Si8 0.615073 0.370273 0.922086
O O1 0.213619 0.276432 0.739147
O O2 0.264503 0.336867 0.928142
O O3 0.217284 0.153620 0.913711
O O4 0.994024 0.264952 0.050665
O O5 0.826592 0.381200 0.059055
O O6 0.881951 0.231863 0.904346
O O7 0.535141 0.152407 0.147880
O O8 0.502684 0.997059 0.063403
O O9 0.526438 0.013636 0.300736
O O10 0.766386 0.012540 0.984017
O O11 0.275559 0.052889 0.062619
O O12 0.995276 0.103669 0.399236
O O13 0.192320 0.965965 0.917735
O O14 0.506198 0.323327 0.103965
O O15 0.254539 0.203195 0.297487
O O16 0.488425 0.559216 0.179348
#
# Coordination Sequence:
#
# PCOD9140220 Si02
#       8
#     4   4   4   4   4   4   4   4
#     4  12  26  48  73 110 148 196 249 318 371 458
#     4  11  23  45  76 104 144 191 254 302 381 439
#     4  11  25  49  78 109 150 199 257 313 382 455
#     4  12  28  49  74 110 154 197 254 317 383 458
#     4  11  27  50  77 111 150 205 253 317 383 459
#     4  12  30  46  76 114 150 197 254 316 387 456
#     4  11  24  47  76 106 148 200 250 309 386 449
#     4  12  29  50  74 112 154 203 253 316 385 456
#
# _framework density 24.084434000000002
#
# number of rings (size 3 to 8) (size 9 to 14) (size 15 to 20)
#    0.000    0.500    5.000    2.250    8.750    0.000 
#    0.000    0.000    0.000    0.000    0.000    0.000 
#    0.000    0.000    0.000    0.000    0.000    0.000 
#
# Total GULP energy -89584.342782 kJ/mol
# GULP energy per Si atom -5599.021424 kJ/mol
# Density = 2.402962 g / cm^3
# Si number density = 24.084434 Si / 1000 Ang^3
#
#
#
# Elastic Constant Matrix: (Units=GPa)
#
#
# Indices 1 2 3 4 5 6 
#
# 1 131.7140 28.6350 19.9593 0.0000 -6.4986 0.0000
# 2 28.6350 90.6967 22.3945 0.0000 6.9859 0.0000
# 3 19.9593 22.3945 105.4650 0.0000 -4.7662 0.0000
# 4 0.0000 0.0000 0.0000 40.0340 0.0000 -1.9514
# 5 -6.4986 6.9859 -4.7662 0.0000 40.9513 0.0000
# 6 0.0000 0.0000 0.0000 -1.9514 0.0000 34.9984
#
#
#
# Elastic Compliance Matrix: (Units=1/GPa)
#
#
# Indices 1 2 3 4 5 6 
#
# 1 0.008371 -0.002530 -0.000973 0.000000 0.001647 0.000000
# 2 -0.002530 0.012617 -0.002328 0.000000 -0.002825 0.000000
# 3 -0.000973 -0.002328 0.010225 0.000000 0.001433 0.000000
# 4 0.000000 0.000000 0.000000 0.025047 0.000000 0.001397
# 5 0.001647 -0.002825 0.001433 0.000000 0.025329 0.000000
# 6 0.000000 0.000000 0.000000 0.001397 0.000000 0.028651
#
#
# Mechanical properties :
#
#
# Convention : Reuss Voigt Hill
#
# Bulk Modulus (GPa) = 51.14510 52.20593 51.67552
# Shear Modulus (GPa) = 38.93572 40.32255 39.62914
#
# Velocity S-wave (km/s) = 4.02510 4.09616 4.06078
# Velocity P-wave (km/s) = 6.54857 6.64038 6.59463
#
# Compressibility (1/GPa) = 0.01955221
#
# Stress axis : x y z
#
# Youngs Moduli (GPa) = 119.46337 79.25954 97.79983
#
# Poissons Ratio (x) = 0.20049 0.09512
# Poissons Ratio (y) = 0.30219 0.22768
# Poissons Ratio (z) = 0.11619 0.18452
#
# Static dielectric constant tensor:
#      x y z
#    x 1.927190 0.000000 0.016300 
#    y 0.000000 1.922460 0.000000 
#    z 0.016300 0.000000 1.961940 
# 
# From -- ./inp_files/18445.got.cif
#   From: 2010.05.17/outbox.cif.g08.bks.cpg/sg9_10_cif.got.tgz:18445.got - 2010.06.03 20:04:27.
