data_PCOD9140012
_publ_section_title
;
Structure prediction by ZEFSAII (Michael W. Deem and Ramdas Pophale) SiO2 
 PCOD9140012
Probable space group: C C
;
_chemical_formula_sum "Si O2"
_cell_formula_units_Z 32
_cell_length_a 14.787088
_cell_length_b 15.742853
_cell_length_c 9.369836
_cell_angle_alpha 90.000000
_cell_angle_beta 37.729940
_cell_angle_gamma 90.000000
_cell_volume 1334.772411
_symmetry_space_group_name_H-M "C C"
_symmetry_group_IT_number 9
_symmetry_cell_setting 'monoclinic'
loop_
_space_group_symop_operation_xyz
x,y,z
x,-y,1/2+z
1/2+x,1/2+y,z
1/2+x,1/2-y,1/2+z
loop_
_atom_site_type_symbol
_atom_site_label
_atom_site_fract_x
_atom_site_fract_y
_atom_site_fract_z
Si Si1 0.781790 0.560623 0.508160
Si Si2 0.551565 0.942842 0.078983
Si Si3 0.625067 0.574951 0.400284
Si Si4 0.863983 0.702709 0.051486
Si Si5 0.415064 0.240587 0.686161
Si Si6 0.632040 0.923120 0.268796
Si Si7 0.712988 0.742356 0.692795
Si Si8 0.312482 0.347916 0.309252
O O1 0.698117 0.566692 0.463183
O O2 0.679824 0.504909 0.740497
O O3 0.797911 0.656392 0.543695
O O4 0.934638 0.511531 0.288392
O O5 0.676556 0.931126 0.046208
O O6 0.461052 0.858780 0.147685
O O7 0.612513 0.984278 0.859610
O O8 0.451540 0.589161 0.638714
O O9 0.704434 0.658280 0.231663
O O10 0.900843 0.762496 0.870277
O O11 0.979721 0.627226 0.930326
O O12 0.873158 0.757619 0.180379
O O13 0.541242 0.279227 0.428042
O O14 0.266555 0.259627 0.786888
O O15 0.711651 0.875759 0.300784
O O16 0.738274 0.819452 0.551009
#
# Coordination Sequence:
#
# PCOD9140012 Si02
#       8
#     4   4   4   4   4   4   4   4
#     4  12  23  45  75 105 134 192 244 289 352 437
#     4  11  22  45  74 101 135 190 250 291 348 438
#     4  12  25  45  73 107 141 188 241 297 361 431
#     4  11  24  45  76  99 141 194 247 287 356 441
#     4  11  27  44  70 106 139 186 238 303 353 420
#     4  11  24  42  71 102 136 191 238 294 354 434
#     4  12  27  46  72 106 147 189 241 299 357 434
#     4  12  28  44  71 106 153 188 231 304 373 429
#
# _framework density 23.974124
#
# number of rings (size 3 to 8) (size 9 to 14) (size 15 to 20)
#    0.000    0.500    5.000    3.000   10.500    1.000 
#    2.250    0.000    0.000    0.000    0.000    0.000 
#    0.000    0.000    0.000    0.000    0.000    0.000 
#
# Total GULP energy -89384.596451 kJ/mol
# GULP energy per Si atom -5586.537278 kJ/mol
# Density = 2.391956 g / cm^3
# Si number density = 23.974124 Si / 1000 Ang^3
#
#
#
# Elastic Constant Matrix: (Units=GPa)
#
#
# Indices 1 2 3 4 5 6 
#
# 1 123.7648 12.4136 24.9735 0.0000 24.7623 0.0000
# 2 12.4136 69.3231 20.3235 0.0000 12.0608 0.0000
# 3 24.9735 20.3235 61.5170 0.0000 18.7426 0.0000
# 4 0.0000 0.0000 0.0000 24.3942 0.0000 10.9377
# 5 24.7623 12.0608 18.7426 0.0000 43.2748 0.0000
# 6 0.0000 0.0000 0.0000 10.9377 0.0000 37.0470
#
#
#
# Elastic Compliance Matrix: (Units=1/GPa)
#
#
# Indices 1 2 3 4 5 6 
#
# 1 0.009456 -0.000227 -0.002459 0.000000 -0.004282 0.000000
# 2 -0.000227 0.016215 -0.004525 0.000000 -0.002429 0.000000
# 3 -0.002459 -0.004525 0.020662 0.000000 -0.006281 0.000000
# 4 0.000000 0.000000 0.000000 0.047248 0.000000 -0.013949
# 5 -0.004282 -0.002429 -0.006281 0.000000 0.028956 0.000000
# 6 0.000000 0.000000 0.000000 -0.013949 0.000000 0.031111
#
#
# Mechanical properties :
#
#
# Convention : Reuss Voigt Hill
#
# Bulk Modulus (GPa) = 31.33649 41.11401 36.22525
# Shear Modulus (GPa) = 27.97885 34.06948 31.02416
#
# Velocity S-wave (km/s) = 3.41991 3.77383 3.60122
# Velocity P-wave (km/s) = 5.35665 6.01462 5.69514
#
# Compressibility (1/GPa) = 0.03191168
#
# Stress axis : x y z
#
# Youngs Moduli (GPa) = 105.75781 61.67105 48.39730
#
# Poissons Ratio (x) = 0.01402 0.11900
# Poissons Ratio (y) = 0.02404 0.21898
# Poissons Ratio (z) = 0.26004 0.27903
#
# Static dielectric constant tensor:
#      x y z
#    x 1.862100 0.000000 0.024390 
#    y 0.000000 1.979280 0.000000 
#    z 0.024390 0.000000 2.017970 
# 
# From -- ./inp_files/9936.got.cif
#   From: 2010.05.17/outbox.cif.g08.bks.cpg/sg9_5_cif.got.tgz:9936.got - 2010.06.03 20:04:27.
