data_PCOD9140620
_publ_section_title
;
Structure prediction by ZEFSAII (Michael W. Deem and Ramdas Pophale) SiO2 
 PCOD9140620
Probable space group: C C
;
_chemical_formula_sum "Si O2"
_cell_formula_units_Z 32
_cell_length_a 9.875310
_cell_length_b 19.604540
_cell_length_c 7.696890
_cell_angle_alpha 90.000000
_cell_angle_beta 58.695804
_cell_angle_gamma 90.000000
_cell_volume 1273.193688
_symmetry_space_group_name_H-M "C C"
_symmetry_group_IT_number 9
_symmetry_cell_setting 'monoclinic'
loop_
_space_group_symop_operation_xyz
x,y,z
x,-y,1/2+z
1/2+x,1/2+y,z
1/2+x,1/2-y,1/2+z
loop_
_atom_site_type_symbol
_atom_site_label
_atom_site_fract_x
_atom_site_fract_y
_atom_site_fract_z
Si Si1 0.474970 0.542167 0.514700
Si Si2 0.482634 0.171152 0.822663
Si Si3 0.912395 0.719479 0.482476
Si Si4 0.013308 0.899376 0.604009
Si Si5 0.112940 0.466042 0.162154
Si Si6 0.060118 0.175460 0.626057
Si Si7 0.652761 0.897994 0.761819
Si Si8 0.181765 0.215525 0.176378
O O1 0.560542 0.469001 0.474565
O O2 0.505900 0.572573 0.305144
O O3 0.283967 0.535084 0.643518
O O4 0.520869 0.595575 0.633175
O O5 0.423732 0.211184 0.686421
O O6 0.493067 0.089533 0.820849
O O7 0.661131 0.202418 0.695064
O O8 0.363218 0.193000 0.054206
O O9 0.052934 0.670027 0.324193
O O10 0.739381 0.689340 0.564944
O O11 0.944540 0.784543 0.334948
O O12 0.839242 0.882937 0.645764
O O13 0.115100 0.830577 0.559320
O O14 0.084400 0.546744 0.172924
O O15 0.123824 0.435505 0.963737
O O16 0.074946 0.198011 0.414297
#
# Coordination Sequence:
#
# PCOD9140620 Si02
#       8
#     4   4   4   4   4   4   4   4
#     4   9  20  40  64  93 125 166 209 263 314 381
#     4  11  25  41  66  93 128 173 214 263 319 383
#     4  11  25  43  62  95 132 168 213 266 321 378
#     4   9  20  39  65  92 125 164 213 258 318 374
#     4   9  20  39  65  92 125 164 213 258 318 374
#     4  11  25  43  62  95 132 168 213 266 321 378
#     4   9  20  40  64  93 125 166 209 263 314 381
#     4  11  25  41  66  93 128 173 214 263 319 383
#
# _framework density 25.133645000000001
#
# number of rings (size 3 to 8) (size 9 to 14) (size 15 to 20)
#    0.000    2.000    0.000    1.500   10.500    5.000 
#    4.500    5.000    0.000    0.000    0.000    0.000 
#    0.000    0.000    0.000    0.000    0.000    0.000 
#
# Total GULP energy -89224.964856 kJ/mol
# GULP energy per Si atom -5576.560304 kJ/mol
# Density = 2.507644 g / cm^3
# Si number density = 25.133645 Si / 1000 Ang^3
#
#
#
# Elastic Constant Matrix: (Units=GPa)
#
#
# Indices 1 2 3 4 5 6 
#
# 1 38.2248 8.8409 10.0730 0.0000 12.8995 0.0000
# 2 8.8409 88.9590 39.6037 0.0000 18.9272 0.0000
# 3 10.0730 39.6037 94.7535 0.0000 10.7981 0.0000
# 4 0.0000 0.0000 0.0000 23.1161 0.0000 1.8571
# 5 12.8995 18.9272 10.7981 0.0000 21.8127 0.0000
# 6 0.0000 0.0000 0.0000 1.8571 0.0000 41.6395
#
#
#
# Elastic Compliance Matrix: (Units=1/GPa)
#
#
# Indices 1 2 3 4 5 6 
#
# 1 0.033073 0.001910 -0.002010 0.000000 -0.020221 0.000000
# 2 0.001910 0.016159 -0.005543 0.000000 -0.012407 0.000000
# 3 -0.002010 -0.005543 0.013142 0.000000 -0.000507 0.000000
# 4 0.000000 0.000000 0.000000 0.043415 0.000000 -0.001936
# 5 -0.020221 -0.012407 -0.000507 0.000000 0.068820 0.000000
# 6 0.000000 0.000000 0.000000 -0.001936 0.000000 0.024102
#
#
# Mechanical properties :
#
#
# Convention : Reuss Voigt Hill
#
# Bulk Modulus (GPa) = 19.57406 37.66361 28.61883
# Shear Modulus (GPa) = 22.02397 28.20828 25.11613
#
# Velocity S-wave (km/s) = 2.96340 3.35376 3.16460
# Velocity P-wave (km/s) = 4.41746 5.47857 4.97638
#
# Compressibility (1/GPa) = 0.05108803
#
# Stress axis : x y z
#
# Youngs Moduli (GPa) = 30.23645 61.88618 76.09208
#
# Poissons Ratio (x) = -0.11822 0.15294
# Poissons Ratio (y) = -0.05776 0.42178
# Poissons Ratio (z) = 0.06077 0.34303
#
# Static dielectric constant tensor:
#      x y z
#    x 2.037130 0.000000 0.086580 
#    y 0.000000 2.181220 0.000000 
#    z 0.086580 0.000000 2.032180 
# 
# From -- ./inp_files/8016.got.cif
#   From: 2010.05.17/outbox.cif.g08.bks.cpg/sg9_5_cif.got.tgz:8016.got - 2010.06.03 20:04:27.
