data_PCOD9140147
_publ_section_title
;
Structure prediction by ZEFSAII (Michael W. Deem and Ramdas Pophale) SiO2 
 PCOD9140147
Probable space group: C C
;
_chemical_formula_sum "Si O2"
_cell_formula_units_Z 32
_cell_length_a 9.369086
_cell_length_b 19.594629
_cell_length_c 15.860427
_cell_angle_alpha 90.000000
_cell_angle_beta 32.384788
_cell_angle_gamma 90.000000
_cell_volume 1559.523159
_symmetry_space_group_name_H-M "C C"
_symmetry_group_IT_number 9
_symmetry_cell_setting 'monoclinic'
loop_
_space_group_symop_operation_xyz
x,y,z
x,-y,1/2+z
1/2+x,1/2+y,z
1/2+x,1/2-y,1/2+z
loop_
_atom_site_type_symbol
_atom_site_label
_atom_site_fract_x
_atom_site_fract_y
_atom_site_fract_z
Si Si1 0.175880 0.006794 0.475840
Si Si2 0.173573 0.504697 0.612254
Si Si3 0.539689 0.115066 0.546667
Si Si4 0.065974 0.610260 0.026041
Si Si5 0.559227 0.618297 0.667860
Si Si6 0.544584 0.607414 0.180333
Si Si7 0.286554 0.266784 0.520380
Si Si8 0.375509 0.732034 0.158893
O O1 0.969826 0.002588 0.501249
O O2 0.129751 0.076447 0.549812
O O3 0.470788 0.003617 0.291061
O O4 0.112264 0.947573 0.574966
O O5 0.104442 0.574863 0.598959
O O6 0.125557 0.446728 0.566181
O O7 0.525830 0.196172 0.570583
O O8 0.761181 0.096363 0.366785
O O9 0.256331 0.096764 0.646002
O O10 0.768600 0.605490 0.140158
O O11 0.264271 0.603581 0.847625
O O12 0.136421 0.682562 0.033322
O O13 0.621248 0.697801 0.620182
O O14 0.525588 0.681186 0.145752
O O15 0.337966 0.301111 0.585536
O O16 0.578052 0.247428 0.340360
#
# Coordination Sequence:
#
# PCOD9140147 Si02
#       8
#     4   4   4   4   4   4   4   4
#     4  12  26  42  67  98 131 173 222 275 324 391
#     4  12  26  42  67  98 131 173 222 275 324 391
#     4  11  23  44  67  93 133 176 217 265 331 392
#     4  12  25  43  67  97 134 174 216 273 329 390
#     4  11  23  44  67  93 133 176 217 265 331 392
#     4  12  25  43  67  97 134 174 216 273 329 390
#     4  11  23  44  71  98 131 177 219 267 330 393
#     4  11  23  44  71  98 131 177 219 267 330 393
#
# _framework density 20.519093000000002
#
# number of rings (size 3 to 8) (size 9 to 14) (size 15 to 20)
#    0.000    0.500    5.000    5.250    3.500    2.000 
#    0.000    0.000    0.000    0.000    0.000    0.000 
#    0.000    0.000    0.000    0.000    0.000    0.000 
#
# Total GULP energy -89546.400294 kJ/mol
# GULP energy per Si atom -5596.650018 kJ/mol
# Density = 2.047239 g / cm^3
# Si number density = 20.519093 Si / 1000 Ang^3
#
#
#
# Elastic Constant Matrix: (Units=GPa)
#
#
# Indices 1 2 3 4 5 6 
#
# 1 73.2186 11.0035 -45.0916 -0.0065 0.1044 -0.0053
# 2 11.0035 62.0106 -16.4550 0.0000 5.5054 -0.0067
# 3 -45.0916 -16.4550 60.4071 0.0024 9.8806 -0.0048
# 4 -0.0065 0.0000 0.0024 27.2806 0.0045 13.7595
# 5 0.1044 5.5054 9.8806 0.0045 37.0950 -0.0037
# 6 -0.0053 -0.0067 -0.0048 13.7595 -0.0037 30.6040
#
#
#
# Elastic Compliance Matrix: (Units=1/GPa)
#
#
# Indices 1 2 3 4 5 6 
#
# 1 0.026441 0.001429 0.021092 0.000002 -0.005905 0.000007
# 2 0.001429 0.018052 0.006716 -0.000002 -0.004472 0.000006
# 3 0.021092 0.006716 0.035864 -0.000002 -0.010609 0.000010
# 4 0.000002 -0.000002 -0.000002 0.047406 -0.000007 -0.021314
# 5 -0.005905 -0.004472 -0.010609 -0.000007 0.030464 0.000003
# 6 0.000007 0.000006 0.000010 -0.021314 0.000003 0.042258
#
#
# Mechanical properties :
#
#
# Convention : Reuss Voigt Hill
#
# Bulk Modulus (GPa) = 7.20296 10.50557 8.85426
# Shear Modulus (GPa) = 26.55532 35.40788 30.98160
#
# Velocity S-wave (km/s) = 3.60137 4.15855 3.88995
# Velocity P-wave (km/s) = 4.56192 5.30934 4.94976
#
# Compressibility (1/GPa) = 0.13883191
#
# Stress axis : x y z
#
# Youngs Moduli (GPa) = 37.81994 55.39631 27.88337
#
# Poissons Ratio (x) = -0.07919 -0.58813
# Poissons Ratio (y) = -0.05406 -0.18726
# Poissons Ratio (z) = -0.79772 -0.37203
#
# Static dielectric constant tensor:
#      x y z
#    x 1.693600 0.000000 0.016270 
#    y 0.000000 1.732700 0.000000 
#    z 0.016270 0.000000 1.711590 
# 
# From -- ./inp_files/23768.got.cif
#   From: 2010.05.17/outbox.cif.g08.bks.cpg/sg9_12_cif.got.tgz:23768.got - 2010.06.03 20:04:27.
