data_PCOD9140143
_publ_section_title
;
Structure prediction by ZEFSAII (Michael W. Deem and Ramdas Pophale) SiO2 
 PCOD9140143
Probable space group: C C
;
_chemical_formula_sum "Si O2"
_cell_formula_units_Z 20
_cell_length_a 8.912104
_cell_length_b 18.310429
_cell_length_c 5.735990
_cell_angle_alpha 90.000000
_cell_angle_beta 56.066414
_cell_angle_gamma 90.000000
_cell_volume 776.605558
_symmetry_space_group_name_H-M "C C"
_symmetry_group_IT_number 9
_symmetry_cell_setting 'monoclinic'
loop_
_space_group_symop_operation_xyz
x,y,z
x,-y,1/2+z
1/2+x,1/2+y,z
1/2+x,1/2-y,1/2+z
loop_
_atom_site_type_symbol
_atom_site_label
_atom_site_fract_x
_atom_site_fract_y
_atom_site_fract_z
Si Si1 0.971830 0.176162 0.130830
Si Si2 0.693608 0.109956 0.643810
Si Si3 0.363747 0.832668 0.126912
Si Si4 0.239537 0.961652 0.937964
Si Si5 0.329850 0.552744 0.926794
O O1 0.857074 0.168280 0.465594
O O2 0.919043 0.249000 0.039225
O O3 0.185668 0.168949 0.946111
O O4 0.527399 0.133140 0.631883
O O5 0.679675 0.103062 0.932359
O O6 0.740513 0.024387 0.559103
O O7 0.895481 0.103828 0.076643
O O8 0.307300 0.881502 0.954951
O O9 0.019877 0.959297 0.125497
O O10 0.290068 0.008306 0.134222
#
# Coordination Sequence:
#
# PCOD9140143 Si02
#       5
#     4   4   4   4   4
#     4  11  24  51  66 106 152 191 252 317 385 447
#     4  12  23  47  74 104 143 197 250 312 377 458
#     4  11  26  46  75 106 148 198 254 311 387 455
#     4  11  24  47  76 114 152 198 257 319 381 462
#     4  11  23  43  75 102 143 196 251 313 378 454
#
# _framework density 25.7531
#
# number of rings (size 3 to 8) (size 9 to 14) (size 15 to 20)
#    0.000    0.800    6.000    1.200    2.800    0.000 
#   10.800    0.000    0.000    0.000    0.000    0.000 
#    0.000    0.000    0.000    0.000    0.000    0.000 
#
# Total GULP energy -55865.427584 kJ/mol
# GULP energy per Si atom -5586.542758 kJ/mol
# Density = 2.569448 g / cm^3
# Si number density = 25.753100 Si / 1000 Ang^3
#
#
#
# Elastic Constant Matrix: (Units=GPa)
#
#
# Indices 1 2 3 4 5 6 
#
# 1 125.8382 46.2532 35.5193 0.0000 -17.9921 0.0000
# 2 46.2532 158.7825 19.8715 0.0000 -0.6387 0.0000
# 3 35.5193 19.8715 65.8287 0.0000 -20.0777 0.0000
# 4 0.0000 0.0000 0.0000 4.6834 0.0000 -13.0039
# 5 -17.9921 -0.6387 -20.0777 0.0000 49.6206 0.0000
# 6 0.0000 0.0000 0.0000 -13.0039 0.0000 51.9022
#
#
#
# Elastic Compliance Matrix: (Units=1/GPa)
#
#
# Indices 1 2 3 4 5 6 
#
# 1 0.010333 -0.002474 -0.004216 0.000000 0.002009 0.000000
# 2 -0.002474 0.007167 -0.001225 0.000000 -0.001301 0.000000
# 3 -0.004216 -0.001225 0.019809 0.000000 0.006471 0.000000
# 4 0.000000 0.000000 0.000000 0.701574 0.000000 0.175777
# 5 0.002009 -0.001301 0.006471 0.000000 0.023483 0.000000
# 6 0.000000 0.000000 0.000000 0.175777 0.000000 0.063307
#
#
# Mechanical properties :
#
#
# Convention : Reuss Voigt Hill
#
# Bulk Modulus (GPa) = 46.55770 61.52639 54.04204
# Shear Modulus (GPa) = 5.89161 37.82828 21.85995
#
# Velocity S-wave (km/s) = 1.51417 3.83676 2.91663
# Velocity P-wave (km/s) = 4.60159 6.60078 5.68968
#
# Compressibility (1/GPa) = 0.02147872
#
# Stress axis : x y z
#
# Youngs Moduli (GPa) = 96.77286 139.53239 50.48184
#
# Poissons Ratio (x) = 0.34526 0.21283
# Poissons Ratio (y) = 0.23946 0.06184
# Poissons Ratio (z) = 0.40799 0.17092
#
# Static dielectric constant tensor:
#      x y z
#    x 2.075810 0.000000 0.108290 
#    y 0.000000 2.005590 0.000000 
#    z 0.108290 0.000000 2.449460 
# 
# From -- ./inp_files/808.got.cif
#   From: 2010.05.17/outbox.cif.g08.bks.cpg/sg9_1_cif.got.tgz:808.got - 2010.06.03 20:04:27.
