data_PCOD9140232
_publ_section_title
;
Structure prediction by ZEFSAII (Michael W. Deem and Ramdas Pophale) SiO2 
 PCOD9140232
Probable space group: C C
;
_chemical_formula_sum "Si O2"
_cell_formula_units_Z 32
_cell_length_a 10.991153
_cell_length_b 16.212598
_cell_length_c 8.840593
_cell_angle_alpha 90.000000
_cell_angle_beta 64.179852
_cell_angle_gamma 90.000000
_cell_volume 1418.076661
_symmetry_space_group_name_H-M "C C"
_symmetry_group_IT_number 9
_symmetry_cell_setting 'monoclinic'
loop_
_space_group_symop_operation_xyz
x,y,z
x,-y,1/2+z
1/2+x,1/2+y,z
1/2+x,1/2-y,1/2+z
loop_
_atom_site_type_symbol
_atom_site_label
_atom_site_fract_x
_atom_site_fract_y
_atom_site_fract_z
Si Si1 0.988310 0.617922 0.580490
Si Si2 0.221796 0.928503 0.624772
Si Si3 0.322242 0.617167 0.152111
Si Si4 0.015100 0.459003 0.395554
Si Si5 0.810260 0.953255 0.327900
Si Si6 0.090722 0.208379 0.024287
Si Si7 0.589305 0.418969 0.014973
Si Si8 0.207790 0.790472 0.151716
O O1 0.846113 0.662598 0.622128
O O2 0.019202 0.557250 0.424595
O O3 0.989101 0.566441 0.736046
O O4 0.090628 0.694176 0.545415
O O5 0.381970 0.935390 0.563905
O O6 0.203940 0.842366 0.548037
O O7 0.125141 0.929988 0.821493
O O8 0.169877 0.005767 0.553085
O O9 0.341661 0.565742 0.985759
O O10 0.451206 0.666551 0.144972
O O11 0.297306 0.549954 0.294749
O O12 0.227419 0.692661 0.150651
O O13 0.158973 0.421834 0.369089
O O14 0.934783 0.922075 0.156671
O O15 0.102507 0.189456 0.840607
O O16 0.653398 0.331905 0.030706
#
# Coordination Sequence:
#
# PCOD9140232 Si02
#       8
#     4   4   4   4   4   4   4   4
#     4  11  25  43  73 103 143 190 236 301 357 429
#     4  12  24  44  74 105 143 193 243 289 351 437
#     4  11  25  43  73 103 143 190 236 301 357 429
#     4  12  25  45  70 107 142 186 242 291 364 421
#     4  12  25  45  70 107 142 186 242 291 364 421
#     4  11  23  46  70 104 144 189 241 294 359 425
#     4  12  24  44  74 105 143 193 243 289 351 437
#     4  11  23  46  70 104 144 189 241 294 359 425
#
# _framework density 22.565778000000002
#
# number of rings (size 3 to 8) (size 9 to 14) (size 15 to 20)
#    0.000    0.500    5.000    3.750    0.000    1.000 
#    4.500    2.500    0.000    0.000    0.000    0.000 
#    0.000    0.000    0.000    0.000    0.000    0.000 
#
# Total GULP energy -89365.565339 kJ/mol
# GULP energy per Si atom -5585.347834 kJ/mol
# Density = 2.251442 g / cm^3
# Si number density = 22.565778 Si / 1000 Ang^3
#
#
#
# Elastic Constant Matrix: (Units=GPa)
#
#
# Indices 1 2 3 4 5 6 
#
# 1 83.2571 34.8857 13.3347 0.0000 -18.6284 0.0000
# 2 34.8857 136.5707 30.7487 0.0000 9.9282 0.0000
# 3 13.3347 30.7487 57.0069 0.0000 10.6136 0.0000
# 4 0.0000 0.0000 0.0000 31.4082 0.0000 0.9466
# 5 -18.6284 9.9282 10.6136 0.0000 37.4868 0.0000
# 6 0.0000 0.0000 0.0000 0.9466 0.0000 35.0542
#
#
#
# Elastic Compliance Matrix: (Units=1/GPa)
#
#
# Indices 1 2 3 4 5 6 
#
# 1 0.016678 -0.004214 -0.003567 0.000000 0.010414 0.000000
# 2 -0.004214 0.009434 -0.003428 0.000000 -0.003622 0.000000
# 3 -0.003567 -0.003428 0.021521 0.000000 -0.006958 0.000000
# 4 0.000000 0.000000 0.000000 0.031865 0.000000 -0.000860
# 5 0.010414 -0.003622 -0.006958 0.000000 0.034780 0.000000
# 6 0.000000 0.000000 0.000000 -0.000860 0.000000 0.028551
#
#
# Mechanical properties :
#
#
# Convention : Reuss Voigt Hill
#
# Bulk Modulus (GPa) = 39.66133 48.30812 43.98472
# Shear Modulus (GPa) = 28.79318 33.98088 31.38703
#
# Velocity S-wave (km/s) = 3.57594 3.88475 3.73354
# Velocity P-wave (km/s) = 5.88760 6.44794 6.17413
#
# Compressibility (1/GPa) = 0.02521348
#
# Stress axis : x y z
#
# Youngs Moduli (GPa) = 59.95851 106.00064 46.46683
#
# Poissons Ratio (x) = 0.44671 0.16575
# Poissons Ratio (y) = 0.25268 0.15931
# Poissons Ratio (z) = 0.21388 0.36341
#
# Static dielectric constant tensor:
#      x y z
#    x 1.880460 0.000000 -0.070110 
#    y 0.000000 1.840750 0.000000 
#    z -0.070110 0.000000 1.860910 
# 
# From -- ./inp_files/7551.got.cif
#   From: 2010.05.17/outbox.cif.g08.bks.cpg/sg9_4_cif.got.tgz:7551.got - 2010.06.03 20:04:27.
