data_PCOD9140712
_publ_section_title
;
Structure prediction by ZEFSAII (Michael W. Deem and Ramdas Pophale) SiO2 
 PCOD9140712
Probable space group: C C
;
_chemical_formula_sum "Si O2"
_cell_formula_units_Z 32
_cell_length_a 11.273715
_cell_length_b 14.339071
_cell_length_c 9.679402
_cell_angle_alpha 90.000000
_cell_angle_beta 108.303335
_cell_angle_gamma 90.000000
_cell_volume 1485.556297
_symmetry_space_group_name_H-M "C C"
_symmetry_group_IT_number 9
_symmetry_cell_setting 'monoclinic'
loop_
_space_group_symop_operation_xyz
x,y,z
x,-y,1/2+z
1/2+x,1/2+y,z
1/2+x,1/2-y,1/2+z
loop_
_atom_site_type_symbol
_atom_site_label
_atom_site_fract_x
_atom_site_fract_y
_atom_site_fract_z
Si Si1 0.747140 0.376940 0.966890
Si Si2 0.879147 0.007962 0.441334
Si Si3 0.025210 0.632758 0.687418
Si Si4 0.114154 0.921199 0.435154
Si Si5 0.449789 0.674997 0.645941
Si Si6 0.714106 0.019868 0.132799
Si Si7 0.590676 0.800332 0.516568
Si Si8 0.722522 0.278706 0.670878
O O1 0.678958 0.477728 0.941594
O O2 0.760838 0.341238 0.815086
O O3 0.664568 0.294218 0.004723
O O4 0.881836 0.379566 0.090379
O O5 0.922089 0.107966 0.507955
O O6 0.757966 0.991332 0.491033
O O7 0.837470 0.005099 0.268588
O O8 0.995826 0.938422 0.495185
O O9 0.106061 0.547216 0.651968
O O10 0.091918 0.725020 0.649244
O O11 0.040672 0.649689 0.858426
O O12 0.205690 0.846658 0.536004
O O13 0.055161 0.874604 0.276979
O O14 0.489282 0.771240 0.591185
O O15 0.325863 0.698818 0.686672
O O16 0.677014 0.126839 0.127293
#
# Coordination Sequence:
#
# PCOD9140712 Si02
#       8
#     4   4   4   4   4   4   4   4
#     4  11  27  45  71 104 144 191 236 306 369 427
#     4  12  24  46  73 103 140 195 243 299 357 434
#     4  11  25  48  68 106 147 187 241 299 370 429
#     4  12  26  46  74 105 147 186 248 301 364 436
#     4  12  26  47  71 106 141 193 249 293 362 435
#     4  12  26  45  76 103 148 190 246 299 363 435
#     4  11  28  46  71 107 145 193 248 298 364 436
#     4  11  26  45  70 102 142 191 237 303 363 432
#
# _framework density 21.540752000000001
#
# number of rings (size 3 to 8) (size 9 to 14) (size 15 to 20)
#    0.000    0.500    5.000    1.500    8.750    2.000 
#    0.000    0.000    0.000    0.000    0.000    0.000 
#    0.000    0.000    0.000    0.000    0.000    0.000 
#
# Total GULP energy -89377.403017 kJ/mol
# GULP energy per Si atom -5586.087689 kJ/mol
# Density = 2.149172 g / cm^3
# Si number density = 21.540752 Si / 1000 Ang^3
#
#
#
# Elastic Constant Matrix: (Units=GPa)
#
#
# Indices 1 2 3 4 5 6 
#
# 1 90.4544 31.3667 41.8533 0.0000 15.7185 0.0000
# 2 31.3667 117.6270 44.0749 0.0000 13.7483 0.0000
# 3 41.8533 44.0749 82.2007 0.0000 17.0613 0.0000
# 4 0.0000 0.0000 0.0000 29.8573 0.0000 5.8324
# 5 15.7185 13.7483 17.0613 0.0000 31.9640 0.0000
# 6 0.0000 0.0000 0.0000 5.8324 0.0000 37.9621
#
#
#
# Elastic Compliance Matrix: (Units=1/GPa)
#
#
# Indices 1 2 3 4 5 6 
#
# 1 0.014980 -0.001251 -0.006229 0.000000 -0.003504 0.000000
# 2 -0.001251 0.010828 -0.004869 0.000000 -0.001443 0.000000
# 3 -0.006229 -0.004869 0.018980 0.000000 -0.004973 0.000000
# 4 0.000000 0.000000 0.000000 0.034529 0.000000 -0.005305
# 5 -0.003504 -0.001443 -0.004973 0.000000 0.036283 0.000000
# 6 0.000000 0.000000 0.000000 -0.005305 0.000000 0.027157
#
#
# Mechanical properties :
#
#
# Convention : Reuss Voigt Hill
#
# Bulk Modulus (GPa) = 49.77836 58.31910 54.04873
# Shear Modulus (GPa) = 28.71016 31.48917 30.09966
#
# Velocity S-wave (km/s) = 3.65476 3.82755 3.74215
# Velocity P-wave (km/s) = 6.40068 6.83126 6.61947
#
# Compressibility (1/GPa) = 0.02008905
#
# Stress axis : x y z
#
# Youngs Moduli (GPa) = 66.75443 92.35044 52.68627
#
# Poissons Ratio (x) = 0.11553 0.32820
# Poissons Ratio (y) = 0.08351 0.25656
# Poissons Ratio (z) = 0.41584 0.44970
#
# Static dielectric constant tensor:
#      x y z
#    x 1.843420 0.000000 -0.023670 
#    y 0.000000 1.781630 0.000000 
#    z -0.023670 0.000000 1.749760 
# 
# From -- ./inp_files/7590.got.cif
#   From: 2010.05.17/outbox.cif.g08.bks.cpg/sg9_4_cif.got.tgz:7590.got - 2010.06.03 20:04:27.
