data_PCOD9140063
_publ_section_title
;
Structure prediction by ZEFSAII (Michael W. Deem and Ramdas Pophale) SiO2 
 PCOD9140063
Probable space group: C C
;
_chemical_formula_sum "Si O2"
_cell_formula_units_Z 24
_cell_length_a 19.200288
_cell_length_b 5.295423
_cell_length_c 10.471867
_cell_angle_alpha 90.000000
_cell_angle_beta 58.767711
_cell_angle_gamma 90.000000
_cell_volume 910.406396
_symmetry_space_group_name_H-M "C C"
_symmetry_group_IT_number 9
_symmetry_cell_setting 'monoclinic'
loop_
_space_group_symop_operation_xyz
x,y,z
x,-y,1/2+z
1/2+x,1/2+y,z
1/2+x,1/2-y,1/2+z
loop_
_atom_site_type_symbol
_atom_site_label
_atom_site_fract_x
_atom_site_fract_y
_atom_site_fract_z
Si Si1 0.917120 0.936661 0.524670
Si Si2 0.746986 0.981885 0.061054
Si Si3 0.042688 0.722778 0.982471
Si Si4 0.833830 0.357823 0.297543
Si Si5 0.988224 0.573731 0.286996
Si Si6 0.192577 0.994402 0.249790
O O1 0.830545 0.016496 0.559454
O O2 0.899866 0.695137 0.626099
O O3 0.974313 0.857830 0.353124
O O4 0.956959 0.136969 0.578095
O O5 0.703686 0.239626 0.152907
O O6 0.700848 0.730921 0.147517
O O7 0.785041 0.898482 0.887480
O O8 0.109461 0.942162 0.902807
O O9 0.031290 0.570861 0.862404
O O10 0.047622 0.566045 0.108025
O O11 0.894584 0.474399 0.347583
O O12 0.762921 0.507227 0.291606
#
# Coordination Sequence:
#
# PCOD9140063 Si02
#       6
#     4   4   4   4   4   4
#     4  11  24  46  79 117 154 210 287 338 414 499
#     4  11  24  48  76 114 161 218 272 339 411 507
#     4  12  28  50  80 123 164 224 275 358 421 509
#     4  11  22  49  82 116 160 222 278 343 417 509
#     4  12  25  50  85 114 169 219 284 345 423 511
#     4  11  29  49  76 118 170 215 278 345 428 497
#
# _framework density 26.361853
#
# number of rings (size 3 to 8) (size 9 to 14) (size 15 to 20)
#    0.000    0.667    3.333    4.000    2.333    5.333 
#    9.000    0.000    0.000    0.000    0.000    0.000 
#    0.000    0.000    0.000    0.000    0.000    0.000 
#
# Total GULP energy -67010.253126 kJ/mol
# GULP energy per Si atom -5584.187761 kJ/mol
# Density = 2.630185 g / cm^3
# Si number density = 26.361853 Si / 1000 Ang^3
#
#
#
# Elastic Constant Matrix: (Units=GPa)
#
#
# Indices 1 2 3 4 5 6 
#
# 1 60.5298 37.8660 51.1239 0.0000 13.6825 0.0001
# 2 37.8660 131.9836 58.3945 -0.0001 -7.9282 0.0003
# 3 51.1239 58.3945 142.1648 0.0000 16.1604 -0.0001
# 4 0.0000 -0.0001 0.0000 20.5069 0.0000 -10.4614
# 5 13.6825 -7.9282 16.1604 0.0000 38.2729 0.0000
# 6 0.0001 0.0003 -0.0001 -10.4614 0.0000 34.1267
#
#
#
# Elastic Compliance Matrix: (Units=1/GPa)
#
#
# Indices 1 2 3 4 5 6 
#
# 1 0.027379 -0.005363 -0.006727 0.000000 -0.008058 0.000000
# 2 -0.005363 0.010838 -0.003147 0.000000 0.005491 0.000000
# 3 -0.006727 -0.003147 0.011078 0.000000 -0.002925 0.000000
# 4 0.000000 0.000000 0.000000 0.057803 0.000000 0.017719
# 5 -0.008058 0.005491 -0.002925 0.000000 0.031381 0.000000
# 6 0.000000 0.000000 0.000000 0.017719 0.000000 0.034734
#
#
# Mechanical properties :
#
#
# Convention : Reuss Voigt Hill
#
# Bulk Modulus (GPa) = 53.13244 69.93856 61.53550
# Shear Modulus (GPa) = 23.81391 31.06756 27.44074
#
# Velocity S-wave (km/s) = 3.00883 3.43666 3.22984
# Velocity P-wave (km/s) = 5.68063 6.50656 6.10757
#
# Compressibility (1/GPa) = 0.01882089
#
# Stress axis : x y z
#
# Youngs Moduli (GPa) = 36.52466 92.27152 90.26601
#
# Poissons Ratio (x) = 0.49483 0.60721
# Poissons Ratio (y) = 0.19587 0.28409
# Poissons Ratio (z) = 0.24570 0.29040
#
# Static dielectric constant tensor:
#      x y z
#    x 2.079730 0.000000 0.036770 
#    y 0.000000 2.112590 0.000000 
#    z 0.036770 0.000000 2.217370 
# 
# From -- ./inp_files/20427.got.cif
#   From: 2010.05.17/outbox.cif.g08.bks.cpg/sg9_11_cif.got.tgz:20427.got - 2010.06.03 20:04:27.
