data_PCOD9140098
_publ_section_title
;
Structure prediction by ZEFSAII (Michael W. Deem and Ramdas Pophale) SiO2 
 PCOD9140098
Probable space group: C C
;
_chemical_formula_sum "Si O2"
_cell_formula_units_Z 32
_cell_length_a 19.614762
_cell_length_b 8.730407
_cell_length_c 13.563303
_cell_angle_alpha 90.000000
_cell_angle_beta 35.568873
_cell_angle_gamma 90.000000
_cell_volume 1351.039321
_symmetry_space_group_name_H-M "C C"
_symmetry_group_IT_number 9
_symmetry_cell_setting 'monoclinic'
loop_
_space_group_symop_operation_xyz
x,y,z
x,-y,1/2+z
1/2+x,1/2+y,z
1/2+x,1/2-y,1/2+z
loop_
_atom_site_type_symbol
_atom_site_label
_atom_site_fract_x
_atom_site_fract_y
_atom_site_fract_z
Si Si1 0.765970 0.013019 0.588740
Si Si2 0.284394 0.196619 0.188093
Si Si3 0.628202 0.445381 0.637875
Si Si4 0.583800 0.455130 0.464645
Si Si5 0.888944 0.562559 0.373316
Si Si6 0.357737 0.351726 0.283255
Si Si7 0.526610 0.870228 0.331645
Si Si8 0.460578 0.315822 0.435957
O O1 0.792450 0.188643 0.585427
O O2 0.626473 0.016382 0.753281
O O3 0.804066 0.951075 0.436285
O O4 0.839603 0.913437 0.579801
O O5 0.266786 0.302831 0.305164
O O6 0.189325 0.062085 0.300478
O O7 0.416468 0.134681 0.033911
O O8 0.621350 0.408004 0.530025
O O9 0.759131 0.495414 0.512893
O O10 0.577588 0.299798 0.755719
O O11 0.543391 0.589275 0.761993
O O12 0.468571 0.560375 0.610134
O O13 0.538134 0.324858 0.443411
O O14 0.901213 0.690888 0.276870
O O15 0.915970 0.658828 0.441507
O O16 0.981037 0.427364 0.278398
#
# Coordination Sequence:
#
# PCOD9140098 Si02
#       8
#     4   4   4   4   4   4   4   4
#     4  11  23  42  70 102 147 197 251 311 377 456
#     4  12  23  46  73 108 150 204 255 312 390 465
#     4  12  24  48  76 105 159 202 253 321 393 464
#     4  12  23  44  79 110 157 203 258 326 389 462
#     4  11  26  45  74 109 149 200 262 312 388 467
#     4  11  23  42  73 112 143 202 263 308 387 466
#     4  12  26  47  74 107 155 202 257 314 393 462
#     4  11  24  44  73 111 148 200 255 322 389 458
#
# _framework density 23.685469000000001
#
# number of rings (size 3 to 8) (size 9 to 14) (size 15 to 20)
#    0.000    0.500    6.250    3.000    5.250    0.000 
#    2.250    2.500    0.000    0.000    0.000    0.000 
#    0.000    0.000    0.000    0.000    0.000    0.000 
#
# Total GULP energy -89385.410668 kJ/mol
# GULP energy per Si atom -5586.588167 kJ/mol
# Density = 2.363156 g / cm^3
# Si number density = 23.685469 Si / 1000 Ang^3
#
#
#
# Elastic Constant Matrix: (Units=GPa)
#
#
# Indices 1 2 3 4 5 6 
#
# 1 158.8488 44.1563 51.3568 0.0000 -12.5628 0.0000
# 2 44.1563 81.3615 26.4261 0.0000 -3.7314 0.0000
# 3 51.3568 26.4261 73.0499 0.0000 -20.7416 0.0000
# 4 0.0000 0.0000 0.0000 25.5955 0.0000 -3.6537
# 5 -12.5628 -3.7314 -20.7416 0.0000 53.8289 0.0000
# 6 0.0000 0.0000 0.0000 -3.6537 0.0000 50.6049
#
#
#
# Elastic Compliance Matrix: (Units=1/GPa)
#
#
# Indices 1 2 3 4 5 6 
#
# 1 0.008801 -0.003129 -0.005091 0.000000 -0.000125 0.000000
# 2 -0.003129 0.015097 -0.003562 0.000000 -0.001056 0.000000
# 3 -0.005091 -0.003562 0.020379 0.000000 0.006417 0.000000
# 4 0.000000 0.000000 0.000000 0.039476 0.000000 0.002850
# 5 -0.000125 -0.001056 0.006417 0.000000 0.020948 0.000000
# 6 0.000000 0.000000 0.000000 0.002850 0.000000 0.019967
#
#
# Mechanical properties :
#
#
# Convention : Reuss Voigt Hill
#
# Bulk Modulus (GPa) = 48.27547 61.90428 55.08988
# Shear Modulus (GPa) = 32.22976 38.76061 35.49519
#
# Velocity S-wave (km/s) = 3.69282 4.04972 3.87538
# Velocity P-wave (km/s) = 6.21359 6.93251 6.58287
#
# Compressibility (1/GPa) = 0.02071446
#
# Stress axis : x y z
#
# Youngs Moduli (GPa) = 113.62212 66.23727 49.06981
#
# Poissons Ratio (x) = 0.20723 0.24982
# Poissons Ratio (y) = 0.35548 0.17478
# Poissons Ratio (z) = 0.57846 0.23592
#
# Static dielectric constant tensor:
#      x y z
#    x 2.009320 0.000000 0.013830 
#    y 0.000000 1.945990 0.000000 
#    z 0.013830 0.000000 1.892970 
# 
# From -- ./inp_files/27337.got.cif
#   From: 2010.05.17/outbox.cif.g08.bks.cpg/sg9_14_cif.got.tgz:27337.got - 2010.06.03 20:04:27.
