data_PCOD9140777
_publ_section_title
;
Structure prediction by ZEFSAII (Michael W. Deem and Ramdas Pophale) SiO2 
 PCOD9140777
Probable space group: C C
;
_chemical_formula_sum "Si O2"
_cell_formula_units_Z 20
_cell_length_a 5.106337
_cell_length_b 13.776333
_cell_length_c 10.591541
_cell_angle_alpha 90.000000
_cell_angle_beta 103.953569
_cell_angle_gamma 90.000000
_cell_volume 723.092693
_symmetry_space_group_name_H-M "C C"
_symmetry_group_IT_number 9
_symmetry_cell_setting 'monoclinic'
loop_
_space_group_symop_operation_xyz
x,y,z
x,-y,1/2+z
1/2+x,1/2+y,z
1/2+x,1/2-y,1/2+z
loop_
_atom_site_type_symbol
_atom_site_label
_atom_site_fract_x
_atom_site_fract_y
_atom_site_fract_z
Si Si1 0.399820 0.552508 0.324280
Si Si2 0.274370 0.267558 0.199529
Si Si3 0.878743 0.730880 0.854595
Si Si4 0.005919 0.055318 0.591575
Si Si5 0.906736 0.588831 0.081881
O O1 0.507851 0.660607 0.370848
O O2 0.319776 0.512469 0.453841
O O3 0.551075 0.482501 0.242477
O O4 0.150409 0.575386 0.204609
O O5 0.552648 0.261063 0.313663
O O6 0.372860 0.341295 0.103451
O O7 0.205714 0.162953 0.132813
O O8 0.012945 0.307133 0.240240
O O9 0.967030 0.655256 0.969733
O O10 0.275449 0.016393 0.553119
#
# Coordination Sequence:
#
# PCOD9140777 Si02
#       5
#     4   4   4   4   4
#     4  11  27  47  79 116 162 217 271 342 415 490
#     4  11  26  47  79 111 158 215 266 341 408 482
#     4  11  25  51  77 114 161 216 267 337 414 482
#     4  12  26  50  76 118 156 212 277 334 406 498
#     4  11  26  49  77 117 163 214 275 342 413 494
#
# _framework density 27.65897
#
# number of rings (size 3 to 8) (size 9 to 14) (size 15 to 20)
#    0.000    0.800    4.000    1.200    8.400    1.600 
#    0.000    0.000    0.000    0.000    0.000    0.000 
#    0.000    0.000    0.000    0.000    0.000    0.000 
#
# Total GULP energy -55723.223642 kJ/mol
# GULP energy per Si atom -5572.322364 kJ/mol
# Density = 2.759602 g / cm^3
# Si number density = 27.658970 Si / 1000 Ang^3
#
#
#
# Elastic Constant Matrix: (Units=GPa)
#
#
# Indices 1 2 3 4 5 6 
#
# 1 70.7191 17.0500 -12.6100 0.0000 -3.3776 0.0000
# 2 17.0500 125.0448 6.1720 0.0000 4.9141 0.0000
# 3 -12.6100 6.1720 90.4087 0.0000 -1.4472 0.0000
# 4 0.0000 0.0000 0.0000 42.8351 0.0000 6.1395
# 5 -3.3776 4.9141 -1.4472 0.0000 35.3871 0.0000
# 6 0.0000 0.0000 0.0000 6.1395 0.0000 41.6877
#
#
#
# Elastic Compliance Matrix: (Units=1/GPa)
#
#
# Indices 1 2 3 4 5 6 
#
# 1 0.015184 -0.002257 0.002302 0.000000 0.001857 0.000000
# 2 -0.002257 0.008406 -0.000911 0.000000 -0.001420 0.000000
# 3 0.002302 -0.000911 0.011457 0.000000 0.000815 0.000000
# 4 0.000000 0.000000 0.000000 0.023849 0.000000 -0.003512
# 5 0.001857 -0.001420 0.000815 0.000000 0.028667 0.000000
# 6 0.000000 0.000000 0.000000 -0.003512 0.000000 0.024505
#
#
# Mechanical properties :
#
#
# Convention : Reuss Voigt Hill
#
# Bulk Modulus (GPa) = 30.01818 34.15519 32.08668
# Shear Modulus (GPa) = 40.03054 42.35269 41.19161
#
# Velocity S-wave (km/s) = 3.80845 3.91736 3.86329
# Velocity P-wave (km/s) = 5.49687 5.73031 5.61480
#
# Compressibility (1/GPa) = 0.03331315
#
# Stress axis : x y z
#
# Youngs Moduli (GPa) = 65.86029 118.96763 87.28166
#
# Poissons Ratio (x) = 0.26850 -0.20089
# Poissons Ratio (y) = 0.14864 0.07954
# Poissons Ratio (z) = -0.15158 0.10842
#
# Static dielectric constant tensor:
#      x y z
#    x 2.211640 0.000000 -0.055800 
#    y 0.000000 2.184010 0.000000 
#    z -0.055800 0.000000 2.323260 
# 
# From -- ./inp_files/3570.got.cif
#   From: 2010.05.17/outbox.cif.g08.bks.cpg/sg9_2_cif.got.tgz:3570.got - 2010.06.03 20:04:27.
