data_PCOD9140392
_publ_section_title
;
Structure prediction by ZEFSAII (Michael W. Deem and Ramdas Pophale) SiO2 
 PCOD9140392
Probable space group: C C
;
_chemical_formula_sum "Si O2"
_cell_formula_units_Z 28
_cell_length_a 5.266725
_cell_length_b 18.736643
_cell_length_c 14.465255
_cell_angle_alpha 90.000000
_cell_angle_beta 128.535420
_cell_angle_gamma 90.000000
_cell_volume 1116.578330
_symmetry_space_group_name_H-M "C C"
_symmetry_group_IT_number 9
_symmetry_cell_setting 'monoclinic'
loop_
_space_group_symop_operation_xyz
x,y,z
x,-y,1/2+z
1/2+x,1/2+y,z
1/2+x,1/2-y,1/2+z
loop_
_atom_site_type_symbol
_atom_site_label
_atom_site_fract_x
_atom_site_fract_y
_atom_site_fract_z
Si Si1 0.123380 0.107375 0.101720
Si Si2 0.579602 0.777930 0.767155
Si Si3 0.752049 0.675559 0.663089
Si Si4 0.584892 0.486544 0.420698
Si Si5 0.787785 0.524180 0.758896
Si Si6 0.436832 0.718221 0.906514
Si Si7 0.723163 0.351094 0.945504
O O1 0.288735 0.166311 0.205334
O O2 0.092575 0.042239 0.168584
O O3 0.936023 0.164144 0.991951
O O4 0.243164 0.059774 0.039487
O O5 0.527120 0.732022 0.663712
O O6 0.665150 0.721350 0.867634
O O7 0.875988 0.831979 0.824549
O O8 0.699068 0.594520 0.681428
O O9 0.739765 0.678942 0.551859
O O10 0.102841 0.698730 0.779583
O O11 0.673307 0.460727 0.337808
O O12 0.744810 0.564775 0.456932
O O13 0.186439 0.488029 0.344846
O O14 0.454880 0.801484 0.938564
#
# Coordination Sequence:
#
# PCOD9140392 Si02
#       7
#     4   4   4   4   4   4   4
#     4  12  24  48  78 112 150 212 252 326 386 464
#     4  11  24  45  71 106 147 195 260 309 386 455
#     4  11  24  44  69 104 147 196 246 320 377 451
#     4  12  27  50  74 111 154 198 255 313 386 461
#     4  12  27  50  74 111 154 198 255 313 386 461
#     4  11  24  45  71 106 147 195 260 309 386 455
#     4  11  24  44  69 104 147 196 246 320 377 451
#
# _framework density 25.076609000000001
#
# number of rings (size 3 to 8) (size 9 to 14) (size 15 to 20)
#    0.000    0.571    4.286    3.429    0.000    3.429 
#   10.286    0.000    0.000    0.000    0.000    0.000 
#    0.000    0.000    0.000    0.000    0.000    0.000 
#
# Total GULP energy -77998.203601 kJ/mol
# GULP energy per Si atom -5571.300257 kJ/mol
# Density = 2.501953 g / cm^3
# Si number density = 25.076609 Si / 1000 Ang^3
#
#
#
# Elastic Constant Matrix: (Units=GPa)
#
#
# Indices 1 2 3 4 5 6 
#
# 1 52.1471 0.5263 10.2768 0.0000 -11.0984 0.0000
# 2 0.5263 147.2981 24.5098 0.0000 -4.8585 0.0000
# 3 10.2768 24.5098 108.7460 0.0000 -23.1946 0.0000
# 4 0.0000 0.0000 0.0000 45.1864 0.0000 -20.8125
# 5 -11.0984 -4.8585 -23.1946 0.0000 38.5524 0.0000
# 6 0.0000 0.0000 0.0000 -20.8125 0.0000 13.8862
#
#
#
# Elastic Compliance Matrix: (Units=1/GPa)
#
#
# Indices 1 2 3 4 5 6 
#
# 1 0.020494 0.000245 -0.000834 0.000000 0.005429 0.000000
# 2 0.000245 0.007057 -0.001616 0.000000 -0.000013 0.000000
# 3 -0.000834 -0.001616 0.010949 0.000000 0.006144 0.000000
# 4 0.000000 0.000000 0.000000 0.071466 0.000000 0.107112
# 5 0.005429 -0.000013 0.006144 0.000000 0.031196 0.000000
# 6 0.000000 0.000000 0.000000 0.107112 0.000000 0.232553
#
#
# Mechanical properties :
#
#
# Convention : Reuss Voigt Hill
#
# Bulk Modulus (GPa) = 29.33543 42.09078 35.71310
# Shear Modulus (GPa) = 12.83735 37.71688 25.27712
#
# Velocity S-wave (km/s) = 2.26503 3.88244 3.17834
# Velocity P-wave (km/s) = 4.30862 6.07611 5.26703
#
# Compressibility (1/GPa) = 0.03408847
#
# Stress axis : x y z
#
# Youngs Moduli (GPa) = 48.79516 141.71126 91.33045
#
# Poissons Ratio (x) = -0.03466 0.07616
# Poissons Ratio (y) = -0.01194 0.14762
# Poissons Ratio (z) = 0.04069 0.22905
#
# Static dielectric constant tensor:
#      x y z
#    x 2.118300 0.000000 0.044430 
#    y 0.000000 1.951510 0.000000 
#    z 0.044430 0.000000 1.962710 
# 
# From -- ./inp_files/13105.got.cif
#   From: 2010.05.17/outbox.cif.g08.bks.cpg/sg9_7_cif.got.tgz:13105.got - 2010.06.03 20:04:27.
