data_PCOD9140144
_publ_section_title
;
Structure prediction by ZEFSAII (Michael W. Deem and Ramdas Pophale) SiO2 
 PCOD9140144
Probable space group: C C
;
_chemical_formula_sum "Si O2"
_cell_formula_units_Z 32
_cell_length_a 13.366430
_cell_length_b 11.912719
_cell_length_c 9.219541
_cell_angle_alpha 90.000000
_cell_angle_beta 106.594553
_cell_angle_gamma 90.000000
_cell_volume 1406.888406
_symmetry_space_group_name_H-M "C C"
_symmetry_group_IT_number 9
_symmetry_cell_setting 'monoclinic'
loop_
_space_group_symop_operation_xyz
x,y,z
x,-y,1/2+z
1/2+x,1/2+y,z
1/2+x,1/2-y,1/2+z
loop_
_atom_site_type_symbol
_atom_site_label
_atom_site_fract_x
_atom_site_fract_y
_atom_site_fract_z
Si Si1 0.657570 0.060005 0.213610
Si Si2 0.002092 0.034362 0.947044
Si Si3 0.529467 0.834119 0.199204
Si Si4 0.351410 0.908701 0.925101
Si Si5 0.902068 0.783190 0.222146
Si Si6 0.794294 0.023517 0.542695
Si Si7 0.463292 0.149731 0.999534
Si Si8 0.613726 0.403370 0.757483
O O1 0.599723 0.939208 0.182053
O O2 0.736805 0.072532 0.112177
O O3 0.714820 0.068150 0.389294
O O4 0.559750 0.139975 0.151631
O O5 0.991176 0.150872 0.850925
O O6 0.026253 0.941404 0.836503
O O7 0.095346 0.027303 0.102680
O O8 0.897608 0.016154 0.999746
O O9 0.510379 0.833489 0.362164
O O10 0.590371 0.721161 0.193547
O O11 0.416790 0.844468 0.076171
O O12 0.376339 0.833125 0.792678
O O13 0.226792 0.913569 0.875542
O O14 0.396296 0.035449 0.954413
O O15 0.818643 0.884086 0.176229
O O16 0.906507 0.752510 0.052807
#
# Coordination Sequence:
#
# PCOD9140144 Si02
#       8
#     4   4   4   4   4   4   4   4
#     4  11  23  43  76 105 142 184 242 301 361 425
#     4  12  26  47  70 106 148 186 245 300 355 442
#     4  11  24  46  71 106 142 185 239 300 354 431
#     4  11  26  47  72 104 142 190 243 296 361 436
#     4  12  25  46  74 101 149 194 234 301 370 416
#     4  12  23  45  72 109 142 188 241 305 355 433
#     4  11  26  46  68 107 145 182 239 300 354 437
#     4  12  27  46  73 100 146 193 235 293 368 430
#
# _framework density 22.745229999999999
#
# number of rings (size 3 to 8) (size 9 to 14) (size 15 to 20)
#    0.000    0.500    5.000    3.000    5.250    1.000 
#    4.500    0.000    0.000    0.000    0.000    0.000 
#    0.000    0.000    0.000    0.000    0.000    0.000 
#
# Total GULP energy -89314.335883 kJ/mol
# GULP energy per Si atom -5582.145993 kJ/mol
# Density = 2.269346 g / cm^3
# Si number density = 22.745230 Si / 1000 Ang^3
#
#
#
# Elastic Constant Matrix: (Units=GPa)
#
#
# Indices 1 2 3 4 5 6 
#
# 1 72.9768 7.5120 28.7032 0.0000 8.9822 0.0000
# 2 7.5120 45.2745 -3.7210 0.0000 5.0681 0.0000
# 3 28.7032 -3.7210 110.9947 0.0000 22.9284 0.0000
# 4 0.0000 0.0000 0.0000 31.9444 0.0000 -9.7784
# 5 8.9822 5.0681 22.9284 0.0000 42.9802 0.0000
# 6 0.0000 0.0000 0.0000 -9.7784 0.0000 14.9557
#
#
#
# Elastic Compliance Matrix: (Units=1/GPa)
#
#
# Indices 1 2 3 4 5 6 
#
# 1 0.015659 -0.002833 -0.003975 0.000000 -0.000818 0.000000
# 2 -0.002833 0.023107 0.002189 0.000000 -0.003300 0.000000
# 3 -0.003975 0.002189 0.011230 0.000000 -0.005418 0.000000
# 4 0.000000 0.000000 0.000000 0.039137 0.000000 0.025589
# 5 -0.000818 -0.003300 -0.005418 0.000000 0.026717 0.000000
# 6 0.000000 0.000000 0.000000 0.025589 0.000000 0.083595
#
#
# Mechanical properties :
#
#
# Convention : Reuss Voigt Hill
#
# Bulk Modulus (GPa) = 24.53592 32.69270 28.61431
# Shear Modulus (GPa) = 22.49515 31.09284 26.79400
#
# Velocity S-wave (km/s) = 3.14826 3.70131 3.43593
# Velocity P-wave (km/s) = 4.90164 5.71585 5.32433
#
# Compressibility (1/GPa) = 0.04075658
#
# Stress axis : x y z
#
# Youngs Moduli (GPa) = 63.86143 43.27697 89.04619
#
# Poissons Ratio (x) = 0.12262 0.35400
# Poissons Ratio (y) = 0.18094 -0.19493
# Poissons Ratio (z) = 0.25388 -0.09474
#
# Static dielectric constant tensor:
#      x y z
#    x 1.841860 0.000000 0.011670 
#    y 0.000000 1.843110 0.000000 
#    z 0.011670 0.000000 1.832440 
# 
# From -- ./inp_files/9254.got.cif
#   From: 2010.05.17/outbox.cif.g08.bks.cpg/sg9_5_cif.got.tgz:9254.got - 2010.06.03 20:04:27.
