data_PCOD9140736
_publ_section_title
;
Structure prediction by ZEFSAII (Michael W. Deem and Ramdas Pophale) SiO2 
 PCOD9140736
Probable space group: C C
;
_chemical_formula_sum "Si O2"
_cell_formula_units_Z 32
_cell_length_a 11.587616
_cell_length_b 15.209445
_cell_length_c 9.056473
_cell_angle_alpha 90.000000
_cell_angle_beta 55.652758
_cell_angle_gamma 90.000000
_cell_volume 1317.813026
_symmetry_space_group_name_H-M "C C"
_symmetry_group_IT_number 9
_symmetry_cell_setting 'monoclinic'
loop_
_space_group_symop_operation_xyz
x,y,z
x,-y,1/2+z
1/2+x,1/2+y,z
1/2+x,1/2-y,1/2+z
loop_
_atom_site_type_symbol
_atom_site_label
_atom_site_fract_x
_atom_site_fract_y
_atom_site_fract_z
Si Si1 0.662490 0.664531 0.683830
Si Si2 0.934929 0.505733 0.745802
Si Si3 0.738660 0.476385 0.637788
Si Si4 0.566421 0.195835 0.713587
Si Si5 0.800105 0.097113 0.676152
Si Si6 0.713558 0.080386 0.080368
Si Si7 0.589358 0.329080 0.920900
Si Si8 0.916453 0.228784 0.053223
O O1 0.642005 0.561567 0.733274
O O2 0.682099 0.687368 0.497112
O O3 0.813226 0.688408 0.640778
O O4 0.530373 0.717553 0.841664
O O5 0.005419 0.600365 0.719895
O O6 0.045902 0.432307 0.719483
O O7 0.887240 0.484799 0.614961
O O8 0.786606 0.512532 0.935369
O O9 0.668199 0.386872 0.741239
O O10 0.728601 0.174320 0.630063
O O11 0.527040 0.240945 0.896179
O O12 0.514920 0.263267 0.625973
O O13 0.962502 0.114209 0.573968
O O14 0.774707 0.009682 0.601335
O O15 0.738740 0.090222 0.886138
O O16 0.799346 0.153610 0.109347
#
# Coordination Sequence:
#
# PCOD9140736 Si02
#       8
#     4   4   4   4   4   4   4   4
#     4  12  28  49  73 112 150 205 256 316 386 457
#     4  11  25  49  76 109 149 195 256 308 386 457
#     4  12  26  47  75 109 151 200 251 313 386 456
#     4  11  28  47  75 112 147 199 249 320 377 457
#     4  11  26  49  74 110 150 199 258 311 388 456
#     4  11  25  48  77 111 149 200 256 315 383 461
#     4  12  28  45  75 103 157 194 252 315 380 455
#     4  12  28  46  79 110 157 194 262 314 388 453
#
# _framework density 24.282654999999998
#
# number of rings (size 3 to 8) (size 9 to 14) (size 15 to 20)
#    0.000    0.500    3.750    3.000    8.750    1.000 
#    0.000    0.000    0.000    0.000    0.000    0.000 
#    0.000    0.000    0.000    0.000    0.000    0.000 
#
# Total GULP energy -89382.744526 kJ/mol
# GULP energy per Si atom -5586.421533 kJ/mol
# Density = 2.422739 g / cm^3
# Si number density = 24.282655 Si / 1000 Ang^3
#
#
#
# Elastic Constant Matrix: (Units=GPa)
#
#
# Indices 1 2 3 4 5 6 
#
# 1 107.6807 43.2521 23.9084 0.0000 16.3558 0.0000
# 2 43.2521 82.4218 14.9769 0.0000 7.5248 0.0000
# 3 23.9084 14.9769 60.3747 0.0000 -4.6994 0.0000
# 4 0.0000 0.0000 0.0000 24.5909 0.0000 0.2309
# 5 16.3558 7.5248 -4.6994 0.0000 45.3188 0.0000
# 6 0.0000 0.0000 0.0000 0.2309 0.0000 46.9809
#
#
#
# Elastic Compliance Matrix: (Units=1/GPa)
#
#
# Indices 1 2 3 4 5 6 
#
# 1 0.013158 -0.005774 -0.004106 0.000000 -0.004216 0.000000
# 2 -0.005774 0.015516 -0.001614 0.000000 -0.000660 0.000000
# 3 -0.004106 -0.001614 0.018878 0.000000 0.003708 0.000000
# 4 0.000000 0.000000 0.000000 0.040667 0.000000 -0.000200
# 5 -0.004216 -0.000660 0.003708 0.000000 0.024082 0.000000
# 6 0.000000 0.000000 0.000000 -0.000200 0.000000 0.021286
#
#
# Mechanical properties :
#
#
# Convention : Reuss Voigt Hill
#
# Bulk Modulus (GPa) = 40.70985 46.08354 43.39669
# Shear Modulus (GPa) = 30.34646 34.60078 32.47362
#
# Velocity S-wave (km/s) = 3.53897 3.77890 3.66090
# Velocity P-wave (km/s) = 5.78796 6.16922 5.98163
#
# Compressibility (1/GPa) = 0.02456408
#
# Stress axis : x y z
#
# Youngs Moduli (GPa) = 75.99954 64.44914 52.97080
#
# Poissons Ratio (x) = 0.37211 0.21752
# Poissons Ratio (y) = 0.43880 0.08549
# Poissons Ratio (z) = 0.31209 0.10402
#
# Static dielectric constant tensor:
#      x y z
#    x 1.916490 0.000000 0.002990 
#    y 0.000000 1.986060 0.000000 
#    z 0.002990 0.000000 1.909470 
# 
# From -- ./inp_files/7553.got.cif
#   From: 2010.05.17/outbox.cif.g08.bks.cpg/sg9_4_cif.got.tgz:7553.got - 2010.06.03 20:04:27.
