data_PCOD9140131
_publ_section_title
;
Structure prediction by ZEFSAII (Michael W. Deem and Ramdas Pophale) SiO2 
 PCOD9140131
Probable space group: C C
;
_chemical_formula_sum "Si O2"
_cell_formula_units_Z 32
_cell_length_a 16.803740
_cell_length_b 11.807929
_cell_length_c 13.822998
_cell_angle_alpha 90.000000
_cell_angle_beta 146.658929
_cell_angle_gamma 90.000000
_cell_volume 1507.460304
_symmetry_space_group_name_H-M "C C"
_symmetry_group_IT_number 9
_symmetry_cell_setting 'monoclinic'
loop_
_space_group_symop_operation_xyz
x,y,z
x,-y,1/2+z
1/2+x,1/2+y,z
1/2+x,1/2-y,1/2+z
loop_
_atom_site_type_symbol
_atom_site_label
_atom_site_fract_x
_atom_site_fract_y
_atom_site_fract_z
Si Si1 0.035240 0.142357 0.488280
Si Si2 0.437466 0.389130 0.581196
Si Si3 0.981769 0.358991 0.304281
Si Si4 0.254752 0.869782 0.383376
Si Si5 0.797786 0.124740 0.379999
Si Si6 0.670825 0.455910 0.963306
Si Si7 0.122801 0.696609 0.740339
Si Si8 0.009702 0.515553 0.023308
O O1 0.117816 0.151546 0.674123
O O2 0.113557 0.037581 0.514696
O O3 0.039444 0.255254 0.428290
O O4 0.866878 0.135679 0.343577
O O5 0.379737 0.513737 0.501184
O O6 0.524492 0.404324 0.768475
O O7 0.295106 0.312416 0.426334
O O8 0.563404 0.320919 0.653509
O O9 0.059503 0.348591 0.279631
O O10 0.005716 0.462142 0.404266
O O11 0.809450 0.371816 0.107526
O O12 0.316568 0.741980 0.456861
O O13 0.364465 0.945514 0.430726
O O14 0.215534 0.937774 0.441453
O O15 0.632191 0.091726 0.199294
O O16 0.059469 0.610644 0.597525
#
# Coordination Sequence:
#
# PCOD9140131 Si02
#       8
#     4   4   4   4   4   4   4   4
#     4  12  23  39  70 105 137 184 243 296 348 436
#     4  11  25  42  69  99 133 189 226 294 362 430
#     4  12  23  39  68 103 133 184 244 291 350 434
#     4  12  22  43  69 103 147 179 236 303 366 420
#     4  11  23  43  69  99 139 181 241 291 358 430
#     4  12  25  39  67 107 140 182 236 307 364 423
#     4  11  25  42  66  96 143 171 240 299 357 421
#     4  11  24  39  66  98 132 184 228 301 359 414
#
# _framework density 21.227757
#
# number of rings (size 3 to 8) (size 9 to 14) (size 15 to 20)
#    0.000    0.500    7.500    0.750    1.750    0.000 
#    0.000    0.000    8.250    0.000    0.000    0.000 
#    0.000    0.000    0.000    0.000    0.000    0.000 
#
# Total GULP energy -89108.697061 kJ/mol
# GULP energy per Si atom -5569.293566 kJ/mol
# Density = 2.117944 g / cm^3
# Si number density = 21.227757 Si / 1000 Ang^3
#
#
#
# Elastic Constant Matrix: (Units=GPa)
#
#
# Indices 1 2 3 4 5 6 
#
# 1 66.2395 31.1761 13.1685 0.0000 -1.3566 0.0000
# 2 31.1761 92.2523 44.0450 0.0000 -9.2450 0.0000
# 3 13.1685 44.0450 111.4970 0.0000 8.2312 0.0000
# 4 0.0000 0.0000 0.0000 26.1344 0.0000 2.6572
# 5 -1.3566 -9.2450 8.2312 0.0000 35.5543 0.0000
# 6 0.0000 0.0000 0.0000 2.6572 0.0000 29.1993
#
#
#
# Elastic Compliance Matrix: (Units=1/GPa)
#
#
# Indices 1 2 3 4 5 6 
#
# 1 0.018002 -0.006430 0.000495 0.000000 -0.001100 0.000000
# 2 -0.006430 0.016505 -0.006164 0.000000 0.005473 0.000000
# 3 0.000495 -0.006164 0.011662 0.000000 -0.004284 0.000000
# 4 0.000000 0.000000 0.000000 0.038621 0.000000 -0.003515
# 5 -0.001100 0.005473 -0.004284 0.000000 0.030499 0.000000
# 6 0.000000 0.000000 0.000000 -0.003515 0.000000 0.034567
#
#
# Mechanical properties :
#
#
# Convention : Reuss Voigt Hill
#
# Bulk Modulus (GPa) = 45.51790 49.64090 47.57940
# Shear Modulus (GPa) = 27.56667 30.28422 28.92544
#
# Velocity S-wave (km/s) = 3.60754 3.78118 3.69538
# Velocity P-wave (km/s) = 6.23231 6.51911 6.37732
#
# Compressibility (1/GPa) = 0.02196938
#
# Stress axis : x y z
#
# Youngs Moduli (GPa) = 55.54855 60.58900 85.75015
#
# Poissons Ratio (x) = 0.38961 -0.04247
# Poissons Ratio (y) = 0.35720 0.52860
# Poissons Ratio (z) = -0.02751 0.37350
#
# Static dielectric constant tensor:
#      x y z
#    x 1.874230 0.000000 0.007700 
#    y 0.000000 1.879920 0.000000 
#    z 0.007700 0.000000 1.808790 
# 
# From -- ./inp_files/10740.got.cif
#   From: 2010.05.17/outbox.cif.g08.bks.cpg/sg9_6_cif.got.tgz:10740.got - 2010.06.03 20:04:27.
