data_PCOD9140651
_publ_section_title
;
Structure prediction by ZEFSAII (Michael W. Deem and Ramdas Pophale) SiO2 
 PCOD9140651
Probable space group: C C
;
_chemical_formula_sum "Si O2"
_cell_formula_units_Z 32
_cell_length_a 11.507992
_cell_length_b 13.732755
_cell_length_c 18.308615
_cell_angle_alpha 90.000000
_cell_angle_beta 148.948942
_cell_angle_gamma 90.000000
_cell_volume 1492.435256
_symmetry_space_group_name_H-M "C C"
_symmetry_group_IT_number 9
_symmetry_cell_setting 'monoclinic'
loop_
_space_group_symop_operation_xyz
x,y,z
x,-y,1/2+z
1/2+x,1/2+y,z
1/2+x,1/2-y,1/2+z
loop_
_atom_site_type_symbol
_atom_site_label
_atom_site_fract_x
_atom_site_fract_y
_atom_site_fract_z
Si Si1 0.232480 0.904900 0.718740
Si Si2 0.183926 0.661051 0.241028
Si Si3 0.108126 0.243479 0.545574
Si Si4 0.611894 0.102958 0.529908
Si Si5 0.941096 0.421948 0.237512
Si Si6 0.774419 0.061886 0.779579
Si Si7 0.267980 0.406480 0.535387
Si Si8 0.219086 0.185787 0.066553
O O1 0.209407 0.816768 0.649778
O O2 0.985162 0.937459 0.607055
O O3 0.365799 0.980595 0.739379
O O4 0.356858 0.888706 0.862505
O O5 0.103471 0.712343 0.123622
O O6 0.360515 0.730697 0.378021
O O7 0.298955 0.555876 0.287703
O O8 0.955021 0.645746 0.163661
O O9 0.218154 0.137933 0.602837
O O10 0.278312 0.314971 0.594188
O O11 0.664874 0.096773 0.644139
O O12 0.716085 0.198991 0.548242
O O13 0.695403 0.000983 0.541566
O O14 0.098101 0.426066 0.251187
O O15 0.087392 0.371028 0.378861
O O16 0.005712 0.122241 0.921724
#
# Coordination Sequence:
#
# PCOD9140651 Si02
#       8
#     4   4   4   4   4   4   4   4
#     4  11  25  46  70 104 144 193 239 300 369 431
#     4  12  29  48  75 108 149 196 246 303 368 435
#     4  12  27  48  72 109 143 196 243 299 367 433
#     4  11  28  43  70 108 143 192 246 304 363 423
#     4  11  25  45  74 100 144 188 235 300 366 435
#     4  12  26  50  72 111 147 188 252 301 363 437
#     4  11  25  47  68 104 149 189 242 298 365 432
#     4  12  27  47  73 106 145 198 239 303 365 442
#
# _framework density 21.441466999999999
#
# number of rings (size 3 to 8) (size 9 to 14) (size 15 to 20)
#    0.000    0.500    5.000    1.500    8.750    2.000 
#    0.000    0.000    0.000    0.000    0.000    0.000 
#    0.000    0.000    0.000    0.000    0.000    0.000 
#
# Total GULP energy -89264.886777 kJ/mol
# GULP energy per Si atom -5579.055424 kJ/mol
# Density = 2.139266 g / cm^3
# Si number density = 21.441467 Si / 1000 Ang^3
#
#
#
# Elastic Constant Matrix: (Units=GPa)
#
#
# Indices 1 2 3 4 5 6 
#
# 1 97.2268 0.7072 60.1355 0.0004 -15.7412 0.0000
# 2 0.7072 80.7181 32.5264 0.0006 -18.3118 0.0000
# 3 60.1355 32.5264 118.8598 0.0015 -17.7124 0.0005
# 4 0.0004 0.0006 0.0015 25.1670 0.0003 -1.3091
# 5 -15.7412 -18.3118 -17.7124 0.0003 29.7348 0.0000
# 6 0.0000 0.0000 0.0005 -1.3091 0.0000 25.2230
#
#
#
# Elastic Compliance Matrix: (Units=1/GPa)
#
#
# Indices 1 2 3 4 5 6 
#
# 1 0.016809 0.004934 -0.008862 0.000000 0.006658 0.000000
# 2 0.004934 0.016803 -0.005666 0.000000 0.009585 0.000000
# 3 -0.008862 -0.005666 0.014517 -0.000001 0.000466 0.000000
# 4 0.000000 0.000000 -0.000001 0.039842 -0.000001 0.002068
# 5 0.006658 0.009585 0.000466 -0.000001 0.043336 0.000000
# 6 0.000000 0.000000 0.000000 0.002068 0.000000 0.039754
#
#
# Mechanical properties :
#
#
# Convention : Reuss Voigt Hill
#
# Bulk Modulus (GPa) = 34.55363 53.72701 44.14032
# Shear Modulus (GPa) = 25.01294 29.58732 27.30013
#
# Velocity S-wave (km/s) = 3.41921 3.71875 3.57212
# Velocity P-wave (km/s) = 5.63368 6.59929 6.13551
#
# Compressibility (1/GPa) = 0.02894052
#
# Stress axis : x y z
#
# Youngs Moduli (GPa) = 59.49318 59.51180 68.88407
#
# Poissons Ratio (x) = -0.29365 0.61047
# Poissons Ratio (y) = -0.29356 0.39033
# Poissons Ratio (z) = 0.52724 0.33722
#
# Static dielectric constant tensor:
#      x y z
#    x 1.733790 0.000000 -0.031720 
#    y 0.000000 1.786280 0.000000 
#    z -0.031720 0.000000 1.821230 
# 
# From -- ./inp_files/19398.got.cif
#   From: 2010.05.17/outbox.cif.g08.bks.cpg/sg9_10_cif.got.tgz:19398.got - 2010.06.03 20:04:27.
