data_PCOD9140824
_publ_section_title
;
Structure prediction by ZEFSAII (Michael W. Deem and Ramdas Pophale) SiO2 
 PCOD9140824
Probable space group: C C
;
_chemical_formula_sum "Si O2"
_cell_formula_units_Z 20
_cell_length_a 7.763807
_cell_length_b 13.029588
_cell_length_c 7.950491
_cell_angle_alpha 90.000000
_cell_angle_beta 99.009593
_cell_angle_gamma 90.000000
_cell_volume 794.342444
_symmetry_space_group_name_H-M "C C"
_symmetry_group_IT_number 9
_symmetry_cell_setting 'monoclinic'
loop_
_space_group_symop_operation_xyz
x,y,z
x,-y,1/2+z
1/2+x,1/2+y,z
1/2+x,1/2-y,1/2+z
loop_
_atom_site_type_symbol
_atom_site_label
_atom_site_fract_x
_atom_site_fract_y
_atom_site_fract_z
Si Si1 0.278870 0.847410 0.508850
Si Si2 0.759002 0.965194 0.356606
Si Si3 0.983472 0.095360 0.183643
Si Si4 0.465130 0.831765 0.207049
Si Si5 0.019497 0.665297 0.358074
O O1 0.367366 0.883334 0.349401
O O2 0.146655 0.758561 0.427901
O O3 0.423677 0.813321 0.667531
O O4 0.158770 0.920469 0.605098
O O5 0.938191 0.007562 0.307218
O O6 0.633172 0.062581 0.357574
O O7 0.814797 0.911920 0.536577
O O8 0.655870 0.883020 0.231706
O O9 0.982903 0.211255 0.252177
O O10 0.396218 0.844102 0.005734
#
# Coordination Sequence:
#
# PCOD9140824 Si02
#       5
#     4   4   4   4   4
#     4  11  27  47  77 118 163 209 277 324 415 465
#     4  12  24  53  76 111 167 209 272 335 405 482
#     4  11  27  47  80 119 155 220 264 341 403 484
#     4  11  26  47  82 110 163 213 272 332 404 480
#     4  11  26  48  77 116 158 217 263 340 397 487
#
# _framework density 25.178056000000002
#
# number of rings (size 3 to 8) (size 9 to 14) (size 15 to 20)
#    0.000    0.800    4.000    1.200   11.200    1.600 
#    3.600    0.000    0.000    0.000    0.000    0.000 
#    0.000    0.000    0.000    0.000    0.000    0.000 
#
# Total GULP energy -55944.336181 kJ/mol
# GULP energy per Si atom -5594.433618 kJ/mol
# Density = 2.512075 g / cm^3
# Si number density = 25.178056 Si / 1000 Ang^3
#
#
#
# Elastic Constant Matrix: (Units=GPa)
#
#
# Indices 1 2 3 4 5 6 
#
# 1 99.5108 42.3064 51.1918 0.0000 -25.8592 0.0000
# 2 42.3064 98.5468 21.3336 0.0000 1.0690 0.0000
# 3 51.1918 21.3336 149.6695 0.0000 -7.2718 0.0000
# 4 0.0000 0.0000 0.0000 32.7737 0.0000 3.9130
# 5 -25.8592 1.0690 -7.2718 0.0000 63.7874 0.0000
# 6 0.0000 0.0000 0.0000 3.9130 0.0000 51.2195
#
#
#
# Elastic Compliance Matrix: (Units=1/GPa)
#
#
# Indices 1 2 3 4 5 6 
#
# 1 0.016674 -0.006252 -0.004503 0.000000 0.006351 0.000000
# 2 -0.006252 0.012823 0.000178 0.000000 -0.002729 0.000000
# 3 -0.004503 0.000178 0.008153 0.000000 -0.000899 0.000000
# 4 0.000000 0.000000 0.000000 0.030793 0.000000 -0.002352
# 5 0.006351 -0.002729 -0.000899 0.000000 0.018195 0.000000
# 6 0.000000 0.000000 0.000000 -0.002352 0.000000 0.019704
#
#
# Mechanical properties :
#
#
# Convention : Reuss Voigt Hill
#
# Bulk Modulus (GPa) = 60.62622 64.15453 62.39037
# Shear Modulus (GPa) = 37.59542 45.08247 41.33895
#
# Velocity S-wave (km/s) = 3.86836 4.23608 4.05639
# Velocity P-wave (km/s) = 6.63955 7.03288 6.83904
#
# Compressibility (1/GPa) = 0.01649451
#
# Stress axis : x y z
#
# Youngs Moduli (GPa) = 59.97189 77.98694 122.66002
#
# Poissons Ratio (x) = 0.48760 0.55239
# Poissons Ratio (y) = 0.37497 -0.02186
# Poissons Ratio (z) = 0.27008 -0.01390
#
# Static dielectric constant tensor:
#      x y z
#    x 2.044280 0.000000 -0.087370 
#    y 0.000000 1.972640 0.000000 
#    z -0.087370 0.000000 2.073850 
# 
# From -- ./inp_files/4799.got.cif
#   From: 2010.05.17/outbox.cif.g08.bks.cpg/sg9_3_cif.got.tgz:4799.got - 2010.06.03 20:04:27.
