data_PCOD9140226
_publ_section_title
;
Structure prediction by ZEFSAII (Michael W. Deem and Ramdas Pophale) SiO2 
 PCOD9140226
Probable space group: C C
;
_chemical_formula_sum "Si O2"
_cell_formula_units_Z 32
_cell_length_a 6.087054
_cell_length_b 16.378581
_cell_length_c 14.354262
_cell_angle_alpha 90.000000
_cell_angle_beta 104.910221
_cell_angle_gamma 90.000000
_cell_volume 1382.897037
_symmetry_space_group_name_H-M "C C"
_symmetry_group_IT_number 9
_symmetry_cell_setting 'monoclinic'
loop_
_space_group_symop_operation_xyz
x,y,z
x,-y,1/2+z
1/2+x,1/2+y,z
1/2+x,1/2-y,1/2+z
loop_
_atom_site_type_symbol
_atom_site_label
_atom_site_fract_x
_atom_site_fract_y
_atom_site_fract_z
Si Si1 0.948810 0.804468 0.451960
Si Si2 0.217704 0.533249 0.698356
Si Si3 0.375108 0.478657 0.518075
Si Si4 0.624691 0.384097 0.937673
Si Si5 0.159602 0.120827 0.813437
Si Si6 0.474592 0.034507 0.343087
Si Si7 0.986065 0.243883 0.296489
Si Si8 0.952378 0.309337 0.103726
O O1 0.719113 0.780067 0.368868
O O2 0.050359 0.729218 0.519991
O O3 0.151444 0.840159 0.413322
O O4 0.881540 0.881942 0.506660
O O5 0.349271 0.497417 0.623920
O O6 0.407312 0.586986 0.771446
O O7 0.101173 0.468097 0.755783
O O8 0.043823 0.602218 0.642950
O O9 0.565619 0.529722 0.480702
O O10 0.156302 0.513593 0.441574
O O11 0.438745 0.334530 0.856412
O O12 0.812107 0.399160 0.875366
O O13 0.701320 0.328131 0.034022
O O14 0.270781 0.194453 0.769107
O O15 0.317689 0.044576 0.816473
O O16 0.018143 0.242461 0.188988
#
# Coordination Sequence:
#
# PCOD9140226 Si02
#       8
#     4   4   4   4   4   4   4   4
#     4  11  24  43  70  96 138 182 227 287 356 419
#     4  12  25  42  76 101 140 190 238 292 361 427
#     4  12  24  45  69 107 133 183 240 288 355 427
#     4  11  26  44  76 101 141 191 238 297 357 423
#     4  12  21  44  73  92 138 190 224 289 356 414
#     4  12  23  46  70 102 141 186 237 293 351 422
#     4  11  24  46  66 102 139 181 233 297 354 418
#     4  11  23  46  64 103 138 177 235 291 350 426
#
# _framework density 23.139828000000001
#
# number of rings (size 3 to 8) (size 9 to 14) (size 15 to 20)
#    0.000    0.500    7.500    0.750    1.750    2.000 
#    2.250    0.000    0.000    0.000    0.000    0.000 
#    0.000    0.000    0.000    0.000    0.000    0.000 
#
# Total GULP energy -89078.956655 kJ/mol
# GULP energy per Si atom -5567.434791 kJ/mol
# Density = 2.308716 g / cm^3
# Si number density = 23.139828 Si / 1000 Ang^3
#
#
#
# Elastic Constant Matrix: (Units=GPa)
#
#
# Indices 1 2 3 4 5 6 
#
# 1 46.1449 6.5656 19.0714 0.0000 -17.9117 0.0000
# 2 6.5656 70.8178 43.8186 0.0000 -11.8222 0.0000
# 3 19.0714 43.8186 113.3353 0.0000 -19.3525 0.0000
# 4 0.0000 0.0000 0.0000 45.6154 0.0000 -7.0928
# 5 -17.9117 -11.8222 -19.3525 0.0000 31.4297 0.0000
# 6 0.0000 0.0000 0.0000 -7.0928 0.0000 16.5104
#
#
#
# Elastic Compliance Matrix: (Units=1/GPa)
#
#
# Indices 1 2 3 4 5 6 
#
# 1 0.028472 0.001642 -0.002850 0.000000 0.015089 0.000000
# 2 0.001642 0.018889 -0.006936 0.000000 0.003771 0.000000
# 3 -0.002850 -0.006936 0.012585 0.000000 0.003516 0.000000
# 4 0.000000 0.000000 0.000000 0.023492 0.000000 0.010092
# 5 0.015089 0.003771 0.003516 0.000000 0.044000 0.000000
# 6 0.000000 0.000000 0.000000 0.010092 0.000000 0.064903
#
#
# Mechanical properties :
#
#
# Convention : Reuss Voigt Hill
#
# Bulk Modulus (GPa) = 22.90393 41.02324 31.96358
# Shear Modulus (GPa) = 22.40347 29.43394 25.91871
#
# Velocity S-wave (km/s) = 3.11493 3.57039 3.35041
# Velocity P-wave (km/s) = 4.78086 5.89608 5.36751
#
# Compressibility (1/GPa) = 0.04366063
#
# Stress axis : x y z
#
# Youngs Moduli (GPa) = 35.12227 52.93974 79.46084
#
# Poissons Ratio (x) = -0.08695 0.22643
# Poissons Ratio (y) = -0.05769 0.55112
# Poissons Ratio (z) = 0.10008 0.36717
#
# Static dielectric constant tensor:
#      x y z
#    x 2.086280 0.000000 -0.055120 
#    y 0.000000 1.950480 0.000000 
#    z -0.055120 0.000000 1.978300 
# 
# From -- ./inp_files/22008.got.cif
#   From: 2010.05.17/outbox.cif.g08.bks.cpg/sg9_12_cif.got.tgz:22008.got - 2010.06.03 20:04:27.
