data_PCOD9140602
_publ_section_title
;
Structure prediction by ZEFSAII (Michael W. Deem and Ramdas Pophale) SiO2 
 PCOD9140602
Probable space group: C C
;
_chemical_formula_sum "Si O2"
_cell_formula_units_Z 28
_cell_length_a 14.581546
_cell_length_b 9.118595
_cell_length_c 13.786728
_cell_angle_alpha 90.000000
_cell_angle_beta 141.275331
_cell_angle_gamma 90.000000
_cell_volume 1146.765456
_symmetry_space_group_name_H-M "C C"
_symmetry_group_IT_number 9
_symmetry_cell_setting 'monoclinic'
loop_
_space_group_symop_operation_xyz
x,y,z
x,-y,1/2+z
1/2+x,1/2+y,z
1/2+x,1/2-y,1/2+z
loop_
_atom_site_type_symbol
_atom_site_label
_atom_site_fract_x
_atom_site_fract_y
_atom_site_fract_z
Si Si1 0.356080 0.186976 0.574400
Si Si2 0.716343 0.207232 0.332776
Si Si3 0.634494 0.663174 0.220943
Si Si4 0.629500 0.179598 0.036959
Si Si5 0.392888 0.857563 0.627409
Si Si6 0.956911 0.051183 0.452281
Si Si7 0.242743 0.372314 0.147320
O O1 0.497174 0.287451 0.673274
O O2 0.276333 0.159124 0.405666
O O3 0.240754 0.261264 0.549670
O O4 0.393205 0.028867 0.650607
O O5 0.683087 0.201176 0.191763
O O6 0.560662 0.192499 0.255736
O O7 0.809222 0.337799 0.455408
O O8 0.833074 0.073838 0.433641
O O9 0.591649 0.521802 0.121054
O O10 0.658714 0.791021 0.163482
O O11 0.495432 0.294735 0.931615
O O12 0.635014 0.004004 0.024924
O O13 0.300703 0.749118 0.620171
O O14 0.887693 0.946142 0.314266
#
# Coordination Sequence:
#
# PCOD9140602 Si02
#       7
#     4   4   4   4   4   4   4
#     4  12  29  46  79 114 149 204 252 318 384 454
#     4  11  26  48  75 108 150 198 250 312 373 458
#     4  12  27  52  77 111 156 199 257 316 381 460
#     4  11  26  46  77 109 156 195 254 308 383 445
#     4  12  28  48  78 112 151 204 256 309 392 449
#     4  11  24  50  75 109 159 200 250 320 377 452
#     4  11  28  50  75 113 153 202 255 317 376 462
#
# _framework density 24.416501
#
# number of rings (size 3 to 8) (size 9 to 14) (size 15 to 20)
#    0.000    0.571    2.857    3.429   10.000    0.000 
#    0.000    0.000    0.000    0.000    0.000    0.000 
#    0.000    0.000    0.000    0.000    0.000    0.000 
#
# Total GULP energy -78297.434000 kJ/mol
# GULP energy per Si atom -5592.673857 kJ/mol
# Density = 2.436093 g / cm^3
# Si number density = 24.416501 Si / 1000 Ang^3
#
#
#
# Elastic Constant Matrix: (Units=GPa)
#
#
# Indices 1 2 3 4 5 6 
#
# 1 108.6592 30.9398 -12.6903 0.0000 11.8740 0.0000
# 2 30.9398 114.3121 -6.3957 0.0000 4.2407 0.0000
# 3 -12.6903 -6.3957 59.4867 0.0000 6.6464 0.0000
# 4 0.0000 0.0000 0.0000 36.8137 0.0000 5.6136
# 5 11.8740 4.2407 6.6464 0.0000 34.7559 0.0000
# 6 0.0000 0.0000 0.0000 5.6136 0.0000 38.8308
#
#
#
# Elastic Compliance Matrix: (Units=1/GPa)
#
#
# Indices 1 2 3 4 5 6 
#
# 1 0.010639 -0.002605 0.002412 0.000000 -0.003778 0.000000
# 2 -0.002605 0.009495 0.000506 0.000000 -0.000365 0.000000
# 3 0.002412 0.000506 0.017860 0.000000 -0.004301 0.000000
# 4 0.000000 0.000000 0.000000 0.027776 0.000000 -0.004015
# 5 -0.003778 -0.000365 -0.004301 0.000000 0.030930 0.000000
# 6 0.000000 0.000000 0.000000 -0.004015 0.000000 0.026333
#
#
# Mechanical properties :
#
#
# Convention : Reuss Voigt Hill
#
# Bulk Modulus (GPa) = 25.89296 34.01841 29.95568
# Shear Modulus (GPa) = 36.96030 40.12035 38.54032
#
# Velocity S-wave (km/s) = 3.89491 4.05800 3.97729
# Velocity P-wave (km/s) = 5.55471 5.99327 5.77815
#
# Compressibility (1/GPa) = 0.03862054
#
# Stress axis : x y z
#
# Youngs Moduli (GPa) = 93.99155 105.32085 55.99126
#
# Poissons Ratio (x) = 0.27431 -0.13504
# Poissons Ratio (y) = 0.24480 -0.02833
# Poissons Ratio (z) = -0.22669 -0.05330
#
# Static dielectric constant tensor:
#      x y z
#    x 1.906600 0.000000 -0.009080 
#    y 0.000000 2.007700 0.000000 
#    z -0.009080 0.000000 2.008360 
# 
# From -- ./inp_files/25735.got.cif
#   From: 2010.05.17/outbox.cif.g08.bks.cpg/sg9_13_cif.got.tgz:25735.got - 2010.06.03 20:04:27.
