data_PCOD9140740
_publ_section_title
;
Structure prediction by ZEFSAII (Michael W. Deem and Ramdas Pophale) SiO2 
 PCOD9140740
Probable space group: C C
;
_chemical_formula_sum "Si O2"
_cell_formula_units_Z 28
_cell_length_a 8.675275
_cell_length_b 14.300877
_cell_length_c 13.926569
_cell_angle_alpha 90.000000
_cell_angle_beta 40.694259
_cell_angle_gamma 90.000000
_cell_volume 1126.555513
_symmetry_space_group_name_H-M "C C"
_symmetry_group_IT_number 9
_symmetry_cell_setting 'monoclinic'
loop_
_space_group_symop_operation_xyz
x,y,z
x,-y,1/2+z
1/2+x,1/2+y,z
1/2+x,1/2-y,1/2+z
loop_
_atom_site_type_symbol
_atom_site_label
_atom_site_fract_x
_atom_site_fract_y
_atom_site_fract_z
Si Si1 0.095700 0.325475 0.268460
Si Si2 0.341372 0.857667 0.735686
Si Si3 0.173319 0.213336 0.835400
Si Si4 0.485154 0.445682 0.029201
Si Si5 0.119784 0.543221 0.942819
Si Si6 0.143678 0.072270 0.671130
Si Si7 0.271792 0.652731 0.148632
O O1 0.190859 0.226411 0.262204
O O2 0.283949 0.368675 0.105072
O O3 0.089174 0.396376 0.360725
O O4 0.846517 0.326582 0.334352
O O5 0.541911 0.890827 0.567410
O O6 0.497984 0.831821 0.753457
O O7 0.175022 0.939512 0.854862
O O8 0.150105 0.150916 0.750650
O O9 0.292767 0.309888 0.746257
O O10 0.923677 0.216288 0.005176
O O11 0.594134 0.413223 0.080405
O O12 0.365121 0.547146 0.094658
O O13 0.907320 0.469584 0.046609
O O14 0.396993 0.516783 0.815166
#
# Coordination Sequence:
#
# PCOD9140740 Si02
#       7
#     4   4   4   4   4   4   4
#     4  11  28  50  77 111 153 205 263 319 390 468
#     4  12  27  48  79 109 156 205 253 322 390 468
#     4  12  29  49  76 114 154 201 262 318 393 459
#     4  11  28  49  79 115 155 202 259 322 387 473
#     4  11  25  48  79 111 156 201 262 315 398 462
#     4  11  26  49  79 113 158 204 257 323 397 465
#     4  12  29  49  77 113 156 204 256 319 385 471
#
# _framework density 24.854520999999998
#
# number of rings (size 3 to 8) (size 9 to 14) (size 15 to 20)
#    0.000    0.571    1.429    4.286   18.000    0.000 
#    0.000    0.000    0.000    0.000    0.000    0.000 
#    0.000    0.000    0.000    0.000    0.000    0.000 
#
# Total GULP energy -78296.000030 kJ/mol
# GULP energy per Si atom -5592.571431 kJ/mol
# Density = 2.479795 g / cm^3
# Si number density = 24.854521 Si / 1000 Ang^3
#
#
#
# Elastic Constant Matrix: (Units=GPa)
#
#
# Indices 1 2 3 4 5 6 
#
# 1 102.9325 29.9150 38.1639 -0.0011 -13.2726 0.0005
# 2 29.9150 82.5660 35.6154 -0.0019 -5.0852 0.0013
# 3 38.1639 35.6154 151.5987 -0.0034 -8.8243 0.0023
# 4 -0.0011 -0.0019 -0.0034 39.2365 0.0024 3.3896
# 5 -13.2726 -5.0852 -8.8243 0.0024 36.8231 -0.0012
# 6 0.0005 0.0013 0.0023 3.3896 -0.0012 28.1250
#
#
#
# Elastic Compliance Matrix: (Units=1/GPa)
#
#
# Indices 1 2 3 4 5 6 
#
# 1 0.011829 -0.003205 -0.002031 0.000000 0.003335 0.000000
# 2 -0.003205 0.014391 -0.002561 0.000000 0.000218 0.000000
# 3 -0.002031 -0.002561 0.007754 0.000000 0.000772 0.000000
# 4 0.000000 0.000000 0.000000 0.025755 -0.000002 -0.003104
# 5 0.003335 0.000218 0.000772 -0.000002 0.028574 0.000001
# 6 0.000000 0.000000 0.000000 -0.003104 0.000001 0.035930
#
#
# Mechanical properties :
#
#
# Convention : Reuss Voigt Hill
#
# Bulk Modulus (GPa) = 54.40477 60.49842 57.45159
# Shear Modulus (GPa) = 34.25736 36.39711 35.32724
#
# Velocity S-wave (km/s) = 3.71659 3.83091 3.77418
# Velocity P-wave (km/s) = 6.35250 6.63036 6.49292
#
# Compressibility (1/GPa) = 0.01838074
#
# Stress axis : x y z
#
# Youngs Moduli (GPa) = 84.53478 69.48813 128.95916
#
# Poissons Ratio (x) = 0.22268 0.26192
# Poissons Ratio (y) = 0.27089 0.33032
# Poissons Ratio (z) = 0.17169 0.17799
#
# Static dielectric constant tensor:
#      x y z
#    x 2.010040 0.000000 0.006100 
#    y 0.000000 2.034430 0.000000 
#    z 0.006100 0.000000 1.930090 
# 
# From -- ./inp_files/23455.got.cif
#   From: 2010.05.17/outbox.cif.g08.bks.cpg/sg9_12_cif.got.tgz:23455.got - 2010.06.03 20:04:27.
