data_PCOD9140353
_publ_section_title
;
Structure prediction by ZEFSAII (Michael W. Deem and Ramdas Pophale) SiO2 
 PCOD9140353
Probable space group: C C
;
_chemical_formula_sum "Si O2"
_cell_formula_units_Z 32
_cell_length_a 5.525803
_cell_length_b 28.806859
_cell_length_c 9.654971
_cell_angle_alpha 90.000000
_cell_angle_beta 56.660423
_cell_angle_gamma 90.000000
_cell_volume 1283.959327
_symmetry_space_group_name_H-M "C C"
_symmetry_group_IT_number 9
_symmetry_cell_setting 'monoclinic'
loop_
_space_group_symop_operation_xyz
x,y,z
x,-y,1/2+z
1/2+x,1/2+y,z
1/2+x,1/2-y,1/2+z
loop_
_atom_site_type_symbol
_atom_site_label
_atom_site_fract_x
_atom_site_fract_y
_atom_site_fract_z
Si Si1 0.299780 0.822309 0.052140
Si Si2 0.457523 0.268590 0.393596
Si Si3 0.216698 0.447897 0.986240
Si Si4 0.854254 0.313543 0.508088
Si Si5 0.939693 0.612008 0.760246
Si Si6 0.689585 0.626970 0.311630
Si Si7 0.530879 0.045181 0.280098
Si Si8 0.035808 0.968158 0.441723
O O1 0.438376 0.855439 0.124752
O O2 0.104908 0.788908 0.209381
O O3 0.500499 0.786125 0.905526
O O4 0.150327 0.850602 0.975599
O O5 0.621335 0.291816 0.474038
O O6 0.118679 0.281030 0.475128
O O7 0.164724 0.428941 0.155833
O O8 0.449122 0.411402 0.858832
O O9 0.955208 0.442260 0.963068
O O10 0.284544 0.502181 0.946798
O O11 0.987473 0.356694 0.378588
O O12 0.704423 0.334153 0.690958
O O13 0.641249 0.582838 0.869381
O O14 0.971345 0.593462 0.219819
O O15 0.303005 0.003584 0.329687
O O16 0.867056 0.033845 0.142050
#
# Coordination Sequence:
#
# PCOD9140353 Si02
#       8
#     4   4   4   4   4   4   4   4
#     4  11  25  48  78 109 153 194 258 318 396 471
#     4  11  27  49  75 112 149 199 249 321 401 463
#     4  11  24  42  70 103 151 198 257 314 381 450
#     4  11  27  48  78 111 152 197 256 319 389 473
#     4  11  24  47  74 110 151 209 256 321 382 467
#     4  11  25  43  73 109 145 201 250 319 375 471
#     4  11  25  43  69 105 149 199 257 318 384 460
#     4  11  25  44  67 107 148 205 253 320 384 453
#
# _framework density 24.922908
#
# number of rings (size 3 to 8) (size 9 to 14) (size 15 to 20)
#    0.000    1.000    2.500    2.250    7.000    7.000 
#    0.000    0.000    0.000    0.000    0.000    0.000 
#    0.000    0.000    0.000    0.000    0.000    0.000 
#
# Total GULP energy -89179.997523 kJ/mol
# GULP energy per Si atom -5573.749845 kJ/mol
# Density = 2.486618 g / cm^3
# Si number density = 24.922908 Si / 1000 Ang^3
#
#
#
# Elastic Constant Matrix: (Units=GPa)
#
#
# Indices 1 2 3 4 5 6 
#
# 1 71.0317 34.8990 34.5179 0.0000 14.4580 0.0000
# 2 34.8990 103.8489 29.2863 0.0000 7.6735 0.0000
# 3 34.5179 29.2863 91.5116 0.0000 15.2803 0.0000
# 4 0.0000 0.0000 0.0000 54.8329 0.0000 4.6069
# 5 14.4580 7.6735 15.2803 0.0000 38.4012 0.0000
# 6 0.0000 0.0000 0.0000 4.6069 0.0000 25.6042
#
#
#
# Elastic Compliance Matrix: (Units=1/GPa)
#
#
# Indices 1 2 3 4 5 6 
#
# 1 0.019919 -0.004898 -0.005203 0.000000 -0.004450 0.000000
# 2 -0.004898 0.011813 -0.001978 0.000000 0.000271 0.000000
# 3 -0.005203 -0.001978 0.014065 0.000000 -0.003242 0.000000
# 4 0.000000 0.000000 0.000000 0.018517 0.000000 -0.003332
# 5 -0.004450 0.000271 -0.003242 0.000000 0.028952 0.000000
# 6 0.000000 0.000000 0.000000 -0.003332 0.000000 0.039656
#
#
# Mechanical properties :
#
#
# Convention : Reuss Voigt Hill
#
# Bulk Modulus (GPa) = 46.21322 51.53318 48.87320
# Shear Modulus (GPa) = 30.43359 34.94694 32.69027
#
# Velocity S-wave (km/s) = 3.49823 3.74866 3.62561
# Velocity P-wave (km/s) = 5.90758 6.28160 6.09746
#
# Compressibility (1/GPa) = 0.02163883
#
# Stress axis : x y z
#
# Youngs Moduli (GPa) = 50.20415 84.65114 71.10068
#
# Poissons Ratio (x) = 0.41460 0.36992
# Poissons Ratio (y) = 0.24589 0.14066
# Poissons Ratio (z) = 0.26120 0.16747
#
# Static dielectric constant tensor:
#      x y z
#    x 2.040910 0.000000 -0.024380 
#    y 0.000000 2.002040 0.000000 
#    z -0.024380 0.000000 2.081610 
# 
# From -- ./inp_files/4453.got.cif
#   From: 2010.05.17/outbox.cif.g08.bks.cpg/sg9_3_cif.got.tgz:4453.got - 2010.06.03 20:04:27.
