data_PCOD9140170
_publ_section_title
;
Structure prediction by ZEFSAII (Michael W. Deem and Ramdas Pophale) SiO2 
 PCOD9140170
Probable space group: C C
;
_chemical_formula_sum "Si O2"
_cell_formula_units_Z 28
_cell_length_a 11.476698
_cell_length_b 8.303393
_cell_length_c 26.331090
_cell_angle_alpha 90.000000
_cell_angle_beta 31.281624
_cell_angle_gamma 90.000000
_cell_volume 1302.907977
_symmetry_space_group_name_H-M "C C"
_symmetry_group_IT_number 9
_symmetry_cell_setting 'monoclinic'
loop_
_space_group_symop_operation_xyz
x,y,z
x,-y,1/2+z
1/2+x,1/2+y,z
1/2+x,1/2-y,1/2+z
loop_
_atom_site_type_symbol
_atom_site_label
_atom_site_fract_x
_atom_site_fract_y
_atom_site_fract_z
Si Si1 0.950620 0.009024 0.961930
Si Si2 0.061900 0.689164 0.571885
Si Si3 0.987220 0.450605 0.506721
Si Si4 0.861808 0.684216 0.351546
Si Si5 0.050643 0.736543 0.687902
Si Si6 0.741981 0.083989 0.145606
Si Si7 0.076059 0.346423 0.875990
O O1 0.003263 0.160600 0.908180
O O2 0.801728 0.078208 0.063943
O O3 0.178039 0.940771 0.899992
O O4 0.820757 0.863048 0.982837
O O5 0.987170 0.569909 0.554880
O O6 0.967133 0.665754 0.664301
O O7 0.971211 0.863799 0.588496
O O8 0.211434 0.340277 0.421023
O O9 0.975334 0.549301 0.458869
O O10 0.770319 0.339003 0.593563
O O11 0.051667 0.704603 0.237467
O O12 0.990050 0.609915 0.352306
O O13 0.135762 0.593600 0.692671
O O14 0.844506 0.842904 0.783282
#
# Coordination Sequence:
#
# PCOD9140170 Si02
#       7
#     4   4   4   4   4   4   4
#     4  11  24  45  68 101 140 183 225 286 348 412
#     4  11  23  45  69  97 139 180 224 292 343 404
#     4  12  27  42  69 106 138 179 234 290 345 414
#     4  12  25  43  68 104 137 180 233 282 345 417
#     4  11  26  47  67 103 141 182 237 283 346 418
#     4  11  23  44  74  94 140 184 228 285 348 405
#     4  12  26  42  71 103 141 184 227 284 351 414
#
# _framework density 21.490389
#
# number of rings (size 3 to 8) (size 9 to 14) (size 15 to 20)
#    0.000    0.571    8.571    0.000    4.000    0.000 
#    0.000    2.857    0.000    0.000    0.000    0.000 
#    0.000    0.000    0.000    0.000    0.000    0.000 
#
# Total GULP energy -78088.032580 kJ/mol
# GULP energy per Si atom -5577.716613 kJ/mol
# Density = 2.144148 g / cm^3
# Si number density = 21.490389 Si / 1000 Ang^3
#
#
#
# Elastic Constant Matrix: (Units=GPa)
#
#
# Indices 1 2 3 4 5 6 
#
# 1 118.9895 52.2316 40.0899 -0.0001 -13.1408 -0.0001
# 2 52.2316 68.4694 29.2748 0.0002 -14.4746 -0.0002
# 3 40.0899 29.2748 109.8994 -0.0006 -17.2619 0.0000
# 4 -0.0001 0.0002 -0.0006 37.4992 0.0001 -3.1321
# 5 -13.1408 -14.4746 -17.2619 0.0001 28.7586 -0.0001
# 6 -0.0001 -0.0002 0.0000 -3.1321 -0.0001 28.7230
#
#
#
# Elastic Compliance Matrix: (Units=1/GPa)
#
#
# Indices 1 2 3 4 5 6 
#
# 1 0.013174 -0.009016 -0.002397 0.000000 0.000043 0.000000
# 2 -0.009016 0.023736 -0.001992 0.000000 0.006631 0.000000
# 3 -0.002397 -0.001992 0.011234 0.000000 0.004645 0.000000
# 4 0.000000 0.000000 0.000000 0.026912 0.000000 0.002935
# 5 0.000043 0.006631 0.004645 0.000000 0.040917 0.000000
# 6 0.000000 0.000000 0.000000 0.002935 0.000000 0.035135
#
#
# Mechanical properties :
#
#
# Convention : Reuss Voigt Hill
#
# Bulk Modulus (GPa) = 46.87467 60.06120 53.46794
# Shear Modulus (GPa) = 27.02232 30.71362 28.86797
#
# Velocity S-wave (km/s) = 3.54985 3.78455 3.66908
# Velocity P-wave (km/s) = 6.21781 6.86336 6.54855
#
# Compressibility (1/GPa) = 0.02133348
#
# Stress axis : x y z
#
# Youngs Moduli (GPa) = 75.90642 42.12924 89.01485
#
# Poissons Ratio (x) = 0.37983 0.21341
# Poissons Ratio (y) = 0.68435 0.17736
# Poissons Ratio (z) = 0.18198 0.08394
#
# Static dielectric constant tensor:
#      x y z
#    x 1.779590 0.000000 -0.002340 
#    y 0.000000 1.791070 0.000000 
#    z -0.002340 0.000000 1.817220 
# 
# From -- ./inp_files/24108.got.cif
#   From: 2010.05.17/outbox.cif.g08.bks.cpg/sg9_13_cif.got.tgz:24108.got - 2010.06.03 20:04:27.
