data_PCOD9140058
_publ_section_title
;
Structure prediction by ZEFSAII (Michael W. Deem and Ramdas Pophale) SiO2 
 PCOD9140058
Probable space group: C C
;
_chemical_formula_sum "Si O2"
_cell_formula_units_Z 20
_cell_length_a 12.309623
_cell_length_b 7.717986
_cell_length_c 16.147082
_cell_angle_alpha 90.000000
_cell_angle_beta 30.124591
_cell_angle_gamma 90.000000
_cell_volume 769.917900
_symmetry_space_group_name_H-M "C C"
_symmetry_group_IT_number 9
_symmetry_cell_setting 'monoclinic'
loop_
_space_group_symop_operation_xyz
x,y,z
x,-y,1/2+z
1/2+x,1/2+y,z
1/2+x,1/2-y,1/2+z
loop_
_atom_site_type_symbol
_atom_site_label
_atom_site_fract_x
_atom_site_fract_y
_atom_site_fract_z
Si Si1 0.367450 0.145810 0.916810
Si Si2 0.939664 0.013371 0.684279
Si Si3 0.743116 0.346525 0.303434
Si Si4 0.783229 0.997561 0.569598
Si Si5 0.569747 0.862042 0.549516
O O1 0.298822 0.160052 0.865032
O O2 0.601797 0.058178 0.756174
O O3 0.358176 0.326993 0.971162
O O4 0.163149 0.035399 0.084190
O O5 0.998865 0.165645 0.581561
O O6 0.834015 0.839617 0.718222
O O7 0.764042 0.092070 0.861466
O O8 0.495502 0.388452 0.450636
O O9 0.880926 0.496812 0.167964
O O10 0.651560 0.883303 0.589438
#
# Coordination Sequence:
#
# PCOD9140058 Si02
#       5
#     4   4   4   4   4
#     4  11  22  48  76 111 163 198 258 332 378 474
#     4  12  23  49  75 103 160 204 251 329 382 456
#     4  11  24  47  76 112 155 201 262 321 386 466
#     4  11  23  46  76 118 153 211 257 315 406 454
#     4  11  24  46  73 110 155 208 256 323 390 456
#
# _framework density 25.976797999999999
#
# number of rings (size 3 to 8) (size 9 to 14) (size 15 to 20)
#    0.000    0.800    6.000    2.400    0.000    3.200 
#   18.000    0.000    0.000    0.000    0.000    0.000 
#    0.000    0.000    0.000    0.000    0.000    0.000 
#
# Total GULP energy -56070.221260 kJ/mol
# GULP energy per Si atom -5607.022126 kJ/mol
# Density = 2.591767 g / cm^3
# Si number density = 25.976798 Si / 1000 Ang^3
#
#
#
# Elastic Constant Matrix: (Units=GPa)
#
#
# Indices 1 2 3 4 5 6 
#
# 1 50.7463 25.1763 43.3526 -0.0001 -28.6912 -0.0003
# 2 25.1763 206.3809 87.9933 -0.0018 -28.7910 0.0002
# 3 43.3526 87.9933 220.0132 -0.0039 -36.1249 0.0013
# 4 -0.0001 -0.0018 -0.0039 62.7897 0.0009 -5.8493
# 5 -28.6912 -28.7910 -36.1249 0.0009 47.8349 0.0001
# 6 -0.0003 0.0002 0.0013 -5.8493 0.0001 32.6507
#
#
#
# Elastic Compliance Matrix: (Units=1/GPa)
#
#
# Indices 1 2 3 4 5 6 
#
# 1 0.032158 -0.000088 -0.003588 0.000000 0.016526 0.000000
# 2 -0.000088 0.006014 -0.002057 0.000000 0.002013 0.000000
# 3 -0.003588 -0.002057 0.006300 0.000000 0.001367 0.000000
# 4 0.000000 0.000000 0.000000 0.016196 0.000000 0.002902
# 5 0.016526 0.002013 0.001367 0.000000 0.033062 0.000000
# 6 0.000000 0.000000 0.000000 0.002902 0.000000 0.031147
#
#
# Mechanical properties :
#
#
# Convention : Reuss Voigt Hill
#
# Bulk Modulus (GPa) = 30.29814 87.79829 59.04822
# Shear Modulus (GPa) = 33.93391 50.02960 41.98176
#
# Velocity S-wave (km/s) = 3.61822 4.39331 4.02447
# Velocity P-wave (km/s) = 5.39854 7.72056 6.66150
#
# Compressibility (1/GPa) = 0.03300533
#
# Stress axis : x y z
#
# Youngs Moduli (GPa) = 31.09634 166.27243 158.74227
#
# Poissons Ratio (x) = 0.01458 0.56958
# Poissons Ratio (y) = 0.00273 0.32661
# Poissons Ratio (z) = 0.11158 0.34210
#
# Static dielectric constant tensor:
#      x y z
#    x 2.112290 0.000000 0.053040 
#    y 0.000000 2.038340 0.000000 
#    z 0.053040 0.000000 2.032700 
# 
# From -- ./inp_files/12358.got.cif
#   From: 2010.05.17/outbox.cif.g08.bks.cpg/sg9_7_cif.got.tgz:12358.got - 2010.06.03 20:04:27.
