data_PCOD9140464
_publ_section_title
;
Structure prediction by ZEFSAII (Michael W. Deem and Ramdas Pophale) SiO2 
 PCOD9140464
Probable space group: C C
;
_chemical_formula_sum "Si O2"
_cell_formula_units_Z 32
_cell_length_a 25.628267
_cell_length_b 5.392777
_cell_length_c 23.437231
_cell_angle_alpha 90.000000
_cell_angle_beta 157.951076
_cell_angle_gamma 90.000000
_cell_volume 1215.990404
_symmetry_space_group_name_H-M "C C"
_symmetry_group_IT_number 9
_symmetry_cell_setting 'monoclinic'
loop_
_space_group_symop_operation_xyz
x,y,z
x,-y,1/2+z
1/2+x,1/2+y,z
1/2+x,1/2-y,1/2+z
loop_
_atom_site_type_symbol
_atom_site_label
_atom_site_fract_x
_atom_site_fract_y
_atom_site_fract_z
Si Si1 0.419890 0.536799 0.252940
Si Si2 0.861570 0.759411 0.307050
Si Si3 0.959424 0.412874 0.633815
Si Si4 0.119727 0.426750 0.590957
Si Si5 0.295204 0.691888 0.924682
Si Si6 0.651745 0.688814 0.736672
Si Si7 0.731949 0.122251 0.464501
Si Si8 0.700536 0.613691 0.566209
O O1 0.428740 0.424105 0.325241
O O2 0.312418 0.389099 0.105038
O O3 0.580459 0.554856 0.399126
O O4 0.340883 0.796370 0.178556
O O5 0.750215 0.591845 0.160576
O O6 0.982306 0.594780 0.456617
O O7 0.764814 0.928996 0.247783
O O8 0.024357 0.235627 0.650985
O O9 0.946097 0.679759 0.589514
O O10 0.810915 0.332202 0.507989
O O11 0.066613 0.374638 0.794446
O O12 0.108382 0.213774 0.626791
O O13 0.137606 0.328107 0.544107
O O14 0.247832 0.434680 0.846656
O O15 0.220522 0.923160 0.817734
O O16 0.258765 0.623501 0.953526
#
# Coordination Sequence:
#
# PCOD9140464 Si02
#       8
#     4   4   4   4   4   4   4   4
#     4  11  26  44  75 109 148 205 247 315 390 454
#     4  11  24  47  69 108 155 190 258 311 373 475
#     4  11  25  50  69 109 152 190 259 310 377 460
#     4  11  26  46  74 107 146 205 246 322 383 454
#     4  11  25  50  68 113 146 192 255 315 367 463
#     4  11  28  46  80 105 153 201 254 314 389 445
#     4  11  28  45  78 108 151 206 247 325 387 467
#     4  11  24  46  67 109 153 189 254 310 370 470
#
# _framework density 26.315995999999998
#
# number of rings (size 3 to 8) (size 9 to 14) (size 15 to 20)
#    0.000    1.000    5.000    0.000   10.500    1.000 
#    0.000    0.000    0.000    0.000    0.000    0.000 
#    0.000    0.000    0.000    0.000    0.000    0.000 
#
# Total GULP energy -89400.466769 kJ/mol
# GULP energy per Si atom -5587.529173 kJ/mol
# Density = 2.625610 g / cm^3
# Si number density = 26.315996 Si / 1000 Ang^3
#
#
#
# Elastic Constant Matrix: (Units=GPa)
#
#
# Indices 1 2 3 4 5 6 
#
# 1 37.4112 8.4313 7.7190 0.0000 -20.3047 0.0001
# 2 8.4313 113.2986 33.6787 0.0002 1.8876 0.0001
# 3 7.7190 33.6787 124.1742 0.0000 17.6200 0.0001
# 4 0.0000 0.0002 0.0000 52.3698 0.0000 -2.5636
# 5 -20.3047 1.8876 17.6200 0.0000 28.4672 0.0000
# 6 0.0001 0.0001 0.0001 -2.5636 0.0000 37.7898
#
#
#
# Elastic Compliance Matrix: (Units=1/GPa)
#
#
# Indices 1 2 3 4 5 6 
#
# 1 0.052235 -0.001989 -0.008784 0.000000 0.042826 0.000000
# 2 -0.001989 0.009706 -0.002429 0.000000 -0.000559 0.000000
# 3 -0.008784 -0.002429 0.011099 0.000000 -0.012975 0.000000
# 4 0.000000 0.000000 0.000000 0.019159 0.000000 0.001300
# 5 0.042826 -0.000559 -0.012975 0.000000 0.073743 0.000000
# 6 0.000000 0.000000 0.000000 0.001300 0.000000 0.026550
#
#
# Mechanical properties :
#
#
# Convention : Reuss Voigt Hill
#
# Bulk Modulus (GPa) = 21.44401 41.61576 31.52988
# Shear Modulus (GPa) = 21.32722 38.72902 30.02812
#
# Velocity S-wave (km/s) = 2.84989 3.84042 3.38162
# Velocity P-wave (km/s) = 4.35838 5.95931 5.22058
#
# Compressibility (1/GPa) = 0.04663307
#
# Stress axis : x y z
#
# Youngs Moduli (GPa) = 19.14439 103.03165 90.09624
#
# Poissons Ratio (x) = 0.20497 0.79145
# Poissons Ratio (y) = 0.03809 0.21888
# Poissons Ratio (z) = 0.16817 0.25031
#
# Static dielectric constant tensor:
#      x y z
#    x 2.069390 0.000000 0.006120 
#    y 0.000000 2.151050 0.000000 
#    z 0.006120 0.000000 2.136470 
# 
# From -- ./inp_files/37048.got.cif
#   From: 2010.05.17/outbox.cif.g08.bks.cpg/sg9_19_cif.got.tgz:37048.got - 2010.06.03 20:04:27.
