data_PCOD9140890
_publ_section_title
;
Structure prediction by ZEFSAII (Michael W. Deem and Ramdas Pophale) SiO2 
 PCOD9140890
Probable space group: C C
;
_chemical_formula_sum "Si O2"
_cell_formula_units_Z 20
_cell_length_a 23.596324
_cell_length_b 4.977228
_cell_length_c 9.724332
_cell_angle_alpha 90.000000
_cell_angle_beta 142.562165
_cell_angle_gamma 90.000000
_cell_volume 694.262997
_symmetry_space_group_name_H-M "C C"
_symmetry_group_IT_number 9
_symmetry_cell_setting 'monoclinic'
loop_
_space_group_symop_operation_xyz
x,y,z
x,-y,1/2+z
1/2+x,1/2+y,z
1/2+x,1/2-y,1/2+z
loop_
_atom_site_type_symbol
_atom_site_label
_atom_site_fract_x
_atom_site_fract_y
_atom_site_fract_z
Si Si1 0.515770 0.637732 0.419630
Si Si2 0.358089 0.740932 0.658777
Si Si3 0.217485 0.923280 0.718896
Si Si4 0.206777 0.589079 0.019946
Si Si5 0.999647 0.494681 0.630822
O O1 0.618639 0.519213 0.592153
O O2 0.498090 0.707796 0.546933
O O3 0.435712 0.425607 0.223643
O O4 0.505531 0.898315 0.299536
O O5 0.304260 0.974721 0.474707
O O6 0.280290 0.531745 0.557909
O O7 0.413611 0.856388 0.895379
O O8 0.226797 0.110238 0.602341
O O9 0.211747 0.618402 0.657823
O O10 0.100704 0.584327 0.767226
#
# Coordination Sequence:
#
# PCOD9140890 Si02
#       5
#     4   4   4   4   4
#     4  11  28  50  84 121 173 220 283 347 427 497
#     4  12  28  48  86 119 166 223 284 348 418 506
#     4  11  28  50  79 118 169 215 280 340 420 498
#     4  11  28  51  78 118 167 221 273 345 418 498
#     4  11  28  51  81 120 167 221 280 346 417 503
#
# _framework density 28.807528000000001
#
# number of rings (size 3 to 8) (size 9 to 14) (size 15 to 20)
#    0.000    0.800    2.000    1.200   19.600    0.000 
#    0.000    0.000    0.000    0.000    0.000    0.000 
#    0.000    0.000    0.000    0.000    0.000    0.000 
#
# Total GULP energy -56121.735797 kJ/mol
# GULP energy per Si atom -5612.173580 kJ/mol
# Density = 2.874196 g / cm^3
# Si number density = 28.807528 Si / 1000 Ang^3
#
#
#
# Elastic Constant Matrix: (Units=GPa)
#
#
# Indices 1 2 3 4 5 6 
#
# 1 146.0684 58.5454 61.9929 0.0000 16.1409 0.0000
# 2 58.5454 82.3403 29.5818 0.0000 13.3090 0.0000
# 3 61.9929 29.5818 198.4206 0.0000 21.4644 0.0000
# 4 0.0000 0.0000 0.0000 39.1329 0.0000 -1.9588
# 5 16.1409 13.3090 21.4644 0.0000 57.9744 0.0000
# 6 0.0000 0.0000 0.0000 -1.9588 0.0000 64.8649
#
#
#
# Elastic Compliance Matrix: (Units=1/GPa)
#
#
# Indices 1 2 3 4 5 6 
#
# 1 0.010489 -0.006560 -0.002236 0.000000 -0.000587 0.000000
# 2 -0.006560 0.017244 -0.000303 0.000000 -0.002020 0.000000
# 3 -0.002236 -0.000303 0.005947 0.000000 -0.001510 0.000000
# 4 0.000000 0.000000 0.000000 0.025593 0.000000 0.000773
# 5 -0.000587 -0.002020 -0.001510 0.000000 0.018435 0.000000
# 6 0.000000 0.000000 0.000000 0.000773 0.000000 0.015440
#
#
# Mechanical properties :
#
#
# Convention : Reuss Voigt Hill
#
# Bulk Modulus (GPa) = 64.58571 80.78551 72.68561
# Shear Modulus (GPa) = 42.91645 50.84173 46.87909
#
# Velocity S-wave (km/s) = 3.86393 4.20560 4.03838
# Velocity P-wave (km/s) = 6.50961 7.18936 6.85791
#
# Compressibility (1/GPa) = 0.01548330
#
# Stress axis : x y z
#
# Youngs Moduli (GPa) = 95.33786 57.99044 168.15890
#
# Poissons Ratio (x) = 0.38041 0.37595
# Poissons Ratio (y) = 0.62540 0.05092
# Poissons Ratio (z) = 0.21314 0.01756
#
# Static dielectric constant tensor:
#      x y z
#    x 2.290050 0.000000 -0.061430 
#    y 0.000000 2.184310 0.000000 
#    z -0.061430 0.000000 2.139650 
# 
# From -- ./inp_files/17350.got.cif
#   From: 2010.05.17/outbox.cif.g08.bks.cpg/sg9_9_cif.got.tgz:17350.got - 2010.06.03 20:04:27.
