data_PCOD9140665
_publ_section_title
;
Structure prediction by ZEFSAII (Michael W. Deem and Ramdas Pophale) SiO2 
 PCOD9140665
Probable space group: C C
;
_chemical_formula_sum "Si O2"
_cell_formula_units_Z 32
_cell_length_a 21.353192
_cell_length_b 9.146771
_cell_length_c 18.694563
_cell_angle_alpha 90.000000
_cell_angle_beta 22.613916
_cell_angle_gamma 90.000000
_cell_volume 1403.991064
_symmetry_space_group_name_H-M "C C"
_symmetry_group_IT_number 9
_symmetry_cell_setting 'monoclinic'
loop_
_space_group_symop_operation_xyz
x,y,z
x,-y,1/2+z
1/2+x,1/2+y,z
1/2+x,1/2-y,1/2+z
loop_
_atom_site_type_symbol
_atom_site_label
_atom_site_fract_x
_atom_site_fract_y
_atom_site_fract_z
Si Si1 0.143720 0.070015 0.025560
Si Si2 0.911081 0.683677 0.469612
Si Si3 0.127295 0.677899 0.875606
Si Si4 0.275941 0.978300 0.733304
Si Si5 0.135104 0.580216 0.023228
Si Si6 0.259144 0.483302 0.611573
Si Si7 0.290980 0.661417 0.430633
Si Si8 0.291849 0.823279 0.937787
O O1 0.963332 0.130150 0.213236
O O2 0.248107 0.168899 0.970227
O O3 0.222953 0.050559 0.864205
O O4 0.140569 0.912218 0.066125
O O5 0.811832 0.604549 0.637639
O O6 0.896007 0.860744 0.485438
O O7 0.830904 0.646196 0.478035
O O8 0.092333 0.614075 0.279639
O O9 0.145465 0.852778 0.849972
O O10 0.190218 0.630781 0.887549
O O11 0.229592 0.593839 0.707839
O O12 0.944145 0.614239 0.063206
O O13 0.158743 0.412709 0.017434
O O14 0.245864 0.659724 0.965935
O O15 0.949872 0.626835 0.228015
O O16 0.285668 0.587792 0.514551
#
# Coordination Sequence:
#
# PCOD9140665 Si02
#       8
#     4   4   4   4   4   4   4   4
#     4  12  28  45  69 102 137 183 231 292 350 410
#     4  11  25  46  69 104 139 185 230 285 348 412
#     4  11  25  46  69 104 139 185 230 285 348 412
#     4  11  27  46  71 101 143 183 231 287 346 420
#     4  12  22  43  72 100 137 180 234 286 346 418
#     4  11  27  46  71 101 143 183 231 287 346 420
#     4  12  28  45  69 102 137 183 231 292 350 410
#     4  12  22  43  72 100 137 180 234 286 346 418
#
# _framework density 22.792166999999999
#
# number of rings (size 3 to 8) (size 9 to 14) (size 15 to 20)
#    0.000    0.500    5.000    1.500    7.000    3.000 
#    0.000    0.000    0.000    0.000    0.000    0.000 
#    0.000    0.000    0.000    0.000    0.000    0.000 
#
# Total GULP energy -89485.809474 kJ/mol
# GULP energy per Si atom -5592.863092 kJ/mol
# Density = 2.274029 g / cm^3
# Si number density = 22.792167 Si / 1000 Ang^3
#
#
#
# Elastic Constant Matrix: (Units=GPa)
#
#
# Indices 1 2 3 4 5 6 
#
# 1 93.5125 39.8827 27.2239 0.0000 29.8036 0.0000
# 2 39.8827 105.3180 36.6296 0.0001 22.1548 -0.0001
# 3 27.2239 36.6296 79.5660 0.0000 17.7228 0.0000
# 4 0.0000 0.0001 0.0000 35.3169 0.0000 -2.7185
# 5 29.8036 22.1548 17.7228 0.0000 44.0821 0.0000
# 6 0.0000 -0.0001 0.0000 -2.7185 0.0000 40.7422
#
#
#
# Elastic Compliance Matrix: (Units=1/GPa)
#
#
# Indices 1 2 3 4 5 6 
#
# 1 0.015197 -0.003468 -0.001870 0.000000 -0.007780 0.000000
# 2 -0.003468 0.012757 -0.004152 0.000000 -0.002397 0.000000
# 3 -0.001870 -0.004152 0.015787 0.000000 -0.002996 0.000000
# 4 0.000000 0.000000 0.000000 0.028461 0.000000 0.001899
# 5 -0.007780 -0.002397 -0.002996 0.000000 0.030354 0.000000
# 6 0.000000 0.000000 0.000000 0.001899 0.000000 0.024671
#
#
# Mechanical properties :
#
#
# Convention : Reuss Voigt Hill
#
# Bulk Modulus (GPa) = 40.38832 53.98544 47.18688
# Shear Modulus (GPa) = 32.37067 35.67226 34.02146
#
# Velocity S-wave (km/s) = 3.77271 3.96044 3.86772
# Velocity P-wave (km/s) = 6.06107 6.68213 6.37916
#
# Compressibility (1/GPa) = 0.02475963
#
# Stress axis : x y z
#
# Youngs Moduli (GPa) = 65.80366 78.39001 63.34348
#
# Poissons Ratio (x) = 0.27184 0.11847
# Poissons Ratio (y) = 0.22819 0.26302
# Poissons Ratio (z) = 0.12307 0.32550
#
# Static dielectric constant tensor:
#      x y z
#    x 1.811940 0.000000 -0.022290 
#    y 0.000000 1.831930 0.000000 
#    z -0.022290 0.000000 1.859420 
# 
# From -- ./inp_files/34499.got.cif
#   From: 2010.05.17/outbox.cif.g08.bks.cpg/sg9_18_cif.got.tgz:34499.got - 2010.06.03 20:04:27.
