data_PCOD9140758
_publ_section_title
;
Structure prediction by ZEFSAII (Michael W. Deem and Ramdas Pophale) SiO2 
 PCOD9140758
Probable space group: C C
;
_chemical_formula_sum "Si O2"
_cell_formula_units_Z 28
_cell_length_a 7.910903
_cell_length_b 14.521831
_cell_length_c 10.448009
_cell_angle_alpha 90.000000
_cell_angle_beta 76.983951
_cell_angle_gamma 90.000000
_cell_volume 1169.436933
_symmetry_space_group_name_H-M "C C"
_symmetry_group_IT_number 9
_symmetry_cell_setting 'monoclinic'
loop_
_space_group_symop_operation_xyz
x,y,z
x,-y,1/2+z
1/2+x,1/2+y,z
1/2+x,1/2-y,1/2+z
loop_
_atom_site_type_symbol
_atom_site_label
_atom_site_fract_x
_atom_site_fract_y
_atom_site_fract_z
Si Si1 0.118060 0.424427 0.152820
Si Si2 0.065105 0.024658 0.497556
Si Si3 0.125061 0.790099 0.152209
Si Si4 0.244993 0.534905 0.375125
Si Si5 0.282156 0.878698 0.350574
Si Si6 0.408397 0.654473 0.168025
Si Si7 0.282480 0.767757 0.604986
O O1 0.188688 0.467782 0.271465
O O2 0.241018 0.339547 0.097590
O O3 0.929527 0.390390 0.220728
O O4 0.124753 0.480456 0.019648
O O5 0.106044 0.120163 0.562048
O O6 0.939077 0.029063 0.397260
O O7 0.238322 0.977352 0.416561
O O8 0.968365 0.943150 0.595684
O O9 0.128687 0.833108 0.294391
O O10 0.299454 0.727896 0.101207
O O11 0.953796 0.727820 0.161520
O O12 0.262862 0.632383 0.299584
O O13 0.325053 0.814527 0.462643
O O14 0.595234 0.692901 0.182056
#
# Coordination Sequence:
#
# PCOD9140758 Si02
#       7
#     4   4   4   4   4   4   4
#     4  12  26  46  81 111 163 210 267 341 412 492
#     4  11  25  49  79 110 167 213 274 340 423 494
#     4  12  25  50  80 115 161 225 263 346 423 489
#     4  12  25  52  76 116 162 213 265 347 419 495
#     4  11  27  47  76 120 159 209 285 331 419 516
#     4  11  25  50  80 117 160 213 281 340 412 510
#     4  11  25  50  76 117 162 207 275 343 402 504
#
# _framework density 23.943147
#
# number of rings (size 3 to 8) (size 9 to 14) (size 15 to 20)
#    0.000    0.571    4.286    2.571    4.000    0.000 
#   10.286    0.000    0.000    0.000    0.000    0.000 
#    0.000    0.000    0.000    0.000    0.000    0.000 
#
# Total GULP energy -78120.848526 kJ/mol
# GULP energy per Si atom -5580.060609 kJ/mol
# Density = 2.388865 g / cm^3
# Si number density = 23.943147 Si / 1000 Ang^3
#
#
#
# Elastic Constant Matrix: (Units=GPa)
#
#
# Indices 1 2 3 4 5 6 
#
# 1 128.7981 48.0136 33.9126 0.0000 14.2208 0.0000
# 2 48.0136 81.9708 59.4750 0.0000 12.7155 0.0000
# 3 33.9126 59.4750 111.8974 0.0000 8.6828 0.0000
# 4 0.0000 0.0000 0.0000 35.1489 0.0000 10.4908
# 5 14.2208 12.7155 8.6828 0.0000 44.1178 0.0000
# 6 0.0000 0.0000 0.0000 10.4908 0.0000 28.8583
#
#
#
# Elastic Compliance Matrix: (Units=1/GPa)
#
#
# Indices 1 2 3 4 5 6 
#
# 1 0.010043 -0.005721 0.000122 0.000000 -0.001612 0.000000
# 2 -0.005721 0.023730 -0.010654 0.000000 -0.002899 0.000000
# 3 0.000122 -0.010654 0.014550 0.000000 0.000168 0.000000
# 4 0.000000 0.000000 0.000000 0.031913 0.000000 -0.011601
# 5 -0.001612 -0.002899 0.000168 0.000000 0.023989 0.000000
# 6 0.000000 0.000000 0.000000 -0.011601 0.000000 0.038870
#
#
# Mechanical properties :
#
#
# Convention : Reuss Voigt Hill
#
# Bulk Modulus (GPa) = 63.22448 67.27430 65.24939
# Shear Modulus (GPa) = 27.64386 33.70933 30.67660
#
# Velocity S-wave (km/s) = 3.40157 3.75626 3.58331
# Velocity P-wave (km/s) = 6.47233 6.85355 6.66566
#
# Compressibility (1/GPa) = 0.01581666
#
# Stress axis : x y z
#
# Youngs Moduli (GPa) = 99.57604 42.13996 68.73052
#
# Poissons Ratio (x) = 0.24108 -0.00840
# Poissons Ratio (y) = 0.56967 0.73228
# Poissons Ratio (z) = -0.01218 0.44897
#
# Static dielectric constant tensor:
#      x y z
#    x 1.958440 0.000000 -0.035190 
#    y 0.000000 2.008250 0.000000 
#    z -0.035190 0.000000 1.964840 
# 
# From -- ./inp_files/14427.got.cif
#   From: 2010.05.17/outbox.cif.g08.bks.cpg/sg9_8_cif.got.tgz:14427.got - 2010.06.03 20:04:27.
