data_PCOD9140995
_publ_section_title
;
Structure prediction by ZEFSAII (Michael W. Deem and Ramdas Pophale) SiO2 
 PCOD9140995
Probable space group: C C
;
_chemical_formula_sum "Si O2"
_cell_formula_units_Z 20
_cell_length_a 8.245651
_cell_length_b 15.382285
_cell_length_c 7.647937
_cell_angle_alpha 90.000000
_cell_angle_beta 124.441031
_cell_angle_gamma 90.000000
_cell_volume 800.001277
_symmetry_space_group_name_H-M "C C"
_symmetry_group_IT_number 9
_symmetry_cell_setting 'monoclinic'
loop_
_space_group_symop_operation_xyz
x,y,z
x,-y,1/2+z
1/2+x,1/2+y,z
1/2+x,1/2-y,1/2+z
loop_
_atom_site_type_symbol
_atom_site_label
_atom_site_fract_x
_atom_site_fract_y
_atom_site_fract_z
Si Si1 0.356590 0.058175 0.976430
Si Si2 0.373563 0.875317 0.093367
Si Si3 0.163254 0.679126 0.339422
Si Si4 0.468379 0.635637 0.817883
Si Si5 0.456928 0.314406 0.690264
O O1 0.366903 0.096800 0.790289
O O2 0.127926 0.059608 0.891681
O O3 0.476850 0.120499 0.178477
O O4 0.440731 0.961373 0.034887
O O5 0.490755 0.785748 0.155331
O O6 0.157845 0.851102 0.890610
O O7 0.299051 0.637007 0.570756
O O8 0.088915 0.774608 0.350361
O O9 0.292483 0.685466 0.240528
O O10 0.401892 0.636519 0.978452
#
# Coordination Sequence:
#
# PCOD9140995 Si02
#       5
#     4   4   4   4   4
#     4  12  27  50  76 112 162 195 266 329 374 453
#     4  12  26  50  77 114 156 202 257 325 378 461
#     4  12  24  49  76 115 154 203 257 316 382 469
#     4  12  24  47  80 111 155 208 253 317 389 455
#     4  12  25  50  81 108 157 212 255 311 397 460
#
# _framework density 24.999960999999999
#
# number of rings (size 3 to 8) (size 9 to 14) (size 15 to 20)
#    0.000    0.000    6.000    3.600    2.800    0.000 
#    7.200    0.000    0.000    0.000    0.000    0.000 
#    0.000    0.000    0.000    0.000    0.000    0.000 
#
# Total GULP energy -56137.587780 kJ/mol
# GULP energy per Si atom -5613.758778 kJ/mol
# Density = 2.494306 g / cm^3
# Si number density = 24.999961 Si / 1000 Ang^3
#
#
#
# Elastic Constant Matrix: (Units=GPa)
#
#
# Indices 1 2 3 4 5 6 
#
# 1 87.7855 -3.0507 38.6030 0.0000 -27.4253 0.0000
# 2 -3.0507 108.1819 30.7427 0.0000 4.1086 0.0000
# 3 38.6030 30.7427 201.6228 0.0000 -7.7898 0.0000
# 4 0.0000 0.0000 0.0000 40.0442 0.0000 -4.1008
# 5 -27.4253 4.1086 -7.7898 0.0000 52.3042 0.0000
# 6 0.0000 0.0000 0.0000 -4.1008 0.0000 24.3254
#
#
#
# Elastic Compliance Matrix: (Units=1/GPa)
#
#
# Indices 1 2 3 4 5 6 
#
# 1 0.014908 0.000912 -0.002710 0.000000 0.007342 0.000000
# 2 0.000912 0.009769 -0.001685 0.000000 -0.000540 0.000000
# 3 -0.002710 -0.001685 0.005719 0.000000 -0.000437 0.000000
# 4 0.000000 0.000000 0.000000 0.025411 0.000000 0.004284
# 5 0.007342 -0.000540 -0.000437 0.000000 0.022946 0.000000
# 6 0.000000 0.000000 0.000000 0.004284 0.000000 0.041831
#
#
# Mechanical properties :
#
#
# Convention : Reuss Voigt Hill
#
# Bulk Modulus (GPa) = 42.68094 58.90892 50.79493
# Shear Modulus (GPa) = 36.93849 45.42110 41.17980
#
# Velocity S-wave (km/s) = 3.84805 4.26707 4.06297
# Velocity P-wave (km/s) = 6.07065 6.92040 6.50941
#
# Compressibility (1/GPa) = 0.02342966
#
# Stress axis : x y z
#
# Youngs Moduli (GPa) = 67.07636 102.36747 174.86798
#
# Poissons Ratio (x) = -0.09332 0.47384
# Poissons Ratio (y) = -0.06115 0.29464
# Poissons Ratio (z) = 0.18176 0.17248
#
# Static dielectric constant tensor:
#      x y z
#    x 1.996870 0.000000 -0.001930 
#    y 0.000000 1.932500 0.000000 
#    z -0.001930 0.000000 1.911060 
# 
# From -- ./inp_files/5157.got.cif
#   From: 2010.05.17/outbox.cif.g08.bks.cpg/sg9_3_cif.got.tgz:5157.got - 2010.06.03 20:04:27.
