data_PCOD9140738
_publ_section_title
;
Structure prediction by ZEFSAII (Michael W. Deem and Ramdas Pophale) SiO2 
 PCOD9140738
Probable space group: C C
;
_chemical_formula_sum "Si O2"
_cell_formula_units_Z 24
_cell_length_a 16.269104
_cell_length_b 7.891446
_cell_length_c 11.373851
_cell_angle_alpha 90.000000
_cell_angle_beta 139.281413
_cell_angle_gamma 90.000000
_cell_volume 952.586974
_symmetry_space_group_name_H-M "C C"
_symmetry_group_IT_number 9
_symmetry_cell_setting 'monoclinic'
loop_
_space_group_symop_operation_xyz
x,y,z
x,-y,1/2+z
1/2+x,1/2+y,z
1/2+x,1/2-y,1/2+z
loop_
_atom_site_type_symbol
_atom_site_label
_atom_site_fract_x
_atom_site_fract_y
_atom_site_fract_z
Si Si1 0.772160 0.886559 0.515110
Si Si2 0.522564 0.704148 0.295670
Si Si3 0.245999 0.532720 0.746535
Si Si4 0.824777 0.346853 0.717454
Si Si5 0.490794 0.874705 0.492739
Si Si6 0.047025 0.190961 0.798551
O O1 0.632676 0.810714 0.358189
O O2 0.782395 0.021760 0.418850
O O3 0.879255 0.744149 0.615222
O O4 0.787365 0.949415 0.667221
O O5 0.532249 0.729226 0.445824
O O6 0.525975 0.509791 0.263645
O O7 0.298132 0.720759 0.795550
O O8 0.096782 0.516158 0.585566
O O9 0.694098 0.315768 0.502001
O O10 0.861918 0.531207 0.812286
O O11 0.944981 0.271920 0.777544
O O12 0.514731 0.795487 0.645724
#
# Coordination Sequence:
#
# PCOD9140738 Si02
#       6
#     4   4   4   4   4   4
#     4  11  26  47  81 112 164 212 283 340 428 506
#     4  11  27  48  77 121 161 219 277 351 421 509
#     4  11  25  48  77 114 162 220 269 352 422 505
#     4  12  26  51  82 122 168 222 288 352 436 513
#     4  11  28  49  85 119 171 220 287 353 432 515
#     4  12  28  51  82 124 172 223 288 358 429 518
#
# _framework density 25.194551000000001
#
# number of rings (size 3 to 8) (size 9 to 14) (size 15 to 20)
#    0.000    0.667    3.333    2.000    7.000    5.333 
#    0.000    0.000    0.000    0.000    0.000    0.000 
#    0.000    0.000    0.000    0.000    0.000    0.000 
#
# Total GULP energy -66892.199982 kJ/mol
# GULP energy per Si atom -5574.349998 kJ/mol
# Density = 2.513721 g / cm^3
# Si number density = 25.194551 Si / 1000 Ang^3
#
#
#
# Elastic Constant Matrix: (Units=GPa)
#
#
# Indices 1 2 3 4 5 6 
#
# 1 117.9751 51.7929 109.6535 0.0000 -1.4648 0.0000
# 2 51.7929 108.6416 52.9870 0.0000 -8.5970 0.0000
# 3 109.6535 52.9870 174.7896 0.0000 1.2535 0.0000
# 4 0.0000 0.0000 0.0000 46.1440 0.0000 6.7634
# 5 -1.4648 -8.5970 1.2535 0.0000 41.3085 0.0000
# 6 0.0000 0.0000 0.0000 6.7634 0.0000 25.8024
#
#
#
# Elastic Compliance Matrix: (Units=1/GPa)
#
#
# Indices 1 2 3 4 5 6 
#
# 1 0.021996 -0.004384 -0.012472 0.000000 0.000246 0.000000
# 2 -0.004384 0.011908 -0.000876 0.000000 0.002349 0.000000
# 3 -0.012472 -0.000876 0.013819 0.000000 -0.001044 0.000000
# 4 0.000000 0.000000 0.000000 0.022537 0.000000 -0.005908
# 5 0.000246 0.002349 -0.001044 0.000000 0.024737 0.000000
# 6 0.000000 0.000000 0.000000 -0.005908 0.000000 0.040305
#
#
# Mechanical properties :
#
#
# Convention : Reuss Voigt Hill
#
# Bulk Modulus (GPa) = 81.57976 92.25256 86.91616
# Shear Modulus (GPa) = 28.59536 35.11583 31.85559
#
# Velocity S-wave (km/s) = 3.37260 3.73740 3.55968
# Velocity P-wave (km/s) = 6.90045 7.43772 7.17412
#
# Compressibility (1/GPa) = 0.01225794
#
# Stress axis : x y z
#
# Youngs Moduli (GPa) = 45.46179 83.97769 72.36561
#
# Poissons Ratio (x) = 0.36816 0.90256
# Poissons Ratio (y) = 0.19930 0.06342
# Poissons Ratio (z) = 0.56701 0.07360
#
# Static dielectric constant tensor:
#      x y z
#    x 2.027920 0.000000 0.040510 
#    y 0.000000 2.065690 0.000000 
#    z 0.040510 0.000000 2.114370 
# 
# From -- ./inp_files/19116.got.cif
#   From: 2010.05.17/outbox.cif.g08.bks.cpg/sg9_10_cif.got.tgz:19116.got - 2010.06.03 20:04:27.
