data_PCOD9140980
_publ_section_title
;
Structure prediction by ZEFSAII (Michael W. Deem and Ramdas Pophale) SiO2 
 PCOD9140980
Probable space group: C C
;
_chemical_formula_sum "Si O2"
_cell_formula_units_Z 28
_cell_length_a 21.534039
_cell_length_b 4.894126
_cell_length_c 11.314674
_cell_angle_alpha 90.000000
_cell_angle_beta 58.202566
_cell_angle_gamma 90.000000
_cell_volume 1013.488537
_symmetry_space_group_name_H-M "C C"
_symmetry_group_IT_number 9
_symmetry_cell_setting 'monoclinic'
loop_
_space_group_symop_operation_xyz
x,y,z
x,-y,1/2+z
1/2+x,1/2+y,z
1/2+x,1/2-y,1/2+z
loop_
_atom_site_type_symbol
_atom_site_label
_atom_site_fract_x
_atom_site_fract_y
_atom_site_fract_z
Si Si1 0.267030 0.061940 0.486450
Si Si2 0.670161 0.271458 0.388614
Si Si3 0.409406 0.250213 0.811793
Si Si4 0.941430 0.980083 0.521871
Si Si5 0.541534 0.902090 0.768121
Si Si6 0.570959 0.749388 0.501987
Si Si7 0.708054 0.926641 0.152906
O O1 0.214608 0.913521 0.446367
O O2 0.349533 0.990580 0.374808
O O3 0.243066 0.871108 0.621439
O O4 0.245499 0.376292 0.517577
O O5 0.622937 0.525769 0.389366
O O6 0.724560 0.099165 0.253292
O O7 0.611072 0.037457 0.477148
O O8 0.406738 0.385210 0.682881
O O9 0.487662 0.110829 0.756125
O O10 0.398125 0.425893 0.946105
O O11 0.994848 0.747050 0.415986
O O12 0.995086 0.224270 0.510058
O O13 0.558363 0.671731 0.651785
O O14 0.619834 0.030950 0.726557
#
# Coordination Sequence:
#
# PCOD9140980 Si02
#       7
#     4   4   4   4   4   4   4
#     4  12  29  51  74 114 163 211 261 327 411 486
#     4  12  24  45  76 115 156 201 262 332 406 474
#     4  12  32  51  81 117 170 221 271 332 413 493
#     4  12  28  51  80 118 163 216 277 336 408 484
#     4  12  26  48  81 117 162 207 281 336 406 474
#     4  12  24  45  78 118 156 203 266 340 398 473
#     4  12  27  47  82 113 156 205 272 335 400 474
#
# _framework density 27.627348000000001
#
# number of rings (size 3 to 8) (size 9 to 14) (size 15 to 20)
#    0.000    0.000    5.714    2.571    8.000    0.000 
#    0.000    0.000    0.000    0.000    0.000    0.000 
#    0.000    0.000    0.000    0.000    0.000    0.000 
#
# Total GULP energy -78330.902500 kJ/mol
# GULP energy per Si atom -5595.064464 kJ/mol
# Density = 2.756447 g / cm^3
# Si number density = 27.627348 Si / 1000 Ang^3
#
#
#
# Elastic Constant Matrix: (Units=GPa)
#
#
# Indices 1 2 3 4 5 6 
#
# 1 108.9411 40.3760 38.6592 0.0000 -18.2205 0.0000
# 2 40.3760 80.2011 -2.6051 0.0000 4.7695 0.0004
# 3 38.6592 -2.6051 119.0432 -0.0001 24.7605 0.0001
# 4 0.0000 0.0000 -0.0001 39.1655 0.0000 3.1052
# 5 -18.2205 4.7695 24.7605 0.0000 41.6629 0.0000
# 6 0.0000 0.0004 0.0001 3.1052 0.0000 39.5745
#
#
#
# Elastic Compliance Matrix: (Units=1/GPa)
#
#
# Indices 1 2 3 4 5 6 
#
# 1 0.019254 -0.010926 -0.009703 0.000000 0.015438 0.000000
# 2 -0.010926 0.018800 0.006163 0.000000 -0.010593 0.000000
# 3 -0.009703 0.006163 0.014509 0.000000 -0.013572 0.000000
# 4 0.000000 0.000000 0.000000 0.025693 0.000000 -0.002016
# 5 0.015438 -0.010593 -0.013572 0.000000 0.040032 0.000000
# 6 0.000000 0.000000 0.000000 -0.002016 0.000000 0.025427
#
#
# Mechanical properties :
#
#
# Convention : Reuss Voigt Hill
#
# Bulk Modulus (GPa) = 42.31828 51.22730 46.77279
# Shear Modulus (GPa) = 27.69733 39.53092 33.61412
#
# Velocity S-wave (km/s) = 3.16971 3.78678 3.49190
# Velocity P-wave (km/s) = 5.36161 6.14020 5.76407
#
# Compressibility (1/GPa) = 0.02363045
#
# Stress axis : x y z
#
# Youngs Moduli (GPa) = 51.93742 53.19283 68.92265
#
# Poissons Ratio (x) = 0.58120 0.66874
# Poissons Ratio (y) = 0.56749 -0.42478
# Poissons Ratio (z) = 0.50394 -0.32783
#
# Static dielectric constant tensor:
#      x y z
#    x 2.141120 0.000000 0.106340 
#    y 0.000000 2.169710 0.000000 
#    z 0.106340 0.000000 2.468840 
# 
# From -- ./inp_files/20445.got.cif
#   From: 2010.05.17/outbox.cif.g08.bks.cpg/sg9_11_cif.got.tgz:20445.got - 2010.06.03 20:04:27.
