data_PCOD9140090
_publ_section_title
;
Structure prediction by ZEFSAII (Michael W. Deem and Ramdas Pophale) SiO2 
 PCOD9140090
Probable space group: C C
;
_chemical_formula_sum "Si O2"
_cell_formula_units_Z 32
_cell_length_a 6.741049
_cell_length_b 17.735747
_cell_length_c 13.265004
_cell_angle_alpha 90.000000
_cell_angle_beta 61.651028
_cell_angle_gamma 90.000000
_cell_volume 1395.733390
_symmetry_space_group_name_H-M "C C"
_symmetry_group_IT_number 9
_symmetry_cell_setting 'monoclinic'
loop_
_space_group_symop_operation_xyz
x,y,z
x,-y,1/2+z
1/2+x,1/2+y,z
1/2+x,1/2-y,1/2+z
loop_
_atom_site_type_symbol
_atom_site_label
_atom_site_fract_x
_atom_site_fract_y
_atom_site_fract_z
Si Si1 0.528980 0.418396 0.716200
Si Si2 0.351164 0.081604 0.861047
Si Si3 0.676703 0.670534 0.355905
Si Si4 0.687627 0.162022 0.159397
Si Si5 0.446789 0.478068 0.945997
Si Si6 0.192518 0.337978 0.417850
Si Si7 0.433356 0.978067 0.131250
Si Si8 0.703442 0.670534 0.721342
O O1 0.574865 0.341997 0.768727
O O2 0.026871 0.395810 0.402465
O O3 0.767260 0.456819 0.633147
O O4 0.443419 0.475561 0.824147
O O5 0.305280 0.158004 0.808520
O O6 0.436725 0.024439 0.753100
O O7 0.853274 0.104190 0.174782
O O8 0.112884 0.043182 0.944100
O O9 0.942480 0.657992 0.272295
O O10 0.563957 0.601902 0.444817
O O11 0.623560 0.750956 0.415260
O O12 0.690073 0.150152 0.038623
O O13 0.756584 0.249044 0.161987
O O14 0.190072 0.481066 0.038624
O O15 0.437665 0.342008 0.304952
O O16 0.316189 0.898097 0.132430
#
# Coordination Sequence:
#
# PCOD9140090 Si02
#       8
#     4   4   4   4   4   4   4   4
#     4   9  21  44  69 104 138 177 239 290 339 419
#     4   9  21  44  69 104 138 177 239 290 339 419
#     4   9  22  43  67 108 136 181 237 283 338 431
#     4  11  23  41  73 104 145 182 227 291 357 413
#     4   9  20  43  76 100 135 185 237 292 348 405
#     4  11  23  41  73 104 145 182 227 291 357 413
#     4   9  20  43  76 100 135 185 237 292 348 405
#     4   9  22  43  67 108 136 181 237 283 338 431
#
# _framework density 22.927012999999999
#
# number of rings (size 3 to 8) (size 9 to 14) (size 15 to 20)
#    1.500    1.000    0.000    0.750    0.000    7.000 
#    0.000    0.000   16.500    0.000    0.000    0.000 
#    0.000    0.000    0.000    0.000    0.000    0.000 
#
# Total GULP energy -89288.799920 kJ/mol
# GULP energy per Si atom -5580.549995 kJ/mol
# Density = 2.287483 g / cm^3
# Si number density = 22.927013 Si / 1000 Ang^3
#
#
#
# Elastic Constant Matrix: (Units=GPa)
#
#
# Indices 1 2 3 4 5 6 
#
# 1 163.4855 61.5758 71.7613 0.0000 8.3095 0.0000
# 2 61.5758 114.8536 29.7153 0.0000 -1.6814 0.0000
# 3 71.7613 29.7153 127.1661 0.0000 -26.8446 0.0000
# 4 0.0000 0.0000 0.0000 3.5887 0.0000 -14.9650
# 5 8.3095 -1.6814 -26.8446 0.0000 28.9354 0.0000
# 6 0.0000 0.0000 0.0000 -14.9650 0.0000 38.8069
#
#
#
# Elastic Compliance Matrix: (Units=1/GPa)
#
#
# Indices 1 2 3 4 5 6 
#
# 1 0.011869 -0.004457 -0.007997 0.000000 -0.011086 0.000000
# 2 -0.004457 0.011019 0.000430 0.000000 0.002319 0.000000
# 3 -0.007997 0.000430 0.015875 0.000000 0.017049 0.000000
# 4 0.000000 0.000000 0.000000 -0.458247 0.000000 -0.176713
# 5 -0.011086 0.002319 0.017049 0.000000 0.053696 0.000000
# 6 0.000000 0.000000 0.000000 -0.176713 0.000000 -0.042377
#
#
# Mechanical properties :
#
#
# Convention : Reuss Voigt Hill
#
# Bulk Modulus (GPa) = 67.95596 81.29001 74.62298
# Shear Modulus (GPa) = -13.18520 30.42972 8.62226
#
# Velocity S-wave (km/s) = -2.40071 3.64709 1.94137
# Velocity P-wave (km/s) = 4.69254 7.29849 6.13546
#
# Compressibility (1/GPa) = 0.01471541
#
# Stress axis : x y z
#
# Youngs Moduli (GPa) = 84.25398 90.75383 62.99184
#
# Poissons Ratio (x) = 0.40445 0.50372
# Poissons Ratio (y) = 0.37548 -0.02706
# Poissons Ratio (z) = 0.67375 -0.03898
#
# Static dielectric constant tensor:
#      x y z
#    x 1.850120 0.000000 0.011070 
#    y 0.000000 1.881720 0.000000 
#    z 0.011070 0.000000 1.895360 
# 
# From -- ./inp_files/20376.got.cif
#   From: 2010.05.17/outbox.cif.g08.bks.cpg/sg9_11_cif.got.tgz:20376.got - 2010.06.03 20:04:27.
