data_PCOD9140926
_publ_section_title
;
Structure prediction by ZEFSAII (Michael W. Deem and Ramdas Pophale) SiO2 
 PCOD9140926
Probable space group: C C
;
_chemical_formula_sum "Si O2"
_cell_formula_units_Z 28
_cell_length_a 11.855937
_cell_length_b 7.663279
_cell_length_c 22.945537
_cell_angle_alpha 90.000000
_cell_angle_beta 32.838296
_cell_angle_gamma 90.000000
_cell_volume 1130.483579
_symmetry_space_group_name_H-M "C C"
_symmetry_group_IT_number 9
_symmetry_cell_setting 'monoclinic'
loop_
_space_group_symop_operation_xyz
x,y,z
x,-y,1/2+z
1/2+x,1/2+y,z
1/2+x,1/2-y,1/2+z
loop_
_atom_site_type_symbol
_atom_site_label
_atom_site_fract_x
_atom_site_fract_y
_atom_site_fract_z
Si Si1 0.385310 0.861385 0.525780
Si Si2 0.682033 0.297625 0.419578
Si Si3 0.631755 0.909232 0.063706
Si Si4 0.329734 0.198690 0.484978
Si Si5 0.609938 0.639899 0.254688
Si Si6 0.805975 0.565025 0.281849
Si Si7 0.865971 0.213987 0.844705
O O1 0.296583 0.694885 0.530632
O O2 0.636597 0.855249 0.424109
O O3 0.261438 0.019919 0.546268
O O4 0.301151 0.857299 0.628187
O O5 0.614261 0.201756 0.510212
O O6 0.539933 0.217988 0.430802
O O7 0.679129 0.492889 0.392753
O O8 0.927473 0.262954 0.312083
O O9 0.417094 0.921780 0.193180
O O10 0.709446 0.113779 0.030483
O O11 0.368598 0.163792 0.400318
O O12 0.678674 0.676619 0.290368
O O13 0.503468 0.451347 0.301380
O O14 0.966025 0.690451 0.245611
#
# Coordination Sequence:
#
# PCOD9140926 Si02
#       7
#     4   4   4   4   4   4   4
#     4  12  26  45  75 109 147 200 249 306 383 451
#     4  12  22  47  72 101 148 192 243 311 371 438
#     4  12  26  47  76 110 151 198 250 312 379 447
#     4  12  23  46  72 104 149 194 244 312 368 443
#     4  12  24  47  71 104 150 190 247 308 374 445
#     4  12  26  46  76 109 149 199 251 312 377 451
#     4  12  25  46  72 107 150 195 250 313 370 445
#
# _framework density 24.768163000000001
#
# number of rings (size 3 to 8) (size 9 to 14) (size 15 to 20)
#    0.000    0.000    5.714    5.143    0.000    0.000 
#    0.000    1.429    0.000    0.000    0.000    0.000 
#    0.000    0.000    0.000    0.000    0.000    0.000 
#
# Total GULP energy -78012.656596 kJ/mol
# GULP energy per Si atom -5572.332614 kJ/mol
# Density = 2.471179 g / cm^3
# Si number density = 24.768163 Si / 1000 Ang^3
#
#
#
# Elastic Constant Matrix: (Units=GPa)
#
#
# Indices 1 2 3 4 5 6 
#
# 1 190.4002 35.4071 49.2115 0.0000 39.9287 0.0001
# 2 35.4071 79.8546 23.1200 0.0000 20.8791 0.0001
# 3 49.2115 23.1200 95.4032 0.0000 28.9167 0.0000
# 4 0.0000 0.0000 0.0000 33.9998 0.0000 5.5966
# 5 39.9287 20.8791 28.9167 0.0000 45.8721 0.0000
# 6 0.0001 0.0001 0.0000 5.5966 0.0000 44.4636
#
#
#
# Elastic Compliance Matrix: (Units=1/GPa)
#
#
# Indices 1 2 3 4 5 6 
#
# 1 0.006884 -0.001408 -0.001963 0.000000 -0.004114 0.000000
# 2 -0.001408 0.014767 -0.001467 0.000000 -0.004571 0.000000
# 3 -0.001963 -0.001467 0.013758 0.000000 -0.006297 0.000000
# 4 0.000000 0.000000 0.000000 0.030034 0.000000 -0.003780
# 5 -0.004114 -0.004571 -0.006297 0.000000 0.031430 0.000000
# 6 0.000000 0.000000 0.000000 -0.003780 0.000000 0.022966
#
#
# Mechanical properties :
#
#
# Convention : Reuss Voigt Hill
#
# Bulk Modulus (GPa) = 38.85993 64.57059 51.71526
# Shear Modulus (GPa) = 36.20731 42.06173 39.13452
#
# Velocity S-wave (km/s) = 3.82756 4.12541 3.97928
# Velocity P-wave (km/s) = 5.93777 6.98703 6.48366
#
# Compressibility (1/GPa) = 0.02573345
#
# Stress axis : x y z
#
# Youngs Moduli (GPa) = 145.26427 67.71846 72.68345
#
# Poissons Ratio (x) = 0.09538 0.14266
# Poissons Ratio (y) = 0.20460 0.10661
# Poissons Ratio (z) = 0.28512 0.09932
#
# Static dielectric constant tensor:
#      x y z
#    x 1.930960 0.000000 0.004550 
#    y 0.000000 2.247370 0.000000 
#    z 0.004550 0.000000 2.097160 
# 
# From -- ./inp_files/24029.got.cif
#   From: 2010.05.17/outbox.cif.g08.bks.cpg/sg9_13_cif.got.tgz:24029.got - 2010.06.03 20:04:27.
