data_PCOD9140132
_publ_section_title
;
Structure prediction by ZEFSAII (Michael W. Deem and Ramdas Pophale) SiO2 
 PCOD9140132
Probable space group: C C
;
_chemical_formula_sum "Si O2"
_cell_formula_units_Z 28
_cell_length_a 8.733430
_cell_length_b 17.417290
_cell_length_c 11.500256
_cell_angle_alpha 90.000000
_cell_angle_beta 139.194974
_cell_angle_gamma 90.000000
_cell_volume 1143.167557
_symmetry_space_group_name_H-M "C C"
_symmetry_group_IT_number 9
_symmetry_cell_setting 'monoclinic'
loop_
_space_group_symop_operation_xyz
x,y,z
x,-y,1/2+z
1/2+x,1/2+y,z
1/2+x,1/2-y,1/2+z
loop_
_atom_site_type_symbol
_atom_site_label
_atom_site_fract_x
_atom_site_fract_y
_atom_site_fract_z
Si Si1 0.629540 0.545620 0.953000
Si Si2 0.810404 0.380197 0.986323
Si Si3 0.016304 0.559045 0.365705
Si Si4 0.283865 0.831326 0.356354
Si Si5 0.717335 0.906376 0.379132
Si Si6 0.343825 0.669538 0.174125
Si Si7 0.860695 0.171345 0.455358
O O1 0.669308 0.455620 0.951209
O O2 0.698152 0.594961 0.878545
O O3 0.377336 0.558476 0.867304
O O4 0.817071 0.572821 0.156010
O O5 0.626193 0.312286 0.856648
O O6 0.928719 0.414684 0.939570
O O7 0.013783 0.360635 0.194663
O O8 0.089939 0.471445 0.384784
O O9 0.242404 0.608307 0.466204
O O10 0.559256 0.820725 0.489346
O O11 0.237180 0.753739 0.403006
O O12 0.130694 0.825381 0.150942
O O13 0.882780 0.867275 0.568529
O O14 0.311871 0.650424 0.293977
#
# Coordination Sequence:
#
# PCOD9140132 Si02
#       7
#     4   4   4   4   4   4   4
#     4  11  23  43  70 103 144 179 230 288 344 415
#     4  11  25  41  69 106 141 182 224 287 355 410
#     4  11  23  43  70 103 144 179 230 288 344 415
#     4  12  25  46  75  99 136 188 236 283 343 415
#     4  11  25  41  69 106 141 182 224 287 355 410
#     4  12  24  44  68 100 140 176 232 280 344 414
#     4  12  25  46  75  99 136 188 236 283 343 415
#
# _framework density 24.493345999999999
#
# number of rings (size 3 to 8) (size 9 to 14) (size 15 to 20)
#    0.000    0.571    4.286    3.429    8.000    2.286 
#    0.000    1.429    0.000    0.000    0.000    0.000 
#    0.000    0.000    0.000    0.000    0.000    0.000 
#
# Total GULP energy -77961.793128 kJ/mol
# GULP energy per Si atom -5568.699509 kJ/mol
# Density = 2.443760 g / cm^3
# Si number density = 24.493346 Si / 1000 Ang^3
#
#
#
# Elastic Constant Matrix: (Units=GPa)
#
#
# Indices 1 2 3 4 5 6 
#
# 1 73.0559 9.9189 36.3217 0.0004 -1.2805 0.0008
# 2 9.9189 58.5601 29.5235 0.0000 -11.2224 -0.0001
# 3 36.3217 29.5235 204.7014 0.0006 9.1344 0.0007
# 4 0.0004 0.0000 0.0006 13.0112 0.0005 -4.1886
# 5 -1.2805 -11.2224 9.1344 0.0005 28.1216 0.0008
# 6 0.0008 -0.0001 0.0007 -4.1886 0.0008 2.2429
#
#
#
# Elastic Compliance Matrix: (Units=1/GPa)
#
#
# Indices 1 2 3 4 5 6 
#
# 1 0.015135 -0.001048 -0.002584 -0.000005 0.001110 -0.000014
# 2 -0.001048 0.020637 -0.003202 -0.000001 0.009228 -0.000004
# 3 -0.002584 -0.003202 0.005954 0.000000 -0.003330 0.000000
# 4 -0.000005 -0.000001 0.000000 0.192705 -0.000014 0.359866
# 5 0.001110 0.009228 -0.003330 -0.000014 0.040374 -0.000040
# 6 -0.000014 -0.000004 0.000000 0.359866 -0.000040 1.117870
#
#
# Mechanical properties :
#
#
# Convention : Reuss Voigt Hill
#
# Bulk Modulus (GPa) = 35.64144 54.20506 44.92325
# Shear Modulus (GPa) = 3.53183 26.04537 14.78860
#
# Velocity S-wave (km/s) = 1.20212 3.26447 2.45986
# Velocity P-wave (km/s) = 4.06323 6.03221 5.14283
#
# Compressibility (1/GPa) = 0.02805723
#
# Stress axis : x y z
#
# Youngs Moduli (GPa) = 66.07409 48.45709 167.95298
#
# Poissons Ratio (x) = 0.05079 0.43396
# Poissons Ratio (y) = 0.06925 0.53782
# Poissons Ratio (z) = 0.17072 0.15517
#
# Static dielectric constant tensor:
#      x y z
#    x 1.939320 0.000000 0.047120 
#    y 0.000000 2.073120 0.000000 
#    z 0.047120 0.000000 1.925830 
# 
# From -- ./inp_files/15375.got.cif
#   From: 2010.05.17/outbox.cif.g08.bks.cpg/sg9_8_cif.got.tgz:15375.got - 2010.06.03 20:04:27.
