data_PCOD9140477
_publ_section_title
;
Structure prediction by ZEFSAII (Michael W. Deem and Ramdas Pophale) SiO2 
 PCOD9140477
Probable space group: C C
;
_chemical_formula_sum "Si O2"
_cell_formula_units_Z 32
_cell_length_a 27.705151
_cell_length_b 8.537097
_cell_length_c 8.267313
_cell_angle_alpha 90.000000
_cell_angle_beta 41.086934
_cell_angle_gamma 90.000000
_cell_volume 1285.094035
_symmetry_space_group_name_H-M "C C"
_symmetry_group_IT_number 9
_symmetry_cell_setting 'monoclinic'
loop_
_space_group_symop_operation_xyz
x,y,z
x,-y,1/2+z
1/2+x,1/2+y,z
1/2+x,1/2-y,1/2+z
loop_
_atom_site_type_symbol
_atom_site_label
_atom_site_fract_x
_atom_site_fract_y
_atom_site_fract_z
Si Si1 0.797340 0.316527 0.185350
Si Si2 0.303633 0.440217 0.193148
Si Si3 0.651434 0.595195 0.236741
Si Si4 0.910494 0.011757 0.187344
Si Si5 0.159511 0.764417 0.081593
Si Si6 0.000372 0.741149 0.064963
Si Si7 0.891873 0.522122 0.194497
Si Si8 0.003159 0.695209 0.421489
O O1 0.793135 0.127772 0.200549
O O2 0.719471 0.365365 0.451016
O O3 0.855471 0.413476 0.149485
O O4 0.824325 0.384707 0.945279
O O5 0.371747 0.419015 0.141311
O O6 0.231315 0.343585 0.418770
O O7 0.340030 0.392248 0.931425
O O8 0.660980 0.660810 0.395521
O O9 0.579232 0.679026 0.345390
O O10 0.649171 0.406866 0.232847
O O11 0.942215 0.882787 0.228912
O O12 0.979173 0.123274 0.981811
O O13 0.083940 0.667205 0.283453
O O14 0.962311 0.641290 0.018396
O O15 0.004278 0.653528 0.227345
O O16 0.936975 0.389519 0.180516
#
# Coordination Sequence:
#
# PCOD9140477 Si02
#       8
#     4   4   4   4   4   4   4   4
#     4  12  26  46  70 107 149 192 256 308 380 451
#     4  12  27  46  72 108 145 198 248 314 379 460
#     4  11  26  48  71 109 152 198 249 319 382 461
#     4  12  21  45  73 101 142 190 252 307 374 448
#     4  11  27  48  77 105 155 202 250 314 391 454
#     4  11  24  46  71 106 149 195 247 314 379 451
#     4  12  23  47  72 106 145 198 250 317 366 449
#     4  11  24  48  70 110 147 193 252 311 381 450
#
# _framework density 24.9009
#
# number of rings (size 3 to 8) (size 9 to 14) (size 15 to 20)
#    0.000    0.500    6.250    1.500    5.250    1.000 
#    2.250    0.000    0.000    0.000    0.000    0.000 
#    0.000    0.000    0.000    0.000    0.000    0.000 
#
# Total GULP energy -89231.424405 kJ/mol
# GULP energy per Si atom -5576.964025 kJ/mol
# Density = 2.484422 g / cm^3
# Si number density = 24.900900 Si / 1000 Ang^3
#
#
#
# Elastic Constant Matrix: (Units=GPa)
#
#
# Indices 1 2 3 4 5 6 
#
# 1 81.0246 44.4690 24.3188 0.0000 -31.3218 0.0000
# 2 44.4690 115.8518 26.3007 0.0000 -13.4720 0.0000
# 3 24.3188 26.3007 74.6755 0.0000 -37.2978 0.0000
# 4 0.0000 0.0000 0.0000 52.4652 0.0000 -11.9243
# 5 -31.3218 -13.4720 -37.2978 0.0000 43.3402 0.0000
# 6 0.0000 0.0000 0.0000 -11.9243 0.0000 41.1946
#
#
#
# Elastic Compliance Matrix: (Units=1/GPa)
#
#
# Indices 1 2 3 4 5 6 
#
# 1 0.021596 -0.007222 0.003832 0.000000 0.016660 0.000000
# 2 -0.007222 0.011797 -0.004522 0.000000 -0.005444 0.000000
# 3 0.003832 -0.004522 0.025286 0.000000 0.023124 0.000000
# 4 0.000000 0.000000 0.000000 0.020403 0.000000 0.005906
# 5 0.016660 -0.005444 0.023124 0.000000 0.053321 0.000000
# 6 0.000000 0.000000 0.000000 0.005906 0.000000 0.025984
#
#
# Mechanical properties :
#
#
# Convention : Reuss Voigt Hill
#
# Bulk Modulus (GPa) = 23.33505 51.30320 37.31913
# Shear Modulus (GPa) = 26.52571 39.16424 32.84497
#
# Velocity S-wave (km/s) = 3.26736 3.97016 3.63578
# Velocity P-wave (km/s) = 4.86063 6.45476 5.71356
#
# Compressibility (1/GPa) = 0.04285399
#
# Stress axis : x y z
#
# Youngs Moduli (GPa) = 46.30553 84.76447 39.54798
#
# Poissons Ratio (x) = 0.61216 -0.15153
# Poissons Ratio (y) = 0.33442 0.17884
# Poissons Ratio (z) = -0.17743 0.38332
#
# Static dielectric constant tensor:
#      x y z
#    x 2.037330 0.000000 0.060560 
#    y 0.000000 2.115230 0.000000 
#    z 0.060560 0.000000 1.977770 
# 
# From -- ./inp_files/12689.got.cif
#   From: 2010.05.17/outbox.cif.g08.bks.cpg/sg9_7_cif.got.tgz:12689.got - 2010.06.03 20:04:27.
