data_PCOD9140455
_publ_section_title
;
Structure prediction by ZEFSAII (Michael W. Deem and Ramdas Pophale) SiO2 
 PCOD9140455
Probable space group: C C
;
_chemical_formula_sum "Si O2"
_cell_formula_units_Z 28
_cell_length_a 17.820214
_cell_length_b 5.216673
_cell_length_c 10.768894
_cell_angle_alpha 90.000000
_cell_angle_beta 104.329573
_cell_angle_gamma 90.000000
_cell_volume 969.954272
_symmetry_space_group_name_H-M "C C"
_symmetry_group_IT_number 9
_symmetry_cell_setting 'monoclinic'
loop_
_space_group_symop_operation_xyz
x,y,z
x,-y,1/2+z
1/2+x,1/2+y,z
1/2+x,1/2-y,1/2+z
loop_
_atom_site_type_symbol
_atom_site_label
_atom_site_fract_x
_atom_site_fract_y
_atom_site_fract_z
Si Si1 0.210440 0.814620 0.562640
Si Si2 0.335896 0.368785 0.755921
Si Si3 0.611018 0.821914 0.531060
Si Si4 0.905415 0.116248 0.033636
Si Si5 0.548319 0.636701 0.729329
Si Si6 0.720943 0.510413 0.811834
Si Si7 0.960180 0.515419 0.375336
O O1 0.168693 0.547753 0.511466
O O2 0.254778 0.946005 0.464335
O O3 0.145795 0.038095 0.554778
O O4 0.244785 0.800109 0.717562
O O5 0.345634 0.461513 0.618755
O O6 0.252042 0.262192 0.754930
O O7 0.392658 0.117004 0.771204
O O8 0.370886 0.504150 0.891313
O O9 0.580416 0.873650 0.658666
O O10 0.533022 0.829755 0.419625
O O11 0.987186 0.011974 0.118403
O O12 0.925335 0.402028 0.993691
O O13 0.628894 0.497256 0.795601
O O14 0.499035 0.744168 0.822738
#
# Coordination Sequence:
#
# PCOD9140455 Si02
#       7
#     4   4   4   4   4   4   4
#     4  11  27  48  78 114 160 203 265 329 402 475
#     4  12  30  50  77 117 161 213 263 338 413 481
#     4  11  24  45  77 116 152 204 265 332 384 476
#     4  12  27  52  80 114 162 216 275 326 408 494
#     4  11  24  47  80 115 147 212 268 334 391 482
#     4  11  28  49  76 118 156 205 264 335 408 472
#     4  12  24  45  76 112 156 207 266 330 396 482
#
# _framework density 28.867339000000001
#
# number of rings (size 3 to 8) (size 9 to 14) (size 15 to 20)
#    0.000    0.571    4.286    2.571    6.000    2.286 
#    5.143    0.000    0.000    0.000    0.000    0.000 
#    0.000    0.000    0.000    0.000    0.000    0.000 
#
# Total GULP energy -78309.211853 kJ/mol
# GULP energy per Si atom -5593.515132 kJ/mol
# Density = 2.880164 g / cm^3
# Si number density = 28.867339 Si / 1000 Ang^3
#
#
#
# Elastic Constant Matrix: (Units=GPa)
#
#
# Indices 1 2 3 4 5 6 
#
# 1 138.9879 -6.8138 36.9161 0.0000 1.8953 0.0000
# 2 -6.8138 44.5394 -19.7359 0.0000 3.8155 0.0000
# 3 36.9161 -19.7359 162.8517 0.0000 -37.4181 0.0000
# 4 0.0000 0.0000 0.0000 46.6158 0.0000 -1.6665
# 5 1.8953 3.8155 -37.4181 0.0000 62.8870 0.0000
# 6 0.0000 0.0000 0.0000 -1.6665 0.0000 40.3142
#
#
#
# Elastic Compliance Matrix: (Units=1/GPa)
#
#
# Indices 1 2 3 4 5 6 
#
# 1 0.007781 0.000407 -0.002055 0.000000 -0.001482 0.000000
# 2 0.000407 0.023753 0.002841 0.000000 0.000237 0.000000
# 3 -0.002055 0.002841 0.008022 0.000000 0.004663 0.000000
# 4 0.000000 0.000000 0.000000 0.021484 0.000000 0.000888
# 5 -0.001482 0.000237 0.004663 0.000000 0.018706 0.000000
# 6 0.000000 0.000000 0.000000 0.000888 0.000000 0.024842
#
#
# Mechanical properties :
#
#
# Convention : Reuss Voigt Hill
#
# Bulk Modulus (GPa) = 23.84323 40.79020 32.31671
# Shear Modulus (GPa) = 43.03573 52.36425 47.69999
#
# Velocity S-wave (km/s) = 3.86529 4.26368 4.06937
# Velocity P-wave (km/s) = 5.31019 6.19674 5.77052
#
# Compressibility (1/GPa) = 0.04194063
#
# Stress axis : x y z
#
# Youngs Moduli (GPa) = 128.52074 42.10037 124.65697
#
# Poissons Ratio (x) = -0.01712 0.25617
# Poissons Ratio (y) = -0.05227 -0.35413
# Poissons Ratio (z) = 0.26411 -0.11960
#
# Static dielectric constant tensor:
#      x y z
#    x 2.208680 0.000000 0.016030 
#    y 0.000000 2.294170 0.000000 
#    z 0.016030 0.000000 2.438550 
# 
# From -- ./inp_files/19683.got.cif
#   From: 2010.05.17/outbox.cif.g08.bks.cpg/sg9_10_cif.got.tgz:19683.got - 2010.06.03 20:04:27.
