data_PCOD9140532
_publ_section_title
;
Structure prediction by ZEFSAII (Michael W. Deem and Ramdas Pophale) SiO2 
 PCOD9140532
Probable space group: C C
;
_chemical_formula_sum "Si O2"
_cell_formula_units_Z 32
_cell_length_a 5.331179
_cell_length_b 23.355751
_cell_length_c 10.480538
_cell_angle_alpha 90.000000
_cell_angle_beta 112.851458
_cell_angle_gamma 90.000000
_cell_volume 1202.549517
_symmetry_space_group_name_H-M "C C"
_symmetry_group_IT_number 9
_symmetry_cell_setting 'monoclinic'
loop_
_space_group_symop_operation_xyz
x,y,z
x,-y,1/2+z
1/2+x,1/2+y,z
1/2+x,1/2-y,1/2+z
loop_
_atom_site_type_symbol
_atom_site_label
_atom_site_fract_x
_atom_site_fract_y
_atom_site_fract_z
Si Si1 0.581490 0.111784 0.674610
Si Si2 0.274070 0.506139 0.085701
Si Si3 0.584198 0.389836 0.443789
Si Si4 0.494407 0.226166 0.188968
Si Si5 0.807912 0.530738 0.802954
Si Si6 0.374509 0.378394 0.689968
Si Si7 0.780528 0.687017 0.419093
Si Si8 0.384742 0.788839 0.417473
O O1 0.351416 0.084682 0.718741
O O2 0.482212 0.161285 0.562836
O O3 0.818004 0.132406 0.816478
O O4 0.685548 0.056001 0.617996
O O5 0.602624 0.507226 0.177288
O O6 0.202078 0.562649 0.156893
O O7 0.104638 0.513333 0.919243
O O8 0.642002 0.452594 0.398629
O O9 0.519287 0.380723 0.579136
O O10 0.843609 0.354950 0.443400
O O11 0.386377 0.201263 0.298668
O O12 0.678671 0.279370 0.261032
O O13 0.699945 0.179504 0.169467
O O14 0.282578 0.236670 0.034661
O O15 0.579851 0.367595 0.847964
O O16 0.628103 0.744954 0.434560
#
# Coordination Sequence:
#
# PCOD9140532 Si02
#       8
#     4   4   4   4   4   4   4   4
#     4  11  27  46  77 114 156 203 268 334 404 488
#     4  11  25  44  76 113 156 214 265 326 413 477
#     4  11  25  47  76 111 150 207 269 331 405 488
#     4  11  27  45  73 108 146 198 255 328 389 483
#     4  11  26  45  75 115 158 213 265 341 400 494
#     4  11  24  47  74 108 154 201 263 323 399 483
#     4  11  27  47  71 114 152 204 260 334 395 490
#     4  11  27  45  74 103 146 200 257 323 407 467
#
# _framework density 26.610129000000001
#
# number of rings (size 3 to 8) (size 9 to 14) (size 15 to 20)
#    0.000    1.000    2.500    1.500    7.000    5.000 
#    0.000    0.000    0.000    0.000    0.000    0.000 
#    0.000    0.000    0.000    0.000    0.000    0.000 
#
# Total GULP energy -89272.090349 kJ/mol
# GULP energy per Si atom -5579.505647 kJ/mol
# Density = 2.654956 g / cm^3
# Si number density = 26.610129 Si / 1000 Ang^3
#
#
#
# Elastic Constant Matrix: (Units=GPa)
#
#
# Indices 1 2 3 4 5 6 
#
# 1 86.5232 44.9646 41.5966 0.0000 -12.8703 0.0000
# 2 44.9646 113.1727 29.4853 0.0000 -17.1311 0.0000
# 3 41.5966 29.4853 148.4017 0.0000 3.8607 0.0000
# 4 0.0000 0.0000 0.0000 50.0098 0.0000 1.5782
# 5 -12.8703 -17.1311 3.8607 0.0000 48.4190 0.0000
# 6 0.0000 0.0000 0.0000 1.5782 0.0000 42.7644
#
#
#
# Elastic Compliance Matrix: (Units=1/GPa)
#
#
# Indices 1 2 3 4 5 6 
#
# 1 0.016404 -0.005137 -0.003651 0.000000 0.002834 0.000000
# 2 -0.005137 0.011541 -0.000926 0.000000 0.002792 0.000000
# 3 -0.003651 -0.000926 0.007996 0.000000 -0.001936 0.000000
# 4 0.000000 0.000000 0.000000 0.020019 0.000000 -0.000739
# 5 0.002834 0.002792 -0.001936 0.000000 0.022548 0.000000
# 6 0.000000 0.000000 0.000000 -0.000739 0.000000 0.023411
#
#
# Mechanical properties :
#
#
# Convention : Reuss Voigt Hill
#
# Bulk Modulus (GPa) = 60.55797 64.46560 62.51179
# Shear Modulus (GPa) = 39.41581 43.70870 41.56225
#
# Velocity S-wave (km/s) = 3.85285 4.05725 3.95637
# Velocity P-wave (km/s) = 6.52683 6.79904 6.66432
#
# Compressibility (1/GPa) = 0.01651310
#
# Stress axis : x y z
#
# Youngs Moduli (GPa) = 60.95997 86.64840 125.06071
#
# Poissons Ratio (x) = 0.44514 0.45660
# Poissons Ratio (y) = 0.31317 0.11576
# Poissons Ratio (z) = 0.22257 0.08021
#
# Static dielectric constant tensor:
#      x y z
#    x 2.197170 0.000000 0.119720 
#    y 0.000000 2.105640 0.000000 
#    z 0.119720 0.000000 2.229820 
# 
# From -- ./inp_files/4550.got.cif
#   From: 2010.05.17/outbox.cif.g08.bks.cpg/sg9_3_cif.got.tgz:4550.got - 2010.06.03 20:04:27.
