data_PCOD9140807
_publ_section_title
;
Structure prediction by ZEFSAII (Michael W. Deem and Ramdas Pophale) SiO2 
 PCOD9140807
Probable space group: C C
;
_chemical_formula_sum "Si O2"
_cell_formula_units_Z 28
_cell_length_a 5.530879
_cell_length_b 15.646101
_cell_length_c 14.993223
_cell_angle_alpha 90.000000
_cell_angle_beta 54.678088
_cell_angle_gamma 90.000000
_cell_volume 1058.622262
_symmetry_space_group_name_H-M "C C"
_symmetry_group_IT_number 9
_symmetry_cell_setting 'monoclinic'
loop_
_space_group_symop_operation_xyz
x,y,z
x,-y,1/2+z
1/2+x,1/2+y,z
1/2+x,1/2-y,1/2+z
loop_
_atom_site_type_symbol
_atom_site_label
_atom_site_fract_x
_atom_site_fract_y
_atom_site_fract_z
Si Si1 0.318820 0.010311 0.433380
Si Si2 0.710322 0.631257 0.724398
Si Si3 0.862072 0.829669 0.009958
Si Si4 0.324862 0.030980 0.130732
Si Si5 0.701603 0.691464 0.921829
Si Si6 0.563340 0.757907 0.633662
Si Si7 0.212123 0.592614 0.201061
O O1 0.070892 0.086296 0.473220
O O2 0.402573 0.013805 0.520349
O O3 0.561108 0.037571 0.309882
O O4 0.277071 0.907375 0.429505
O O5 0.669553 0.530700 0.736599
O O6 0.676116 0.682581 0.821540
O O7 0.501028 0.666615 0.691547
O O8 0.038203 0.642546 0.613795
O O9 0.926363 0.752606 0.066514
O O10 0.883671 0.776370 0.912647
O O11 0.621521 0.057112 0.120883
O O12 0.056715 0.094302 0.157372
O O13 0.396746 0.716629 0.034972
O O14 0.532449 0.820010 0.724753
#
# Coordination Sequence:
#
# PCOD9140807 Si02
#       7
#     4   4   4   4   4   4   4
#     4  12  26  49  79 113 156 213 266 326 407 480
#     4  11  26  46  76 107 158 203 258 333 404 462
#     4  11  27  49  75 113 157 208 267 333 396 489
#     4  12  26  51  73 116 155 198 268 322 389 481
#     4  11  26  48  73 114 153 208 263 332 399 480
#     4  11  26  46  72 110 156 198 263 332 389 484
#     4  12  29  47  80 115 153 210 263 326 402 478
#
# _framework density 26.449475
#
# number of rings (size 3 to 8) (size 9 to 14) (size 15 to 20)
#    0.000    0.571    4.286    1.714    6.000    4.571 
#    0.000    0.000    0.000    0.000    0.000    0.000 
#    0.000    0.000    0.000    0.000    0.000    0.000 
#
# Total GULP energy -77956.993322 kJ/mol
# GULP energy per Si atom -5568.356666 kJ/mol
# Density = 2.638927 g / cm^3
# Si number density = 26.449475 Si / 1000 Ang^3
#
#
#
# Elastic Constant Matrix: (Units=GPa)
#
#
# Indices 1 2 3 4 5 6 
#
# 1 55.3233 37.4346 20.4872 0.0000 10.6330 0.0000
# 2 37.4346 117.6796 20.6782 0.0000 1.9511 0.0000
# 3 20.4872 20.6782 75.4025 0.0000 9.3687 0.0000
# 4 0.0000 0.0000 0.0000 44.0319 0.0000 18.2890
# 5 10.6330 1.9511 9.3687 0.0000 39.7182 0.0000
# 6 0.0000 0.0000 0.0000 18.2890 0.0000 55.0430
#
#
#
# Elastic Compliance Matrix: (Units=1/GPa)
#
#
# Indices 1 2 3 4 5 6 
#
# 1 0.025675 -0.007323 -0.004284 0.000000 -0.005503 0.000000
# 2 -0.007323 0.011018 -0.001244 0.000000 0.001713 0.000000
# 3 -0.004284 -0.001244 0.015059 0.000000 -0.002344 0.000000
# 4 0.000000 0.000000 0.000000 0.026347 0.000000 -0.008754
# 5 -0.005503 0.001713 -0.002344 0.000000 0.027119 0.000000
# 6 0.000000 0.000000 0.000000 -0.008754 0.000000 0.021076
#
#
# Mechanical properties :
#
#
# Convention : Reuss Voigt Hill
#
# Bulk Modulus (GPa) = 38.39106 45.06728 41.72917
# Shear Modulus (GPa) = 31.11772 39.07898 35.09835
#
# Velocity S-wave (km/s) = 3.43373 3.84799 3.64675
# Velocity P-wave (km/s) = 5.50155 6.06784 5.79162
#
# Compressibility (1/GPa) = 0.02604773
#
# Stress axis : x y z
#
# Youngs Moduli (GPa) = 38.94824 90.76431 66.40708
#
# Poissons Ratio (x) = 0.66471 0.28448
# Poissons Ratio (y) = 0.28523 0.08264
# Poissons Ratio (z) = 0.16685 0.11295
#
# Static dielectric constant tensor:
#      x y z
#    x 2.136580 0.000000 -0.012010 
#    y 0.000000 2.469250 0.000000 
#    z -0.012010 0.000000 2.044340 
# 
# From -- ./inp_files/22028.got.cif
#   From: 2010.05.17/outbox.cif.g08.bks.cpg/sg9_12_cif.got.tgz:22028.got - 2010.06.03 20:04:27.
