data_PCOD9140862
_publ_section_title
;
Structure prediction by ZEFSAII (Michael W. Deem and Ramdas Pophale) SiO2 
 PCOD9140862
Probable space group: C C
;
_chemical_formula_sum "Si O2"
_cell_formula_units_Z 20
_cell_length_a 11.354795
_cell_length_b 11.336196
_cell_length_c 7.844591
_cell_angle_alpha 90.000000
_cell_angle_beta 133.493043
_cell_angle_gamma 90.000000
_cell_volume 732.536370
_symmetry_space_group_name_H-M "C C"
_symmetry_group_IT_number 9
_symmetry_cell_setting 'monoclinic'
loop_
_space_group_symop_operation_xyz
x,y,z
x,-y,1/2+z
1/2+x,1/2+y,z
1/2+x,1/2-y,1/2+z
loop_
_atom_site_type_symbol
_atom_site_label
_atom_site_fract_x
_atom_site_fract_y
_atom_site_fract_z
Si Si1 0.871370 0.388366 0.785520
Si Si2 0.527169 0.533741 0.846658
Si Si3 0.091092 0.387001 0.486762
Si Si4 0.358484 0.343466 0.482090
Si Si5 0.884827 0.780889 0.973918
O O1 0.698693 0.453530 0.608307
O O2 0.874704 0.291143 0.937765
O O3 0.872401 0.312229 0.614176
O O4 0.013633 0.483900 0.925365
O O5 0.488718 0.405538 0.736883
O O6 0.388442 0.582648 0.836565
O O7 0.511431 0.622278 0.669784
O O8 0.944315 0.296904 0.375266
O O9 0.220650 0.349144 0.762076
O O10 0.690255 0.132158 0.911362
#
# Coordination Sequence:
#
# PCOD9140862 Si02
#       5
#     4   4   4   4   4
#     4  11  29  56  89 126 176 238 293 370 441 532
#     4  11  26  54  86 124 179 228 295 370 433 532
#     4  12  29  54  92 130 175 237 297 364 453 520
#     4  11  29  52  90 130 176 231 298 365 444 533
#     4  11  27  54  87 126 180 230 295 373 435 535
#
# _framework density 27.302399000000001
#
# number of rings (size 3 to 8) (size 9 to 14) (size 15 to 20)
#    0.000    0.800    2.000    1.200   11.200    8.000 
#    0.000    2.000    4.400    0.000    0.000    0.000 
#    0.000    0.000    0.000    0.000    0.000    0.000 
#
# Total GULP energy -56136.921453 kJ/mol
# GULP energy per Si atom -5613.692145 kJ/mol
# Density = 2.724026 g / cm^3
# Si number density = 27.302399 Si / 1000 Ang^3
#
#
#
# Elastic Constant Matrix: (Units=GPa)
#
#
# Indices 1 2 3 4 5 6 
#
# 1 208.9641 117.9711 73.3896 0.0000 -2.6215 0.0000
# 2 117.9711 250.2956 119.4332 0.0000 6.0859 0.0000
# 3 73.3896 119.4332 184.7646 0.0000 13.5793 0.0000
# 4 0.0000 0.0000 0.0000 42.9559 0.0000 4.0910
# 5 -2.6215 6.0859 13.5793 0.0000 46.6800 0.0000
# 6 0.0000 0.0000 0.0000 4.0910 0.0000 65.4247
#
#
#
# Elastic Compliance Matrix: (Units=1/GPa)
#
#
# Indices 1 2 3 4 5 6 
#
# 1 0.006666 -0.002700 -0.000976 0.000000 0.001010 0.000000
# 2 -0.002700 0.006877 -0.003367 0.000000 -0.000069 0.000000
# 3 -0.000976 -0.003367 0.008122 0.000000 -0.001979 0.000000
# 4 0.000000 0.000000 0.000000 0.023419 0.000000 -0.001464
# 5 0.001010 -0.000069 -0.001979 0.000000 0.022064 0.000000
# 6 0.000000 0.000000 0.000000 -0.001464 0.000000 0.015376
#
#
# Mechanical properties :
#
#
# Convention : Reuss Voigt Hill
#
# Bulk Modulus (GPa) = 131.99327 140.62354 136.30840
# Shear Modulus (GPa) = 50.43526 53.22749 51.83137
#
# Velocity S-wave (km/s) = 4.30267 4.42016 4.36181
# Velocity P-wave (km/s) = 8.55183 8.81296 8.68338
#
# Compressibility (1/GPa) = 0.00757614
#
# Stress axis : x y z
#
# Youngs Moduli (GPa) = 150.02459 145.42265 123.11908
#
# Poissons Ratio (x) = 0.39269 0.12021
# Poissons Ratio (y) = 0.40512 0.41459
# Poissons Ratio (z) = 0.14647 0.48969
#
# Static dielectric constant tensor:
#      x y z
#    x 2.197660 0.000000 -0.035030 
#    y 0.000000 2.118560 0.000000 
#    z -0.035030 0.000000 2.145530 
# 
# From -- ./inp_files/18302.got.cif
#   From: 2010.05.17/outbox.cif.g08.bks.cpg/sg9_10_cif.got.tgz:18302.got - 2010.06.03 20:04:27.
