data_PCOD9140167
_publ_section_title
;
Structure prediction by ZEFSAII (Michael W. Deem and Ramdas Pophale) SiO2 
 PCOD9140167
Probable space group: C C
;
_chemical_formula_sum "Si O2"
_cell_formula_units_Z 32
_cell_length_a 13.558212
_cell_length_b 11.991777
_cell_length_c 16.027913
_cell_angle_alpha 90.000000
_cell_angle_beta 30.057662
_cell_angle_gamma 90.000000
_cell_volume 1305.236152
_symmetry_space_group_name_H-M "C C"
_symmetry_group_IT_number 9
_symmetry_cell_setting 'monoclinic'
loop_
_space_group_symop_operation_xyz
x,y,z
x,-y,1/2+z
1/2+x,1/2+y,z
1/2+x,1/2-y,1/2+z
loop_
_atom_site_type_symbol
_atom_site_label
_atom_site_fract_x
_atom_site_fract_y
_atom_site_fract_z
Si Si1 0.518180 0.882713 0.020190
Si Si2 0.915665 0.073633 0.610636
Si Si3 0.880992 0.377767 0.377661
Si Si4 0.319596 0.106019 0.231427
Si Si5 0.891438 0.378475 0.921570
Si Si6 0.468523 0.700894 0.724360
Si Si7 0.425908 0.346694 0.662934
Si Si8 0.720721 0.741036 0.146154
O O1 0.410247 0.775888 0.137745
O O2 0.425603 0.992024 0.129740
O O3 0.481007 0.879982 0.948087
O O4 0.754438 0.868494 0.856513
O O5 0.846535 0.116124 0.753280
O O6 0.807126 0.147436 0.622762
O O7 0.148335 0.095490 0.426026
O O8 0.882829 0.943196 0.626139
O O9 0.945201 0.506300 0.335028
O O10 0.655353 0.371034 0.514281
O O11 0.869392 0.325624 0.478763
O O12 0.038698 0.290378 0.224951
O O13 0.475967 0.195964 0.152107
O O14 0.205278 0.156419 0.235036
O O15 0.927525 0.267821 0.839611
O O16 0.657124 0.373624 0.105737
#
# Coordination Sequence:
#
# PCOD9140167 Si02
#       8
#     4   4   4   4   4   4   4   4
#     4  12  27  47  73 105 155 200 246 314 384 455
#     4  11  23  44  73 108 146 194 247 307 380 445
#     4  12  24  47  70 109 149 193 252 307 371 455
#     4  11  23  44  75 110 142 193 252 307 386 444
#     4  12  25  46  70 108 149 193 256 304 375 453
#     4  11  24  42  72 106 146 189 246 313 360 453
#     4  12  26  46  70 106 149 200 245 314 382 446
#     4  11  24  42  75 104 146 190 244 308 370 449
#
# _framework density 24.516638
#
# number of rings (size 3 to 8) (size 9 to 14) (size 15 to 20)
#    0.000    0.500    5.000    3.000    1.750    1.000 
#    0.000    1.250    0.000    0.000    0.000    0.000 
#    0.000    0.000    0.000    0.000    0.000    0.000 
#
# Total GULP energy -89335.740587 kJ/mol
# GULP energy per Si atom -5583.483787 kJ/mol
# Density = 2.446084 g / cm^3
# Si number density = 24.516638 Si / 1000 Ang^3
#
#
#
# Elastic Constant Matrix: (Units=GPa)
#
#
# Indices 1 2 3 4 5 6 
#
# 1 83.7946 19.3065 7.0476 -0.0002 -10.0997 -0.0003
# 2 19.3065 165.9108 35.9438 0.0002 -8.6545 -0.0005
# 3 7.0476 35.9438 73.0111 -0.0014 -8.1114 -0.0009
# 4 -0.0002 0.0002 -0.0014 47.9834 0.0006 -0.2353
# 5 -10.0997 -8.6545 -8.1114 0.0006 35.8266 0.0004
# 6 -0.0003 -0.0005 -0.0009 -0.2353 0.0004 34.8681
#
#
#
# Elastic Compliance Matrix: (Units=1/GPa)
#
#
# Indices 1 2 3 4 5 6 
#
# 1 0.012628 -0.001249 -0.000249 0.000000 0.003202 0.000000
# 2 -0.001249 0.006899 -0.003211 0.000000 0.000588 0.000000
# 3 -0.000249 -0.003211 0.015600 0.000000 0.002686 0.000000
# 4 0.000000 0.000000 0.000000 0.020841 0.000000 0.000141
# 5 0.003202 0.000588 0.002686 0.000000 0.029565 0.000000
# 6 0.000000 0.000000 0.000000 0.000141 0.000000 0.028680
#
#
# Mechanical properties :
#
#
# Convention : Reuss Voigt Hill
#
# Bulk Modulus (GPa) = 38.89322 49.70139 44.29731
# Shear Modulus (GPa) = 37.82163 41.09686 39.45925
#
# Velocity S-wave (km/s) = 3.93197 4.09869 4.01620
# Velocity P-wave (km/s) = 6.04254 6.53571 6.29396
#
# Compressibility (1/GPa) = 0.02571142
#
# Stress axis : x y z
#
# Youngs Moduli (GPa) = 79.18604 144.95198 64.10449
#
# Poissons Ratio (x) = 0.18100 0.01593
# Poissons Ratio (y) = 0.09888 0.20581
# Poissons Ratio (z) = 0.01968 0.46537
#
# Static dielectric constant tensor:
#      x y z
#    x 2.018690 0.000000 -0.015900 
#    y 0.000000 1.934200 0.000000 
#    z -0.015900 0.000000 2.035030 
# 
# From -- ./inp_files/12193.got.cif
#   From: 2010.05.17/outbox.cif.g08.bks.cpg/sg9_7_cif.got.tgz:12193.got - 2010.06.03 20:04:27.
