data_PCOD9140026
_publ_section_title
;
Structure prediction by ZEFSAII (Michael W. Deem and Ramdas Pophale) SiO2 
 PCOD9140026
Probable space group: C C
;
_chemical_formula_sum "Si O2"
_cell_formula_units_Z 28
_cell_length_a 9.651477
_cell_length_b 17.827283
_cell_length_c 9.997915
_cell_angle_alpha 90.000000
_cell_angle_beta 135.581157
_cell_angle_gamma 90.000000
_cell_volume 1203.991167
_symmetry_space_group_name_H-M "C C"
_symmetry_group_IT_number 9
_symmetry_cell_setting 'monoclinic'
loop_
_space_group_symop_operation_xyz
x,y,z
x,-y,1/2+z
1/2+x,1/2+y,z
1/2+x,1/2-y,1/2+z
loop_
_atom_site_type_symbol
_atom_site_label
_atom_site_fract_x
_atom_site_fract_y
_atom_site_fract_z
Si Si1 0.240850 0.661177 0.359290
Si Si2 0.990704 0.875943 0.541486
Si Si3 0.255889 0.718979 0.079074
Si Si4 0.831288 0.352577 0.276178
Si Si5 0.369851 0.022701 0.357699
Si Si6 0.635670 0.002320 0.791748
Si Si7 0.555650 0.302367 0.299794
O O1 0.302353 0.700483 0.264640
O O2 0.208112 0.577310 0.288254
O O3 0.403511 0.665931 0.586334
O O4 0.062951 0.711824 0.298674
O O5 0.924499 0.810006 0.596944
O O6 0.195949 0.917328 0.718603
O O7 0.014243 0.837912 0.413038
O O8 0.813041 0.937748 0.419343
O O9 0.232034 0.808720 0.082659
O O10 0.059939 0.670623 0.913458
O O11 0.788763 0.440403 0.259920
O O12 0.764095 0.326032 0.377896
O O13 0.551430 0.024345 0.377649
O O14 0.461898 0.027069 0.569984
#
# Coordination Sequence:
#
# PCOD9140026 Si02
#       7
#     4   4   4   4   4   4   4
#     4  11  23  44  73 104 149 194 250 300 372 461
#     4  12  28  49  74 116 149 194 254 319 373 440
#     4  11  24  46  75 105 150 195 252 304 373 454
#     4  11  22  46  70 108 142 201 243 299 376 458
#     4  12  27  45  79 103 153 194 249 308 382 439
#     4  12  25  49  71 110 148 196 245 312 375 448
#     4  11  25  43  76 108 147 196 251 310 375 448
#
# _framework density 23.255983000000001
#
# number of rings (size 3 to 8) (size 9 to 14) (size 15 to 20)
#    0.000    0.571    2.857    6.000    2.000    6.857 
#    2.571    0.000    0.000    0.000    0.000    0.000 
#    0.000    0.000    0.000    0.000    0.000    0.000 
#
# Total GULP energy -78163.397941 kJ/mol
# GULP energy per Si atom -5583.099853 kJ/mol
# Density = 2.320305 g / cm^3
# Si number density = 23.255983 Si / 1000 Ang^3
#
#
#
# Elastic Constant Matrix: (Units=GPa)
#
#
# Indices 1 2 3 4 5 6 
#
# 1 86.3173 -5.6611 -5.7269 0.0000 -2.1368 0.0000
# 2 -5.6611 43.8262 -11.8540 0.0000 8.1666 0.0000
# 3 -5.7269 -11.8540 83.3387 0.0000 15.2036 0.0000
# 4 0.0000 0.0000 0.0000 26.6262 0.0000 1.4792
# 5 -2.1368 8.1666 15.2036 0.0000 30.5801 0.0000
# 6 0.0000 0.0000 0.0000 1.4792 0.0000 36.3986
#
#
#
# Elastic Compliance Matrix: (Units=1/GPa)
#
#
# Indices 1 2 3 4 5 6 
#
# 1 0.011776 0.001866 0.001117 0.000000 -0.000231 0.000000
# 2 0.001866 0.026403 0.005660 0.000000 -0.009735 0.000000
# 3 0.001117 0.005660 0.014453 0.000000 -0.008619 0.000000
# 4 0.000000 0.000000 0.000000 0.037642 0.000000 -0.001530
# 5 -0.000231 -0.009735 -0.008619 0.000000 0.039570 0.000000
# 6 0.000000 0.000000 0.000000 -0.001530 0.000000 0.027536
#
#
# Mechanical properties :
#
#
# Convention : Reuss Voigt Hill
#
# Bulk Modulus (GPa) = 14.30252 18.55537 16.42894
# Shear Modulus (GPa) = 30.59960 34.50258 32.55109
#
# Velocity S-wave (km/s) = 3.63129 3.85593 3.74530
# Velocity P-wave (km/s) = 4.87290 5.27450 5.07767
#
# Compressibility (1/GPa) = 0.06991777
#
# Stress axis : x y z
#
# Youngs Moduli (GPa) = 84.91894 37.87420 69.18774
#
# Poissons Ratio (x) = -0.07068 -0.07727
# Poissons Ratio (y) = -0.15847 -0.39158
# Poissons Ratio (z) = -0.09483 -0.21436
#
# Static dielectric constant tensor:
#      x y z
#    x 1.954400 0.000000 0.064370 
#    y 0.000000 2.080410 0.000000 
#    z 0.064370 0.000000 1.889480 
# 
# From -- ./inp_files/5844.got.cif
#   From: 2010.05.17/outbox.cif.g08.bks.cpg/sg9_3_cif.got.tgz:5844.got - 2010.06.03 20:04:27.
