data_PCOD9140438
_publ_section_title
;
Structure prediction by ZEFSAII (Michael W. Deem and Ramdas Pophale) SiO2 
 PCOD9140438
Probable space group: C C
;
_chemical_formula_sum "Si O2"
_cell_formula_units_Z 32
_cell_length_a 12.755555
_cell_length_b 12.709713
_cell_length_c 9.014797
_cell_angle_alpha 90.000000
_cell_angle_beta 52.567263
_cell_angle_gamma 90.000000
_cell_volume 1160.508837
_symmetry_space_group_name_H-M "C C"
_symmetry_group_IT_number 9
_symmetry_cell_setting 'monoclinic'
loop_
_space_group_symop_operation_xyz
x,y,z
x,-y,1/2+z
1/2+x,1/2+y,z
1/2+x,1/2-y,1/2+z
loop_
_atom_site_type_symbol
_atom_site_label
_atom_site_fract_x
_atom_site_fract_y
_atom_site_fract_z
Si Si1 0.520700 0.860373 0.916410
Si Si2 0.514184 0.250397 0.904868
Si Si3 0.717406 0.933706 0.991410
Si Si4 0.833810 0.447947 0.505185
Si Si5 0.153942 0.011223 0.431889
Si Si6 0.185625 0.766073 0.032588
Si Si7 0.463019 0.328829 0.649316
Si Si8 0.789178 0.138037 0.755199
O O1 0.588601 0.913331 0.002670
O O2 0.624403 0.804368 0.713524
O O3 0.426257 0.948943 0.930040
O O4 0.444624 0.760659 0.045974
O O5 0.634532 0.219295 0.911500
O O6 0.431419 0.345436 0.047458
O O7 0.417791 0.152816 0.974557
O O8 0.553798 0.284677 0.706269
O O9 0.823251 0.850810 0.840900
O O10 0.771847 0.046018 0.892483
O O11 0.712919 0.916592 0.171242
O O12 0.771852 0.439977 0.396755
O O13 0.712157 0.451650 0.725940
O O14 0.029500 0.935075 0.533042
O O15 0.152174 0.111498 0.547046
O O16 0.328509 0.736612 0.849545
#
# Coordination Sequence:
#
# PCOD9140438 Si02
#       8
#     4   4   4   4   4   4   4   4
#     4  12  28  44  75 111 155 199 255 325 385 457
#     4  11  24  45  73 101 145 197 254 303 386 452
#     4  11  26  47  73 108 152 197 265 312 389 464
#     4  12  26  47  73 111 148 195 250 311 383 458
#     4  12  26  46  75 110 148 195 256 308 382 458
#     4  12  25  44  72 106 146 194 256 312 379 453
#     4  11  27  46  76 106 151 205 254 319 384 458
#     4  11  24  45  73 103 143 200 244 322 376 450
#
# _framework density 27.574112
#
# number of rings (size 3 to 8) (size 9 to 14) (size 15 to 20)
#    0.000    0.500    1.250    6.000    7.000    6.000 
#    0.000    0.000    0.000    0.000    0.000    0.000 
#    0.000    0.000    0.000    0.000    0.000    0.000 
#
# Total GULP energy -89514.332912 kJ/mol
# GULP energy per Si atom -5594.645807 kJ/mol
# Density = 2.751135 g / cm^3
# Si number density = 27.574112 Si / 1000 Ang^3
#
#
#
# Elastic Constant Matrix: (Units=GPa)
#
#
# Indices 1 2 3 4 5 6 
#
# 1 85.0466 0.6037 -2.1583 0.0000 15.3798 0.0000
# 2 0.6037 150.9242 44.9130 0.0000 4.1714 0.0000
# 3 -2.1583 44.9130 122.1956 0.0000 3.4896 0.0000
# 4 0.0000 0.0000 0.0000 67.6174 0.0000 -0.6973
# 5 15.3798 4.1714 3.4896 0.0000 35.1956 0.0000
# 6 0.0000 0.0000 0.0000 -0.6973 0.0000 40.8701
#
#
#
# Elastic Compliance Matrix: (Units=1/GPa)
#
#
# Indices 1 2 3 4 5 6 
#
# 1 0.012785 -0.000012 0.000391 0.000000 -0.005624 0.000000
# 2 -0.000012 0.007453 -0.002722 0.000000 -0.000608 0.000000
# 3 0.000391 -0.002722 0.009213 0.000000 -0.000762 0.000000
# 4 0.000000 0.000000 0.000000 0.014792 0.000000 0.000252
# 5 -0.005624 -0.000608 -0.000762 0.000000 0.031018 0.000000
# 6 0.000000 0.000000 0.000000 0.000252 0.000000 0.024472
#
#
# Mechanical properties :
#
#
# Convention : Reuss Voigt Hill
#
# Bulk Modulus (GPa) = 40.38058 49.43147 44.90602
# Shear Modulus (GPa) = 44.37586 49.72383 47.04984
#
# Velocity S-wave (km/s) = 4.01600 4.25111 4.13523
# Velocity P-wave (km/s) = 6.01502 6.48549 6.25468
#
# Compressibility (1/GPa) = 0.02476438
#
# Stress axis : x y z
#
# Youngs Moduli (GPa) = 78.21440 134.17842 108.54504
#
# Poissons Ratio (x) = 0.00161 -0.04242
# Poissons Ratio (y) = 0.00094 0.29547
# Poissons Ratio (z) = -0.03057 0.36525
#
# Static dielectric constant tensor:
#      x y z
#    x 2.299960 0.000000 0.034050 
#    y 0.000000 2.187210 0.000000 
#    z 0.034050 0.000000 2.097130 
# 
# From -- ./inp_files/9221.got.cif
#   From: 2010.05.17/outbox.cif.g08.bks.cpg/sg9_5_cif.got.tgz:9221.got - 2010.06.03 20:04:27.
