data_PCOD9140363
_publ_section_title
;
Structure prediction by ZEFSAII (Michael W. Deem and Ramdas Pophale) SiO2 
 PCOD9140363
Probable space group: C C
;
_chemical_formula_sum "Si O2"
_cell_formula_units_Z 32
_cell_length_a 16.368370
_cell_length_b 9.763799
_cell_length_c 9.284042
_cell_angle_alpha 90.000000
_cell_angle_beta 108.046088
_cell_angle_gamma 90.000000
_cell_volume 1410.762876
_symmetry_space_group_name_H-M "C C"
_symmetry_group_IT_number 9
_symmetry_cell_setting 'monoclinic'
loop_
_space_group_symop_operation_xyz
x,y,z
x,-y,1/2+z
1/2+x,1/2+y,z
1/2+x,1/2-y,1/2+z
loop_
_atom_site_type_symbol
_atom_site_label
_atom_site_fract_x
_atom_site_fract_y
_atom_site_fract_z
Si Si1 0.112050 0.786741 0.007420
Si Si2 0.002766 0.426770 0.604637
Si Si3 0.997956 0.036316 0.950005
Si Si4 0.578760 0.779261 0.159646
Si Si5 0.884134 0.073228 0.620454
Si Si6 0.308140 0.279260 0.565445
Si Si7 0.774850 0.286740 0.717671
Si Si8 0.888944 0.463686 0.275086
O O1 0.213140 0.760790 0.067122
O O2 0.083185 0.944145 0.994953
O O3 0.079942 0.732808 0.833690
O O4 0.063234 0.700749 0.103209
O O5 0.803715 0.555857 0.230138
O O6 0.923295 0.425140 0.450086
O O7 0.961737 0.442635 0.739178
O O8 0.013971 0.170048 0.054865
O O9 0.925163 0.942638 0.985913
O O10 0.963605 0.074861 0.775004
O O11 0.673760 0.739210 0.157968
O O12 0.555623 0.933808 0.107260
O O13 0.831277 0.933807 0.617832
O O14 0.823666 0.200748 0.621881
O O15 0.306957 0.267193 0.391400
O O16 0.372929 0.170045 0.670224
#
# Coordination Sequence:
#
# PCOD9140363 Si02
#       8
#     4   4   4   4   4   4   4   4
#     4  11  24  43  66  95 132 169 210 264 319 381
#     4  12  23  43  68  95 129 168 216 262 315 379
#     4  12  23  43  68  95 129 168 216 262 315 379
#     4  11  24  44  64  96 134 167 208 266 325 371
#     4  12  23  43  68  95 129 168 216 262 315 379
#     4  11  24  44  64  96 134 167 208 266 325 371
#     4  11  24  43  66  95 132 169 210 264 319 381
#     4  12  23  43  68  95 129 168 216 262 315 379
#
# _framework density 22.682762
#
# number of rings (size 3 to 8) (size 9 to 14) (size 15 to 20)
#    0.000    0.500    5.000    4.500    0.000    0.000 
#    0.000    2.500    0.000    0.000    0.000    0.000 
#    0.000    0.000    0.000    0.000    0.000    0.000 
#
# Total GULP energy -89636.830500 kJ/mol
# GULP energy per Si atom -5602.301906 kJ/mol
# Density = 2.263113 g / cm^3
# Si number density = 22.682762 Si / 1000 Ang^3
#
#
#
# Elastic Constant Matrix: (Units=GPa)
#
#
# Indices 1 2 3 4 5 6 
#
# 1 75.2046 4.9623 -3.1454 0.0000 7.3909 0.0000
# 2 4.9623 78.4305 0.0704 0.0000 10.2513 0.0000
# 3 -3.1454 0.0704 52.3073 0.0000 -3.5980 0.0000
# 4 0.0000 0.0000 0.0000 25.4817 0.0000 3.5659
# 5 7.3909 10.2513 -3.5980 0.0000 28.1238 0.0000
# 6 0.0000 0.0000 0.0000 3.5659 0.0000 41.6546
#
#
#
# Elastic Compliance Matrix: (Units=1/GPa)
#
#
# Indices 1 2 3 4 5 6 
#
# 1 0.013681 -0.000426 0.000592 0.000000 -0.003364 0.000000
# 2 -0.000426 0.013408 -0.000375 0.000000 -0.004823 0.000000
# 3 0.000592 -0.000375 0.019323 0.000000 0.002453 0.000000
# 4 0.000000 0.000000 0.000000 0.039720 0.000000 -0.003400
# 5 -0.003364 -0.004823 0.002453 0.000000 0.038513 0.000000
# 6 0.000000 0.000000 0.000000 -0.003400 0.000000 0.024298
#
#
# Mechanical properties :
#
#
# Convention : Reuss Voigt Hill
#
# Bulk Modulus (GPa) = 21.74338 23.30190 22.52264
# Shear Modulus (GPa) = 30.35965 32.65569 31.50767
#
# Velocity S-wave (km/s) = 3.66245 3.79841 3.73105
# Velocity P-wave (km/s) = 5.24322 5.43438 5.33966
#
# Compressibility (1/GPa) = 0.04599102
#
# Stress axis : x y z
#
# Youngs Moduli (GPa) = 73.09637 74.58299 51.75274
#
# Poissons Ratio (x) = 0.03180 -0.03063
# Poissons Ratio (y) = 0.03117 0.01943
# Poissons Ratio (z) = -0.04326 0.02800
#
# Static dielectric constant tensor:
#      x y z
#    x 1.848260 0.000000 -0.011390 
#    y 0.000000 1.837890 0.000000 
#    z -0.011390 0.000000 1.769880 
# 
# From -- ./inp_files/18120.got.cif
#   From: 2010.05.17/outbox.cif.g08.bks.cpg/sg9_10_cif.got.tgz:18120.got - 2010.06.03 20:04:27.
