data_PCOD9140617
_publ_section_title
;
Structure prediction by ZEFSAII (Michael W. Deem and Ramdas Pophale) SiO2 
 PCOD9140617
Probable space group: C C
;
_chemical_formula_sum "Si O2"
_cell_formula_units_Z 32
_cell_length_a 12.565128
_cell_length_b 7.154718
_cell_length_c 27.381283
_cell_angle_alpha 90.000000
_cell_angle_beta 148.394416
_cell_angle_gamma 90.000000
_cell_volume 1290.035406
_symmetry_space_group_name_H-M "C C"
_symmetry_group_IT_number 9
_symmetry_cell_setting 'monoclinic'
loop_
_space_group_symop_operation_xyz
x,y,z
x,-y,1/2+z
1/2+x,1/2+y,z
1/2+x,1/2-y,1/2+z
loop_
_atom_site_type_symbol
_atom_site_label
_atom_site_fract_x
_atom_site_fract_y
_atom_site_fract_z
Si Si1 0.500000 0.230635 0.434360
Si Si2 0.540026 0.784499 0.584814
Si Si3 0.700899 0.604580 0.812513
Si Si4 0.483398 0.819156 0.094310
Si Si5 0.904209 0.270949 0.296346
Si Si6 0.330947 0.556217 0.951050
Si Si7 0.304679 0.460249 0.601761
Si Si8 0.955141 0.833511 0.304563
O O1 0.491473 0.264419 0.373385
O O2 0.328316 0.074855 0.378692
O O3 0.436467 0.413098 0.439999
O O4 0.703210 0.129960 0.532498
O O5 0.441245 0.959029 0.575062
O O6 0.402093 0.627218 0.507244
O O7 0.656357 0.884991 0.585624
O O8 0.708673 0.692014 0.685951
O O9 0.839611 0.709525 0.827369
O O10 0.615089 0.719073 0.824793
O O11 0.360916 0.708944 0.087814
O O12 0.723400 0.790891 0.198393
O O13 0.966465 0.058808 0.310561
O O14 0.090527 0.405623 0.356938
O O15 0.421704 0.725435 0.019502
O O16 0.505153 0.532491 0.706786
#
# Coordination Sequence:
#
# PCOD9140617 Si02
#       8
#     4   4   4   4   4   4   4   4
#     4  12  26  50  84 118 161 223 263 339 410 485
#     4  11  26  53  84 121 159 219 270 340 415 479
#     4  12  24  53  80 110 168 208 267 341 402 480
#     4  11  24  52  80 112 162 213 268 339 397 493
#     4  11  26  53  81 118 161 214 273 337 405 488
#     4  12  25  53  82 120 166 209 278 335 413 484
#     4  12  24  53  80 117 168 208 277 340 402 493
#     4  11  25  53  81 114 165 212 268 335 410 478
#
# _framework density 24.805520999999999
#
# number of rings (size 3 to 8) (size 9 to 14) (size 15 to 20)
#    0.000    0.500    6.250    1.500    0.000    2.000 
#   33.750    0.000    0.000    0.000    0.000    0.000 
#    0.000    0.000    0.000    0.000    0.000    0.000 
#
# Total GULP energy -89818.941944 kJ/mol
# GULP energy per Si atom -5613.683871 kJ/mol
# Density = 2.474906 g / cm^3
# Si number density = 24.805521 Si / 1000 Ang^3
#
#
#
# Elastic Constant Matrix: (Units=GPa)
#
#
# Indices 1 2 3 4 5 6 
#
# 1 152.7586 51.1663 18.2297 0.0000 -21.8306 0.0000
# 2 51.1663 104.2895 47.5748 0.0000 2.3341 0.0000
# 3 18.2297 47.5748 131.8796 0.0000 -5.4625 0.0000
# 4 0.0000 0.0000 0.0000 25.0317 0.0000 -10.6555
# 5 -21.8306 2.3341 -5.4625 0.0000 38.5559 0.0000
# 6 0.0000 0.0000 0.0000 -10.6555 0.0000 56.6112
#
#
#
# Elastic Compliance Matrix: (Units=1/GPa)
#
#
# Indices 1 2 3 4 5 6 
#
# 1 0.008834 -0.004788 0.000729 0.000000 0.005395 0.000000
# 2 -0.004788 0.014136 -0.004613 0.000000 -0.004220 0.000000
# 3 0.000729 -0.004613 0.009229 0.000000 0.002000 0.000000
# 4 0.000000 0.000000 0.000000 0.043429 0.000000 0.008174
# 5 0.005395 -0.004220 0.002000 0.000000 0.029530 0.000000
# 6 0.000000 0.000000 0.000000 0.008174 0.000000 0.019203
#
#
# Mechanical properties :
#
#
# Convention : Reuss Voigt Hill
#
# Bulk Modulus (GPa) = 67.30699 69.20770 68.25735
# Shear Modulus (GPa) = 34.09382 42.17021 38.13202
#
# Velocity S-wave (km/s) = 3.71137 4.12762 3.92502
# Velocity P-wave (km/s) = 6.74970 7.11878 6.93670
#
# Compressibility (1/GPa) = 0.01485730
#
# Stress axis : x y z
#
# Youngs Moduli (GPa) = 113.20170 70.74063 108.35852
#
# Poissons Ratio (x) = 0.33867 -0.07904
# Poissons Ratio (y) = 0.54196 0.49981
# Poissons Ratio (z) = -0.08257 0.32629
#
# Static dielectric constant tensor:
#      x y z
#    x 2.014510 0.000000 0.028290 
#    y 0.000000 1.975580 0.000000 
#    z 0.028290 0.000000 1.933730 
# 
# From -- ./inp_files/35329.got.cif
#   From: 2010.05.17/outbox.cif.g08.bks.cpg/sg9_18_cif.got.tgz:35329.got - 2010.06.03 20:04:27.
