data_PCOD9140492
_publ_section_title
;
Structure prediction by ZEFSAII (Michael W. Deem and Ramdas Pophale) SiO2 
 PCOD9140492
Probable space group: C C
;
_chemical_formula_sum "Si O2"
_cell_formula_units_Z 28
_cell_length_a 14.392858
_cell_length_b 8.883757
_cell_length_c 14.955520
_cell_angle_alpha 90.000000
_cell_angle_beta 139.602312
_cell_angle_gamma 90.000000
_cell_volume 1239.310114
_symmetry_space_group_name_H-M "C C"
_symmetry_group_IT_number 9
_symmetry_cell_setting 'monoclinic'
loop_
_space_group_symop_operation_xyz
x,y,z
x,-y,1/2+z
1/2+x,1/2+y,z
1/2+x,1/2-y,1/2+z
loop_
_atom_site_type_symbol
_atom_site_label
_atom_site_fract_x
_atom_site_fract_y
_atom_site_fract_z
Si Si1 0.890600 0.655510 0.532460
Si Si2 0.291685 0.039837 0.793854
Si Si3 0.231724 0.669929 0.055693
Si Si4 0.226755 0.641193 0.478897
Si Si5 0.441351 0.332659 0.867749
Si Si6 0.468331 0.470698 0.538195
Si Si7 0.916369 0.404409 0.698806
O O1 0.847738 0.562882 0.414758
O O2 0.761077 0.748949 0.483044
O O3 0.987930 0.795195 0.574483
O O4 0.939965 0.539562 0.644944
O O5 0.353423 0.976244 0.744532
O O6 0.121251 0.041019 0.670966
O O7 0.345036 0.209400 0.847113
O O8 0.376163 0.670987 0.220625
O O9 0.189581 0.495896 0.019443
O O10 0.100357 0.767289 0.994810
O O11 0.344208 0.556393 0.502564
O O12 0.301311 0.785858 0.576362
O O13 0.071056 0.674670 0.323579
O O14 0.433540 0.493713 0.909121
#
# Coordination Sequence:
#
# PCOD9140492 Si02
#       7
#     4   4   4   4   4   4   4
#     4  11  27  48  75 106 152 191 264 311 385 454
#     4  12  27  45  76 111 148 198 252 322 376 461
#     4  11  24  46  74 104 148 201 241 317 384 458
#     4  11  28  46  74 107 151 208 250 314 379 455
#     4  12  23  48  73 109 148 197 253 309 389 452
#     4  11  28  45  77 110 143 203 258 314 383 450
#     4  12  27  52  73 111 156 204 254 317 384 452
#
# _framework density 22.593212999999999
#
# number of rings (size 3 to 8) (size 9 to 14) (size 15 to 20)
#    0.000    0.571    4.286    0.857   16.000    1.143 
#    0.000    0.000    0.000    0.000    0.000    0.000 
#    0.000    0.000    0.000    0.000    0.000    0.000 
#
# Total GULP energy -78218.883423 kJ/mol
# GULP energy per Si atom -5587.063102 kJ/mol
# Density = 2.254179 g / cm^3
# Si number density = 22.593213 Si / 1000 Ang^3
#
#
#
# Elastic Constant Matrix: (Units=GPa)
#
#
# Indices 1 2 3 4 5 6 
#
# 1 64.7526 22.2969 45.3480 0.0000 0.8536 0.0000
# 2 22.2969 111.8874 36.0710 0.0000 -13.7288 0.0000
# 3 45.3480 36.0710 91.6332 0.0000 1.1050 0.0000
# 4 0.0000 0.0000 0.0000 -22.9432 0.0000 8.6915
# 5 0.8536 -13.7288 1.1050 0.0000 45.6112 0.0000
# 6 0.0000 0.0000 0.0000 8.6915 0.0000 34.4112
#
#
#
# Elastic Compliance Matrix: (Units=1/GPa)
#
#
# Indices 1 2 3 4 5 6 
#
# 1 0.023760 -0.001157 -0.011297 0.000000 -0.000519 0.000000
# 2 -0.001157 0.010776 -0.003710 0.000000 0.003355 0.000000
# 3 -0.011297 -0.003710 0.017980 0.000000 -0.001341 0.000000
# 4 0.000000 0.000000 0.000000 -0.039780 0.000000 0.010047
# 5 -0.000519 0.003355 -0.001341 0.000000 0.022976 0.000000
# 6 0.000000 0.000000 0.000000 0.010047 0.000000 0.026523
#
#
# Mechanical properties :
#
#
# Convention : Reuss Voigt Hill
#
# Bulk Modulus (GPa) = 49.53141 52.85610 51.19375
# Shear Modulus (GPa) = 49.36213 22.38632 35.87423
#
# Velocity S-wave (km/s) = 4.67928 3.15118 3.98908
# Velocity P-wave (km/s) = 7.15297 6.05685 6.62761
#
# Compressibility (1/GPa) = 0.02018921
#
# Stress axis : x y z
#
# Youngs Moduli (GPa) = 42.08737 92.80114 55.61627
#
# Poissons Ratio (x) = 0.10733 0.62830
# Poissons Ratio (y) = 0.04868 0.20633
# Poissons Ratio (z) = 0.47546 0.34428
#
# Static dielectric constant tensor:
#      x y z
#    x 1.888780 0.000000 -0.031640 
#    y 0.000000 1.882090 0.000000 
#    z -0.031640 0.000000 1.857880 
# 
# From -- ./inp_files/11314.got.cif
#   From: 2010.05.17/outbox.cif.g08.bks.cpg/sg9_6_cif.got.tgz:11314.got - 2010.06.03 20:04:27.
