data_PCOD9140344
_publ_section_title
;
Structure prediction by ZEFSAII (Michael W. Deem and Ramdas Pophale) SiO2 
 PCOD9140344
Probable space group: C C
;
_chemical_formula_sum "Si O2"
_cell_formula_units_Z 24
_cell_length_a 8.674031
_cell_length_b 17.567005
_cell_length_c 9.171510
_cell_angle_alpha 90.000000
_cell_angle_beta 47.924620
_cell_angle_gamma 90.000000
_cell_volume 1037.332182
_symmetry_space_group_name_H-M "C C"
_symmetry_group_IT_number 9
_symmetry_cell_setting 'monoclinic'
loop_
_space_group_symop_operation_xyz
x,y,z
x,-y,1/2+z
1/2+x,1/2+y,z
1/2+x,1/2-y,1/2+z
loop_
_atom_site_type_symbol
_atom_site_label
_atom_site_fract_x
_atom_site_fract_y
_atom_site_fract_z
Si Si1 0.594390 0.372987 0.713850
Si Si2 0.542128 0.984911 0.631842
Si Si3 0.478422 0.337639 0.121054
Si Si4 0.806238 0.052880 0.224721
Si Si5 0.145206 0.043539 0.754949
Si Si6 0.011764 0.326163 0.509577
O O1 0.392173 0.367562 0.738110
O O2 0.650666 0.462842 0.666285
O O3 0.798314 0.322595 0.551764
O O4 0.535330 0.359180 0.919489
O O5 0.603975 0.970865 0.758712
O O6 0.473993 0.900870 0.628289
O O7 0.744472 0.006885 0.409320
O O8 0.367051 0.045552 0.698411
O O9 0.586502 0.390111 0.176161
O O10 0.228547 0.340668 0.292415
O O11 0.536178 0.248611 0.092337
O O12 0.981458 0.038733 0.991361
#
# Coordination Sequence:
#
# PCOD9140344 Si02
#       6
#     4   4   4   4   4   4
#     4  11  24  41  71 105 141 188 243 297 360 430
#     4  11  27  42  73 109 143 191 242 308 365 427
#     4  12  24  47  75 106 148 196 238 299 365 447
#     4  12  24  44  69 107 145 181 245 308 356 420
#     4  11  25  42  72 107 139 185 248 299 356 428
#     4  11  24  44  74 102 150 197 236 287 384 434
#
# _framework density 23.136271000000001
#
# number of rings (size 3 to 8) (size 9 to 14) (size 15 to 20)
#    0.000    0.667    5.000    2.000    9.333    0.000 
#    0.000    1.667    3.667    0.000    0.000    0.000 
#    0.000    0.000    0.000    0.000    0.000    0.000 
#
# Total GULP energy -66844.607236 kJ/mol
# GULP energy per Si atom -5570.383936 kJ/mol
# Density = 2.308361 g / cm^3
# Si number density = 23.136271 Si / 1000 Ang^3
#
#
#
# Elastic Constant Matrix: (Units=GPa)
#
#
# Indices 1 2 3 4 5 6 
#
# 1 158.2324 35.1156 71.9636 0.0000 -3.3056 0.0000
# 2 35.1156 88.5246 19.0522 0.0000 -12.4029 0.0000
# 3 71.9636 19.0522 120.3608 0.0000 -7.6945 0.0000
# 4 0.0000 0.0000 0.0000 18.8477 0.0000 -6.0389
# 5 -3.3056 -12.4029 -7.6945 0.0000 36.7062 0.0000
# 6 0.0000 0.0000 0.0000 -6.0389 0.0000 30.2090
#
#
#
# Elastic Compliance Matrix: (Units=1/GPa)
#
#
# Indices 1 2 3 4 5 6 
#
# 1 0.009254 -0.002721 -0.005177 0.000000 -0.001171 0.000000
# 2 -0.002721 0.012987 -0.000166 0.000000 0.004108 0.000000
# 3 -0.005177 -0.000166 0.011551 0.000000 0.001899 0.000000
# 4 0.000000 0.000000 0.000000 0.056688 0.000000 0.011332
# 5 -0.001171 0.004108 0.001899 0.000000 0.028924 0.000000
# 6 0.000000 0.000000 0.000000 0.011332 0.000000 0.035368
#
#
# Mechanical properties :
#
#
# Convention : Reuss Voigt Hill
#
# Bulk Modulus (GPa) = 56.61249 68.82008 62.71629
# Shear Modulus (GPa) = 28.28253 33.21835 30.75044
#
# Velocity S-wave (km/s) = 3.50012 3.79327 3.64964
# Velocity P-wave (km/s) = 6.39193 6.99966 6.70269
#
# Compressibility (1/GPa) = 0.01766395
#
# Stress axis : x y z
#
# Youngs Moduli (GPa) = 108.06652 77.00060 86.56978
#
# Poissons Ratio (x) = 0.20949 0.44816
# Poissons Ratio (y) = 0.29400 0.01441
# Poissons Ratio (z) = 0.55945 0.01282
#
# Static dielectric constant tensor:
#      x y z
#    x 2.199360 0.000000 -0.086670 
#    y 0.000000 1.883810 0.000000 
#    z -0.086670 0.000000 1.862910 
# 
# From -- ./inp_files/5307.got.cif
#   From: 2010.05.17/outbox.cif.g08.bks.cpg/sg9_3_cif.got.tgz:5307.got - 2010.06.03 20:04:27.
