data_PCOD9140055
_publ_section_title
;
Structure prediction by ZEFSAII (Michael W. Deem and Ramdas Pophale) SiO2 
 PCOD9140055
Probable space group: C C
;
_chemical_formula_sum "Si O2"
_cell_formula_units_Z 32
_cell_length_a 20.473510
_cell_length_b 7.000481
_cell_length_c 12.281259
_cell_angle_alpha 90.000000
_cell_angle_beta 136.555695
_cell_angle_gamma 90.000000
_cell_volume 1210.402974
_symmetry_space_group_name_H-M "C C"
_symmetry_group_IT_number 9
_symmetry_cell_setting 'monoclinic'
loop_
_space_group_symop_operation_xyz
x,y,z
x,-y,1/2+z
1/2+x,1/2+y,z
1/2+x,1/2-y,1/2+z
loop_
_atom_site_type_symbol
_atom_site_label
_atom_site_fract_x
_atom_site_fract_y
_atom_site_fract_z
Si Si1 0.812920 0.927740 0.538270
Si Si2 0.633266 0.318784 0.509418
Si Si3 0.924621 0.552629 0.626852
Si Si4 0.432537 0.299061 0.298471
Si Si5 0.903406 0.925559 0.930351
Si Si6 0.607901 0.336338 0.239072
Si Si7 0.769372 0.376849 0.272112
Si Si8 0.608863 0.793439 0.225215
O O1 0.881779 0.745096 0.624500
O O2 0.837158 0.091443 0.652899
O O3 0.706037 0.866706 0.394730
O O4 0.848605 0.035086 0.473571
O O5 0.527405 0.414190 0.376451
O O6 0.637611 0.249259 0.390729
O O7 0.719709 0.461036 0.638735
O O8 0.619128 0.192601 0.603550
O O9 0.938093 0.399734 0.742276
O O10 0.843327 0.472987 0.446240
O O11 0.021330 0.600593 0.678141
O O12 0.430815 0.361325 0.422114
O O13 0.999738 0.808426 0.070120
O O14 0.829321 0.782959 0.781859
O O15 0.681978 0.288169 0.234391
O O16 0.611470 0.567009 0.253225
#
# Coordination Sequence:
#
# PCOD9140055 Si02
#       8
#     4   4   4   4   4   4   4   4
#     4  12  25  51  76 118 165 209 273 345 408 495
#     4  11  22  49  81 118 157 221 264 336 419 485
#     4  12  24  52  80 114 163 217 271 340 415 489
#     4  12  26  50  80 117 158 223 270 338 420 489
#     4  12  25  50  77 117 169 209 275 345 407 498
#     4  11  22  47  79 114 170 209 272 340 406 499
#     4  11  25  45  79 120 158 220 266 343 410 486
#     4  11  25  48  76 116 164 210 277 339 407 501
#
# _framework density 26.437474000000002
#
# number of rings (size 3 to 8) (size 9 to 14) (size 15 to 20)
#    0.000    0.500    8.750    0.000    1.750    3.000 
#   11.250    0.000    0.000    0.000    0.000    0.000 
#    0.000    0.000    0.000    0.000    0.000    0.000 
#
# Total GULP energy -89445.208916 kJ/mol
# GULP energy per Si atom -5590.325557 kJ/mol
# Density = 2.637730 g / cm^3
# Si number density = 26.437474 Si / 1000 Ang^3
#
#
#
# Elastic Constant Matrix: (Units=GPa)
#
#
# Indices 1 2 3 4 5 6 
#
# 1 96.2617 55.5942 51.7619 0.0000 22.8745 0.0000
# 2 55.5942 134.1112 61.5352 0.0000 10.3299 0.0000
# 3 51.7619 61.5352 152.4926 0.0000 38.2243 0.0000
# 4 0.0000 0.0000 0.0000 46.9150 0.0000 4.4228
# 5 22.8745 10.3299 38.2243 0.0000 54.2579 0.0000
# 6 0.0000 0.0000 0.0000 4.4228 0.0000 48.3643
#
#
#
# Elastic Compliance Matrix: (Units=1/GPa)
#
#
# Indices 1 2 3 4 5 6 
#
# 1 0.015460 -0.005097 -0.002187 0.000000 -0.004007 0.000000
# 2 -0.005097 0.010880 -0.003254 0.000000 0.002370 0.000000
# 3 -0.002187 -0.003254 0.009991 0.000000 -0.005497 0.000000
# 4 0.000000 0.000000 0.000000 0.021500 0.000000 -0.001966
# 5 -0.004007 0.002370 -0.005497 0.000000 0.023541 0.000000
# 6 0.000000 0.000000 0.000000 -0.001966 0.000000 0.020856
#
#
# Mechanical properties :
#
#
# Convention : Reuss Voigt Hill
#
# Bulk Modulus (GPa) = 65.55079 80.07201 72.81140
# Shear Modulus (GPa) = 38.94396 44.17240 41.55818
#
# Velocity S-wave (km/s) = 3.84221 4.09201 3.96907
# Velocity P-wave (km/s) = 6.67322 7.25804 6.97176
#
# Compressibility (1/GPa) = 0.01525535
#
# Stress axis : x y z
#
# Youngs Moduli (GPa) = 64.68392 91.91165 100.08876
#
# Poissons Ratio (x) = 0.46845 0.21885
# Poissons Ratio (y) = 0.32968 0.32574
# Poissons Ratio (z) = 0.14144 0.29912
#
# Static dielectric constant tensor:
#      x y z
#    x 2.098320 0.000000 -0.069480 
#    y 0.000000 2.124040 0.000000 
#    z -0.069480 0.000000 2.167180 
# 
# From -- ./inp_files/27278.got.cif
#   From: 2010.05.17/outbox.cif.g08.bks.cpg/sg9_14_cif.got.tgz:27278.got - 2010.06.03 20:04:27.
