data_PCOD9140804
_publ_section_title
;
Structure prediction by ZEFSAII (Michael W. Deem and Ramdas Pophale) SiO2 
 PCOD9140804
Probable space group: C C
;
_chemical_formula_sum "Si O2"
_cell_formula_units_Z 32
_cell_length_a 19.261060
_cell_length_b 5.362352
_cell_length_c 14.313341
_cell_angle_alpha 90.000000
_cell_angle_beta 58.238373
_cell_angle_gamma 90.000000
_cell_volume 1256.958166
_symmetry_space_group_name_H-M "C C"
_symmetry_group_IT_number 9
_symmetry_cell_setting 'monoclinic'
loop_
_space_group_symop_operation_xyz
x,y,z
x,-y,1/2+z
1/2+x,1/2+y,z
1/2+x,1/2-y,1/2+z
loop_
_atom_site_type_symbol
_atom_site_label
_atom_site_fract_x
_atom_site_fract_y
_atom_site_fract_z
Si Si1 0.422420 0.594630 0.014110
Si Si2 0.012477 0.238718 0.588706
Si Si3 0.722120 0.482890 0.415746
Si Si4 0.168635 0.521487 0.028536
Si Si5 0.233473 0.630855 0.167306
Si Si6 0.399462 0.123463 0.726153
Si Si7 0.507633 0.533876 0.273674
Si Si8 0.665652 0.357455 0.776296
O O1 0.472119 0.361398 0.023222
O O2 0.324950 0.564012 0.069539
O O3 0.422937 0.773294 0.106072
O O4 0.465403 0.642495 0.883537
O O5 0.083713 0.443989 0.534072
O O6 0.936037 0.349739 0.699948
O O7 0.044656 0.054863 0.647195
O O8 0.729405 0.756581 0.453662
O O9 0.803781 0.394713 0.307088
O O10 0.651365 0.522762 0.388749
O O11 0.701216 0.255022 0.496054
O O12 0.163603 0.577057 0.140877
O O13 0.223698 0.926044 0.191701
O O14 0.209579 0.411378 0.257915
O O15 0.439108 0.277418 0.782781
O O16 0.583471 0.649996 0.275831
#
# Coordination Sequence:
#
# PCOD9140804 Si02
#       8
#     4   4   4   4   4   4   4   4
#     4  11  26  46  72 107 144 195 246 303 374 448
#     4  11  26  47  74 103 153 193 243 313 372 442
#     4  12  27  47  78 110 146 197 250 305 374 449
#     4  12  27  47  78 110 146 197 250 305 374 449
#     4  12  25  47  72 104 145 190 241 306 366 433
#     4  11  26  47  74 103 153 193 243 313 372 442
#     4  11  26  46  72 107 144 195 246 303 374 448
#     4  12  25  47  72 104 145 190 241 306 366 433
#
# _framework density 25.458286999999999
#
# number of rings (size 3 to 8) (size 9 to 14) (size 15 to 20)
#    0.000    0.500    2.500    4.500   10.500    1.000 
#    0.000    0.000    0.000    0.000    0.000    0.000 
#    0.000    0.000    0.000    0.000    0.000    0.000 
#
# Total GULP energy -89283.251056 kJ/mol
# GULP energy per Si atom -5580.203191 kJ/mol
# Density = 2.540034 g / cm^3
# Si number density = 25.458287 Si / 1000 Ang^3
#
#
#
# Elastic Constant Matrix: (Units=GPa)
#
#
# Indices 1 2 3 4 5 6 
#
# 1 126.6692 31.9902 8.5053 0.0001 -3.4965 0.0018
# 2 31.9902 80.7407 25.9334 0.0002 4.1832 0.0069
# 3 8.5053 25.9334 81.3075 0.0001 -0.5123 0.0010
# 4 0.0001 0.0002 0.0001 38.1134 -0.0001 -2.4135
# 5 -3.4965 4.1832 -0.5123 -0.0001 42.7867 0.0000
# 6 0.0018 0.0069 0.0010 -2.4135 0.0000 19.9314
#
#
#
# Elastic Compliance Matrix: (Units=1/GPa)
#
#
# Indices 1 2 3 4 5 6 
#
# 1 0.008825 -0.003630 0.000241 0.000000 0.001079 0.000000
# 2 -0.003630 0.015377 -0.004536 0.000000 -0.001854 -0.000005
# 3 0.000241 -0.004536 0.013725 0.000000 0.000628 0.000001
# 4 0.000000 0.000000 0.000000 0.026440 0.000000 0.003202
# 5 0.001079 -0.001854 0.000628 0.000000 0.023649 0.000001
# 6 0.000000 -0.000005 0.000001 0.003202 0.000001 0.050560
#
#
# Mechanical properties :
#
#
# Convention : Reuss Voigt Hill
#
# Bulk Modulus (GPa) = 45.29742 46.84167 46.06955
# Shear Modulus (GPa) = 30.90549 34.98553 32.94551
#
# Velocity S-wave (km/s) = 3.48798 3.71108 3.60126
# Velocity P-wave (km/s) = 5.83548 6.06648 5.95210
#
# Compressibility (1/GPa) = 0.02207631
#
# Stress axis : x y z
#
# Youngs Moduli (GPa) = 113.31579 65.03344 72.86185
#
# Poissons Ratio (x) = 0.23607 -0.01759
# Poissons Ratio (y) = 0.41133 0.33053
# Poissons Ratio (z) = -0.02736 0.29502
#
# Static dielectric constant tensor:
#      x y z
#    x 2.020710 0.000000 0.078640 
#    y 0.000000 2.143290 0.000000 
#    z 0.078640 0.000000 2.182340 
# 
# From -- ./inp_files/26441.got.cif
#   From: 2010.05.17/outbox.cif.g08.bks.cpg/sg9_14_cif.got.tgz:26441.got - 2010.06.03 20:04:27.
