data_PCOD9140255
_publ_section_title
;
Structure prediction by ZEFSAII (Michael W. Deem and Ramdas Pophale) SiO2 
 PCOD9140255
Probable space group: C C
;
_chemical_formula_sum "Si O2"
_cell_formula_units_Z 28
_cell_length_a 7.240262
_cell_length_b 13.285243
_cell_length_c 11.278128
_cell_angle_alpha 90.000000
_cell_angle_beta 77.178797
_cell_angle_gamma 90.000000
_cell_volume 1057.780110
_symmetry_space_group_name_H-M "C C"
_symmetry_group_IT_number 9
_symmetry_cell_setting 'monoclinic'
loop_
_space_group_symop_operation_xyz
x,y,z
x,-y,1/2+z
1/2+x,1/2+y,z
1/2+x,1/2-y,1/2+z
loop_
_atom_site_type_symbol
_atom_site_label
_atom_site_fract_x
_atom_site_fract_y
_atom_site_fract_z
Si Si1 0.334910 0.669535 0.023630
Si Si2 0.827537 0.527909 0.580159
Si Si3 0.975122 0.350990 0.878140
Si Si4 0.144366 0.365666 0.192768
Si Si5 0.479889 0.543110 0.791262
Si Si6 0.401463 0.811099 0.615161
Si Si7 0.410030 0.327220 0.786261
O O1 0.385165 0.647666 0.150452
O O2 0.110239 0.666069 0.037475
O O3 0.377854 0.784916 0.992827
O O4 0.458585 0.607649 0.913084
O O5 0.645058 0.573965 0.675478
O O6 0.788513 0.409243 0.594531
O O7 0.891650 0.543834 0.434065
O O8 0.010473 0.563127 0.632681
O O9 0.195654 0.330699 0.860385
O O10 0.919344 0.315378 0.755941
O O11 0.278167 0.434957 0.255281
O O12 0.294617 0.292434 0.102289
O O13 0.015670 0.280055 0.277426
O O14 0.505672 0.426854 0.825480
#
# Coordination Sequence:
#
# PCOD9140255 Si02
#       7
#     4   4   4   4   4   4   4
#     4  11  23  46  75 104 149 192 239 306 361 429
#     4  12  26  48  74 107 150 191 242 303 363 432
#     4  11  23  46  75 104 149 192 239 306 361 429
#     4  12  24  46  72 108 144 194 242 294 362 438
#     4  12  26  48  74 107 150 191 242 303 363 432
#     4  11  25  47  72 110 146 190 248 297 366 435
#     4  11  25  47  72 110 146 190 248 297 366 435
#
# _framework density 26.47053
#
# number of rings (size 3 to 8) (size 9 to 14) (size 15 to 20)
#    0.000    0.571    4.286    4.286    0.000    2.286 
#    5.143    0.000    0.000    0.000    0.000    0.000 
#    0.000    0.000    0.000    0.000    0.000    0.000 
#
# Total GULP energy -78389.302240 kJ/mol
# GULP energy per Si atom -5599.235874 kJ/mol
# Density = 2.641028 g / cm^3
# Si number density = 26.470530 Si / 1000 Ang^3
#
#
#
# Elastic Constant Matrix: (Units=GPa)
#
#
# Indices 1 2 3 4 5 6 
#
# 1 138.9577 9.4793 39.9375 0.0000 -27.4541 0.0000
# 2 9.4793 78.7550 -2.9159 0.0000 -4.4418 0.0000
# 3 39.9375 -2.9159 109.5652 0.0000 -11.8177 0.0000
# 4 0.0000 0.0000 0.0000 37.7730 0.0000 -9.3909
# 5 -27.4541 -4.4418 -11.8177 0.0000 55.3518 0.0000
# 6 0.0000 0.0000 0.0000 -9.3909 0.0000 32.7463
#
#
#
# Elastic Compliance Matrix: (Units=1/GPa)
#
#
# Indices 1 2 3 4 5 6 
#
# 1 0.008805 -0.000957 -0.002838 0.000000 0.003685 0.000000
# 2 -0.000957 0.012882 0.000770 0.000000 0.000723 0.000000
# 3 -0.002838 0.000770 0.010273 0.000000 0.000848 0.000000
# 4 0.000000 0.000000 0.000000 0.028506 0.000000 0.008175
# 5 0.003685 0.000723 0.000848 0.000000 0.020133 0.000000
# 6 0.000000 0.000000 0.000000 0.008175 0.000000 0.032882
#
#
# Mechanical properties :
#
#
# Convention : Reuss Voigt Hill
#
# Bulk Modulus (GPa) = 38.59424 46.69775 42.64599
# Shear Modulus (GPa) = 39.01099 43.89268 41.45183
#
# Velocity S-wave (km/s) = 3.84311 4.07648 3.96152
# Velocity P-wave (km/s) = 5.85700 6.31163 6.08856
#
# Compressibility (1/GPa) = 0.02591061
#
# Stress axis : x y z
#
# Youngs Moduli (GPa) = 113.56825 77.62709 97.34021
#
# Poissons Ratio (x) = 0.07430 0.27622
# Poissons Ratio (y) = 0.10870 -0.07492
# Poissons Ratio (z) = 0.32227 -0.05975
#
# Static dielectric constant tensor:
#      x y z
#    x 2.075820 0.000000 -0.005210 
#    y 0.000000 2.175740 0.000000 
#    z -0.005210 0.000000 2.032940 
# 
# From -- ./inp_files/14553.got.cif
#   From: 2010.05.17/outbox.cif.g08.bks.cpg/sg9_8_cif.got.tgz:14553.got - 2010.06.03 20:04:27.
