data_PCOD9140687
_publ_section_title
;
Structure prediction by ZEFSAII (Michael W. Deem and Ramdas Pophale) SiO2 
 PCOD9140687
Probable space group: C C
;
_chemical_formula_sum "Si O2"
_cell_formula_units_Z 24
_cell_length_a 18.589435
_cell_length_b 4.817862
_cell_length_c 12.355233
_cell_angle_alpha 90.000000
_cell_angle_beta 51.243100
_cell_angle_gamma 90.000000
_cell_volume 862.898640
_symmetry_space_group_name_H-M "C C"
_symmetry_group_IT_number 9
_symmetry_cell_setting 'monoclinic'
loop_
_space_group_symop_operation_xyz
x,y,z
x,-y,1/2+z
1/2+x,1/2+y,z
1/2+x,1/2-y,1/2+z
loop_
_atom_site_type_symbol
_atom_site_label
_atom_site_fract_x
_atom_site_fract_y
_atom_site_fract_z
Si Si1 0.567650 0.467926 0.014380
Si Si2 0.907958 0.696050 0.554957
Si Si3 0.803995 0.930991 0.987570
Si Si4 0.533138 0.077043 0.239963
Si Si5 0.126313 0.100579 0.225759
Si Si6 0.785122 0.471283 0.851470
O O1 0.588317 0.322667 0.878447
O O2 0.523475 0.243347 0.138097
O O3 0.675840 0.544141 0.939600
O O4 0.455857 0.926960 0.903396
O O5 0.854547 0.946272 0.544286
O O6 0.837713 0.502714 0.687672
O O7 0.990138 0.812060 0.552183
O O8 0.722040 0.744528 0.114165
O O9 0.785681 0.188121 0.920914
O O10 0.839901 0.703242 0.868748
O O11 0.562016 0.760218 0.199634
O O12 0.114087 0.772928 0.219198
#
# Coordination Sequence:
#
# PCOD9140687 Si02
#       6
#     4   4   4   4   4   4
#     4  11  26  52  84 115 163 219 275 330 416 489
#     4  11  30  47  82 120 163 208 277 339 404 487
#     4  12  27  52  79 118 164 203 274 336 408 485
#     4  11  25  50  74 115 155 209 263 334 399 483
#     4  11  25  46  81 108 153 210 267 325 402 477
#     4  12  29  51  82 118 160 221 268 336 413 493
#
# _framework density 27.813230999999998
#
# number of rings (size 3 to 8) (size 9 to 14) (size 15 to 20)
#    0.000    0.667    3.333    1.000    9.333   10.667 
#    0.000    0.000    0.000    0.000    0.000    0.000 
#    0.000    0.000    0.000    0.000    0.000    0.000 
#
# Total GULP energy -67111.277600 kJ/mol
# GULP energy per Si atom -5592.606467 kJ/mol
# Density = 2.774993 g / cm^3
# Si number density = 27.813231 Si / 1000 Ang^3
#
#
#
# Elastic Constant Matrix: (Units=GPa)
#
#
# Indices 1 2 3 4 5 6 
#
# 1 189.2818 43.8441 38.0465 0.0001 1.2136 0.0004
# 2 43.8441 136.4066 48.6697 0.0025 4.2532 0.0070
# 3 38.0465 48.6697 244.8045 -0.0025 14.5413 0.0000
# 4 0.0001 0.0025 -0.0025 27.7241 -0.0003 8.1460
# 5 1.2136 4.2532 14.5413 -0.0003 43.2876 -0.0002
# 6 0.0004 0.0070 0.0000 8.1460 -0.0002 52.4831
#
#
#
# Elastic Compliance Matrix: (Units=1/GPa)
#
#
# Indices 1 2 3 4 5 6 
#
# 1 0.005783 -0.001658 -0.000581 0.000000 0.000196 0.000000
# 2 -0.001658 0.008369 -0.001388 -0.000001 -0.000310 -0.000001
# 3 -0.000581 -0.001388 0.004532 0.000000 -0.001370 0.000000
# 4 0.000000 -0.000001 0.000000 0.037793 0.000000 -0.005866
# 5 0.000196 -0.000310 -0.001370 0.000000 0.023586 0.000000
# 6 0.000000 -0.000001 0.000000 -0.005866 0.000000 0.019964
#
#
# Mechanical properties :
#
#
# Convention : Reuss Voigt Hill
#
# Bulk Modulus (GPa) = 87.47835 92.40152 89.93994
# Shear Modulus (GPa) = 45.00851 54.02780 49.51815
#
# Velocity S-wave (km/s) = 4.02710 4.41219 4.22403
# Velocity P-wave (km/s) = 7.28997 7.69745 7.49648
#
# Compressibility (1/GPa) = 0.01143140
#
# Stress axis : x y z
#
# Youngs Moduli (GPa) = 172.93396 119.49437 220.63196
#
# Poissons Ratio (x) = 0.19806 0.12814
# Poissons Ratio (y) = 0.28664 0.30619
# Poissons Ratio (z) = 0.10044 0.16583
#
# Static dielectric constant tensor:
#      x y z
#    x 2.297040 0.000000 -0.029910 
#    y 0.000000 2.166630 0.000000 
#    z -0.029910 0.000000 2.189850 
# 
# From -- ./inp_files/27105.got.cif
#   From: 2010.05.17/outbox.cif.g08.bks.cpg/sg9_14_cif.got.tgz:27105.got - 2010.06.03 20:04:27.
