data_PCOD9140196
_publ_section_title
;
Structure prediction by ZEFSAII (Michael W. Deem and Ramdas Pophale) SiO2 
 PCOD9140196
Probable space group: C C
;
_chemical_formula_sum "Si O2"
_cell_formula_units_Z 32
_cell_length_a 12.524458
_cell_length_b 14.549315
_cell_length_c 10.233420
_cell_angle_alpha 90.000000
_cell_angle_beta 45.089556
_cell_angle_gamma 90.000000
_cell_volume 1320.641837
_symmetry_space_group_name_H-M "C C"
_symmetry_group_IT_number 9
_symmetry_cell_setting 'monoclinic'
loop_
_space_group_symop_operation_xyz
x,y,z
x,-y,1/2+z
1/2+x,1/2+y,z
1/2+x,1/2-y,1/2+z
loop_
_atom_site_type_symbol
_atom_site_label
_atom_site_fract_x
_atom_site_fract_y
_atom_site_fract_z
Si Si1 0.005890 0.804837 0.245670
Si Si2 0.077053 0.313532 0.306563
Si Si3 0.392085 0.987104 0.506454
Si Si4 0.459444 0.534538 0.981313
Si Si5 0.662199 0.154664 0.011447
Si Si6 0.174004 0.549520 0.395710
Si Si7 0.377267 0.350812 0.917597
Si Si8 0.699325 0.445364 0.928362
O O1 0.075781 0.704054 0.204753
O O2 0.830553 0.806413 0.362373
O O3 0.106678 0.855327 0.048510
O O4 0.010069 0.874190 0.364365
O O5 0.062597 0.312264 0.475036
O O6 0.992980 0.408905 0.348661
O O7 0.998245 0.229851 0.301292
O O8 0.255494 0.319092 0.130520
O O9 0.506660 0.055376 0.483008
O O10 0.296733 0.030430 0.471595
O O11 0.292600 0.944627 0.711742
O O12 0.461417 0.443699 0.889229
O O13 0.568534 0.519068 0.009491
O O14 0.287974 0.536699 0.176894
O O15 0.673636 0.044928 0.982426
O O16 0.260434 0.627432 0.401923
#
# Coordination Sequence:
#
# PCOD9140196 Si02
#       8
#     4   4   4   4   4   4   4   4
#     4  12  26  44  74 111 154 200 259 336 390 466
#     4  11  25  41  72 112 144 195 260 334 374 468
#     4  11  26  44  75 114 151 200 268 330 394 476
#     4  12  23  48  73 108 153 211 249 320 411 476
#     4  11  23  45  70 113 144 196 265 321 385 469
#     4  11  25  47  79 104 155 206 256 321 411 480
#     4  12  24  46  75 110 151 198 262 323 395 461
#     4  12  24  45  74 110 152 200 265 323 400 474
#
# _framework density 24.230642
#
# number of rings (size 3 to 8) (size 9 to 14) (size 15 to 20)
#    0.000    0.500    6.250    2.250    7.000    0.000 
#    0.000    2.500    0.000    0.000    0.000    0.000 
#    0.000    0.000    0.000    0.000    0.000    0.000 
#
# Total GULP energy -89468.713294 kJ/mol
# GULP energy per Si atom -5591.794581 kJ/mol
# Density = 2.417549 g / cm^3
# Si number density = 24.230642 Si / 1000 Ang^3
#
#
#
# Elastic Constant Matrix: (Units=GPa)
#
#
# Indices 1 2 3 4 5 6 
#
# 1 145.9593 34.1574 21.1809 0.0000 -15.2532 0.0000
# 2 34.1574 84.0965 23.9350 0.0000 6.6845 0.0000
# 3 21.1809 23.9350 83.2438 0.0000 -6.8053 0.0000
# 4 0.0000 0.0000 0.0000 44.1240 0.0000 -7.6446
# 5 -15.2532 6.6845 -6.8053 0.0000 34.4697 0.0000
# 6 0.0000 0.0000 0.0000 -7.6446 0.0000 37.9741
#
#
#
# Elastic Compliance Matrix: (Units=1/GPa)
#
#
# Indices 1 2 3 4 5 6 
#
# 1 0.008201 -0.003445 -0.000757 0.000000 0.004148 0.000000
# 2 -0.003445 0.014778 -0.003793 0.000000 -0.005139 0.000000
# 3 -0.000757 -0.003793 0.013547 0.000000 0.003075 0.000000
# 4 0.000000 0.000000 0.000000 0.023482 0.000000 0.004727
# 5 0.004148 -0.005139 0.003075 0.000000 0.032450 0.000000
# 6 0.000000 0.000000 0.000000 0.004727 0.000000 0.027285
#
#
# Mechanical properties :
#
#
# Convention : Reuss Voigt Hill
#
# Bulk Modulus (GPa) = 48.69300 52.42736 50.56018
# Shear Modulus (GPa) = 35.06811 38.91532 36.99171
#
# Velocity S-wave (km/s) = 3.80842 4.01189 3.91148
# Velocity P-wave (km/s) = 6.28315 6.56842 6.42737
#
# Compressibility (1/GPa) = 0.02053683
#
# Stress axis : x y z
#
# Youngs Moduli (GPa) = 121.94027 67.66650 73.81468
#
# Poissons Ratio (x) = 0.23312 0.05588
# Poissons Ratio (y) = 0.42010 0.27996
# Poissons Ratio (z) = 0.09231 0.25664
#
# Static dielectric constant tensor:
#      x y z
#    x 1.931440 0.000000 0.050420 
#    y 0.000000 1.984040 0.000000 
#    z 0.050420 0.000000 2.002860 
# 
# From -- ./inp_files/18450.got.cif
#   From: 2010.05.17/outbox.cif.g08.bks.cpg/sg9_10_cif.got.tgz:18450.got - 2010.06.03 20:04:27.
