data_PCOD9140095
_publ_section_title
;
Structure prediction by ZEFSAII (Michael W. Deem and Ramdas Pophale) SiO2 
 PCOD9140095
Probable space group: C C
;
_chemical_formula_sum "Si O2"
_cell_formula_units_Z 32
_cell_length_a 6.334117
_cell_length_b 30.971058
_cell_length_c 8.653323
_cell_angle_alpha 90.000000
_cell_angle_beta 124.353779
_cell_angle_gamma 90.000000
_cell_volume 1401.452591
_symmetry_space_group_name_H-M "C C"
_symmetry_group_IT_number 9
_symmetry_cell_setting 'monoclinic'
loop_
_space_group_symop_operation_xyz
x,y,z
x,-y,1/2+z
1/2+x,1/2+y,z
1/2+x,1/2-y,1/2+z
loop_
_atom_site_type_symbol
_atom_site_label
_atom_site_fract_x
_atom_site_fract_y
_atom_site_fract_z
Si Si1 0.543830 0.447555 0.938720
Si Si2 0.545994 0.543710 0.808856
Si Si3 0.312420 0.316166 0.236998
Si Si4 0.311332 0.176911 0.093446
Si Si5 0.562425 0.902675 0.574810
Si Si6 0.570329 0.899111 0.212304
Si Si7 0.085483 0.241089 0.601939
Si Si8 0.637051 0.272250 0.816879
O O1 0.571132 0.494540 0.873995
O O2 0.312666 0.425110 0.749247
O O3 0.500196 0.453282 0.105052
O O4 0.806171 0.420188 0.045974
O O5 0.299716 0.567020 0.780371
O O6 0.810930 0.566858 0.968982
O O7 0.550161 0.340293 0.414266
O O8 0.115431 0.354600 0.139123
O O9 0.245827 0.275216 0.319390
O O10 0.425076 0.293618 0.131574
O O11 0.512466 0.139320 0.159522
O O12 0.236812 0.196414 0.227924
O O13 0.391263 0.218072 0.021874
O O14 0.577188 0.888976 0.399798
O O15 0.342365 0.268741 0.750586
O O16 0.233734 0.216316 0.525463
#
# Coordination Sequence:
#
# PCOD9140095 Si02
#       8
#     4   4   4   4   4   4   4   4
#     4  11  26  47  76 114 143 187 245 295 367 448
#     4  11  24  48  78 104 148 192 237 299 369 437
#     4  11  23  43  68  96 143 187 240 297 361 420
#     4  11  23  43  68  99 139 190 240 293 365 420
#     4  11  25  47  74 110 147 191 243 303 362 442
#     4  11  25  47  74 109 146 196 237 306 367 428
#     4  11  23  42  67  96 134 188 243 295 349 420
#     4  11  23  43  67  96 132 191 239 296 352 415
#
# _framework density 22.833452000000001
#
# number of rings (size 3 to 8) (size 9 to 14) (size 15 to 20)
#    0.000    1.000    3.750    2.250    0.000    4.000 
#    6.750    0.000    0.000    0.000    0.000    0.000 
#    0.000    0.000    0.000    0.000    0.000    0.000 
#
# Total GULP energy -89236.019429 kJ/mol
# GULP energy per Si atom -5577.251214 kJ/mol
# Density = 2.278148 g / cm^3
# Si number density = 22.833452 Si / 1000 Ang^3
#
#
#
# Elastic Constant Matrix: (Units=GPa)
#
#
# Indices 1 2 3 4 5 6 
#
# 1 83.4514 77.9075 37.3771 0.0000 -37.4472 0.0000
# 2 77.9075 158.6282 51.0423 0.0000 4.7122 0.0000
# 3 37.3771 51.0423 88.8561 0.0000 -5.7619 0.0000
# 4 0.0000 0.0000 0.0000 26.0513 0.0000 4.2412
# 5 -37.4472 4.7122 -5.7619 0.0000 -5.5398 0.0000
# 6 0.0000 0.0000 0.0000 4.2412 0.0000 46.4737
#
#
#
# Elastic Compliance Matrix: (Units=1/GPa)
#
#
# Indices 1 2 3 4 5 6 
#
# 1 0.003642 -0.000232 -0.002818 0.000000 -0.021883 0.000000
# 2 -0.000232 0.007148 -0.003291 0.000000 0.011070 0.000000
# 3 -0.002818 -0.003291 0.014411 0.000000 0.001259 0.000000
# 4 0.000000 0.000000 0.000000 0.038965 0.000000 -0.003556
# 5 -0.021883 0.011070 0.001259 0.000000 -0.024481 0.000000
# 6 0.000000 0.000000 0.000000 -0.003556 0.000000 0.021842
#
#
# Mechanical properties :
#
#
# Convention : Reuss Voigt Hill
#
# Bulk Modulus (GPa) = 79.86923 73.73216 76.80070
# Shear Modulus (GPa) = 63.79078 24.37097 44.08088
#
# Velocity S-wave (km/s) = 5.29132 3.27056 4.39856
# Velocity P-wave (km/s) = 8.50798 6.82814 7.71392
#
# Compressibility (1/GPa) = 0.01252047
#
# Stress axis : x y z
#
# Youngs Moduli (GPa) = 274.59450 139.90060 69.38976
#
# Poissons Ratio (x) = 0.03243 0.19552
# Poissons Ratio (y) = 0.06366 0.22834
# Poissons Ratio (z) = 0.77374 0.46037
#
# Static dielectric constant tensor:
#      x y z
#    x 2.193300 0.000000 1.439720 
#    y 0.000000 1.814130 0.000000 
#    z 1.439720 0.000000 8.283930 
# 
# From -- ./inp_files/4551.got.cif
#   From: 2010.05.17/outbox.cif.g08.bks.cpg/sg9_3_cif.got.tgz:4551.got - 2010.06.03 20:04:27.
