data_PCOD9140748
_publ_section_title
;
Structure prediction by ZEFSAII (Michael W. Deem and Ramdas Pophale) SiO2 
 PCOD9140748
Probable space group: C C
;
_chemical_formula_sum "Si O2"
_cell_formula_units_Z 24
_cell_length_a 8.313203
_cell_length_b 13.302183
_cell_length_c 13.621972
_cell_angle_alpha 90.000000
_cell_angle_beta 44.431190
_cell_angle_gamma 90.000000
_cell_volume 1054.536691
_symmetry_space_group_name_H-M "C C"
_symmetry_group_IT_number 9
_symmetry_cell_setting 'monoclinic'
loop_
_space_group_symop_operation_xyz
x,y,z
x,-y,1/2+z
1/2+x,1/2+y,z
1/2+x,1/2-y,1/2+z
loop_
_atom_site_type_symbol
_atom_site_label
_atom_site_fract_x
_atom_site_fract_y
_atom_site_fract_z
Si Si1 0.481220 0.656686 0.935710
Si Si2 0.257263 0.514992 0.786103
Si Si3 0.049133 0.960616 0.835115
Si Si4 0.260842 0.666718 0.600695
Si Si5 0.345140 0.716848 0.197247
Si Si6 0.492916 0.866430 0.554582
O O1 0.600233 0.548157 0.890873
O O2 0.612558 0.720408 0.797297
O O3 0.484381 0.715133 0.035695
O O4 0.217896 0.637280 0.023492
O O5 0.468325 0.518168 0.771774
O O6 0.269171 0.589199 0.688083
O O7 0.271720 0.397848 0.750702
O O8 0.044204 0.554474 0.944879
O O9 0.272615 0.898332 0.712669
O O10 0.841060 0.894830 0.969437
O O11 0.444175 0.755903 0.534650
O O12 0.017018 0.724394 0.696136
#
# Coordination Sequence:
#
# PCOD9140748 Si02
#       6
#     4   4   4   4   4   4
#     4  11  29  46  74 109 156 203 255 331 388 464
#     4  11  26  48  74 115 150 204 260 322 391 460
#     4  11  25  49  74 113 153 198 268 321 393 464
#     4  12  26  50  82 110 152 212 266 319 398 464
#     4  12  27  50  75 113 153 204 264 327 393 462
#     4  11  27  47  77 110 154 207 261 322 389 472
#
# _framework density 22.758807999999998
#
# number of rings (size 3 to 8) (size 9 to 14) (size 15 to 20)
#    0.000    0.667    3.333    2.000   16.333    0.000 
#    0.000    0.000    0.000    0.000    0.000    0.000 
#    0.000    0.000    0.000    0.000    0.000    0.000 
#
# Total GULP energy -67061.501724 kJ/mol
# GULP energy per Si atom -5588.458477 kJ/mol
# Density = 2.270701 g / cm^3
# Si number density = 22.758808 Si / 1000 Ang^3
#
#
#
# Elastic Constant Matrix: (Units=GPa)
#
#
# Indices 1 2 3 4 5 6 
#
# 1 66.4959 39.6917 26.3502 0.0001 3.7600 -0.0002
# 2 39.6917 158.2402 59.3674 0.0001 -1.1136 -0.0001
# 3 26.3502 59.3674 103.7317 0.0003 4.1189 -0.0002
# 4 0.0001 0.0001 0.0003 45.6613 -0.0001 2.9512
# 5 3.7600 -1.1136 4.1189 -0.0001 20.6462 0.0002
# 6 -0.0002 -0.0001 -0.0002 2.9512 0.0002 38.8029
#
#
#
# Elastic Compliance Matrix: (Units=1/GPa)
#
#
# Indices 1 2 3 4 5 6 
#
# 1 0.018396 -0.003729 -0.002417 0.000000 -0.003069 0.000000
# 2 -0.003729 0.008842 -0.004192 0.000000 0.001992 0.000000
# 3 -0.002417 -0.004192 0.012746 0.000000 -0.002329 0.000000
# 4 0.000000 0.000000 0.000000 0.022009 0.000000 -0.001674
# 5 -0.003069 0.001992 -0.002329 0.000000 0.049566 0.000000
# 6 0.000000 0.000000 0.000000 -0.001674 0.000000 0.025899
#
#
# Mechanical properties :
#
#
# Convention : Reuss Voigt Hill
#
# Bulk Modulus (GPa) = 51.79414 64.36516 58.07965
# Shear Modulus (GPa) = 30.38258 34.55933 32.47096
#
# Velocity S-wave (km/s) = 3.65770 3.90103 3.78132
# Velocity P-wave (km/s) = 6.37539 6.97377 6.68128
#
# Compressibility (1/GPa) = 0.01930720
#
# Stress axis : x y z
#
# Youngs Moduli (GPa) = 54.36058 113.10101 78.45702
#
# Poissons Ratio (x) = 0.42177 0.18962
# Poissons Ratio (y) = 0.20272 0.32890
# Poissons Ratio (z) = 0.13138 0.47413
#
# Static dielectric constant tensor:
#      x y z
#    x 1.868120 0.000000 0.048250 
#    y 0.000000 1.910680 0.000000 
#    z 0.048250 0.000000 1.834990 
# 
# From -- ./inp_files/4774.got.cif
#   From: 2010.05.17/outbox.cif.g08.bks.cpg/sg9_3_cif.got.tgz:4774.got - 2010.06.03 20:04:27.
