data_PCOD9140476
_publ_section_title
;
Structure prediction by ZEFSAII (Michael W. Deem and Ramdas Pophale) SiO2 
 PCOD9140476
Probable space group: C C
;
_chemical_formula_sum "Si O2"
_cell_formula_units_Z 20
_cell_length_a 4.849807
_cell_length_b 13.949784
_cell_length_c 12.503663
_cell_angle_alpha 90.000000
_cell_angle_beta 79.582079
_cell_angle_gamma 90.000000
_cell_volume 831.974795
_symmetry_space_group_name_H-M "C C"
_symmetry_group_IT_number 9
_symmetry_cell_setting 'monoclinic'
loop_
_space_group_symop_operation_xyz
x,y,z
x,-y,1/2+z
1/2+x,1/2+y,z
1/2+x,1/2-y,1/2+z
loop_
_atom_site_type_symbol
_atom_site_label
_atom_site_fract_x
_atom_site_fract_y
_atom_site_fract_z
Si Si1 0.800940 0.284557 0.351920
Si Si2 0.646938 0.349801 0.568740
Si Si3 0.086265 0.440137 0.681895
Si Si4 0.007505 0.641354 0.615688
Si Si5 0.798624 0.346879 0.896635
O O1 0.794838 0.364832 0.444387
O O2 0.844435 0.328812 0.233561
O O3 0.484190 0.248595 0.377928
O O4 0.007452 0.193690 0.365874
O O5 0.321258 0.369780 0.615972
O O6 0.694301 0.236198 0.583629
O O7 0.802408 0.415709 0.640650
O O8 0.170024 0.546431 0.640541
O O9 0.982830 0.419658 0.810144
O O10 0.825331 0.625317 0.520152
#
# Coordination Sequence:
#
# PCOD9140476 Si02
#       5
#     4   4   4   4   4
#     4  11  24  46  74  97 147 186 231 294 356 402
#     4  11  25  48  67 103 141 185 234 297 339 419
#     4  12  25  46  71 103 142 181 241 287 349 417
#     4  11  26  46  75 102 141 192 230 289 362 406
#     4  11  24  46  71 105 141 182 242 289 340 436
#
# _framework density 24.039190000000001
#
# number of rings (size 3 to 8) (size 9 to 14) (size 15 to 20)
#    0.000    0.800    4.000    2.400    2.800    6.400 
#    3.600    0.000    0.000    0.000    0.000    0.000 
#    0.000    0.000    0.000    0.000    0.000    0.000 
#
# Total GULP energy -55748.874189 kJ/mol
# GULP energy per Si atom -5574.887419 kJ/mol
# Density = 2.398448 g / cm^3
# Si number density = 24.039190 Si / 1000 Ang^3
#
#
#
# Elastic Constant Matrix: (Units=GPa)
#
#
# Indices 1 2 3 4 5 6 
#
# 1 59.6203 -5.0083 20.7714 0.0000 -8.3616 0.0000
# 2 -5.0083 95.1383 37.9318 0.0000 -2.4592 0.0000
# 3 20.7714 37.9318 231.5354 0.0000 -7.3099 0.0000
# 4 0.0000 0.0000 0.0000 33.6622 0.0000 -1.0416
# 5 -8.3616 -2.4592 -7.3099 0.0000 28.7996 0.0000
# 6 0.0000 0.0000 0.0000 -1.0416 0.0000 16.0578
#
#
#
# Elastic Compliance Matrix: (Units=1/GPa)
#
#
# Indices 1 2 3 4 5 6 
#
# 1 0.018243 0.001796 -0.001773 0.000000 0.005000 0.000000
# 2 0.001796 0.011430 -0.002002 0.000000 0.000989 0.000000
# 3 -0.001773 -0.002002 0.004823 0.000000 0.000538 0.000000
# 4 0.000000 0.000000 0.000000 0.029767 0.000000 0.001931
# 5 0.005000 0.000989 0.000538 0.000000 0.036396 0.000000
# 6 0.000000 0.000000 0.000000 0.001931 0.000000 0.062400
#
#
# Mechanical properties :
#
#
# Convention : Reuss Voigt Hill
#
# Bulk Modulus (GPa) = 32.74671 54.85377 43.80024
# Shear Modulus (GPa) = 28.21753 37.87719 33.04736
#
# Velocity S-wave (km/s) = 3.42981 3.97374 3.71176
# Velocity P-wave (km/s) = 5.41633 6.62738 6.05222
#
# Compressibility (1/GPa) = 0.03053742
#
# Stress axis : x y z
#
# Youngs Moduli (GPa) = 54.81650 87.49277 207.33542
#
# Poissons Ratio (x) = -0.15718 0.36761
# Poissons Ratio (y) = -0.09848 0.41517
# Poissons Ratio (z) = 0.09719 0.17520
#
# Static dielectric constant tensor:
#      x y z
#    x 1.852230 0.000000 0.055100 
#    y 0.000000 1.936250 0.000000 
#    z 0.055100 0.000000 2.186730 
# 
# From -- ./inp_files/12837.got.cif
#   From: 2010.05.17/outbox.cif.g08.bks.cpg/sg9_7_cif.got.tgz:12837.got - 2010.06.03 20:04:27.
