data_PCOD9140686
_publ_section_title
;
Structure prediction by ZEFSAII (Michael W. Deem and Ramdas Pophale) SiO2 
 PCOD9140686
Probable space group: C C
;
_chemical_formula_sum "Si O2"
_cell_formula_units_Z 32
_cell_length_a 5.571251
_cell_length_b 18.772329
_cell_length_c 13.799209
_cell_angle_alpha 90.000000
_cell_angle_beta 127.028393
_cell_angle_gamma 90.000000
_cell_volume 1152.156385
_symmetry_space_group_name_H-M "C C"
_symmetry_group_IT_number 9
_symmetry_cell_setting 'monoclinic'
loop_
_space_group_symop_operation_xyz
x,y,z
x,-y,1/2+z
1/2+x,1/2+y,z
1/2+x,1/2-y,1/2+z
loop_
_atom_site_type_symbol
_atom_site_label
_atom_site_fract_x
_atom_site_fract_y
_atom_site_fract_z
Si Si1 0.709670 0.798679 0.094220
Si Si2 0.688131 0.529103 0.138879
Si Si3 0.616683 0.311272 0.025275
Si Si4 0.822214 0.843717 0.626794
Si Si5 0.248817 0.397636 0.791341
Si Si6 0.432689 0.898346 0.297417
Si Si7 0.586383 0.536933 0.893003
Si Si8 0.275105 0.258312 0.325731
O O1 0.430820 0.845509 0.065909
O O2 0.852190 0.775999 0.232119
O O3 0.977165 0.826517 0.094978
O O4 0.539410 0.750183 0.968959
O O5 0.967203 0.561814 0.266465
O O6 0.697169 0.449552 0.181673
O O7 0.426875 0.587616 0.093275
O O8 0.725707 0.521577 0.032420
O O9 0.372321 0.339054 0.892341
O O10 0.527802 0.184845 0.804201
O O11 0.101081 0.815611 0.761722
O O12 0.704004 0.772589 0.547545
O O13 0.602081 0.864506 0.659350
O O14 0.488686 0.459923 0.825604
O O15 0.300523 0.916239 0.374226
O O16 0.764637 0.926912 0.340977
#
# Coordination Sequence:
#
# PCOD9140686 Si02
#       8
#     4   4   4   4   4   4   4   4
#     4  11  27  47  74 120 164 215 263 342 420 492
#     4  11  27  50  80 110 166 218 275 336 423 496
#     4  11  27  44  76 117 158 208 265 343 418 494
#     4  11  25  46  77 113 154 211 263 345 413 488
#     4  11  25  50  77 113 163 208 281 335 415 494
#     4  11  28  52  74 119 155 211 277 335 403 506
#     4  11  28  48  82 108 157 219 272 333 407 504
#     4  11  27  49  78 118 165 210 272 345 411 494
#
# _framework density 27.774009
#
# number of rings (size 3 to 8) (size 9 to 14) (size 15 to 20)
#    0.000    1.000    2.500    0.750   14.000    3.000 
#    0.000    0.000    0.000    0.000    0.000    0.000 
#    0.000    0.000    0.000    0.000    0.000    0.000 
#
# Total GULP energy -89206.652053 kJ/mol
# GULP energy per Si atom -5575.415753 kJ/mol
# Density = 2.771079 g / cm^3
# Si number density = 27.774009 Si / 1000 Ang^3
#
#
#
# Elastic Constant Matrix: (Units=GPa)
#
#
# Indices 1 2 3 4 5 6 
#
# 1 166.4472 66.1446 47.6540 0.0000 -28.6880 0.0000
# 2 66.1446 161.5233 87.8927 0.0000 4.0965 0.0000
# 3 47.6540 87.8927 140.7523 0.0000 -28.4440 0.0000
# 4 0.0000 0.0000 0.0000 41.5143 0.0000 2.9129
# 5 -28.6880 4.0965 -28.4440 0.0000 68.6535 0.0000
# 6 0.0000 0.0000 0.0000 2.9129 0.0000 36.8299
#
#
#
# Elastic Compliance Matrix: (Units=1/GPa)
#
#
# Indices 1 2 3 4 5 6 
#
# 1 0.007945 -0.003450 0.000193 0.000000 0.003606 0.000000
# 2 -0.003450 0.011595 -0.007098 0.000000 -0.005074 0.000000
# 3 0.000193 -0.007098 0.012631 0.000000 0.005737 0.000000
# 4 0.000000 0.000000 0.000000 0.024223 0.000000 -0.001916
# 5 0.003606 -0.005074 0.005737 0.000000 0.018753 0.000000
# 6 0.000000 0.000000 0.000000 -0.001916 0.000000 0.027303
#
#
# Mechanical properties :
#
#
# Convention : Reuss Voigt Hill
#
# Bulk Modulus (GPa) = 87.24852 96.90061 92.07457
# Shear Modulus (GPa) = 39.37656 47.20164 43.28910
#
# Velocity S-wave (km/s) = 3.76939 4.12696 3.95222
# Velocity P-wave (km/s) = 7.10115 7.59432 7.35187
#
# Compressibility (1/GPa) = 0.01146151
#
# Stress axis : x y z
#
# Youngs Moduli (GPa) = 125.86267 86.24551 79.17116
#
# Poissons Ratio (x) = 0.29756 -0.01530
# Poissons Ratio (y) = 0.43425 0.56193
# Poissons Ratio (z) = -0.02432 0.61214
#
# Static dielectric constant tensor:
#      x y z
#    x 2.302100 0.000000 0.003290 
#    y 0.000000 2.305810 0.000000 
#    z 0.003290 0.000000 2.311920 
# 
# From -- ./inp_files/13716.got.cif
#   From: 2010.05.17/outbox.cif.g08.bks.cpg/sg9_7_cif.got.tgz:13716.got - 2010.06.03 20:04:27.
