data_PCOD9140912
_publ_section_title
;
Structure prediction by ZEFSAII (Michael W. Deem and Ramdas Pophale) SiO2 
 PCOD9140912
Probable space group: C C
;
_chemical_formula_sum "Si O2"
_cell_formula_units_Z 32
_cell_length_a 13.638855
_cell_length_b 22.051075
_cell_length_c 4.902597
_cell_angle_alpha 90.000000
_cell_angle_beta 111.141032
_cell_angle_gamma 90.000000
_cell_volume 1375.224968
_symmetry_space_group_name_H-M "C C"
_symmetry_group_IT_number 9
_symmetry_cell_setting 'monoclinic'
loop_
_space_group_symop_operation_xyz
x,y,z
x,-y,1/2+z
1/2+x,1/2+y,z
1/2+x,1/2-y,1/2+z
loop_
_atom_site_type_symbol
_atom_site_label
_atom_site_fract_x
_atom_site_fract_y
_atom_site_fract_z
Si Si1 0.114150 0.961764 0.634320
Si Si2 0.327132 0.902593 0.018656
Si Si3 0.963098 0.147346 0.153645
Si Si4 0.054279 0.540363 0.796151
Si Si5 0.798604 0.321341 0.489041
Si Si6 0.669252 0.213472 0.552367
Si Si7 0.472991 0.267888 0.145443
Si Si8 0.229578 0.639685 0.112846
O O1 0.236343 0.945845 0.808889
O O2 0.040954 0.906311 0.650178
O O3 0.092395 0.980394 0.303534
O O4 0.349013 0.855954 0.795356
O O5 0.437020 0.932710 0.214975
O O6 0.277764 0.868671 0.229945
O O7 0.011321 0.189921 0.438537
O O8 0.945284 0.189795 0.873186
O O9 0.849455 0.125162 0.149991
O O10 0.064231 0.518882 0.495293
O O11 0.146071 0.586750 0.970350
O O12 0.705402 0.281930 0.523821
O O13 0.873626 0.269714 0.440502
O O14 0.550236 0.216626 0.336004
O O15 0.690833 0.195147 0.881923
O O16 0.723568 0.163292 0.415359
#
# Coordination Sequence:
#
# PCOD9140912 Si02
#       8
#     4   4   4   4   4   4   4   4
#     4  12  26  45  68  93 128 176 227 281 335 376
#     4  12  24  43  66 100 130 167 224 278 328 406
#     4  12  24  44  65  97 136 171 222 275 325 398
#     4  12  26  45  68  93 128 176 227 281 335 376
#     4  12  22  39  66  98 130 169 206 256 346 392
#     4  12  23  41  65  97 135 175 215 263 324 403
#     4  12  23  41  65  97 135 175 215 263 324 403
#     4  12  24  44  65  97 136 171 222 275 325 398
#
# _framework density 23.268919
#
# number of rings (size 3 to 8) (size 9 to 14) (size 15 to 20)
#    0.000    0.000    2.500    9.000    0.000    1.000 
#    0.000    0.000    0.000    0.000    0.000    0.000 
#    0.000    0.000    0.000    0.000    0.000    0.000 
#
# Total GULP energy -89625.737074 kJ/mol
# GULP energy per Si atom -5601.608567 kJ/mol
# Density = 2.321596 g / cm^3
# Si number density = 23.268919 Si / 1000 Ang^3
#
#
#
# Elastic Constant Matrix: (Units=GPa)
#
#
# Indices 1 2 3 4 5 6 
#
# 1 71.5746 22.8709 1.3658 0.0000 11.6073 0.0000
# 2 22.8709 57.0854 10.8986 0.0000 -1.3270 0.0000
# 3 1.3658 10.8986 57.4271 0.0000 0.4014 0.0000
# 4 0.0000 0.0000 0.0000 44.2332 0.0000 -3.7832
# 5 11.6073 -1.3270 0.4014 0.0000 35.6706 0.0000
# 6 0.0000 0.0000 0.0000 -3.7832 0.0000 31.4454
#
#
#
# Elastic Compliance Matrix: (Units=1/GPa)
#
#
# Indices 1 2 3 4 5 6 
#
# 1 0.017215 -0.007225 0.001003 0.000000 -0.005882 0.000000
# 2 -0.007225 0.021227 -0.003879 0.000000 0.003184 0.000000
# 3 0.001003 -0.003879 0.018130 0.000000 -0.000675 0.000000
# 4 0.000000 0.000000 0.000000 0.022843 0.000000 0.002748
# 5 -0.005882 0.003184 -0.000675 0.000000 0.030074 0.000000
# 6 0.000000 0.000000 0.000000 0.002748 0.000000 0.032132
#
#
# Mechanical properties :
#
#
# Convention : Reuss Voigt Hill
#
# Bulk Modulus (GPa) = 27.49537 28.48418 27.98978
# Shear Modulus (GPa) = 28.74445 32.33329 30.53887
#
# Velocity S-wave (km/s) = 3.51852 3.73171 3.62668
# Velocity P-wave (km/s) = 5.32434 5.55296 5.43985
#
# Compressibility (1/GPa) = 0.03636976
#
# Stress axis : x y z
#
# Youngs Moduli (GPa) = 58.08912 47.10992 55.15602
#
# Poissons Ratio (x) = 0.34038 -0.05532
# Poissons Ratio (y) = 0.41971 0.21395
# Poissons Ratio (z) = -0.05826 0.18274
#
# Static dielectric constant tensor:
#      x y z
#    x 1.938620 0.000000 0.042170 
#    y 0.000000 1.856950 0.000000 
#    z 0.042170 0.000000 1.829780 
# 
# From -- ./inp_files/2598.got.cif
#   From: 2010.05.17/outbox.cif.g08.bks.cpg/sg9_2_cif.got.tgz:2598.got - 2010.06.03 20:04:27.
