data_PCOD9140155
_publ_section_title
;
Structure prediction by ZEFSAII (Michael W. Deem and Ramdas Pophale) SiO2 
 PCOD9140155
Probable space group: C C
;
_chemical_formula_sum "Si O2"
_cell_formula_units_Z 32
_cell_length_a 15.846025
_cell_length_b 8.258163
_cell_length_c 18.348850
_cell_angle_alpha 90.000000
_cell_angle_beta 148.804370
_cell_angle_gamma 90.000000
_cell_volume 1243.684847
_symmetry_space_group_name_H-M "C C"
_symmetry_group_IT_number 9
_symmetry_cell_setting 'monoclinic'
loop_
_space_group_symop_operation_xyz
x,y,z
x,-y,1/2+z
1/2+x,1/2+y,z
1/2+x,1/2-y,1/2+z
loop_
_atom_site_type_symbol
_atom_site_label
_atom_site_fract_x
_atom_site_fract_y
_atom_site_fract_z
Si Si1 0.084260 0.244694 0.485210
Si Si2 0.694825 0.575573 0.338714
Si Si3 0.375110 0.748169 0.085868
Si Si4 0.749180 0.912063 0.742268
Si Si5 0.364084 0.938538 0.810946
Si Si6 0.063047 0.274838 0.739951
Si Si7 0.763483 0.897923 0.999725
Si Si8 0.674311 0.795786 0.088923
O O1 0.237520 0.217602 0.545223
O O2 0.160191 0.289595 0.619541
O O3 0.943929 0.109961 0.382038
O O4 0.976646 0.404126 0.383264
O O5 0.560377 0.718970 0.247580
O O6 0.846072 0.623952 0.500879
O O7 0.749997 0.543923 0.297062
O O8 0.612850 0.407164 0.299323
O O9 0.331494 0.568606 0.024713
O O10 0.684962 0.859201 0.773522
O O11 0.695136 0.088097 0.674113
O O12 0.252596 0.876016 0.663496
O O13 0.488892 0.796388 0.926755
O O14 0.889213 0.246557 0.574129
O O15 0.088820 0.371775 0.833751
O O16 0.760627 0.885245 0.084954
#
# Coordination Sequence:
#
# PCOD9140155 Si02
#       8
#     4   4   4   4   4   4   4   4
#     4  11  23  44  69  98 135 175 229 278 333 400
#     4  11  25  45  65 101 136 178 228 275 337 403
#     4  11  24  44  66  97 137 173 226 280 331 399
#     4  11  23  44  70  97 134 179 228 277 333 405
#     4  11  23  45  67  97 139 175 225 282 333 400
#     4  11  25  42  69  96 136 176 224 276 338 400
#     4  11  24  44  65 100 134 175 226 275 337 400
#     4  11  25  44  69 100 137 177 228 279 336 405
#
# _framework density 25.729991999999999
#
# number of rings (size 3 to 8) (size 9 to 14) (size 15 to 20)
#    0.000    1.000    3.750    3.000    5.250    2.000 
#    2.250    0.000    0.000    0.000    0.000    0.000 
#    0.000    0.000    0.000    0.000    0.000    0.000 
#
# Total GULP energy -89563.155761 kJ/mol
# GULP energy per Si atom -5597.697235 kJ/mol
# Density = 2.567143 g / cm^3
# Si number density = 25.729992 Si / 1000 Ang^3
#
#
#
# Elastic Constant Matrix: (Units=GPa)
#
#
# Indices 1 2 3 4 5 6 
#
# 1 82.1277 13.2818 7.2027 0.0000 12.4060 0.0000
# 2 13.2818 60.7248 16.5136 0.0000 -9.6239 0.0000
# 3 7.2027 16.5136 97.2368 0.0000 5.6366 0.0000
# 4 0.0000 0.0000 0.0000 50.5999 0.0000 1.5363
# 5 12.4060 -9.6239 5.6366 0.0000 42.8702 0.0000
# 6 0.0000 0.0000 0.0000 1.5363 0.0000 13.2465
#
#
#
# Elastic Compliance Matrix: (Units=1/GPa)
#
#
# Indices 1 2 3 4 5 6 
#
# 1 0.013491 -0.003670 -0.000103 0.000000 -0.004714 0.000000
# 2 -0.003670 0.019085 -0.003304 0.000000 0.005781 0.000000
# 3 -0.000103 -0.003304 0.010978 0.000000 -0.002155 0.000000
# 4 0.000000 0.000000 0.000000 0.019833 0.000000 -0.002300
# 5 -0.004714 0.005781 -0.002155 0.000000 0.026272 0.000000
# 6 0.000000 0.000000 0.000000 -0.002300 0.000000 0.075759
#
#
# Mechanical properties :
#
#
# Convention : Reuss Voigt Hill
#
# Bulk Modulus (GPa) = 34.01404 34.89837 34.45620
# Shear Modulus (GPa) = 26.40318 34.88274 30.64296
#
# Velocity S-wave (km/s) = 3.20685 3.68601 3.45475
# Velocity P-wave (km/s) = 5.19232 5.63101 5.41611
#
# Compressibility (1/GPa) = 0.02939963
#
# Stress axis : x y z
#
# Youngs Moduli (GPa) = 74.12444 52.39658 91.09187
#
# Poissons Ratio (x) = 0.19229 0.00936
# Poissons Ratio (y) = 0.27203 0.30101
# Poissons Ratio (z) = 0.00762 0.17314
#
# Static dielectric constant tensor:
#      x y z
#    x 2.017160 0.000000 0.042890 
#    y 0.000000 2.043850 0.000000 
#    z 0.042890 0.000000 2.001950 
# 
# From -- ./inp_files/34065.got.cif
#   From: 2010.05.17/outbox.cif.g08.bks.cpg/sg9_18_cif.got.tgz:34065.got - 2010.06.03 20:04:27.
