data_PCOD9140406
_publ_section_title
;
Structure prediction by ZEFSAII (Michael W. Deem and Ramdas Pophale) SiO2 
 PCOD9140406
Probable space group: C C
;
_chemical_formula_sum "Si O2"
_cell_formula_units_Z 32
_cell_length_a 16.121924
_cell_length_b 16.892268
_cell_length_c 9.278802
_cell_angle_alpha 90.000000
_cell_angle_beta 31.210350
_cell_angle_gamma 90.000000
_cell_volume 1309.419055
_symmetry_space_group_name_H-M "C C"
_symmetry_group_IT_number 9
_symmetry_cell_setting 'monoclinic'
loop_
_space_group_symop_operation_xyz
x,y,z
x,-y,1/2+z
1/2+x,1/2+y,z
1/2+x,1/2-y,1/2+z
loop_
_atom_site_type_symbol
_atom_site_label
_atom_site_fract_x
_atom_site_fract_y
_atom_site_fract_z
Si Si1 0.771330 0.748681 0.899730
Si Si2 0.623791 0.415276 0.599243
Si Si3 0.865672 0.853045 0.212358
Si Si4 0.952511 0.865657 0.412748
Si Si5 0.204764 0.501321 0.833683
Si Si6 0.418305 0.203036 0.981493
Si Si7 0.705547 0.448933 0.189562
Si Si8 0.484129 0.964851 0.391865
O O1 0.858367 0.802835 0.652577
O O2 0.880482 0.727981 0.874354
O O3 0.719463 0.663742 0.913912
O O4 0.610661 0.787083 0.207448
O O5 0.582695 0.456114 0.508236
O O6 0.711889 0.478694 0.567790
O O7 0.486447 0.382092 0.906936
O O8 0.937452 0.849419 0.265426
O O9 0.733375 0.921137 0.390281
O O10 0.826939 0.764434 0.220059
O O11 0.863368 0.950925 0.566720
O O12 0.130769 0.877321 0.210507
O O13 0.109026 0.524841 0.834152
O O14 0.086644 0.445792 0.098354
O O15 0.376376 0.112504 0.077376
O O16 0.875402 0.459195 0.016841
#
# Coordination Sequence:
#
# PCOD9140406 Si02
#       8
#     4   4   4   4   4   4   4   4
#     4  11  24  47  74 105 151 201 244 306 384 449
#     4  11  24  44  74 111 148 195 249 311 375 440
#     4  11  25  45  75 113 146 194 257 309 370 459
#     4  12  25  47  78 112 146 204 260 305 375 461
#     4  12  25  46  75 107 150 198 255 305 374 452
#     4  11  24  47  74 106 149 199 242 308 386 439
#     4  12  25  45  76 110 147 198 254 311 373 450
#     4  12  26  47  72 110 151 195 247 315 381 440
#
# _framework density 24.438317999999999
#
# number of rings (size 3 to 8) (size 9 to 14) (size 15 to 20)
#    0.000    0.500    5.000    3.750    1.750    0.000 
#    4.500    3.750    0.000    0.000    0.000    0.000 
#    0.000    0.000    0.000    0.000    0.000    0.000 
#
# Total GULP energy -89450.432200 kJ/mol
# GULP energy per Si atom -5590.652013 kJ/mol
# Density = 2.438270 g / cm^3
# Si number density = 24.438318 Si / 1000 Ang^3
#
#
#
# Elastic Constant Matrix: (Units=GPa)
#
#
# Indices 1 2 3 4 5 6 
#
# 1 156.7373 33.2543 26.7093 -0.0007 18.5841 0.0005
# 2 33.2543 120.4921 27.0106 -0.0005 6.2840 0.0003
# 3 26.7093 27.0106 61.4638 -0.0006 10.9523 0.0005
# 4 -0.0007 -0.0005 -0.0006 41.5747 0.0003 3.7106
# 5 18.5841 6.2840 10.9523 0.0003 36.5809 -0.0003
# 6 0.0005 0.0003 0.0005 3.7106 -0.0003 22.0975
#
#
#
# Elastic Compliance Matrix: (Units=1/GPa)
#
#
# Indices 1 2 3 4 5 6 
#
# 1 0.007376 -0.001422 -0.002066 0.000000 -0.002884 0.000000
# 2 -0.001422 0.009486 -0.003580 0.000000 0.000165 0.000000
# 3 -0.002066 -0.003580 0.019484 0.000000 -0.004169 0.000000
# 4 0.000000 0.000000 0.000000 0.024419 0.000000 -0.004100
# 5 -0.002884 0.000165 -0.004169 0.000000 0.030022 0.000001
# 6 0.000000 0.000000 0.000000 -0.004100 0.000001 0.045943
#
#
# Mechanical properties :
#
#
# Convention : Reuss Voigt Hill
#
# Bulk Modulus (GPa) = 45.02750 56.96017 50.99383
# Shear Modulus (GPa) = 31.59193 36.83189 34.21191
#
# Velocity S-wave (km/s) = 3.59934 3.88640 3.74562
# Velocity P-wave (km/s) = 5.97818 6.59523 6.29427
#
# Compressibility (1/GPa) = 0.02220865
#
# Stress axis : x y z
#
# Youngs Moduli (GPa) = 135.57655 105.42210 51.32480
#
# Poissons Ratio (x) = 0.14991 0.10606
# Poissons Ratio (y) = 0.19279 0.18374
# Poissons Ratio (z) = 0.28015 0.37741
#
# Static dielectric constant tensor:
#      x y z
#    x 1.930130 0.000000 -0.047450 
#    y 0.000000 1.983170 0.000000 
#    z -0.047450 0.000000 1.995250 
# 
# From -- ./inp_files/9939.got.cif
#   From: 2010.05.17/outbox.cif.g08.bks.cpg/sg9_5_cif.got.tgz:9939.got - 2010.06.03 20:04:27.
