data_PCOD9140867
_publ_section_title
;
Structure prediction by ZEFSAII (Michael W. Deem and Ramdas Pophale) SiO2 
 PCOD9140867
Probable space group: C C
;
_chemical_formula_sum "Si O2"
_cell_formula_units_Z 24
_cell_length_a 10.327825
_cell_length_b 11.470082
_cell_length_c 9.071914
_cell_angle_alpha 90.000000
_cell_angle_beta 65.724134
_cell_angle_gamma 90.000000
_cell_volume 979.642130
_symmetry_space_group_name_H-M "C C"
_symmetry_group_IT_number 9
_symmetry_cell_setting 'monoclinic'
loop_
_space_group_symop_operation_xyz
x,y,z
x,-y,1/2+z
1/2+x,1/2+y,z
1/2+x,1/2-y,1/2+z
loop_
_atom_site_type_symbol
_atom_site_label
_atom_site_fract_x
_atom_site_fract_y
_atom_site_fract_z
Si Si1 0.342120 0.237411 0.843000
Si Si2 0.508275 0.787746 0.565015
Si Si3 0.869163 0.527834 0.627721
Si Si4 0.355478 0.534611 0.145912
Si Si5 0.179314 0.020250 0.962541
Si Si6 0.806099 0.841083 0.363521
O O1 0.320164 0.357047 0.768668
O O2 0.409584 0.146065 0.692267
O O3 0.432121 0.251787 0.949494
O O4 0.203993 0.161412 0.954889
O O5 0.484381 0.927097 0.585151
O O6 0.673502 0.763584 0.473102
O O7 0.436316 0.733605 0.742245
O O8 0.811507 0.533601 0.490306
O O9 0.721481 0.486972 0.776774
O O10 0.520504 0.496329 0.084244
O O11 0.265743 0.424971 0.244746
O O12 0.340269 0.577638 0.986481
#
# Coordination Sequence:
#
# PCOD9140867 Si02
#       6
#     4   4   4   4   4   4
#     4   9  24  42  74 100 142 184 238 295 354 424
#     4  11  27  46  72 106 143 190 239 296 359 423
#     4   9  21  41  69 101 133 185 229 286 350 425
#     4  12  26  45  71 106 145 184 241 298 356 419
#     4   9  21  39  69  98 135 181 226 282 352 415
#     4  12  31  45  75 103 150 186 243 297 355 428
#
# _framework density 24.498742
#
# number of rings (size 3 to 8) (size 9 to 14) (size 15 to 20)
#    1.000    0.667    0.000    2.000   14.000    1.333 
#    0.000    0.000    0.000    0.000    0.000    0.000 
#    0.000    0.000    0.000    0.000    0.000    0.000 
#
# Total GULP energy -67056.657295 kJ/mol
# GULP energy per Si atom -5588.054775 kJ/mol
# Density = 2.444298 g / cm^3
# Si number density = 24.498742 Si / 1000 Ang^3
#
#
#
# Elastic Constant Matrix: (Units=GPa)
#
#
# Indices 1 2 3 4 5 6 
#
# 1 51.1209 6.6711 35.7997 0.0000 -16.2374 0.0000
# 2 6.6711 85.7356 27.5258 0.0000 -10.4362 0.0000
# 3 35.7997 27.5258 95.2237 0.0000 -6.6615 0.0000
# 4 0.0000 0.0000 0.0000 53.3686 0.0000 -5.8979
# 5 -16.2374 -10.4362 -6.6615 0.0000 44.6924 0.0000
# 6 0.0000 0.0000 0.0000 -5.8979 0.0000 25.5476
#
#
#
# Elastic Compliance Matrix: (Units=1/GPa)
#
#
# Indices 1 2 3 4 5 6 
#
# 1 0.030420 0.002525 -0.011472 0.000000 0.009932 0.000000
# 2 0.002525 0.013343 -0.004572 0.000000 0.003352 0.000000
# 3 -0.011472 -0.004572 0.015936 0.000000 -0.002860 0.000000
# 4 0.000000 0.000000 0.000000 0.019228 0.000000 0.004439
# 5 0.009932 0.003352 -0.002860 0.000000 0.026340 0.000000
# 6 0.000000 0.000000 0.000000 0.004439 0.000000 0.040167
#
#
# Mechanical properties :
#
#
# Convention : Reuss Voigt Hill
#
# Bulk Modulus (GPa) = 30.61650 41.34148 35.97899
# Shear Modulus (GPa) = 27.26892 35.52730 31.39811
#
# Velocity S-wave (km/s) = 3.33990 3.81224 3.58386
# Velocity P-wave (km/s) = 5.23426 6.02405 5.64299
#
# Compressibility (1/GPa) = 0.03266213
#
# Stress axis : x y z
#
# Youngs Moduli (GPa) = 32.87299 74.94514 62.75155
#
# Poissons Ratio (x) = -0.18924 0.71986
# Poissons Ratio (y) = -0.08300 0.28689
# Poissons Ratio (z) = 0.37711 0.34264
#
# Static dielectric constant tensor:
#      x y z
#    x 1.897310 0.000000 -0.014920 
#    y 0.000000 2.008040 0.000000 
#    z -0.014920 0.000000 1.906070 
# 
# From -- ./inp_files/7098.got.cif
#   From: 2010.05.17/outbox.cif.g08.bks.cpg/sg9_4_cif.got.tgz:7098.got - 2010.06.03 20:04:27.
