data_PCOD9140031
_publ_section_title
;
Structure prediction by ZEFSAII (Michael W. Deem and Ramdas Pophale) SiO2 
 PCOD9140031
Probable space group: C C
;
_chemical_formula_sum "Si O2"
_cell_formula_units_Z 20
_cell_length_a 13.176804
_cell_length_b 4.768531
_cell_length_c 12.774657
_cell_angle_alpha 90.000000
_cell_angle_beta 65.017645
_cell_angle_gamma 90.000000
_cell_volume 727.582087
_symmetry_space_group_name_H-M "C C"
_symmetry_group_IT_number 9
_symmetry_cell_setting 'monoclinic'
loop_
_space_group_symop_operation_xyz
x,y,z
x,-y,1/2+z
1/2+x,1/2+y,z
1/2+x,1/2-y,1/2+z
loop_
_atom_site_type_symbol
_atom_site_label
_atom_site_fract_x
_atom_site_fract_y
_atom_site_fract_z
Si Si1 0.490540 0.250073 0.316020
Si Si2 0.865613 0.054364 0.547662
Si Si3 0.905611 0.244255 0.243911
Si Si4 0.205848 0.118285 0.988739
Si Si5 0.588111 0.923298 0.449520
O O1 0.395936 0.319885 0.445404
O O2 0.501577 0.548246 0.255382
O O3 0.446678 0.059063 0.241283
O O4 0.587070 0.085317 0.336682
O O5 0.862223 0.886246 0.656325
O O6 0.762700 0.266529 0.570262
O O7 0.973338 0.254647 0.497039
O O8 0.796536 0.256150 0.367310
O O9 0.095989 0.309353 0.021475
O O10 0.172823 0.809608 0.961375
#
# Coordination Sequence:
#
# PCOD9140031 Si02
#       5
#     4   4   4   4   4
#     4  11  22  46  71  99 142 187 227 296 355 409
#     4  11  26  48  73 102 148 187 239 293 355 420
#     4  11  25  44  77 100 144 191 236 292 359 417
#     4  11  24  44  70 104 137 186 236 290 351 418
#     4  12  23  46  71  97 145 185 226 299 354 412
#
# _framework density 27.488310999999999
#
# number of rings (size 3 to 8) (size 9 to 14) (size 15 to 20)
#    0.000    0.800    6.000    2.400    2.800    0.000 
#   10.800    0.000    0.000    0.000    0.000    0.000 
#    0.000    0.000    0.000    0.000    0.000    0.000 
#
# Total GULP energy -55851.439373 kJ/mol
# GULP energy per Si atom -5585.143937 kJ/mol
# Density = 2.742575 g / cm^3
# Si number density = 27.488311 Si / 1000 Ang^3
#
#
#
# Elastic Constant Matrix: (Units=GPa)
#
#
# Indices 1 2 3 4 5 6 
#
# 1 133.9161 45.2417 3.8720 0.0007 31.8621 0.0007
# 2 45.2417 200.9408 43.0904 0.0025 21.1816 0.0035
# 3 3.8720 43.0904 105.0257 -0.0001 25.6143 0.0007
# 4 0.0007 0.0025 -0.0001 56.1901 0.0003 22.7078
# 5 31.8621 21.1816 25.6143 0.0003 36.2039 0.0004
# 6 0.0007 0.0035 0.0007 22.7078 0.0004 45.5463
#
#
#
# Elastic Compliance Matrix: (Units=1/GPa)
#
#
# Indices 1 2 3 4 5 6 
#
# 1 0.010424 -0.001896 0.002853 0.000000 -0.010083 0.000000
# 2 -0.001896 0.005917 -0.002321 0.000000 -0.000151 0.000000
# 3 0.002853 -0.002321 0.012870 0.000000 -0.010259 0.000000
# 4 0.000000 0.000000 0.000000 0.022287 0.000000 -0.011112
# 5 -0.010083 -0.000151 -0.010259 0.000000 0.043842 0.000000
# 6 0.000000 0.000000 0.000000 -0.011112 0.000000 0.027496
#
#
# Mechanical properties :
#
#
# Convention : Reuss Voigt Hill
#
# Bulk Modulus (GPa) = 37.75872 69.36564 53.56218
# Shear Modulus (GPa) = 37.20433 50.76663 43.98548
#
# Velocity S-wave (km/s) = 3.68293 4.30215 4.00453
# Velocity P-wave (km/s) = 5.64371 7.06876 6.39605
#
# Compressibility (1/GPa) = 0.02648395
#
# Stress axis : x y z
#
# Youngs Moduli (GPa) = 95.92794 169.00165 77.69721
#
# Poissons Ratio (x) = 0.32041 -0.22165
# Poissons Ratio (y) = 0.18187 0.18033
# Poissons Ratio (z) = -0.27366 0.39224
#
# Static dielectric constant tensor:
#      x y z
#    x 2.200630 0.000000 -0.030800 
#    y 0.000000 2.100460 0.000000 
#    z -0.030800 0.000000 2.248180 
# 
# From -- ./inp_files/23923.got.cif
#   From: 2010.05.17/outbox.cif.g08.bks.cpg/sg9_12_cif.got.tgz:23923.got - 2010.06.03 20:04:27.
