data_PCOD9140458
_publ_section_title
;
Structure prediction by ZEFSAII (Michael W. Deem and Ramdas Pophale) SiO2 
 PCOD9140458
Probable space group: C C
;
_chemical_formula_sum "Si O2"
_cell_formula_units_Z 32
_cell_length_a 5.587186
_cell_length_b 21.876836
_cell_length_c 11.186518
_cell_angle_alpha 90.000000
_cell_angle_beta 67.259622
_cell_angle_gamma 90.000000
_cell_volume 1261.039581
_symmetry_space_group_name_H-M "C C"
_symmetry_group_IT_number 9
_symmetry_cell_setting 'monoclinic'
loop_
_space_group_symop_operation_xyz
x,y,z
x,-y,1/2+z
1/2+x,1/2+y,z
1/2+x,1/2-y,1/2+z
loop_
_atom_site_type_symbol
_atom_site_label
_atom_site_fract_x
_atom_site_fract_y
_atom_site_fract_z
Si Si1 0.665850 0.365067 0.638330
Si Si2 0.745580 0.591102 0.372522
Si Si3 0.778644 0.721066 0.466067
Si Si4 0.785612 0.249061 0.232735
Si Si5 0.950317 0.077818 0.974356
Si Si6 0.647940 0.164504 0.892821
Si Si7 0.941195 0.607816 0.734688
Si Si8 0.662854 0.038791 0.464975
O O1 0.817405 0.384644 0.727354
O O2 0.493577 0.305421 0.693148
O O3 0.506890 0.419917 0.604667
O O4 0.867104 0.349173 0.496743
O O5 0.711276 0.650718 0.462367
O O6 0.458630 0.564036 0.405119
O O7 0.972188 0.550987 0.389708
O O8 0.689192 0.745968 0.612190
O O9 0.661142 0.763077 0.383294
O O10 0.081653 0.729208 0.374350
O O11 0.868411 0.320153 0.232570
O O12 0.210473 0.070540 0.844387
O O13 0.851077 0.144179 0.953207
O O14 0.722089 0.031404 0.984166
O O15 0.687716 0.119532 0.774079
O O16 0.022852 0.573496 0.600696
#
# Coordination Sequence:
#
# PCOD9140458 Si02
#       8
#     4   4   4   4   4   4   4   4
#     4  11  26  47  80 115 159 210 270 343 410 496
#     4  12  29  50  78 121 160 209 270 340 406 477
#     4  12  24  44  80 114 166 206 271 341 417 493
#     4  12  23  47  77 118 164 210 269 341 421 495
#     4  11  27  54  77 113 157 215 273 331 408 486
#     4  11  24  45  78 111 153 211 262 331 414 487
#     4  11  26  48  77 114 157 212 271 332 412 489
#     4  12  31  51  81 114 162 215 276 335 398 487
#
# _framework density 25.375889999999998
#
# number of rings (size 3 to 8) (size 9 to 14) (size 15 to 20)
#    0.000    0.500    3.750    3.000   10.500    2.000 
#    0.000    0.000    0.000    0.000    0.000    0.000 
#    0.000    0.000    0.000    0.000    0.000    0.000 
#
# Total GULP energy -89441.971893 kJ/mol
# GULP energy per Si atom -5590.123243 kJ/mol
# Density = 2.531813 g / cm^3
# Si number density = 25.375890 Si / 1000 Ang^3
#
#
#
# Elastic Constant Matrix: (Units=GPa)
#
#
# Indices 1 2 3 4 5 6 
#
# 1 125.6821 47.2905 38.3892 0.0000 17.0562 0.0000
# 2 47.2905 111.7270 20.8283 0.0000 9.6628 0.0000
# 3 38.3892 20.8283 88.7963 0.0000 12.3172 0.0000
# 4 0.0000 0.0000 0.0000 25.5380 0.0000 2.3641
# 5 17.0562 9.6628 12.3172 0.0000 49.5612 0.0000
# 6 0.0000 0.0000 0.0000 2.3641 0.0000 57.2808
#
#
#
# Elastic Compliance Matrix: (Units=1/GPa)
#
#
# Indices 1 2 3 4 5 6 
#
# 1 0.010691 -0.003698 -0.003464 0.000000 -0.002097 0.000000
# 2 -0.003698 0.010724 -0.000832 0.000000 -0.000611 0.000000
# 3 -0.003464 -0.000832 0.013222 0.000000 -0.001932 0.000000
# 4 0.000000 0.000000 0.000000 0.039307 0.000000 -0.001622
# 5 -0.002097 -0.000611 -0.001932 0.000000 0.021498 0.000000
# 6 0.000000 0.000000 0.000000 -0.001622 0.000000 0.017525
#
#
# Mechanical properties :
#
#
# Convention : Reuss Voigt Hill
#
# Bulk Modulus (GPa) = 53.61987 59.91350 56.76669
# Shear Modulus (GPa) = 36.99050 41.12249 39.05649
#
# Velocity S-wave (km/s) = 3.82213 4.02995 3.92742
# Velocity P-wave (km/s) = 6.37608 6.73169 6.55630
#
# Compressibility (1/GPa) = 0.01864980
#
# Stress axis : x y z
#
# Youngs Moduli (GPa) = 93.54053 93.25273 75.63032
#
# Poissons Ratio (x) = 0.34484 0.26195
# Poissons Ratio (y) = 0.34590 0.06291
# Poissons Ratio (z) = 0.32398 0.07757
#
# Static dielectric constant tensor:
#      x y z
#    x 2.134280 0.000000 0.059250 
#    y 0.000000 2.040880 0.000000 
#    z 0.059250 0.000000 2.009520 
# 
# From -- ./inp_files/13736.got.cif
#   From: 2010.05.17/outbox.cif.g08.bks.cpg/sg9_7_cif.got.tgz:13736.got - 2010.06.03 20:04:27.
