data_PCOD9140733
_publ_section_title
;
Structure prediction by ZEFSAII (Michael W. Deem and Ramdas Pophale) SiO2 
 PCOD9140733
Probable space group: C C
;
_chemical_formula_sum "Si O2"
_cell_formula_units_Z 32
_cell_length_a 5.432930
_cell_length_b 27.442570
_cell_length_c 8.760242
_cell_angle_alpha 90.000000
_cell_angle_beta 100.754506
_cell_angle_gamma 90.000000
_cell_volume 1283.155059
_symmetry_space_group_name_H-M "C C"
_symmetry_group_IT_number 9
_symmetry_cell_setting 'monoclinic'
loop_
_space_group_symop_operation_xyz
x,y,z
x,-y,1/2+z
1/2+x,1/2+y,z
1/2+x,1/2-y,1/2+z
loop_
_atom_site_type_symbol
_atom_site_label
_atom_site_fract_x
_atom_site_fract_y
_atom_site_fract_z
Si Si1 0.967490 0.472810 0.522380
Si Si2 0.491104 0.152928 0.595975
Si Si3 0.726739 0.242597 0.468043
Si Si4 0.638607 0.804656 0.670460
Si Si5 0.079192 0.593195 0.314389
Si Si6 0.208256 0.904863 0.294633
Si Si7 0.967627 0.966161 0.008362
Si Si8 0.407550 0.335790 0.395698
O O1 0.949290 0.432000 0.388067
O O2 0.711749 0.504351 0.481372
O O3 0.971079 0.448200 0.690607
O O4 0.221062 0.502101 0.518196
O O5 0.522755 0.205090 0.516556
O O6 0.488615 0.108691 0.473830
O O7 0.274818 0.139945 0.690096
O O8 0.735297 0.154144 0.730710
O O9 0.821109 0.215565 0.325273
O O10 0.592070 0.290950 0.397468
O O11 0.934979 0.263165 0.606963
O O12 0.540260 0.855603 0.724740
O O13 0.758524 0.820484 0.526691
O O14 0.364884 0.574850 0.378509
O O15 0.048525 0.940990 0.174735
O O16 0.067684 0.884698 0.426421
#
# Coordination Sequence:
#
# PCOD9140733 Si02
#       8
#     4   4   4   4   4   4   4   4
#     4  12  28  50  84 118 165 207 280 337 417 496
#     4  11  25  48  76 111 163 200 270 324 404 486
#     4  11  25  49  75 116 146 217 263 336 394 476
#     4  11  27  48  77 111 160 202 275 327 404 487
#     4  11  25  52  75 118 153 215 264 337 414 474
#     4  12  28  50  78 116 160 215 264 338 419 479
#     4  12  27  51  83 119 162 213 272 345 407 506
#     4  12  25  46  78 107 155 205 260 332 395 484
#
# _framework density 24.938528999999999
#
# number of rings (size 3 to 8) (size 9 to 14) (size 15 to 20)
#    0.000    0.500    2.500    4.500    7.000    1.000 
#    6.750    0.000    0.000    0.000    0.000    0.000 
#    0.000    0.000    0.000    0.000    0.000    0.000 
#
# Total GULP energy -89469.760876 kJ/mol
# GULP energy per Si atom -5591.860055 kJ/mol
# Density = 2.488177 g / cm^3
# Si number density = 24.938529 Si / 1000 Ang^3
#
#
#
# Elastic Constant Matrix: (Units=GPa)
#
#
# Indices 1 2 3 4 5 6 
#
# 1 73.9807 34.6199 21.6111 0.0000 7.6270 0.0000
# 2 34.6199 96.4946 45.5568 0.0000 4.1493 0.0000
# 3 21.6111 45.5568 120.3543 0.0000 15.2224 0.0000
# 4 0.0000 0.0000 0.0000 45.1752 0.0000 3.2886
# 5 7.6270 4.1493 15.2224 0.0000 31.8321 0.0000
# 6 0.0000 0.0000 0.0000 3.2886 0.0000 33.4456
#
#
#
# Elastic Compliance Matrix: (Units=1/GPa)
#
#
# Indices 1 2 3 4 5 6 
#
# 1 0.016586 -0.005595 -0.000479 0.000000 -0.003016 0.000000
# 2 -0.005595 0.014519 -0.004706 0.000000 0.001698 0.000000
# 3 -0.000479 -0.004706 0.010733 0.000000 -0.004405 0.000000
# 4 0.000000 0.000000 0.000000 0.022296 0.000000 -0.002192
# 5 -0.003016 0.001698 -0.004405 0.000000 0.034022 0.000000
# 6 0.000000 0.000000 0.000000 -0.002192 0.000000 0.030115
#
#
# Mechanical properties :
#
#
# Convention : Reuss Voigt Hill
#
# Bulk Modulus (GPa) = 49.31276 54.93390 52.12333
# Shear Modulus (GPa) = 31.93034 34.69337 33.31185
#
# Velocity S-wave (km/s) = 3.58210 3.73387 3.65877
# Velocity P-wave (km/s) = 6.07661 6.37688 6.22855
#
# Compressibility (1/GPa) = 0.02027873
#
# Stress axis : x y z
#
# Youngs Moduli (GPa) = 60.29177 68.87357 93.16824
#
# Poissons Ratio (x) = 0.38533 0.04463
# Poissons Ratio (y) = 0.33732 0.43846
# Poissons Ratio (z) = 0.02888 0.32413
#
# Static dielectric constant tensor:
#      x y z
#    x 1.992470 0.000000 -0.040510 
#    y 0.000000 1.999620 0.000000 
#    z -0.040510 0.000000 2.000200 
# 
# From -- ./inp_files/4520.got.cif
#   From: 2010.05.17/outbox.cif.g08.bks.cpg/sg9_3_cif.got.tgz:4520.got - 2010.06.03 20:04:27.
