data_PCOD9140195
_publ_section_title
;
Structure prediction by ZEFSAII (Michael W. Deem and Ramdas Pophale) SiO2 
 PCOD9140195
Probable space group: C C
;
_chemical_formula_sum "Si O2"
_cell_formula_units_Z 28
_cell_length_a 11.580335
_cell_length_b 8.738542
_cell_length_c 13.850104
_cell_angle_alpha 90.000000
_cell_angle_beta 64.326251
_cell_angle_gamma 90.000000
_cell_volume 1263.196042
_symmetry_space_group_name_H-M "C C"
_symmetry_group_IT_number 9
_symmetry_cell_setting 'monoclinic'
loop_
_space_group_symop_operation_xyz
x,y,z
x,-y,1/2+z
1/2+x,1/2+y,z
1/2+x,1/2-y,1/2+z
loop_
_atom_site_type_symbol
_atom_site_label
_atom_site_fract_x
_atom_site_fract_y
_atom_site_fract_z
Si Si1 0.479630 0.348403 0.024400
Si Si2 0.216159 0.520616 0.552995
Si Si3 0.441880 0.969091 0.647370
Si Si4 0.768111 0.263128 0.147616
Si Si5 0.550505 0.500358 0.692734
Si Si6 0.264993 0.475867 0.821853
Si Si7 0.688464 0.309698 0.785789
O O1 0.333174 0.376358 0.046577
O O2 0.481002 0.178248 0.069232
O O3 0.518641 0.472920 0.091804
O O4 0.581203 0.357346 0.901861
O O5 0.269535 0.349575 0.555696
O O6 0.195320 0.553779 0.447587
O O7 0.073626 0.520532 0.650258
O O8 0.321386 0.903227 0.752080
O O9 0.381926 0.113731 0.612862
O O10 0.637109 0.357079 0.190813
O O11 0.764760 0.159252 0.244400
O O12 0.413921 0.500913 0.793326
O O13 0.631778 0.356865 0.701695
O O14 0.215903 0.631844 0.791618
#
# Coordination Sequence:
#
# PCOD9140195 Si02
#       7
#     4   4   4   4   4   4   4
#     4  12  23  47  75 104 148 198 236 304 368 433
#     4  12  24  47  73 102 147 190 238 299 365 436
#     4  11  25  46  72 106 146 192 243 299 366 429
#     4  11  25  44  70 104 140 189 241 297 359 426
#     4  11  23  45  70 103 145 184 240 303 353 429
#     4  12  23  44  72 104 140 186 240 300 361 424
#     4  11  23  45  76 105 144 195 244 302 362 421
#
# _framework density 22.165996
#
# number of rings (size 3 to 8) (size 9 to 14) (size 15 to 20)
#    0.000    0.571    7.143    0.000    0.000    4.571 
#    0.000    5.714    0.000    0.000    0.000    0.000 
#    0.000    0.000    0.000    0.000    0.000    0.000 
#
# Total GULP energy -78226.677982 kJ/mol
# GULP energy per Si atom -5587.619856 kJ/mol
# Density = 2.211554 g / cm^3
# Si number density = 22.165996 Si / 1000 Ang^3
#
#
#
# Elastic Constant Matrix: (Units=GPa)
#
#
# Indices 1 2 3 4 5 6 
#
# 1 158.5216 51.7029 49.5661 0.0000 -20.5389 0.0000
# 2 51.7029 78.9087 20.0404 0.0000 7.7836 0.0000
# 3 49.5661 20.0404 94.0625 0.0000 -8.9355 0.0000
# 4 0.0000 0.0000 0.0000 19.3654 0.0000 0.0754
# 5 -20.5389 7.7836 -8.9355 0.0000 38.3888 0.0000
# 6 0.0000 0.0000 0.0000 0.0754 0.0000 39.7548
#
#
#
# Elastic Compliance Matrix: (Units=1/GPa)
#
#
# Indices 1 2 3 4 5 6 
#
# 1 0.010270 -0.006439 -0.003471 0.000000 0.005992 0.000000
# 2 -0.006439 0.017899 -0.001117 0.000000 -0.007334 0.000000
# 3 -0.003471 -0.001117 0.012827 0.000000 0.001355 0.000000
# 4 0.000000 0.000000 0.000000 0.051639 0.000000 -0.000098
# 5 0.005992 -0.007334 0.001355 0.000000 0.031058 0.000000
# 6 0.000000 0.000000 0.000000 -0.000098 0.000000 0.025154
#
#
# Mechanical properties :
#
#
# Convention : Reuss Voigt Hill
#
# Bulk Modulus (GPa) = 52.79181 63.79019 58.29100
# Shear Modulus (GPa) = 28.21445 33.51401 30.86423
#
# Velocity S-wave (km/s) = 3.57160 3.89261 3.73555
# Velocity P-wave (km/s) = 6.39349 7.00315 6.70525
#
# Compressibility (1/GPa) = 0.01894233
#
# Stress axis : x y z
#
# Youngs Moduli (GPa) = 97.37172 55.86946 77.96133
#
# Poissons Ratio (x) = 0.35973 0.27058
# Poissons Ratio (y) = 0.62695 0.08710
# Poissons Ratio (z) = 0.33795 0.06242
#
# Static dielectric constant tensor:
#      x y z
#    x 1.820900 0.000000 0.005980 
#    y 0.000000 1.820410 0.000000 
#    z 0.005980 0.000000 1.833730 
# 
# From -- ./inp_files/24123.got.cif
#   From: 2010.05.17/outbox.cif.g08.bks.cpg/sg9_13_cif.got.tgz:24123.got - 2010.06.03 20:04:27.
