data_PCOD9140826
_publ_section_title
;
Structure prediction by ZEFSAII (Michael W. Deem and Ramdas Pophale) SiO2 
 PCOD9140826
Probable space group: C C
;
_chemical_formula_sum "Si O2"
_cell_formula_units_Z 28
_cell_length_a 13.858789
_cell_length_b 12.529757
_cell_length_c 7.329671
_cell_angle_alpha 90.000000
_cell_angle_beta 68.795851
_cell_angle_gamma 90.000000
_cell_volume 1186.607214
_symmetry_space_group_name_H-M "C C"
_symmetry_group_IT_number 9
_symmetry_cell_setting 'monoclinic'
loop_
_space_group_symop_operation_xyz
x,y,z
x,-y,1/2+z
1/2+x,1/2+y,z
1/2+x,1/2-y,1/2+z
loop_
_atom_site_type_symbol
_atom_site_label
_atom_site_fract_x
_atom_site_fract_y
_atom_site_fract_z
Si Si1 0.946780 0.266213 0.673640
Si Si2 0.778472 0.639358 0.844042
Si Si3 0.280286 0.596139 0.883921
Si Si4 0.572566 0.126816 0.791724
Si Si5 0.558008 0.280789 0.468415
Si Si6 0.340310 0.363750 0.746632
Si Si7 0.390348 0.041904 0.428961
O O1 0.869595 0.167830 0.732854
O O2 0.887568 0.375852 0.763252
O O3 0.010701 0.284158 0.448872
O O4 0.024422 0.256907 0.791751
O O5 0.658686 0.646002 0.880827
O O6 0.808039 0.758944 0.879460
O O7 0.858085 0.611116 0.625745
O O8 0.802904 0.547519 0.968676
O O9 0.176680 0.605462 0.834673
O O10 0.315804 0.473465 0.862394
O O11 0.276418 0.635416 0.097431
O O12 0.582561 0.179977 0.585246
O O13 0.499733 0.021139 0.845466
O O14 0.460245 0.347283 0.612078
#
# Coordination Sequence:
#
# PCOD9140826 Si02
#       7
#     4   4   4   4   4   4   4
#     4  11  26  50  70 110 148 189 258 311 365 468
#     4  12  26  46  76 108 153 192 252 318 380 446
#     4  11  28  45  74 104 150 195 252 304 387 440
#     4  12  27  45  81 108 139 208 253 304 385 455
#     4  11  27  49  73 106 153 192 249 314 379 437
#     4  11  26  48  70 110 149 198 249 319 363 466
#     4  12  24  47  74 108 148 194 251 318 371 452
#
# _framework density 23.596686999999999
#
# number of rings (size 3 to 8) (size 9 to 14) (size 15 to 20)
#    0.000    0.571    5.714    0.857   10.000    2.286 
#    0.000    0.000    0.000    0.000    0.000    0.000 
#    0.000    0.000    0.000    0.000    0.000    0.000 
#
# Total GULP energy -78402.668666 kJ/mol
# GULP energy per Si atom -5600.190619 kJ/mol
# Density = 2.354298 g / cm^3
# Si number density = 23.596687 Si / 1000 Ang^3
#
#
#
# Elastic Constant Matrix: (Units=GPa)
#
#
# Indices 1 2 3 4 5 6 
#
# 1 134.9360 50.7858 13.6154 0.0000 -13.0322 0.0000
# 2 50.7858 144.8755 7.0789 0.0000 -2.7721 0.0000
# 3 13.6154 7.0789 49.3277 0.0000 7.7351 0.0000
# 4 0.0000 0.0000 0.0000 30.4406 0.0000 1.5969
# 5 -13.0322 -2.7721 7.7351 0.0000 35.8143 0.0000
# 6 0.0000 0.0000 0.0000 1.5969 0.0000 33.9408
#
#
#
# Elastic Compliance Matrix: (Units=1/GPa)
#
#
# Indices 1 2 3 4 5 6 
#
# 1 0.009171 -0.003014 -0.002676 0.000000 0.003682 0.000000
# 2 -0.003014 0.007963 -0.000244 0.000000 -0.000428 0.000000
# 3 -0.002676 -0.000244 0.021945 0.000000 -0.005732 0.000000
# 4 0.000000 0.000000 0.000000 0.032932 0.000000 -0.001549
# 5 0.003682 -0.000428 -0.005732 0.000000 0.030467 0.000000
# 6 0.000000 0.000000 0.000000 -0.001549 0.000000 0.029536
#
#
# Mechanical properties :
#
#
# Convention : Reuss Voigt Hill
#
# Bulk Modulus (GPa) = 36.74937 52.45546 44.60242
# Shear Modulus (GPa) = 32.69024 37.21640 34.95332
#
# Velocity S-wave (km/s) = 3.72610 3.97569 3.85292
# Velocity P-wave (km/s) = 5.84119 6.58431 6.22385
#
# Compressibility (1/GPa) = 0.02721135
#
# Stress axis : x y z
#
# Youngs Moduli (GPa) = 109.04213 125.58688 45.56812
#
# Poissons Ratio (x) = 0.37847 0.12195
# Poissons Ratio (y) = 0.32861 0.01111
# Poissons Ratio (z) = 0.29182 0.03062
#
# Static dielectric constant tensor:
#      x y z
#    x 1.913570 0.000000 0.041760 
#    y 0.000000 1.868010 0.000000 
#    z 0.041760 0.000000 1.917760 
# 
# From -- ./inp_files/9207.got.cif
#   From: 2010.05.17/outbox.cif.g08.bks.cpg/sg9_5_cif.got.tgz:9207.got - 2010.06.03 20:04:27.
