data_PCOD9140224
_publ_section_title
;
Structure prediction by ZEFSAII (Michael W. Deem and Ramdas Pophale) SiO2 
 PCOD9140224
Probable space group: C C
;
_chemical_formula_sum "Si O2"
_cell_formula_units_Z 20
_cell_length_a 8.223215
_cell_length_b 14.903428
_cell_length_c 6.022966
_cell_angle_alpha 90.000000
_cell_angle_beta 94.687202
_cell_angle_gamma 90.000000
_cell_volume 735.670548
_symmetry_space_group_name_H-M "C C"
_symmetry_group_IT_number 9
_symmetry_cell_setting 'monoclinic'
loop_
_space_group_symop_operation_xyz
x,y,z
x,-y,1/2+z
1/2+x,1/2+y,z
1/2+x,1/2-y,1/2+z
loop_
_atom_site_type_symbol
_atom_site_label
_atom_site_fract_x
_atom_site_fract_y
_atom_site_fract_z
Si Si1 0.805420 0.847702 0.846090
Si Si2 0.497143 0.460799 0.582589
Si Si3 0.869146 0.421046 0.726435
Si Si4 0.575282 0.766678 0.528357
Si Si5 0.040432 0.393091 0.146500
O O1 0.700563 0.763427 0.745887
O O2 0.859374 0.886783 0.614542
O O3 0.968793 0.821524 0.990885
O O4 0.691545 0.906990 0.991328
O O5 0.474392 0.491085 0.325067
O O6 0.687387 0.435294 0.623840
O O7 0.959436 0.349725 0.585705
O O8 0.971774 0.514837 0.748090
O O9 0.884222 0.374558 0.969566
O O10 0.605778 0.805603 0.284933
#
# Coordination Sequence:
#
# PCOD9140224 Si02
#       5
#     4   4   4   4   4
#     4  11  31  44  78 110 158 209 269 327 407 469
#     4  12  28  48  79 119 161 205 272 335 394 481
#     4  11  23  45  78 110 149 207 259 325 397 475
#     4  11  27  49  73 107 158 206 264 333 399 477
#     4  11  23  46  76 104 146 205 260 318 393 472
#
# _framework density 27.18608
#
# number of rings (size 3 to 8) (size 9 to 14) (size 15 to 20)
#    0.000    0.800    4.000    0.000   14.000    1.600 
#    0.000    0.000    0.000    0.000    0.000    0.000 
#    0.000    0.000    0.000    0.000    0.000    0.000 
#
# Total GULP energy -55759.023495 kJ/mol
# GULP energy per Si atom -5575.902350 kJ/mol
# Density = 2.712420 g / cm^3
# Si number density = 27.186080 Si / 1000 Ang^3
#
#
#
# Elastic Constant Matrix: (Units=GPa)
#
#
# Indices 1 2 3 4 5 6 
#
# 1 62.9722 -12.0355 11.8647 0.0000 13.5222 0.0000
# 2 -12.0355 32.4045 7.9033 0.0000 -5.1233 0.0000
# 3 11.8647 7.9033 75.6087 0.0000 20.0239 0.0000
# 4 0.0000 0.0000 0.0000 48.6562 0.0000 4.2316
# 5 13.5222 -5.1233 20.0239 0.0000 60.2781 0.0000
# 6 0.0000 0.0000 0.0000 4.2316 0.0000 41.0031
#
#
#
# Elastic Compliance Matrix: (Units=1/GPa)
#
#
# Indices 1 2 3 4 5 6 
#
# 1 0.018343 0.007134 -0.002955 0.000000 -0.002527 0.000000
# 2 0.007134 0.035421 -0.005697 0.000000 0.003303 0.000000
# 3 -0.002955 -0.005697 0.015611 0.000000 -0.005007 0.000000
# 4 0.000000 0.000000 0.000000 0.020738 0.000000 -0.002140
# 5 -0.002527 0.003303 -0.005007 0.000000 0.019101 0.000000
# 6 0.000000 0.000000 0.000000 -0.002140 0.000000 0.024609
#
#
# Mechanical properties :
#
#
# Convention : Reuss Voigt Hill
#
# Bulk Modulus (GPa) = 15.07384 20.71671 17.89528
# Shear Modulus (GPa) = 31.45202 40.87101 36.16152
#
# Velocity S-wave (km/s) = 3.40504 3.88155 3.65108
# Velocity P-wave (km/s) = 4.58430 5.26550 4.93666
#
# Compressibility (1/GPa) = 0.06634009
#
# Stress axis : x y z
#
# Youngs Moduli (GPa) = 54.51718 28.23169 64.05636
#
# Poissons Ratio (x) = -0.20140 0.18928
# Poissons Ratio (y) = -0.38892 0.36491
# Poissons Ratio (z) = 0.16109 0.16083
#
# Static dielectric constant tensor:
#      x y z
#    x 2.109160 0.000000 -0.030760 
#    y 0.000000 2.232920 0.000000 
#    z -0.030760 0.000000 2.322530 
# 
# From -- ./inp_files/486.got.cif
#   From: 2010.05.17/outbox.cif.g08.bks.cpg/sg9_1_cif.got.tgz:486.got - 2010.06.03 20:04:27.
