data_PCOD9140425
_publ_section_title
;
Structure prediction by ZEFSAII (Michael W. Deem and Ramdas Pophale) SiO2 
 PCOD9140425
Probable space group: C C
;
_chemical_formula_sum "Si O2"
_cell_formula_units_Z 28
_cell_length_a 11.654988
_cell_length_b 7.442500
_cell_length_c 15.719353
_cell_angle_alpha 90.000000
_cell_angle_beta 56.266467
_cell_angle_gamma 90.000000
_cell_volume 1133.953112
_symmetry_space_group_name_H-M "C C"
_symmetry_group_IT_number 9
_symmetry_cell_setting 'monoclinic'
loop_
_space_group_symop_operation_xyz
x,y,z
x,-y,1/2+z
1/2+x,1/2+y,z
1/2+x,1/2-y,1/2+z
loop_
_atom_site_type_symbol
_atom_site_label
_atom_site_fract_x
_atom_site_fract_y
_atom_site_fract_z
Si Si1 0.170710 0.296414 0.227480
Si Si2 0.644836 0.934608 0.883599
Si Si3 0.422388 0.693138 0.513327
Si Si4 0.881597 0.373155 0.048059
Si Si5 0.234562 0.893234 0.863197
Si Si6 0.399707 0.215989 0.738892
Si Si7 0.289772 0.395625 0.461732
O O1 0.107679 0.430452 0.323308
O O2 0.310721 0.368972 0.128982
O O3 0.209975 0.132760 0.272644
O O4 0.056076 0.258062 0.204309
O O5 0.797356 0.879185 0.796382
O O6 0.654917 0.012683 0.975384
O O7 0.520934 0.796173 0.944132
O O8 0.581052 0.635020 0.465802
O O9 0.380917 0.567343 0.450397
O O10 0.385761 0.910426 0.525785
O O11 0.889360 0.336697 0.144417
O O12 0.769581 0.246492 0.047364
O O13 0.326437 0.735704 0.867555
O O14 0.323492 0.070844 0.831417
#
# Coordination Sequence:
#
# PCOD9140425 Si02
#       7
#     4   4   4   4   4   4   4
#     4  11  24  45  71 104 149 187 245 305 351 435
#     4  11  25  47  71 105 147 189 241 301 366 427
#     4  12  24  48  72 106 151 186 243 301 363 427
#     4  12  25  48  74 107 145 191 243 300 364 438
#     4  11  25  46  71 110 144 192 243 299 362 433
#     4  12  26  46  78 107 144 198 244 299 369 431
#     4  11  25  44  71 103 144 191 231 297 361 427
#
# _framework density 24.692378000000001
#
# number of rings (size 3 to 8) (size 9 to 14) (size 15 to 20)
#    0.000    0.571    4.286    4.286    2.000    0.000 
#    5.143    1.429    0.000    0.000    0.000    0.000 
#    0.000    0.000    0.000    0.000    0.000    0.000 
#
# Total GULP energy -77980.588957 kJ/mol
# GULP energy per Si atom -5570.042068 kJ/mol
# Density = 2.463618 g / cm^3
# Si number density = 24.692378 Si / 1000 Ang^3
#
#
#
# Elastic Constant Matrix: (Units=GPa)
#
#
# Indices 1 2 3 4 5 6 
#
# 1 123.4958 34.6422 49.1706 0.0000 24.7712 0.0000
# 2 34.6422 102.1768 11.2361 0.0000 24.9300 0.0000
# 3 49.1706 11.2361 108.8126 0.0000 -3.6159 0.0000
# 4 0.0000 0.0000 0.0000 29.3787 0.0000 8.6339
# 5 24.7712 24.9300 -3.6159 0.0000 42.6727 0.0000
# 6 0.0000 0.0000 0.0000 8.6339 0.0000 28.7212
#
#
#
# Elastic Compliance Matrix: (Units=1/GPa)
#
#
# Indices 1 2 3 4 5 6 
#
# 1 0.012098 -0.001951 -0.005477 0.000000 -0.006347 0.000000
# 2 -0.001951 0.011947 -0.000548 0.000000 -0.005893 0.000000
# 3 -0.005477 -0.000548 0.011871 0.000000 0.004505 0.000000
# 4 0.000000 0.000000 0.000000 0.037337 0.000000 -0.011224
# 5 -0.006347 -0.005893 0.004505 0.000000 0.030943 0.000000
# 6 0.000000 0.000000 0.000000 -0.011224 0.000000 0.038192
#
#
# Mechanical properties :
#
#
# Convention : Reuss Voigt Hill
#
# Bulk Modulus (GPa) = 50.08655 58.28699 54.18677
# Shear Modulus (GPa) = 30.30422 36.11695 33.21058
#
# Velocity S-wave (km/s) = 3.50704 3.82864 3.67137
# Velocity P-wave (km/s) = 6.06031 6.57276 6.32173
#
# Compressibility (1/GPa) = 0.01996544
#
# Stress axis : x y z
#
# Youngs Moduli (GPa) = 82.65571 83.70618 84.23800
#
# Poissons Ratio (x) = 0.16331 0.46133
# Poissons Ratio (y) = 0.16126 0.04615
# Poissons Ratio (z) = 0.45267 0.04586
#
# Static dielectric constant tensor:
#      x y z
#    x 1.955580 0.000000 0.007130 
#    y 0.000000 2.107270 0.000000 
#    z 0.007130 0.000000 1.983760 
# 
# From -- ./inp_files/24331.got.cif
#   From: 2010.05.17/outbox.cif.g08.bks.cpg/sg9_13_cif.got.tgz:24331.got - 2010.06.03 20:04:27.
