data_PCOD9140384
_publ_section_title
;
Structure prediction by ZEFSAII (Michael W. Deem and Ramdas Pophale) SiO2 
 PCOD9140384
Probable space group: C C
;
_chemical_formula_sum "Si O2"
_cell_formula_units_Z 32
_cell_length_a 9.459703
_cell_length_b 9.712052
_cell_length_c 29.179489
_cell_angle_alpha 90.000000
_cell_angle_beta 143.712968
_cell_angle_gamma 90.000000
_cell_volume 1586.586344
_symmetry_space_group_name_H-M "C C"
_symmetry_group_IT_number 9
_symmetry_cell_setting 'monoclinic'
loop_
_space_group_symop_operation_xyz
x,y,z
x,-y,1/2+z
1/2+x,1/2+y,z
1/2+x,1/2-y,1/2+z
loop_
_atom_site_type_symbol
_atom_site_label
_atom_site_fract_x
_atom_site_fract_y
_atom_site_fract_z
Si Si1 0.110170 0.928119 0.115580
Si Si2 0.811381 0.436800 0.843214
Si Si3 0.340949 0.436999 0.948761
Si Si4 0.281178 0.380231 0.681535
Si Si5 0.876037 0.755281 0.447867
Si Si6 0.895570 0.750230 0.881830
Si Si7 0.548243 0.865033 0.718638
Si Si8 0.781286 0.103007 0.611486
O O1 0.199236 0.772365 0.146754
O O2 0.950255 0.967473 0.117676
O O3 0.335399 0.027902 0.169887
O O4 0.948988 0.933623 0.027974
O O5 0.567061 0.398324 0.754007
O O6 0.799362 0.594296 0.857623
O O7 0.839362 0.333217 0.892896
O O8 0.053159 0.428208 0.876686
O O9 0.418365 0.584179 0.948290
O O10 0.431571 0.313300 0.941157
O O11 0.175992 0.492189 0.618999
O O12 0.196736 0.403796 0.711756
O O13 0.639941 0.752413 0.417273
O O14 0.087612 0.689142 0.532528
O O15 0.715686 0.847573 0.806386
O O16 0.436520 0.714717 0.679606
#
# Coordination Sequence:
#
# PCOD9140384 Si02
#       8
#     4   4   4   4   4   4   4   4
#     4  11  26  42  65 100 130 170 220 262 328 387
#     4  11  24  46  64  96 131 176 218 263 326 386
#     4  11  26  43  67  98 131 171 217 272 324 384
#     4  11  26  42  68  95 132 170 222 263 320 394
#     4  11  24  44  66  92 133 173 215 271 322 380
#     4  11  26  41  68  95 132 169 221 266 326 387
#     4  11  24  45  62  96 133 168 214 271 322 382
#     4  11  24  45  66  90 134 173 209 272 322 384
#
# _framework density 20.169089
#
# number of rings (size 3 to 8) (size 9 to 14) (size 15 to 20)
#    0.000    1.000    5.000    0.000    7.000    3.000 
#    0.000    0.000    0.000    0.000    0.000    0.000 
#    0.000    0.000    0.000    0.000    0.000    0.000 
#
# Total GULP energy -89481.596822 kJ/mol
# GULP energy per Si atom -5592.599801 kJ/mol
# Density = 2.012318 g / cm^3
# Si number density = 20.169089 Si / 1000 Ang^3
#
#
#
# Elastic Constant Matrix: (Units=GPa)
#
#
# Indices 1 2 3 4 5 6 
#
# 1 48.6542 33.4995 -4.7142 0.0000 -5.3489 0.0000
# 2 33.4995 71.2672 -4.2070 0.0000 -8.6408 0.0000
# 3 -4.7142 -4.2070 48.2314 0.0000 6.6181 0.0000
# 4 0.0000 0.0000 0.0000 33.6521 0.0000 -4.2517
# 5 -5.3489 -8.6408 6.6181 0.0000 28.6365 0.0000
# 6 0.0000 0.0000 0.0000 -4.2517 0.0000 24.7988
#
#
#
# Elastic Compliance Matrix: (Units=1/GPa)
#
#
# Indices 1 2 3 4 5 6 
#
# 1 0.030564 -0.014142 0.001607 0.000000 0.001070 0.000000
# 2 -0.014142 0.021130 -0.000053 0.000000 0.003747 0.000000
# 3 0.001607 -0.000053 0.021530 0.000000 -0.004692 0.000000
# 4 0.000000 0.000000 0.000000 0.030374 0.000000 0.005208
# 5 0.001070 0.003747 -0.004692 0.000000 0.037335 0.000000
# 6 0.000000 0.000000 0.000000 0.005208 0.000000 0.041217
#
#
# Mechanical properties :
#
#
# Convention : Reuss Voigt Hill
#
# Bulk Modulus (GPa) = 20.81296 24.14548 22.47922
# Shear Modulus (GPa) = 22.38719 26.98912 24.68816
#
# Velocity S-wave (km/s) = 3.33524 3.66203 3.50245
# Velocity P-wave (km/s) = 5.01731 5.46609 5.24650
#
# Compressibility (1/GPa) = 0.04804699
#
# Stress axis : x y z
#
# Youngs Moduli (GPa) = 32.71859 47.32528 46.44774
#
# Poissons Ratio (x) = 0.66927 -0.07464
# Poissons Ratio (y) = 0.46271 0.00247
# Poissons Ratio (z) = -0.05258 0.00252
#
# Static dielectric constant tensor:
#      x y z
#    x 1.686660 0.000000 0.009940 
#    y 0.000000 1.691280 0.000000 
#    z 0.009940 0.000000 1.713020 
# 
# From -- ./inp_files/37163.got.cif
#   From: 2010.05.17/outbox.cif.g08.bks.cpg/sg9_19_cif.got.tgz:37163.got - 2010.06.03 20:04:27.
