data_PCOD9140202
_publ_section_title
;
Structure prediction by ZEFSAII (Michael W. Deem and Ramdas Pophale) SiO2 
 PCOD9140202
Probable space group: C C
;
_chemical_formula_sum "Si O2"
_cell_formula_units_Z 28
_cell_length_a 5.996937
_cell_length_b 17.581357
_cell_length_c 10.879255
_cell_angle_alpha 90.000000
_cell_angle_beta 91.774089
_cell_angle_gamma 90.000000
_cell_volume 1146.496708
_symmetry_space_group_name_H-M "C C"
_symmetry_group_IT_number 9
_symmetry_cell_setting 'monoclinic'
loop_
_space_group_symop_operation_xyz
x,y,z
x,-y,1/2+z
1/2+x,1/2+y,z
1/2+x,1/2-y,1/2+z
loop_
_atom_site_type_symbol
_atom_site_label
_atom_site_fract_x
_atom_site_fract_y
_atom_site_fract_z
Si Si1 0.625000 0.024207 0.106530
Si Si2 0.681186 0.718950 0.761207
Si Si3 0.290092 0.093578 0.589487
Si Si4 0.501831 0.386008 0.460158
Si Si5 0.532315 0.665696 0.362594
Si Si6 0.002739 0.999750 0.269055
Si Si7 0.356575 0.830862 0.662565
O O1 0.471508 0.086957 0.168987
O O2 0.494598 0.955027 0.037522
O O3 0.758189 0.979181 0.215385
O O4 0.783938 0.077367 0.022389
O O5 0.838741 0.658884 0.691849
O O6 0.509577 0.670537 0.842735
O O7 0.553104 0.769296 0.656624
O O8 0.830849 0.775185 0.847518
O O9 0.128107 0.135402 0.491635
O O10 0.155173 0.029755 0.662261
O O11 0.592804 0.461764 0.394069
O O12 0.665927 0.343497 0.557256
O O13 0.475446 0.588617 0.288545
O O14 0.739619 0.694243 0.286180
#
# Coordination Sequence:
#
# PCOD9140202 Si02
#       7
#     4   4   4   4   4   4   4
#     4  12  23  45  73 110 148 192 247 311 371 441
#     4  11  27  48  74 110 154 196 248 310 379 446
#     4  11  27  46  76 109 144 198 256 305 371 447
#     4  11  26  45  74 109 150 191 251 311 367 449
#     4  12  24  46  73 109 151 196 249 310 372 443
#     4  11  23  45  71 108 144 191 251 308 363 443
#     4  12  24  45  71 107 153 196 240 311 373 439
#
# _framework density 24.422224
#
# number of rings (size 3 to 8) (size 9 to 14) (size 15 to 20)
#    0.000    0.571    4.286    2.571    2.000    9.143 
#    0.000    0.000    0.000    0.000    0.000    0.000 
#    0.000    0.000    0.000    0.000    0.000    0.000 
#
# Total GULP energy -78057.315348 kJ/mol
# GULP energy per Si atom -5575.522525 kJ/mol
# Density = 2.436664 g / cm^3
# Si number density = 24.422224 Si / 1000 Ang^3
#
#
#
# Elastic Constant Matrix: (Units=GPa)
#
#
# Indices 1 2 3 4 5 6 
#
# 1 71.7075 64.9783 25.7523 0.0000 3.0864 0.0000
# 2 64.9783 162.3252 45.9596 0.0000 11.2797 0.0000
# 3 25.7523 45.9596 94.2503 0.0000 0.9511 0.0000
# 4 0.0000 0.0000 0.0000 19.5498 0.0000 6.9650
# 5 3.0864 11.2797 0.9511 0.0000 19.0730 0.0000
# 6 0.0000 0.0000 0.0000 6.9650 0.0000 50.4159
#
#
#
# Elastic Compliance Matrix: (Units=1/GPa)
#
#
# Indices 1 2 3 4 5 6 
#
# 1 0.022248 -0.008451 -0.001973 0.000000 0.001496 0.000000
# 2 -0.008451 0.010685 -0.002853 0.000000 -0.004809 0.000000
# 3 -0.001973 -0.002853 0.012526 0.000000 0.001382 0.000000
# 4 0.000000 0.000000 0.000000 0.053799 0.000000 -0.007432
# 5 0.001496 -0.004809 0.001382 0.000000 0.054963 0.000000
# 6 0.000000 0.000000 0.000000 -0.007432 0.000000 0.020862
#
#
# Mechanical properties :
#
#
# Convention : Reuss Voigt Hill
#
# Bulk Modulus (GPa) = 52.89417 66.85150 59.87283
# Shear Modulus (GPa) = 24.04549 30.58061 27.31305
#
# Velocity S-wave (km/s) = 3.14120 3.54243 3.34783
# Velocity P-wave (km/s) = 5.90435 6.64563 6.28593
#
# Compressibility (1/GPa) = 0.01890568
#
# Stress axis : x y z
#
# Youngs Moduli (GPa) = 44.94859 93.58610 79.83185
#
# Poissons Ratio (x) = 0.79090 0.15750
# Poissons Ratio (y) = 0.37986 0.22775
# Poissons Ratio (z) = 0.08868 0.26699
#
# Static dielectric constant tensor:
#      x y z
#    x 2.071560 0.000000 -0.004590 
#    y 0.000000 1.940350 0.000000 
#    z -0.004590 0.000000 1.978420 
# 
# From -- ./inp_files/13117.got.cif
#   From: 2010.05.17/outbox.cif.g08.bks.cpg/sg9_7_cif.got.tgz:13117.got - 2010.06.03 20:04:27.
