data_PCOD9140487
_publ_section_title
;
Structure prediction by ZEFSAII (Michael W. Deem and Ramdas Pophale) SiO2 
 PCOD9140487
Probable space group: C C
;
_chemical_formula_sum "Si O2"
_cell_formula_units_Z 32
_cell_length_a 16.491544
_cell_length_b 16.223231
_cell_length_c 9.747716
_cell_angle_alpha 90.000000
_cell_angle_beta 35.251630
_cell_angle_gamma 90.000000
_cell_volume 1505.234278
_symmetry_space_group_name_H-M "C C"
_symmetry_group_IT_number 9
_symmetry_cell_setting 'monoclinic'
loop_
_space_group_symop_operation_xyz
x,y,z
x,-y,1/2+z
1/2+x,1/2+y,z
1/2+x,1/2-y,1/2+z
loop_
_atom_site_type_symbol
_atom_site_label
_atom_site_fract_x
_atom_site_fract_y
_atom_site_fract_z
Si Si1 0.901250 0.746325 0.104280
Si Si2 0.724857 0.103978 0.940695
Si Si3 0.715341 0.714581 0.094887
Si Si4 0.933661 0.689711 0.356695
Si Si5 0.297708 0.486100 0.621857
Si Si6 0.895747 0.822671 0.629827
Si Si7 0.611434 0.535081 0.144845
Si Si8 0.676946 0.590412 0.778939
O O1 0.854582 0.837053 0.221795
O O2 0.798986 0.719152 0.123025
O O3 0.892342 0.693082 0.254771
O O4 0.060895 0.747288 0.830926
O O5 0.697971 0.047023 0.844548
O O6 0.593251 0.162500 0.149100
O O7 0.750065 0.049931 0.041937
O O8 0.684965 0.620427 0.089692
O O9 0.805056 0.768231 0.860915
O O10 0.911227 0.775691 0.464338
O O11 0.829697 0.628163 0.577671
O O12 0.328803 0.410439 0.683060
O O13 0.443499 0.534657 0.394711
O O14 0.053740 0.841381 0.464673
O O15 0.662122 0.456483 0.157661
O O16 0.646106 0.524647 0.938353
#
# Coordination Sequence:
#
# PCOD9140487 Si02
#       8
#     4   4   4   4   4   4   4   4
#     4  12  26  45  74 108 141 189 242 306 362 425
#     4  12  26  45  70 106 145 192 243 297 364 435
#     4  12  26  46  77 107 144 185 252 301 358 431
#     4  12  26  46  69 103 148 194 240 302 364 425
#     4  11  25  45  74 101 145 189 242 292 370 436
#     4  11  25  47  73 104 141 192 238 301 362 437
#     4  11  24  46  73 102 137 190 239 298 364 434
#     4  11  26  44  70 103 143 187 244 291 368 431
#
# _framework density 21.259149000000001
#
# number of rings (size 3 to 8) (size 9 to 14) (size 15 to 20)
#    0.000    0.500    5.000    3.000    3.500    1.000 
#    2.250    0.000    0.000    0.000    0.000    0.000 
#    0.000    0.000    0.000    0.000    0.000    0.000 
#
# Total GULP energy -89461.244983 kJ/mol
# GULP energy per Si atom -5591.327811 kJ/mol
# Density = 2.121076 g / cm^3
# Si number density = 21.259149 Si / 1000 Ang^3
#
#
#
# Elastic Constant Matrix: (Units=GPa)
#
#
# Indices 1 2 3 4 5 6 
#
# 1 92.4916 3.9156 25.2809 0.0000 7.3027 0.0000
# 2 3.9156 45.8309 40.0376 0.0000 3.9656 0.0000
# 3 25.2809 40.0376 104.9747 0.0000 -0.9612 0.0000
# 4 0.0000 0.0000 0.0000 28.2801 0.0000 10.8633
# 5 7.3027 3.9656 -0.9612 0.0000 19.7266 0.0000
# 6 0.0000 0.0000 0.0000 10.8633 0.0000 31.0497
#
#
#
# Elastic Compliance Matrix: (Units=1/GPa)
#
#
# Indices 1 2 3 4 5 6 
#
# 1 0.012242 0.003052 -0.004161 0.000000 -0.005348 0.000000
# 2 0.003052 0.034535 -0.013987 0.000000 -0.008754 0.000000
# 3 -0.004161 -0.013987 0.015910 0.000000 0.005128 0.000000
# 4 0.000000 0.000000 0.000000 0.040851 0.000000 -0.014292
# 5 -0.005348 -0.008754 0.005128 0.000000 0.054683 0.000000
# 6 0.000000 0.000000 0.000000 -0.014292 0.000000 0.037207
#
#
# Mechanical properties :
#
#
# Convention : Reuss Voigt Hill
#
# Bulk Modulus (GPa) = 30.77406 42.41837 36.59622
# Shear Modulus (GPa) = 21.14604 27.41549 24.28076
#
# Velocity S-wave (km/s) = 3.15728 3.59498 3.38321
# Velocity P-wave (km/s) = 5.27241 6.10148 5.70203
#
# Compressibility (1/GPa) = 0.03249490
#
# Stress axis : x y z
#
# Youngs Moduli (GPa) = 81.68399 28.95622 62.85411
#
# Poissons Ratio (x) = -0.08838 0.26156
# Poissons Ratio (y) = -0.24931 0.87913
# Poissons Ratio (z) = 0.33992 0.40501
#
# Static dielectric constant tensor:
#      x y z
#    x 1.762040 0.000000 0.018730 
#    y 0.000000 1.759540 0.000000 
#    z 0.018730 0.000000 1.735770 
# 
# From -- ./inp_files/9941.got.cif
#   From: 2010.05.17/outbox.cif.g08.bks.cpg/sg9_5_cif.got.tgz:9941.got - 2010.06.03 20:04:27.
