data_PCOD9140210
_publ_section_title
;
Structure prediction by ZEFSAII (Michael W. Deem and Ramdas Pophale) SiO2 
 PCOD9140210
Probable space group: C C
;
_chemical_formula_sum "Si O2"
_cell_formula_units_Z 28
_cell_length_a 7.787662
_cell_length_b 16.879482
_cell_length_c 14.386478
_cell_angle_alpha 90.000000
_cell_angle_beta 35.725446
_cell_angle_gamma 90.000000
_cell_volume 1104.232484
_symmetry_space_group_name_H-M "C C"
_symmetry_group_IT_number 9
_symmetry_cell_setting 'monoclinic'
loop_
_space_group_symop_operation_xyz
x,y,z
x,-y,1/2+z
1/2+x,1/2+y,z
1/2+x,1/2-y,1/2+z
loop_
_atom_site_type_symbol
_atom_site_label
_atom_site_fract_x
_atom_site_fract_y
_atom_site_fract_z
Si Si1 0.133640 0.988815 0.533450
Si Si2 0.061465 0.688197 0.067293
Si Si3 0.728163 0.442010 0.825016
Si Si4 0.593063 0.927948 0.068970
Si Si5 0.206436 0.448095 0.371199
Si Si6 0.495107 0.676532 0.037391
Si Si7 0.047912 0.731951 0.685503
O O1 0.371001 0.938449 0.487134
O O2 0.984713 0.918985 0.537651
O O3 0.345842 0.043466 0.376237
O O4 0.935894 0.041491 0.687826
O O5 0.824088 0.634036 0.226554
O O6 0.866230 0.748588 0.091512
O O7 0.276018 0.714180 0.056801
O O8 0.248853 0.627297 0.920157
O O9 0.831367 0.516829 0.719384
O O10 0.386147 0.439872 0.000330
O O11 0.534941 0.837245 0.112974
O O12 0.698313 0.966962 0.927282
O O13 0.435226 0.696591 0.171105
O O14 0.821075 0.705598 0.864623
#
# Coordination Sequence:
#
# PCOD9140210 Si02
#       7
#     4   4   4   4   4   4   4
#     4  12  23  44  74 119 146 192 266 321 380 467
#     4  11  26  52  75 108 155 204 257 321 395 465
#     4  11  23  45  73 107 147 197 257 320 379 456
#     4  11  24  44  74 106 149 204 252 319 386 452
#     4  11  24  42  78 108 155 192 254 328 384 454
#     4  12  28  49  75 109 155 206 259 317 392 477
#     4  12  28  50  75 111 159 205 257 320 398 473
#
# _framework density 25.356981000000001
#
# number of rings (size 3 to 8) (size 9 to 14) (size 15 to 20)
#    0.000    0.571    2.857    6.000    4.000    2.286 
#    2.571    0.000    0.000    0.000    0.000    0.000 
#    0.000    0.000    0.000    0.000    0.000    0.000 
#
# Total GULP energy -78211.297191 kJ/mol
# GULP energy per Si atom -5586.521228 kJ/mol
# Density = 2.529927 g / cm^3
# Si number density = 25.356981 Si / 1000 Ang^3
#
#
#
# Elastic Constant Matrix: (Units=GPa)
#
#
# Indices 1 2 3 4 5 6 
#
# 1 87.4088 5.6889 15.0423 -0.0021 -3.2700 0.0016
# 2 5.6889 66.3881 24.9414 -0.0008 4.1091 0.0003
# 3 15.0423 24.9414 116.7789 -0.0043 22.8960 0.0054
# 4 -0.0021 -0.0008 -0.0043 26.9512 0.0047 2.3685
# 5 -3.2700 4.1091 22.8960 0.0047 40.8386 -0.0010
# 6 0.0016 0.0003 0.0054 2.3685 -0.0010 28.8310
#
#
#
# Elastic Compliance Matrix: (Units=1/GPa)
#
#
# Indices 1 2 3 4 5 6 
#
# 1 0.011860 -0.000455 -0.001826 0.000000 0.002019 0.000000
# 2 -0.000455 0.016399 -0.003498 0.000000 0.000274 0.000001
# 3 -0.001826 -0.003498 0.010679 0.000003 -0.005781 -0.000002
# 4 0.000000 0.000000 0.000003 0.037374 -0.000006 -0.003070
# 5 0.002019 0.000274 -0.005781 -0.000006 0.027862 0.000002
# 6 0.000000 0.000001 -0.000002 -0.003070 0.000002 0.034937
#
#
# Mechanical properties :
#
#
# Convention : Reuss Voigt Hill
#
# Bulk Modulus (GPa) = 36.52355 40.21344 38.36849
# Shear Modulus (GPa) = 31.28989 34.31770 32.80380
#
# Velocity S-wave (km/s) = 3.51661 3.68283 3.60068
# Velocity P-wave (km/s) = 5.56091 5.82903 5.69655
#
# Compressibility (1/GPa) = 0.02737960
#
# Stress axis : x y z
#
# Youngs Moduli (GPa) = 84.31722 60.97941 93.64169
#
# Poissons Ratio (x) = 0.02775 0.17103
# Poissons Ratio (y) = 0.03837 0.32753
# Poissons Ratio (z) = 0.15400 0.21328
#
# Static dielectric constant tensor:
#      x y z
#    x 2.259730 -0.000010 0.006860 
#    y -0.000010 1.992590 0.000000 
#    z 0.006860 0.000000 1.960700 
# 
# From -- ./inp_files/23645.got.cif
#   From: 2010.05.17/outbox.cif.g08.bks.cpg/sg9_12_cif.got.tgz:23645.got - 2010.06.03 20:04:27.
