data_PCOD9140827
_publ_section_title
;
Structure prediction by ZEFSAII (Michael W. Deem and Ramdas Pophale) SiO2 
 PCOD9140827
Probable space group: C C
;
_chemical_formula_sum "Si O2"
_cell_formula_units_Z 24
_cell_length_a 5.112229
_cell_length_b 22.134288
_cell_length_c 10.049021
_cell_angle_alpha 90.000000
_cell_angle_beta 114.754379
_cell_angle_gamma 90.000000
_cell_volume 1032.615475
_symmetry_space_group_name_H-M "C C"
_symmetry_group_IT_number 9
_symmetry_cell_setting 'monoclinic'
loop_
_space_group_symop_operation_xyz
x,y,z
x,-y,1/2+z
1/2+x,1/2+y,z
1/2+x,1/2-y,1/2+z
loop_
_atom_site_type_symbol
_atom_site_label
_atom_site_fract_x
_atom_site_fract_y
_atom_site_fract_z
Si Si1 0.208740 0.656919 0.075510
Si Si2 0.353786 0.320580 0.327026
Si Si3 0.054527 0.607948 0.541330
Si Si4 0.281168 0.935000 0.450344
Si Si5 0.875943 0.687062 0.263006
Si Si6 0.119252 0.033544 0.625071
O O1 0.537584 0.674393 0.172130
O O2 0.027134 0.686559 0.153150
O O3 0.147835 0.676251 0.911429
O O4 0.102137 0.587434 0.053952
O O5 0.586322 0.374257 0.395272
O O6 0.450008 0.251863 0.340609
O O7 0.190773 0.338394 0.158013
O O8 0.293677 0.555767 0.577454
O O9 0.981323 0.634196 0.382415
O O10 0.788071 0.583089 0.570802
O O11 0.259358 0.968015 0.302742
O O12 0.158657 0.974109 0.545085
#
# Coordination Sequence:
#
# PCOD9140827 Si02
#       6
#     4   4   4   4   4   4
#     4  12  26  47  74 113 148 201 246 306 375 447
#     4  11  26  51  75 110 154 197 246 314 377 446
#     4  11  26  48  70 113 146 199 244 313 372 444
#     4  11  27  50  78 111 147 204 249 319 368 449
#     4  12  28  45  79 112 154 192 256 304 381 456
#     4  11  27  47  78 101 155 189 255 308 377 432
#
# _framework density 23.241952999999999
#
# number of rings (size 3 to 8) (size 9 to 14) (size 15 to 20)
#    0.000    0.667    3.333    2.000    7.000    4.000 
#    3.000    0.000    0.000    0.000    0.000    0.000 
#    0.000    0.000    0.000    0.000    0.000    0.000 
#
# Total GULP energy -67156.484772 kJ/mol
# GULP energy per Si atom -5596.373731 kJ/mol
# Density = 2.318905 g / cm^3
# Si number density = 23.241953 Si / 1000 Ang^3
#
#
#
# Elastic Constant Matrix: (Units=GPa)
#
#
# Indices 1 2 3 4 5 6 
#
# 1 112.7163 29.9102 42.6930 0.0000 -27.0012 0.0000
# 2 29.9102 100.4617 57.1331 0.0000 -6.2419 0.0000
# 3 42.6930 57.1331 90.9623 0.0000 -32.3595 0.0000
# 4 0.0000 0.0000 0.0000 31.8166 0.0000 1.3930
# 5 -27.0012 -6.2419 -32.3595 0.0000 43.1853 0.0000
# 6 0.0000 0.0000 0.0000 1.3930 0.0000 18.4187
#
#
#
# Elastic Compliance Matrix: (Units=1/GPa)
#
#
# Indices 1 2 3 4 5 6 
#
# 1 0.011484 -0.001644 -0.002574 0.000000 0.005014 0.000000
# 2 -0.001644 0.017384 -0.013115 0.000000 -0.008342 0.000000
# 3 -0.002574 -0.013115 0.026167 0.000000 0.016103 0.000000
# 4 0.000000 0.000000 0.000000 0.031535 0.000000 -0.002385
# 5 0.005014 -0.008342 0.016103 0.000000 0.037152 0.000000
# 6 0.000000 0.000000 0.000000 -0.002385 0.000000 0.054473
#
#
# Mechanical properties :
#
#
# Convention : Reuss Voigt Hill
#
# Bulk Modulus (GPa) = 49.09112 62.62366 55.85739
# Shear Modulus (GPa) = 22.76358 30.31105 26.53731
#
# Velocity S-wave (km/s) = 3.13296 3.61522 3.38270
# Velocity P-wave (km/s) = 5.85277 6.66552 6.27232
#
# Compressibility (1/GPa) = 0.02037028
#
# Stress axis : x y z
#
# Youngs Moduli (GPa) = 87.07747 57.52547 38.21534
#
# Poissons Ratio (x) = 0.09456 0.09836
# Poissons Ratio (y) = 0.14314 0.50119
# Poissons Ratio (z) = 0.22412 0.75444
#
# Static dielectric constant tensor:
#      x y z
#    x 1.866010 0.000000 0.031020 
#    y 0.000000 1.882440 0.000000 
#    z 0.031020 0.000000 1.844540 
# 
# From -- ./inp_files/3912.got.cif
#   From: 2010.05.17/outbox.cif.g08.bks.cpg/sg9_2_cif.got.tgz:3912.got - 2010.06.03 20:04:27.
