data_PCOD9140268
_publ_section_title
;
Structure prediction by ZEFSAII (Michael W. Deem and Ramdas Pophale) SiO2 
 PCOD9140268
Probable space group: C C
;
_chemical_formula_sum "Si O2"
_cell_formula_units_Z 32
_cell_length_a 12.642381
_cell_length_b 8.547758
_cell_length_c 14.192502
_cell_angle_alpha 90.000000
_cell_angle_beta 105.814016
_cell_angle_gamma 90.000000
_cell_volume 1475.650311
_symmetry_space_group_name_H-M "C C"
_symmetry_group_IT_number 9
_symmetry_cell_setting 'monoclinic'
loop_
_space_group_symop_operation_xyz
x,y,z
x,-y,1/2+z
1/2+x,1/2+y,z
1/2+x,1/2-y,1/2+z
loop_
_atom_site_type_symbol
_atom_site_label
_atom_site_fract_x
_atom_site_fract_y
_atom_site_fract_z
Si Si1 0.663610 0.236669 0.720440
Si Si2 0.876763 0.059100 0.827978
Si Si3 0.430515 0.699386 0.187660
Si Si4 0.156675 0.534378 0.540930
Si Si5 0.586553 0.782154 0.669820
Si Si6 0.406875 0.452870 0.039899
Si Si7 0.491316 0.106699 0.335557
Si Si8 0.782061 0.562113 0.737307
O O1 0.753818 0.130473 0.794846
O O2 0.553208 0.263074 0.752169
O O3 0.627958 0.155155 0.615870
O O4 0.720300 0.399709 0.704703
O O5 0.953634 0.212242 0.839004
O O6 0.887604 0.940582 0.743776
O O7 0.905605 0.961767 0.927589
O O8 0.438678 0.623389 0.087285
O O9 0.347984 0.844518 0.172352
O O10 0.136569 0.371878 0.591638
O O11 0.281900 0.568461 0.543075
O O12 0.081962 0.556683 0.431992
O O13 0.490519 0.669856 0.606658
O O14 0.535747 0.893148 0.738455
O O15 0.684948 0.681454 0.741868
O O16 0.384955 0.995063 0.325390
#
# Coordination Sequence:
#
# PCOD9140268 Si02
#       8
#     4   4   4   4   4   4   4   4
#     4  11  23  47  69 101 147 184 233 305 347 428
#     4  11  25  45  69 104 145 186 237 288 366 425
#     4  12  23  46  72 101 136 190 233 296 351 429
#     4  12  27  44  72 107 141 190 242 296 370 424
#     4  12  25  50  70 102 147 188 241 305 356 429
#     4  12  25  44  73 104 142 189 238 294 364 435
#     4  11  26  46  70 106 142 189 238 300 359 432
#     4  11  24  42  73  99 136 188 238 282 361 424
#
# _framework density 21.685354
#
# number of rings (size 3 to 8) (size 9 to 14) (size 15 to 20)
#    0.000    0.500    5.000    2.250    7.000    0.000 
#    0.000    2.500    0.000    0.000    0.000    0.000 
#    0.000    0.000    0.000    0.000    0.000    0.000 
#
# Total GULP energy -89382.370214 kJ/mol
# GULP energy per Si atom -5586.398138 kJ/mol
# Density = 2.163600 g / cm^3
# Si number density = 21.685354 Si / 1000 Ang^3
#
#
#
# Elastic Constant Matrix: (Units=GPa)
#
#
# Indices 1 2 3 4 5 6 
#
# 1 122.9872 39.4296 24.9841 0.0000 32.2564 0.0000
# 2 39.4296 82.4264 10.8007 0.0000 16.8703 0.0000
# 3 24.9841 10.8007 88.0089 0.0000 11.7522 0.0000
# 4 0.0000 0.0000 0.0000 23.9629 0.0000 5.7108
# 5 32.2564 16.8703 11.7522 0.0000 29.7829 0.0000
# 6 0.0000 0.0000 0.0000 5.7108 0.0000 40.6238
#
#
#
# Elastic Compliance Matrix: (Units=1/GPa)
#
#
# Indices 1 2 3 4 5 6 
#
# 1 0.012432 -0.003516 -0.001653 0.000000 -0.010821 0.000000
# 2 -0.003516 0.014756 -0.000217 0.000000 -0.004465 0.000000
# 3 -0.001653 -0.000217 0.012248 0.000000 -0.002920 0.000000
# 4 0.000000 0.000000 0.000000 0.043178 0.000000 -0.006070
# 5 -0.010821 -0.004465 -0.002920 0.000000 0.048977 0.000000
# 6 0.000000 0.000000 0.000000 -0.006070 0.000000 0.025469
#
#
# Mechanical properties :
#
#
# Convention : Reuss Voigt Hill
#
# Bulk Modulus (GPa) = 34.88446 49.31683 42.10065
# Shear Modulus (GPa) = 28.18711 33.42112 30.80412
#
# Velocity S-wave (km/s) = 3.60922 3.93005 3.77305
# Velocity P-wave (km/s) = 5.78707 6.58674 6.19981
#
# Compressibility (1/GPa) = 0.02866606
#
# Stress axis : x y z
#
# Youngs Moduli (GPa) = 80.43898 67.76855 81.64447
#
# Poissons Ratio (x) = 0.23825 0.13494
# Poissons Ratio (y) = 0.28280 0.01768
# Poissons Ratio (z) = 0.13295 0.01468
#
# Static dielectric constant tensor:
#      x y z
#    x 1.852120 0.000000 0.016760 
#    y 0.000000 1.825590 0.000000 
#    z 0.016760 0.000000 1.741560 
# 
# From -- ./inp_files/24183.got.cif
#   From: 2010.05.17/outbox.cif.g08.bks.cpg/sg9_13_cif.got.tgz:24183.got - 2010.06.03 20:04:27.
