data_PCOD9140314
_publ_section_title
;
Structure prediction by ZEFSAII (Michael W. Deem and Ramdas Pophale) SiO2 
 PCOD9140314
Probable space group: C C
;
_chemical_formula_sum "Si O2"
_cell_formula_units_Z 32
_cell_length_a 22.106065
_cell_length_b 6.797299
_cell_length_c 25.710570
_cell_angle_alpha 90.000000
_cell_angle_beta 160.359348
_cell_angle_gamma 90.000000
_cell_volume 1298.535206
_symmetry_space_group_name_H-M "C C"
_symmetry_group_IT_number 9
_symmetry_cell_setting 'monoclinic'
loop_
_space_group_symop_operation_xyz
x,y,z
x,-y,1/2+z
1/2+x,1/2+y,z
1/2+x,1/2-y,1/2+z
loop_
_atom_site_type_symbol
_atom_site_label
_atom_site_fract_x
_atom_site_fract_y
_atom_site_fract_z
Si Si1 0.990830 0.807735 0.534540
Si Si2 0.791298 0.073566 0.130339
Si Si3 0.364230 0.873441 0.708263
Si Si4 0.371771 0.741160 0.832027
Si Si5 0.509682 0.634258 0.407036
Si Si6 0.724514 0.093762 0.363171
Si Si7 0.693061 0.854976 0.437804
Si Si8 0.343908 0.992028 0.000503
O O1 0.013024 0.737329 0.492835
O O2 0.908683 0.644395 0.505386
O O3 0.196706 0.838003 0.716231
O O4 0.867352 0.000993 0.438200
O O5 0.598327 0.159101 0.995014
O O6 0.935344 0.153232 0.288519
O O7 0.827509 0.842525 0.155991
O O8 0.799383 0.152666 0.078254
O O9 0.402232 0.831731 0.799975
O O10 0.183346 0.994575 0.551982
O O11 0.524520 0.999228 0.813341
O O12 0.361434 0.502306 0.814992
O O13 0.522852 0.046802 0.179300
O O14 0.752438 0.318812 0.400800
O O15 0.777915 0.977332 0.459023
O O16 0.707081 0.634301 0.425518
#
# Coordination Sequence:
#
# PCOD9140314 Si02
#       8
#     4   4   4   4   4   4   4   4
#     4  11  24  53  81 112 159 208 269 342 405 483
#     4  11  25  45  71 108 158 206 257 319 390 484
#     4  11  25  49  75 118 157 212 264 324 408 491
#     4  11  23  48  82 115 160 208 263 334 403 491
#     4  11  25  44  69 110 159 203 257 318 397 480
#     4  11  28  51  78 118 153 207 277 338 408 473
#     4  11  28  48  78 110 161 210 267 334 402 481
#     4  11  28  52  80 117 155 212 272 345 413 477
#
# _framework density 24.643152000000001
#
# number of rings (size 3 to 8) (size 9 to 14) (size 15 to 20)
#    0.000    1.000    2.500    2.250    8.750    4.000 
#    4.500    1.250    0.000    0.000    0.000    0.000 
#    0.000    0.000    0.000    0.000    0.000    0.000 
#
# Total GULP energy -89366.474767 kJ/mol
# GULP energy per Si atom -5585.404673 kJ/mol
# Density = 2.458706 g / cm^3
# Si number density = 24.643152 Si / 1000 Ang^3
#
#
#
# Elastic Constant Matrix: (Units=GPa)
#
#
# Indices 1 2 3 4 5 6 
#
# 1 111.1010 43.0880 31.6037 0.0012 -16.1516 0.0004
# 2 43.0880 173.1969 49.1851 0.0008 1.8868 0.0018
# 3 31.6037 49.1851 123.2911 0.0011 -4.8795 0.0024
# 4 0.0012 0.0008 0.0011 48.7508 -0.0004 -6.8534
# 5 -16.1516 1.8868 -4.8795 -0.0004 48.1908 -0.0002
# 6 0.0004 0.0018 0.0024 -6.8534 -0.0002 29.0902
#
#
#
# Elastic Compliance Matrix: (Units=1/GPa)
#
#
# Indices 1 2 3 4 5 6 
#
# 1 0.010890 -0.002250 -0.001753 0.000000 0.003560 0.000000
# 2 -0.002250 0.006989 -0.002261 0.000000 -0.001257 0.000000
# 3 -0.001753 -0.002261 0.009481 0.000000 0.000461 -0.000001
# 4 0.000000 0.000000 0.000000 0.021215 0.000000 0.004998
# 5 0.003560 -0.001257 0.000461 0.000000 0.022040 0.000000
# 6 0.000000 0.000000 -0.000001 0.004998 0.000000 0.035553
#
#
# Mechanical properties :
#
#
# Convention : Reuss Voigt Hill
#
# Bulk Modulus (GPa) = 67.42559 72.81582 70.12071
# Shear Modulus (GPa) = 40.43985 44.12050 42.28017
#
# Velocity S-wave (km/s) = 4.05534 4.23587 4.14659
# Velocity P-wave (km/s) = 7.02481 7.31681 7.17230
#
# Compressibility (1/GPa) = 0.01483116
#
# Stress axis : x y z
#
# Youngs Moduli (GPa) = 91.82981 143.07327 105.47918
#
# Poissons Ratio (x) = 0.32194 0.18489
# Poissons Ratio (y) = 0.20663 0.23852
# Poissons Ratio (z) = 0.16096 0.32353
#
# Static dielectric constant tensor:
#      x y z
#    x 1.991830 0.000000 0.057270 
#    y 0.000000 2.003400 0.000000 
#    z 0.057270 0.000000 1.954530 
# 
# From -- ./inp_files/37749.got.cif
#   From: 2010.05.17/outbox.cif.g08.bks.cpg/sg9_19_cif.got.tgz:37749.got - 2010.06.03 20:04:27.
