data_PCOD9140413
_publ_section_title
;
Structure prediction by ZEFSAII (Michael W. Deem and Ramdas Pophale) SiO2 
 PCOD9140413
Probable space group: C C
;
_chemical_formula_sum "Si O2"
_cell_formula_units_Z 24
_cell_length_a 12.411323
_cell_length_b 7.608557
_cell_length_c 24.541859
_cell_angle_alpha 90.000000
_cell_angle_beta 152.224887
_cell_angle_gamma 90.000000
_cell_volume 1079.980610
_symmetry_space_group_name_H-M "C C"
_symmetry_group_IT_number 9
_symmetry_cell_setting 'monoclinic'
loop_
_space_group_symop_operation_xyz
x,y,z
x,-y,1/2+z
1/2+x,1/2+y,z
1/2+x,1/2-y,1/2+z
loop_
_atom_site_type_symbol
_atom_site_label
_atom_site_fract_x
_atom_site_fract_y
_atom_site_fract_z
Si Si1 0.723450 0.847058 0.192970
Si Si2 0.508822 0.016852 0.332656
Si Si3 0.948469 0.885446 0.184528
Si Si4 0.267203 0.705956 0.039595
Si Si5 0.623384 0.771483 0.654284
Si Si6 0.857111 0.218468 0.425651
O O1 0.761355 0.823355 0.145037
O O2 0.465501 0.809669 0.097271
O O3 0.895945 0.705400 0.296538
O O4 0.769008 0.050483 0.225815
O O5 0.688795 0.056795 0.364698
O O6 0.642970 0.924907 0.441655
O O7 0.296373 0.891161 0.222492
O O8 0.979066 0.769510 0.144103
O O9 0.193894 0.864867 0.324963
O O10 0.887382 0.080806 0.138261
O O11 0.069898 0.817810 0.981000
O O12 0.459311 0.783934 0.528635
#
# Coordination Sequence:
#
# PCOD9140413 Si02
#       6
#     4   4   4   4   4   4
#     4  11  26  44  75 105 144 194 243 291 370 431
#     4  11  24  47  72 107 147 189 239 307 354 428
#     4  11  24  48  71 106 149 184 243 304 356 432
#     4  12  22  48  74 103 150 191 241 306 355 430
#     4  12  24  47  74 108 143 188 249 294 365 438
#     4  11  24  44  76 103 147 196 235 296 374 423
#
# _framework density 22.222619999999999
#
# number of rings (size 3 to 8) (size 9 to 14) (size 15 to 20)
#    0.000    0.667    6.667    0.000    0.000    6.667 
#    0.000    6.667    0.000    0.000    0.000    0.000 
#    0.000    0.000    0.000    0.000    0.000    0.000 
#
# Total GULP energy -67103.071249 kJ/mol
# GULP energy per Si atom -5591.922604 kJ/mol
# Density = 2.217204 g / cm^3
# Si number density = 22.222620 Si / 1000 Ang^3
#
#
#
# Elastic Constant Matrix: (Units=GPa)
#
#
# Indices 1 2 3 4 5 6 
#
# 1 186.4018 23.6280 34.9982 -0.0002 38.5510 0.0000
# 2 23.6280 64.1324 -0.5556 -0.0003 9.0389 0.0000
# 3 34.9982 -0.5556 77.0169 -0.0007 0.2569 0.0001
# 4 -0.0002 -0.0003 -0.0007 4.9709 -0.0001 4.5294
# 5 38.5510 9.0389 0.2569 -0.0001 40.0849 -0.0001
# 6 0.0000 0.0000 0.0001 4.5294 -0.0001 24.4920
#
#
#
# Elastic Compliance Matrix: (Units=1/GPa)
#
#
# Indices 1 2 3 4 5 6 
#
# 1 0.007697 -0.001886 -0.003488 -0.000001 -0.006955 0.000000
# 2 -0.001886 0.016568 0.000983 0.000001 -0.001929 0.000000
# 3 -0.003488 0.000983 0.014566 0.000003 0.003040 -0.000001
# 4 -0.000001 0.000001 0.000003 0.241941 0.000001 -0.044743
# 5 -0.006955 -0.001929 0.003040 0.000001 0.032051 0.000000
# 6 0.000000 0.000000 -0.000001 -0.044743 0.000000 0.049104
#
#
# Mechanical properties :
#
#
# Convention : Reuss Voigt Hill
#
# Bulk Modulus (GPa) = 33.27885 49.29914 41.28899
# Shear Modulus (GPa) = 13.13281 31.87492 22.50387
#
# Velocity S-wave (km/s) = 2.43362 3.79138 3.18568
# Velocity P-wave (km/s) = 4.78585 6.43417 5.67022
#
# Compressibility (1/GPa) = 0.03004911
#
# Stress axis : x y z
#
# Youngs Moduli (GPa) = 129.91871 60.35785 68.65206
#
# Poissons Ratio (x) = 0.11382 0.23947
# Poissons Ratio (y) = 0.24500 -0.06748
# Poissons Ratio (z) = 0.45318 -0.05933
#
# Static dielectric constant tensor:
#      x y z
#    x 1.836550 0.000000 0.010540 
#    y 0.000000 1.811960 0.000000 
#    z 0.010540 0.000000 1.819450 
# 
# From -- ./inp_files/15847.got.cif
#   From: 2010.05.17/outbox.cif.g08.bks.cpg/sg9_8_cif.got.tgz:15847.got - 2010.06.03 20:04:27.
