data_PCOD9140151
_publ_section_title
;
Structure prediction by ZEFSAII (Michael W. Deem and Ramdas Pophale) SiO2 
 PCOD9140151
Probable space group: C C
;
_chemical_formula_sum "Si O2"
_cell_formula_units_Z 32
_cell_length_a 8.215486
_cell_length_b 22.380395
_cell_length_c 11.687703
_cell_angle_alpha 90.000000
_cell_angle_beta 40.162151
_cell_angle_gamma 90.000000
_cell_volume 1385.984060
_symmetry_space_group_name_H-M "C C"
_symmetry_group_IT_number 9
_symmetry_cell_setting 'monoclinic'
loop_
_space_group_symop_operation_xyz
x,y,z
x,-y,1/2+z
1/2+x,1/2+y,z
1/2+x,1/2-y,1/2+z
loop_
_atom_site_type_symbol
_atom_site_label
_atom_site_fract_x
_atom_site_fract_y
_atom_site_fract_z
Si Si1 0.007780 0.901227 0.491100
Si Si2 0.051601 0.328653 0.626517
Si Si3 0.726928 0.380459 0.970926
Si Si4 0.280622 0.703735 0.765623
Si Si5 0.343080 0.197837 0.830882
Si Si6 0.267508 0.024904 0.645882
Si Si7 0.075849 0.677913 0.468383
Si Si8 0.332631 0.557022 0.314667
O O1 0.202181 0.859545 0.457917
O O2 0.148774 0.937868 0.315845
O O3 0.809083 0.853834 0.544655
O O4 0.865502 0.942949 0.658906
O O5 0.120639 0.321397 0.457086
O O6 0.940176 0.262528 0.716110
O O7 0.843211 0.376297 0.782282
O O8 0.462480 0.347572 0.121103
O O9 0.724209 0.440101 0.047846
O O10 0.919570 0.339323 0.940947
O O11 0.088259 0.718122 0.767658
O O12 0.176360 0.256047 0.909151
O O13 0.403402 0.176149 0.671703
O O14 0.573286 0.022227 0.490194
O O15 0.086297 0.968256 0.732681
O O16 0.280405 0.625953 0.373440
#
# Coordination Sequence:
#
# PCOD9140151 Si02
#       8
#     4   4   4   4   4   4   4   4
#     4  12  24  48  78 101 145 201 252 295 374 445
#     4  12  23  42  68 101 146 194 240 293 366 443
#     4  11  23  44  69 100 136 193 245 290 357 445
#     4  12  25  40  64 108 155 185 236 301 367 439
#     4  12  25  43  70 112 152 189 235 308 373 441
#     4  11  25  51  74 107 140 193 253 311 363 434
#     4  11  23  44  71 105 148 192 238 299 370 455
#     4  11  26  50  74 110 142 189 255 307 376 428
#
# _framework density 23.088290000000001
#
# number of rings (size 3 to 8) (size 9 to 14) (size 15 to 20)
#    0.000    0.500    7.500    2.250    1.750    2.000 
#    4.500    0.000    0.000    0.000    0.000    0.000 
#    0.000    0.000    0.000    0.000    0.000    0.000 
#
# Total GULP energy -89423.155561 kJ/mol
# GULP energy per Si atom -5588.947223 kJ/mol
# Density = 2.303574 g / cm^3
# Si number density = 23.088290 Si / 1000 Ang^3
#
#
#
# Elastic Constant Matrix: (Units=GPa)
#
#
# Indices 1 2 3 4 5 6 
#
# 1 40.6318 10.1544 -23.7893 0.0000 -26.1855 0.0000
# 2 10.1544 24.7826 -7.5292 0.0000 -32.3378 0.0000
# 3 -23.7893 -7.5292 56.3524 0.0000 -68.0628 0.0000
# 4 0.0000 0.0000 0.0000 10.9752 0.0000 -12.9956
# 5 -26.1855 -32.3378 -68.0628 0.0000 -31.5914 0.0000
# 6 0.0000 0.0000 0.0000 -12.9956 0.0000 24.6102
#
#
#
# Elastic Compliance Matrix: (Units=1/GPa)
#
#
# Indices 1 2 3 4 5 6 
#
# 1 0.026059 -0.018086 0.001348 0.000000 -0.005991 0.000000
# 2 -0.018086 0.038285 -0.008813 0.000000 -0.005211 0.000000
# 3 0.001348 -0.008813 0.007408 0.000000 -0.008055 0.000000
# 4 0.000000 0.000000 0.000000 0.243149 0.000000 0.128397
# 5 -0.005991 -0.005211 -0.008055 0.000000 -0.003999 0.000000
# 6 0.000000 0.000000 0.000000 0.128397 0.000000 0.108435
#
#
# Mechanical properties :
#
#
# Convention : Reuss Voigt Hill
#
# Bulk Modulus (GPa) = 48.42648 8.82652 28.62650
# Shear Modulus (GPa) = 10.47512 10.32751 10.40132
#
# Velocity S-wave (km/s) = 2.13233 2.11725 2.12481
# Velocity P-wave (km/s) = 5.20408 3.13181 4.29481
#
# Compressibility (1/GPa) = 0.02064986
#
# Stress axis : x y z
#
# Youngs Moduli (GPa) = 38.37400 26.12000 134.99641
#
# Poissons Ratio (x) = 0.47240 -0.18199
# Poissons Ratio (y) = 0.69403 1.18975
# Poissons Ratio (z) = -0.05173 0.23020
#
# Static dielectric constant tensor:
#      x y z
#    x 1.858980 0.000000 0.014410 
#    y 0.000000 1.878310 0.000000 
#    z 0.014410 0.000000 1.957630 
# 
# From -- ./inp_files/15629.got.cif
#   From: 2010.05.17/outbox.cif.g08.bks.cpg/sg9_8_cif.got.tgz:15629.got - 2010.06.03 20:04:27.
