data_PCOD9140563
_publ_section_title
;
Structure prediction by ZEFSAII (Michael W. Deem and Ramdas Pophale) SiO2 
 PCOD9140563
Probable space group: C C
;
_chemical_formula_sum "Si O2"
_cell_formula_units_Z 28
_cell_length_a 13.479391
_cell_length_b 14.334338
_cell_length_c 10.537270
_cell_angle_alpha 90.000000
_cell_angle_beta 34.185445
_cell_angle_gamma 90.000000
_cell_volume 1143.969327
_symmetry_space_group_name_H-M "C C"
_symmetry_group_IT_number 9
_symmetry_cell_setting 'monoclinic'
loop_
_space_group_symop_operation_xyz
x,y,z
x,-y,1/2+z
1/2+x,1/2+y,z
1/2+x,1/2-y,1/2+z
loop_
_atom_site_type_symbol
_atom_site_label
_atom_site_fract_x
_atom_site_fract_y
_atom_site_fract_z
Si Si1 0.450080 0.150509 0.467710
Si Si2 0.099596 0.823457 0.746106
Si Si3 0.710455 0.118978 0.611675
Si Si4 0.877779 0.562287 0.793957
Si Si5 0.074905 0.035867 0.508772
Si Si6 0.060985 0.838359 0.387454
Si Si7 0.278686 0.422613 0.514348
O O1 0.428622 0.068702 0.592309
O O2 0.255541 0.169192 0.626024
O O3 0.518460 0.235855 0.483772
O O4 0.588981 0.125496 0.213297
O O5 0.120118 0.713843 0.758784
O O6 0.253289 0.857153 0.487393
O O7 0.111457 0.889471 0.858737
O O8 0.910703 0.843249 0.878722
O O9 0.564938 0.077282 0.666507
O O10 0.759896 0.017626 0.617495
O O11 0.737772 0.475431 0.937905
O O12 0.888202 0.056103 0.772774
O O13 0.059477 0.930905 0.471641
O O14 0.909832 0.853653 0.446467
#
# Coordination Sequence:
#
# PCOD9140563 Si02
#       7
#     4   4   4   4   4   4   4
#     4  11  27  43  79 110 143 193 255 314 380 446
#     4  12  26  49  72 117 151 197 256 330 376 461
#     4  12  27  45  80 109 152 200 261 317 387 449
#     4  11  27  44  79 109 148 200 258 315 379 452
#     4  11  26  50  74 105 162 195 247 320 386 456
#     4  11  24  48  72 108 147 192 253 312 369 461
#     4  12  27  47  72 110 149 199 248 312 383 463
#
# _framework density 24.476182000000001
#
# number of rings (size 3 to 8) (size 9 to 14) (size 15 to 20)
#    0.000    0.571    5.714    0.000   14.000    0.000 
#    2.571    0.000    3.143    0.000    0.000    0.000 
#    0.000    0.000    0.000    0.000    0.000    0.000 
#
# Total GULP energy -77970.489226 kJ/mol
# GULP energy per Si atom -5569.320659 kJ/mol
# Density = 2.442047 g / cm^3
# Si number density = 24.476182 Si / 1000 Ang^3
#
#
#
# Elastic Constant Matrix: (Units=GPa)
#
#
# Indices 1 2 3 4 5 6 
#
# 1 61.4443 28.6686 39.9763 -0.0004 -30.1936 0.0004
# 2 28.6686 93.0491 36.3136 -0.0002 9.1033 0.0003
# 3 39.9763 36.3136 156.3607 -0.0003 -29.7918 0.0002
# 4 -0.0004 -0.0002 -0.0003 34.1378 0.0002 -11.7621
# 5 -30.1936 9.1033 -29.7918 0.0002 47.3942 -0.0002
# 6 0.0004 0.0003 0.0002 -11.7621 -0.0002 29.8581
#
#
#
# Elastic Compliance Matrix: (Units=1/GPa)
#
#
# Indices 1 2 3 4 5 6 
#
# 1 0.034514 -0.012341 -0.001496 0.000000 0.023418 0.000000
# 2 -0.012341 0.017158 -0.003358 0.000000 -0.013268 0.000000
# 3 -0.001496 -0.003358 0.008519 0.000000 0.005047 0.000000
# 4 0.000000 0.000000 0.000000 0.033893 0.000000 0.013352
# 5 0.023418 -0.013268 0.005047 0.000000 0.041740 0.000000
# 6 0.000000 0.000000 0.000000 0.013352 0.000000 0.038751
#
#
# Mechanical properties :
#
#
# Convention : Reuss Voigt Hill
#
# Bulk Modulus (GPa) = 38.75733 57.86346 48.31040
# Shear Modulus (GPa) = 22.98164 36.00439 29.49301
#
# Velocity S-wave (km/s) = 3.06754 3.83952 3.47503
# Velocity P-wave (km/s) = 5.33061 6.58391 5.99013
#
# Compressibility (1/GPa) = 0.02580157
#
# Stress axis : x y z
#
# Youngs Moduli (GPa) = 28.97395 58.28280 117.37945
#
# Poissons Ratio (x) = 0.71926 0.17561
# Poissons Ratio (y) = 0.35757 0.39412
# Poissons Ratio (z) = 0.04335 0.19569
#
# Static dielectric constant tensor:
#      x y z
#    x 2.014180 0.000000 -0.033130 
#    y 0.000000 1.970880 0.000000 
#    z -0.033130 0.000000 1.962450 
# 
# From -- ./inp_files/18432.got.cif
#   From: 2010.05.17/outbox.cif.g08.bks.cpg/sg9_10_cif.got.tgz:18432.got - 2010.06.03 20:04:27.
