data_PCOD9140361
_publ_section_title
;
Structure prediction by ZEFSAII (Michael W. Deem and Ramdas Pophale) SiO2 
 PCOD9140361
Probable space group: C C
;
_chemical_formula_sum "Si O2"
_cell_formula_units_Z 28
_cell_length_a 9.656968
_cell_length_b 20.988976
_cell_length_c 12.294707
_cell_angle_alpha 90.000000
_cell_angle_beta 149.389566
_cell_angle_gamma 90.000000
_cell_volume 1268.928197
_symmetry_space_group_name_H-M "C C"
_symmetry_group_IT_number 9
_symmetry_cell_setting 'monoclinic'
loop_
_space_group_symop_operation_xyz
x,y,z
x,-y,1/2+z
1/2+x,1/2+y,z
1/2+x,1/2-y,1/2+z
loop_
_atom_site_type_symbol
_atom_site_label
_atom_site_fract_x
_atom_site_fract_y
_atom_site_fract_z
Si Si1 0.173130 0.705657 0.247040
Si Si2 0.879997 0.398980 0.428188
Si Si3 0.845200 0.833713 0.085786
Si Si4 0.655610 0.723758 0.411553
Si Si5 0.444524 0.885317 0.985430
Si Si6 0.638348 0.996956 0.251057
Si Si7 0.270213 0.000031 0.206404
O O1 0.207531 0.659865 0.374734
O O2 0.457903 0.719792 0.381950
O O3 0.000281 0.766015 0.173777
O O4 0.016125 0.666858 0.048511
O O5 0.569704 0.388412 0.256566
O O6 0.867080 0.427836 0.300346
O O7 0.054454 0.453173 0.602832
O O8 0.631156 0.838904 0.037952
O O9 0.727518 0.656983 0.402662
O O10 0.951517 0.744946 0.674416
O O11 0.607811 0.925580 0.185089
O O12 0.335683 0.941128 0.831755
O O13 0.948699 0.005137 0.489904
O O14 0.423599 0.012623 0.199216
#
# Coordination Sequence:
#
# PCOD9140361 Si02
#       7
#     4   4   4   4   4   4   4
#     4  12  25  44  76 105 150 201 257 318 393 479
#     4  11  24  42  75 104 141 196 261 310 398 465
#     4  12  24  48  70 109 146 200 260 320 390 483
#     4  12  29  51  75 118 160 211 264 329 400 480
#     4  11  29  44  78 110 154 202 262 332 403 467
#     4  11  26  48  73 109 150 197 263 331 403 471
#     4  11  25  47  73 109 149 197 257 334 393 479
#
# _framework density 22.065866
#
# number of rings (size 3 to 8) (size 9 to 14) (size 15 to 20)
#    0.000    0.571    2.857    3.429   10.000    2.286 
#    0.000    0.000    0.000    0.000    0.000    0.000 
#    0.000    0.000    0.000    0.000    0.000    0.000 
#
# Total GULP energy -77957.637600 kJ/mol
# GULP energy per Si atom -5568.402686 kJ/mol
# Density = 2.201564 g / cm^3
# Si number density = 22.065866 Si / 1000 Ang^3
#
#
#
# Elastic Constant Matrix: (Units=GPa)
#
#
# Indices 1 2 3 4 5 6 
#
# 1 133.5700 44.7862 76.4830 0.0067 9.3469 0.0027
# 2 44.7862 108.5474 45.2071 0.0008 4.9994 0.0005
# 3 76.4830 45.2071 139.9190 0.0086 5.2029 0.0058
# 4 0.0067 0.0008 0.0086 27.0395 0.0038 -2.1373
# 5 9.3469 4.9994 5.2029 0.0038 21.5566 0.0027
# 6 0.0027 0.0005 0.0058 -2.1373 0.0027 35.9878
#
#
#
# Elastic Compliance Matrix: (Units=1/GPa)
#
#
# Indices 1 2 3 4 5 6 
#
# 1 0.011642 -0.002376 -0.005478 -0.000001 -0.003175 0.000000
# 2 -0.002376 0.011189 -0.002279 0.000001 -0.001015 0.000001
# 3 -0.005478 -0.002279 0.010867 -0.000002 0.000281 -0.000001
# 4 -0.000001 0.000001 -0.000002 0.037157 -0.000006 0.002207
# 5 -0.003175 -0.001015 0.000281 -0.000006 0.047934 -0.000004
# 6 0.000000 0.000001 -0.000001 0.002207 -0.000004 0.027918
#
#
# Mechanical properties :
#
#
# Convention : Reuss Voigt Hill
#
# Bulk Modulus (GPa) = 74.44436 79.44323 76.94379
# Shear Modulus (GPa) = 29.16290 31.28743 30.22517
#
# Velocity S-wave (km/s) = 3.63937 3.76960 3.70506
# Velocity P-wave (km/s) = 7.17430 7.41805 7.29719
#
# Compressibility (1/GPa) = 0.01343285
#
# Stress axis : x y z
#
# Youngs Moduli (GPa) = 85.89262 89.37747 92.01885
#
# Poissons Ratio (x) = 0.21234 0.50411
# Poissons Ratio (y) = 0.20406 0.20967
# Poissons Ratio (z) = 0.47055 0.20365
#
# Static dielectric constant tensor:
#      x y z
#    x 1.742550 0.000000 -0.052370 
#    y 0.000000 1.860240 0.000000 
#    z -0.052370 0.000000 1.904230 
# 
# From -- ./inp_files/15663.got.cif
#   From: 2010.05.17/outbox.cif.g08.bks.cpg/sg9_8_cif.got.tgz:15663.got - 2010.06.03 20:04:27.
