data_PCOD9140910
_publ_section_title
;
Structure prediction by ZEFSAII (Michael W. Deem and Ramdas Pophale) SiO2 
 PCOD9140910
Probable space group: C C
;
_chemical_formula_sum "Si O2"
_cell_formula_units_Z 32
_cell_length_a 5.492231
_cell_length_b 21.602457
_cell_length_c 11.960764
_cell_angle_alpha 90.000000
_cell_angle_beta 107.184721
_cell_angle_gamma 90.000000
_cell_volume 1355.740718
_symmetry_space_group_name_H-M "C C"
_symmetry_group_IT_number 9
_symmetry_cell_setting 'monoclinic'
loop_
_space_group_symop_operation_xyz
x,y,z
x,-y,1/2+z
1/2+x,1/2+y,z
1/2+x,1/2-y,1/2+z
loop_
_atom_site_type_symbol
_atom_site_label
_atom_site_fract_x
_atom_site_fract_y
_atom_site_fract_z
Si Si1 0.447550 0.398592 0.179000
Si Si2 0.164638 0.509376 0.242404
Si Si3 0.367884 0.652034 0.042774
Si Si4 0.668118 0.467955 0.529000
Si Si5 0.941659 0.788282 0.792053
Si Si6 0.414091 0.401509 0.933857
Si Si7 0.431265 0.091724 0.856566
Si Si8 0.463883 0.715020 0.839077
O O1 0.365783 0.468666 0.198877
O O2 0.756099 0.392059 0.225877
O O3 0.382942 0.347659 0.262402
O O4 0.318463 0.383084 0.043758
O O5 0.234906 0.572759 0.312010
O O6 0.921504 0.522559 0.134677
O O7 0.106544 0.463371 0.337263
O O8 0.489276 0.582901 0.065197
O O9 0.352898 0.682433 0.161711
O O10 0.522294 0.694071 0.974629
O O11 0.096496 0.641923 0.944198
O O12 0.573217 0.536790 0.486220
O O13 0.741294 0.436252 0.422098
O O14 0.024930 0.840888 0.892456
O O15 0.705568 0.748875 0.813314
O O16 0.206240 0.754120 0.803335
#
# Coordination Sequence:
#
# PCOD9140910 Si02
#       8
#     4   4   4   4   4   4   4   4
#     4  12  26  48  80 113 155 212 267 329 400 473
#     4  12  25  45  75 119 154 205 255 333 407 481
#     4  12  28  53  83 114 158 218 267 328 415 477
#     4  12  26  43  82 111 164 199 256 334 403 497
#     4  12  34  50  85 116 161 211 271 342 387 476
#     4  12  27  49  72 124 156 199 269 328 409 476
#     4  12  21  45  77 112 150 210 254 318 399 488
#     4  12  29  57  80 115 156 218 281 324 396 468
#
# _framework density 23.603332000000002
#
# number of rings (size 3 to 8) (size 9 to 14) (size 15 to 20)
#    0.000    0.000    6.250    2.250   10.500    1.000 
#    0.000    0.000    0.000    0.000    0.000    0.000 
#    0.000    0.000    0.000    0.000    0.000    0.000 
#
# Total GULP energy -89410.637830 kJ/mol
# GULP energy per Si atom -5588.164864 kJ/mol
# Density = 2.354961 g / cm^3
# Si number density = 23.603332 Si / 1000 Ang^3
#
#
#
# Elastic Constant Matrix: (Units=GPa)
#
#
# Indices 1 2 3 4 5 6 
#
# 1 100.1223 52.2028 36.7574 0.0000 5.7749 0.0000
# 2 52.2028 104.3612 51.7999 0.0000 -5.3735 0.0000
# 3 36.7574 51.7999 147.4163 0.0000 -2.0674 0.0000
# 4 0.0000 0.0000 0.0000 43.5532 0.0000 -5.0880
# 5 5.7749 -5.3735 -2.0674 0.0000 48.6320 0.0000
# 6 0.0000 0.0000 0.0000 -5.0880 0.0000 36.3338
#
#
#
# Elastic Compliance Matrix: (Units=1/GPa)
#
#
# Indices 1 2 3 4 5 6 
#
# 1 0.013970 -0.006501 -0.001233 0.000000 -0.002430 0.000000
# 2 -0.006501 0.014692 -0.003510 0.000000 0.002246 0.000000
# 3 -0.001233 -0.003510 0.008326 0.000000 0.000113 0.000000
# 4 0.000000 0.000000 0.000000 0.023342 0.000000 0.003269
# 5 -0.002430 0.002246 0.000113 0.000000 0.021104 0.000000
# 6 0.000000 0.000000 0.000000 0.003269 0.000000 0.027980
#
#
# Mechanical properties :
#
#
# Convention : Reuss Voigt Hill
#
# Bulk Modulus (GPa) = 68.96728 70.38001 69.67364
# Shear Modulus (GPa) = 36.56669 39.77978 38.17324
#
# Velocity S-wave (km/s) = 3.94028 4.10975 4.02591
# Velocity P-wave (km/s) = 7.06992 7.23897 7.15494
#
# Compressibility (1/GPa) = 0.01449963
#
# Stress axis : x y z
#
# Youngs Moduli (GPa) = 71.58060 68.06460 120.10700
#
# Poissons Ratio (x) = 0.44250 0.14810
# Poissons Ratio (y) = 0.46536 0.42158
# Poissons Ratio (z) = 0.08826 0.23891
#
# Static dielectric constant tensor:
#      x y z
#    x 1.966020 0.000000 -0.014320 
#    y 0.000000 1.917370 0.000000 
#    z -0.014320 0.000000 1.909650 
# 
# From -- ./inp_files/13546.got.cif
#   From: 2010.05.17/outbox.cif.g08.bks.cpg/sg9_7_cif.got.tgz:13546.got - 2010.06.03 20:04:27.
