data_PCOD9140343
_publ_section_title
;
Structure prediction by ZEFSAII (Michael W. Deem and Ramdas Pophale) SiO2 
 PCOD9140343
Probable space group: C C
;
_chemical_formula_sum "Si O2"
_cell_formula_units_Z 28
_cell_length_a 9.976680
_cell_length_b 20.192012
_cell_length_c 8.318762
_cell_angle_alpha 90.000000
_cell_angle_beta 131.736266
_cell_angle_gamma 90.000000
_cell_volume 1250.516589
_symmetry_space_group_name_H-M "C C"
_symmetry_group_IT_number 9
_symmetry_cell_setting 'monoclinic'
loop_
_space_group_symop_operation_xyz
x,y,z
x,-y,1/2+z
1/2+x,1/2+y,z
1/2+x,1/2-y,1/2+z
loop_
_atom_site_type_symbol
_atom_site_label
_atom_site_fract_x
_atom_site_fract_y
_atom_site_fract_z
Si Si1 0.075070 0.534738 0.532610
Si Si2 0.082808 0.894332 0.769831
Si Si3 0.274420 0.118243 0.111515
Si Si4 0.439876 0.909927 0.256680
Si Si5 0.883954 0.157156 0.385888
Si Si6 0.991143 0.299706 0.541552
Si Si7 0.964324 0.039121 0.684501
O O1 0.280913 0.535228 0.641083
O O2 0.948691 0.579448 0.317127
O O3 0.988548 0.461533 0.438607
O O4 0.054005 0.563439 0.695498
O O5 0.171030 0.857957 0.689168
O O6 0.925485 0.855298 0.732292
O O7 0.013515 0.966319 0.663897
O O8 0.238266 0.908553 0.026163
O O9 0.338221 0.174124 0.039647
O O10 0.135479 0.068952 0.914058
O O11 0.469635 0.837384 0.353952
O O12 0.994822 0.221137 0.527947
O O13 0.680646 0.175660 0.257290
O O14 0.927971 0.090059 0.512504
#
# Coordination Sequence:
#
# PCOD9140343 Si02
#       7
#     4   4   4   4   4   4   4
#     4  11  24  41  69 110 140 190 233 307 353 425
#     4  11  25  43  74 111 143 187 240 304 366 426
#     4  11  24  45  68 105 144 184 241 299 355 430
#     4  11  24  43  70 104 150 184 241 296 363 425
#     4  12  27  48  75 103 145 200 242 298 370 438
#     4  12  26  51  70 103 149 196 248 295 365 446
#     4  12  24  43  72 106 145 185 239 295 368 430
#
# _framework density 22.390747999999999
#
# number of rings (size 3 to 8) (size 9 to 14) (size 15 to 20)
#    0.000    0.571    2.857    5.143   10.000    0.000 
#    2.571    2.857    0.000    0.000    0.000    0.000 
#    0.000    0.000    0.000    0.000    0.000    0.000 
#
# Total GULP energy -78382.983511 kJ/mol
# GULP energy per Si atom -5598.784537 kJ/mol
# Density = 2.233979 g / cm^3
# Si number density = 22.390748 Si / 1000 Ang^3
#
#
#
# Elastic Constant Matrix: (Units=GPa)
#
#
# Indices 1 2 3 4 5 6 
#
# 1 133.8492 25.1426 24.1692 0.0000 -1.0443 0.0000
# 2 25.1426 63.7961 8.2776 0.0000 -2.9940 0.0000
# 3 24.1692 8.2776 81.8878 0.0000 2.9954 0.0000
# 4 0.0000 0.0000 0.0000 33.0773 0.0000 1.9207
# 5 -1.0443 -2.9940 2.9954 0.0000 24.6194 0.0000
# 6 0.0000 0.0000 0.0000 1.9207 0.0000 17.4567
#
#
#
# Elastic Compliance Matrix: (Units=1/GPa)
#
#
# Indices 1 2 3 4 5 6 
#
# 1 0.008438 -0.003029 -0.002194 0.000000 0.000256 0.000000
# 2 -0.003029 0.017083 -0.000908 0.000000 0.002060 0.000000
# 3 -0.002194 -0.000908 0.013016 0.000000 -0.001787 0.000000
# 4 0.000000 0.000000 0.000000 0.030427 0.000000 -0.003348
# 5 0.000256 0.002060 -0.001787 0.000000 0.041097 0.000000
# 6 0.000000 0.000000 0.000000 -0.003348 0.000000 0.057653
#
#
# Mechanical properties :
#
#
# Convention : Reuss Voigt Hill
#
# Bulk Modulus (GPa) = 38.05729 43.85687 40.95708
# Shear Modulus (GPa) = 26.49219 29.82692 28.15955
#
# Velocity S-wave (km/s) = 3.44346 3.65377 3.55017
# Velocity P-wave (km/s) = 5.73094 6.11797 5.92762
#
# Compressibility (1/GPa) = 0.02627617
#
# Stress axis : x y z
#
# Youngs Moduli (GPa) = 118.50905 58.53724 76.82557
#
# Poissons Ratio (x) = 0.17730 0.16854
# Poissons Ratio (y) = 0.35895 0.06977
# Poissons Ratio (z) = 0.25998 0.05316
#
# Static dielectric constant tensor:
#      x y z
#    x 1.851860 0.000000 -0.014220 
#    y 0.000000 1.787620 0.000000 
#    z -0.014220 0.000000 1.852650 
# 
# From -- ./inp_files/5837.got.cif
#   From: 2010.05.17/outbox.cif.g08.bks.cpg/sg9_3_cif.got.tgz:5837.got - 2010.06.03 20:04:27.
