data_PCOD9140734
_publ_section_title
;
Structure prediction by ZEFSAII (Michael W. Deem and Ramdas Pophale) SiO2 
 PCOD9140734
Probable space group: C C
;
_chemical_formula_sum "Si O2"
_cell_formula_units_Z 24
_cell_length_a 13.872938
_cell_length_b 7.538473
_cell_length_c 13.855707
_cell_angle_alpha 90.000000
_cell_angle_beta 145.532203
_cell_angle_gamma 90.000000
_cell_volume 820.074246
_symmetry_space_group_name_H-M "C C"
_symmetry_group_IT_number 9
_symmetry_cell_setting 'monoclinic'
loop_
_space_group_symop_operation_xyz
x,y,z
x,-y,1/2+z
1/2+x,1/2+y,z
1/2+x,1/2-y,1/2+z
loop_
_atom_site_type_symbol
_atom_site_label
_atom_site_fract_x
_atom_site_fract_y
_atom_site_fract_z
Si Si1 0.610510 0.473587 0.300560
Si Si2 0.161577 0.374753 0.371643
Si Si3 0.895234 0.844045 0.375742
Si Si4 0.440725 0.966143 0.437731
Si Si5 0.289418 0.681212 0.195203
Si Si6 0.378734 0.180103 0.153024
O O1 0.419038 0.541180 0.352255
O O2 0.769296 0.458831 0.358789
O O3 0.447602 0.350425 0.149588
O O4 0.699376 0.389271 0.467743
O O5 0.289545 0.381617 0.386385
O O6 0.239218 0.362611 0.543843
O O7 0.077401 0.180519 0.287118
O O8 0.026194 0.534404 0.257193
O O9 0.003777 0.670464 0.499159
O O10 0.845533 0.746776 0.233724
O O11 0.367298 0.873118 0.279782
O O12 0.609002 0.854203 0.600024
#
# Coordination Sequence:
#
# PCOD9140734 Si02
#       6
#     4   4   4   4   4   4
#     4  11  26  46  79 114 154 203 259 321 390 464
#     4  11  26  47  72 109 153 204 254 313 386 461
#     4  11  26  46  75 108 152 203 255 314 385 459
#     4  11  25  48  76 115 154 205 260 318 392 464
#     4  12  26  48  78 112 157 203 258 325 387 463
#     4  12  25  49  76 114 154 202 260 321 386 463
#
# _framework density 29.265644999999999
#
# number of rings (size 3 to 8) (size 9 to 14) (size 15 to 20)
#    0.000    0.667    1.667    5.000    2.333    2.667 
#    0.000    3.333    0.000    0.000    0.000    0.000 
#    0.000    0.000    0.000    0.000    0.000    0.000 
#
# Total GULP energy -67144.265402 kJ/mol
# GULP energy per Si atom -5595.355450 kJ/mol
# Density = 2.919904 g / cm^3
# Si number density = 29.265645 Si / 1000 Ang^3
#
#
#
# Elastic Constant Matrix: (Units=GPa)
#
#
# Indices 1 2 3 4 5 6 
#
# 1 184.6508 82.7023 47.3038 0.0000 12.1345 0.0000
# 2 82.7023 219.9745 50.4705 0.0000 12.1489 0.0000
# 3 47.3038 50.4705 91.8954 0.0000 13.0914 0.0000
# 4 0.0000 0.0000 0.0000 46.2993 0.0000 4.5681
# 5 12.1345 12.1489 13.0914 0.0000 57.6006 0.0000
# 6 0.0000 0.0000 0.0000 4.5681 0.0000 50.4172
#
#
#
# Elastic Compliance Matrix: (Units=1/GPa)
#
#
# Indices 1 2 3 4 5 6 
#
# 1 0.006979 -0.002046 -0.002398 0.000000 -0.000494 0.000000
# 2 -0.002046 0.005813 -0.002094 0.000000 -0.000319 0.000000
# 3 -0.002398 -0.002094 0.013571 0.000000 -0.002138 0.000000
# 4 0.000000 0.000000 0.000000 0.021793 0.000000 -0.001975
# 5 -0.000494 -0.000319 -0.002138 0.000000 0.018018 0.000000
# 6 0.000000 0.000000 0.000000 -0.001975 0.000000 0.020013
#
#
# Mechanical properties :
#
#
# Convention : Reuss Voigt Hill
#
# Bulk Modulus (GPa) = 75.26605 95.27487 85.27046
# Shear Modulus (GPa) = 48.21872 51.93304 50.07588
#
# Velocity S-wave (km/s) = 4.06349 4.21710 4.14101
# Velocity P-wave (km/s) = 6.91303 7.50585 7.21553
#
# Compressibility (1/GPa) = 0.01328620
#
# Stress axis : x y z
#
# Youngs Moduli (GPa) = 143.28765 172.01676 73.68629
#
# Poissons Ratio (x) = 0.35200 0.17672
# Poissons Ratio (y) = 0.29321 0.15430
# Poissons Ratio (z) = 0.34365 0.36020
#
# Static dielectric constant tensor:
#      x y z
#    x 2.348250 0.000000 -0.007470 
#    y 0.000000 2.275560 0.000000 
#    z -0.007470 0.000000 2.312860 
# 
# From -- ./inp_files/24691.got.cif
#   From: 2010.05.17/outbox.cif.g08.bks.cpg/sg9_13_cif.got.tgz:24691.got - 2010.06.03 20:04:27.
