data_PCOD9140800
_publ_section_title
;
Structure prediction by ZEFSAII (Michael W. Deem and Ramdas Pophale) SiO2 
 PCOD9140800
Probable space group: C C
;
_chemical_formula_sum "Si O2"
_cell_formula_units_Z 28
_cell_length_a 7.433840
_cell_length_b 17.071996
_cell_length_c 8.976336
_cell_angle_alpha 90.000000
_cell_angle_beta 111.232056
_cell_angle_gamma 90.000000
_cell_volume 1061.864392
_symmetry_space_group_name_H-M "C C"
_symmetry_group_IT_number 9
_symmetry_cell_setting 'monoclinic'
loop_
_space_group_symop_operation_xyz
x,y,z
x,-y,1/2+z
1/2+x,1/2+y,z
1/2+x,1/2-y,1/2+z
loop_
_atom_site_type_symbol
_atom_site_label
_atom_site_fract_x
_atom_site_fract_y
_atom_site_fract_z
Si Si1 0.672950 0.930807 0.279220
Si Si2 0.273205 0.564262 0.125571
Si Si3 0.240187 0.710101 0.322563
Si Si4 0.295047 0.969134 0.974723
Si Si5 0.660259 0.313343 0.047523
Si Si6 0.191811 0.898203 0.636393
Si Si7 0.107265 0.279575 0.109929
O O1 0.639600 0.948636 0.441571
O O2 0.702995 0.839751 0.255082
O O3 0.819009 0.991017 0.245522
O O4 0.488345 0.950773 0.123123
O O5 0.201901 0.635820 0.204821
O O6 0.467855 0.587925 0.101562
O O7 0.472172 0.720497 0.408608
O O8 0.151704 0.785779 0.215608
O O9 0.154774 0.692699 0.457608
O O10 0.296728 0.941470 0.805159
O O11 0.151112 0.905819 0.011265
O O12 0.244694 0.057939 0.000559
O O13 0.873617 0.282529 0.061867
O O14 0.206806 0.805179 0.648757
#
# Coordination Sequence:
#
# PCOD9140800 Si02
#       7
#     4   4   4   4   4   4   4
#     4  11  27  46  79 109 157 200 264 323 387 463
#     4  12  25  48  76 112 153 200 257 321 389 469
#     4  12  28  47  83 111 159 204 267 314 412 450
#     4  11  26  45  73 106 157 198 252 316 393 452
#     4  11  26  50  74 117 156 200 263 334 369 482
#     4  12  26  48  75 108 160 200 256 320 390 459
#     4  11  28  52  82 113 158 212 265 324 392 463
#
# _framework density 26.368715000000002
#
# number of rings (size 3 to 8) (size 9 to 14) (size 15 to 20)
#    0.000    0.571    2.857    2.571   10.000    6.857 
#    0.000    0.000    0.000    0.000    0.000    0.000 
#    0.000    0.000    0.000    0.000    0.000    0.000 
#
# Total GULP energy -78478.487718 kJ/mol
# GULP energy per Si atom -5605.606266 kJ/mol
# Density = 2.630870 g / cm^3
# Si number density = 26.368715 Si / 1000 Ang^3
#
#
#
# Elastic Constant Matrix: (Units=GPa)
#
#
# Indices 1 2 3 4 5 6 
#
# 1 56.2320 21.0288 27.1264 0.0000 -6.7864 0.0000
# 2 21.0288 167.6319 54.0185 0.0000 -7.8960 0.0000
# 3 27.1264 54.0185 166.8572 0.0000 -4.7993 0.0000
# 4 0.0000 0.0000 0.0000 59.7757 0.0000 -6.8663
# 5 -6.7864 -7.8960 -4.7993 0.0000 38.9186 0.0000
# 6 0.0000 0.0000 0.0000 -6.8663 0.0000 33.8542
#
#
#
# Elastic Compliance Matrix: (Units=1/GPa)
#
#
# Indices 1 2 3 4 5 6 
#
# 1 0.019984 -0.001510 -0.002678 0.000000 0.002848 0.000000
# 2 -0.001510 0.006821 -0.001937 0.000000 0.000882 0.000000
# 3 -0.002678 -0.001937 0.007056 0.000000 0.000010 0.000000
# 4 0.000000 0.000000 0.000000 0.017128 0.000000 0.003474
# 5 0.002848 0.000882 0.000010 0.000000 0.026371 0.000000
# 6 0.000000 0.000000 0.000000 0.003474 0.000000 0.030243
#
#
# Mechanical properties :
#
#
# Convention : Reuss Voigt Hill
#
# Bulk Modulus (GPa) = 46.27482 66.11873 56.19677
# Shear Modulus (GPa) = 39.35251 45.74620 42.54936
#
# Velocity S-wave (km/s) = 3.86734 4.16969 4.02136
# Velocity P-wave (km/s) = 6.12609 6.95060 6.55133
#
# Compressibility (1/GPa) = 0.02161003
#
# Stress axis : x y z
#
# Youngs Moduli (GPa) = 50.04083 146.61326 141.72295
#
# Poissons Ratio (x) = 0.22134 0.37955
# Poissons Ratio (y) = 0.07555 0.27456
# Poissons Ratio (z) = 0.13402 0.28404
#
# Static dielectric constant tensor:
#      x y z
#    x 2.143600 0.000000 0.065620 
#    y 0.000000 2.141220 0.000000 
#    z 0.065620 0.000000 2.033690 
# 
# From -- ./inp_files/5399.got.cif
#   From: 2010.05.17/outbox.cif.g08.bks.cpg/sg9_3_cif.got.tgz:5399.got - 2010.06.03 20:04:27.
