data_PCOD9140771
_publ_section_title
;
Structure prediction by ZEFSAII (Michael W. Deem and Ramdas Pophale) SiO2 
 PCOD9140771
Probable space group: C C
;
_chemical_formula_sum "Si O2"
_cell_formula_units_Z 24
_cell_length_a 20.371273
_cell_length_b 10.790944
_cell_length_c 12.876488
_cell_angle_alpha 90.000000
_cell_angle_beta 160.469433
_cell_angle_gamma 90.000000
_cell_volume 946.289499
_symmetry_space_group_name_H-M "C C"
_symmetry_group_IT_number 9
_symmetry_cell_setting 'monoclinic'
loop_
_space_group_symop_operation_xyz
x,y,z
x,-y,1/2+z
1/2+x,1/2+y,z
1/2+x,1/2-y,1/2+z
loop_
_atom_site_type_symbol
_atom_site_label
_atom_site_fract_x
_atom_site_fract_y
_atom_site_fract_z
Si Si1 0.830420 0.636237 0.313570
Si Si2 0.040545 0.868115 0.733452
Si Si3 0.714557 0.986906 0.397024
Si Si4 0.412532 0.710073 0.613206
Si Si5 0.715870 0.549163 0.825418
Si Si6 0.823492 0.827735 0.743013
O O1 0.755260 0.552387 0.296979
O O2 0.637535 0.668637 0.961547
O O3 0.927785 0.763989 0.497945
O O4 0.010453 0.553255 0.539140
O O5 0.130671 0.971998 0.793974
O O6 0.222836 0.798787 0.058519
O O7 0.887218 0.920342 0.588594
O O8 0.774998 0.129932 0.485445
O O9 0.709726 0.932749 0.506963
O O10 0.044791 0.854641 0.038245
O O11 0.393547 0.856011 0.606425
O O12 0.333387 0.672904 0.381427
#
# Coordination Sequence:
#
# PCOD9140771 Si02
#       6
#     4   4   4   4   4   4
#     4  11  27  51  79 122 167 213 281 343 418 492
#     4  11  26  54  81 116 166 224 270 345 416 490
#     4  11  25  52  81 117 168 219 274 342 420 490
#     4  12  28  49  83 127 161 223 280 337 416 498
#     4  12  27  50  85 122 165 218 282 347 412 499
#     4  11  25  50  83 116 167 213 275 340 414 489
#
# _framework density 25.362217999999999
#
# number of rings (size 3 to 8) (size 9 to 14) (size 15 to 20)
#    0.000    0.667    3.333    3.000    2.333    6.667 
#    9.000    0.000    0.000    0.000    0.000    0.000 
#    0.000    0.000    0.000    0.000    0.000    0.000 
#
# Total GULP energy -67234.545551 kJ/mol
# GULP energy per Si atom -5602.878796 kJ/mol
# Density = 2.530449 g / cm^3
# Si number density = 25.362218 Si / 1000 Ang^3
#
#
#
# Elastic Constant Matrix: (Units=GPa)
#
#
# Indices 1 2 3 4 5 6 
#
# 1 132.0988 79.6964 63.8479 0.0000 1.5236 0.0000
# 2 79.6964 172.0277 76.9360 0.0000 -3.2963 0.0000
# 3 63.8479 76.9360 167.9835 0.0000 -1.7737 0.0000
# 4 0.0000 0.0000 0.0000 35.9130 0.0000 14.6762
# 5 1.5236 -3.2963 -1.7737 0.0000 32.4304 0.0000
# 6 0.0000 0.0000 0.0000 14.6762 0.0000 48.3710
#
#
#
# Elastic Compliance Matrix: (Units=1/GPa)
#
#
# Indices 1 2 3 4 5 6 
#
# 1 0.011246 -0.004168 -0.002377 0.000000 -0.001082 0.000000
# 2 -0.004168 0.008865 -0.002466 0.000000 0.000962 0.000000
# 3 -0.002377 -0.002466 0.007989 0.000000 0.000298 0.000000
# 4 0.000000 0.000000 0.000000 0.031786 0.000000 -0.009644
# 5 -0.001082 0.000962 0.000298 0.000000 0.031000 0.000000
# 6 0.000000 0.000000 0.000000 -0.009644 0.000000 0.023600
#
#
# Mechanical properties :
#
#
# Convention : Reuss Voigt Hill
#
# Bulk Modulus (GPa) = 99.21944 101.45228 100.33586
# Shear Modulus (GPa) = 36.80079 40.11821 38.45950
#
# Velocity S-wave (km/s) = 3.81334 3.98151 3.89833
# Velocity P-wave (km/s) = 7.65472 7.82463 7.74014
#
# Compressibility (1/GPa) = 0.01007867
#
# Stress axis : x y z
#
# Youngs Moduli (GPa) = 88.92210 112.80255 125.17206
#
# Poissons Ratio (x) = 0.47011 0.29754
# Poissons Ratio (y) = 0.37059 0.30867
# Poissons Ratio (z) = 0.21137 0.27817
#
# Static dielectric constant tensor:
#      x y z
#    x 1.988950 0.000000 -0.019150 
#    y 0.000000 1.993140 0.000000 
#    z -0.019150 0.000000 2.056670 
# 
# From -- ./inp_files/27724.got.cif
#   From: 2010.05.17/outbox.cif.g08.bks.cpg/sg9_14_cif.got.tgz:27724.got - 2010.06.03 20:04:27.
