data_PCOD9140642
_publ_section_title
;
Structure prediction by ZEFSAII (Michael W. Deem and Ramdas Pophale) SiO2 
 PCOD9140642
Probable space group: C C
;
_chemical_formula_sum "Si O2"
_cell_formula_units_Z 32
_cell_length_a 27.349528
_cell_length_b 8.694586
_cell_length_c 7.767919
_cell_angle_alpha 90.000000
_cell_angle_beta 42.953015
_cell_angle_gamma 90.000000
_cell_volume 1258.648708
_symmetry_space_group_name_H-M "C C"
_symmetry_group_IT_number 9
_symmetry_cell_setting 'monoclinic'
loop_
_space_group_symop_operation_xyz
x,y,z
x,-y,1/2+z
1/2+x,1/2+y,z
1/2+x,1/2-y,1/2+z
loop_
_atom_site_type_symbol
_atom_site_label
_atom_site_fract_x
_atom_site_fract_y
_atom_site_fract_z
Si Si1 0.534110 0.765326 0.748520
Si Si2 0.032274 0.217079 0.261120
Si Si3 0.981005 0.549691 0.685743
Si Si4 0.324319 0.249197 0.492751
Si Si5 0.823457 0.583524 0.117584
Si Si6 0.178876 0.616045 0.285005
Si Si7 0.462182 0.551831 0.738672
Si Si8 0.188169 0.271170 0.370727
O O1 0.471293 0.641098 0.898118
O O2 0.612102 0.687527 0.534638
O O3 0.510310 0.884046 0.660440
O O4 0.534873 0.865663 0.919050
O O5 0.984553 0.370258 0.366123
O O6 0.022674 0.120119 0.456611
O O7 0.111728 0.285501 0.030572
O O8 0.991362 0.113613 0.220988
O O9 0.901678 0.590020 0.827878
O O10 0.326636 0.170046 0.295122
O O11 0.250298 0.338993 0.702119
O O12 0.387658 0.376354 0.357969
O O13 0.318842 0.102815 0.635308
O O14 0.758232 0.662829 0.179921
O O15 0.176531 0.430507 0.296166
O O16 0.189857 0.671035 0.062544
#
# Coordination Sequence:
#
# PCOD9140642 Si02
#       8
#     4   4   4   4   4   4   4   4
#     4  12  23  43  73 103 136 182 238 290 354 421
#     4  12  26  46  69 104 139 181 237 292 350 424
#     4  12  22  43  72 102 135 180 237 290 349 421
#     4  11  26  47  68 106 141 188 231 292 357 423
#     4  11  25  45  70 103 142 183 237 287 355 424
#     4  11  27  45  71 103 145 184 236 289 357 422
#     4  12  28  45  71 104 140 183 237 293 357 422
#     4  11  25  46  68 105 140 187 233 289 353 421
#
# _framework density 25.424092999999999
#
# number of rings (size 3 to 8) (size 9 to 14) (size 15 to 20)
#    0.000    0.500    5.000    2.250    5.250    2.000 
#    0.000    0.000    0.000    0.000    0.000    0.000 
#    0.000    0.000    0.000    0.000    0.000    0.000 
#
# Total GULP energy -89217.248013 kJ/mol
# GULP energy per Si atom -5576.078001 kJ/mol
# Density = 2.536623 g / cm^3
# Si number density = 25.424093 Si / 1000 Ang^3
#
#
#
# Elastic Constant Matrix: (Units=GPa)
#
#
# Indices 1 2 3 4 5 6 
#
# 1 116.1986 33.2589 49.6352 0.0000 -36.5042 0.0000
# 2 33.2589 115.7908 26.0798 0.0000 -21.4880 0.0000
# 3 49.6352 26.0798 97.7035 0.0000 -38.2300 0.0000
# 4 0.0000 0.0000 0.0000 30.1570 0.0000 -7.7451
# 5 -36.5042 -21.4880 -38.2300 0.0000 55.9904 0.0000
# 6 0.0000 0.0000 0.0000 -7.7451 0.0000 56.2767
#
#
#
# Elastic Compliance Matrix: (Units=1/GPa)
#
#
# Indices 1 2 3 4 5 6 
#
# 1 0.012247 -0.001774 -0.003944 0.000000 0.004611 0.000000
# 2 -0.001774 0.009715 -0.000936 0.000000 0.001933 0.000000
# 3 -0.003944 -0.000936 0.015477 0.000000 0.007637 0.000000
# 4 0.000000 0.000000 0.000000 0.034375 0.000000 0.004731
# 5 0.004611 0.001933 0.007637 0.000000 0.026823 0.000000
# 6 0.000000 0.000000 0.000000 0.004731 0.000000 0.018420
#
#
# Mechanical properties :
#
#
# Convention : Reuss Voigt Hill
#
# Bulk Modulus (GPa) = 41.43891 60.84895 51.14393
# Shear Modulus (GPa) = 36.12516 43.19942 39.66229
#
# Velocity S-wave (km/s) = 3.77358 4.12655 3.95400
# Velocity P-wave (km/s) = 5.94314 6.83301 6.40356
#
# Compressibility (1/GPa) = 0.02413191
#
# Stress axis : x y z
#
# Youngs Moduli (GPa) = 81.65334 102.93100 64.61344
#
# Poissons Ratio (x) = 0.18257 0.25483
# Poissons Ratio (y) = 0.14483 0.06046
# Poissons Ratio (z) = 0.32204 0.09632
#
# Static dielectric constant tensor:
#      x y z
#    x 2.086010 0.000000 0.045030 
#    y 0.000000 2.127240 0.000000 
#    z 0.045030 0.000000 2.072420 
# 
# From -- ./inp_files/12690.got.cif
#   From: 2010.05.17/outbox.cif.g08.bks.cpg/sg9_7_cif.got.tgz:12690.got - 2010.06.03 20:04:27.
