data_PCOD9140201
_publ_section_title
;
Structure prediction by ZEFSAII (Michael W. Deem and Ramdas Pophale) SiO2 
 PCOD9140201
Probable space group: C C
;
_chemical_formula_sum "Si O2"
_cell_formula_units_Z 32
_cell_length_a 14.091786
_cell_length_b 8.369015
_cell_length_c 11.091133
_cell_angle_alpha 90.000000
_cell_angle_beta 69.322782
_cell_angle_gamma 90.000000
_cell_volume 1223.768639
_symmetry_space_group_name_H-M "C C"
_symmetry_group_IT_number 9
_symmetry_cell_setting 'monoclinic'
loop_
_space_group_symop_operation_xyz
x,y,z
x,-y,1/2+z
1/2+x,1/2+y,z
1/2+x,1/2-y,1/2+z
loop_
_atom_site_type_symbol
_atom_site_label
_atom_site_fract_x
_atom_site_fract_y
_atom_site_fract_z
Si Si1 0.750000 0.392340 0.428030
Si Si2 0.140928 0.508946 0.150938
Si Si3 0.170203 0.828925 0.035278
Si Si4 0.036133 0.233342 0.042782
Si Si5 0.894912 0.093097 0.321011
Si Si6 0.955709 0.449630 0.889243
Si Si7 0.778231 0.801451 0.264318
Si Si8 0.963905 0.229451 0.524215
O O1 0.713848 0.502723 0.561140
O O2 0.632222 0.360826 0.438829
O O3 0.802712 0.220567 0.383138
O O4 0.855125 0.496036 0.364185
O O5 0.096486 0.385282 0.073730
O O6 0.205180 0.407483 0.215082
O O7 0.043439 0.584388 0.257114
O O8 0.202771 0.663694 0.080509
O O9 0.210337 0.810367 0.878986
O O10 0.050102 0.825867 0.075630
O O11 0.971423 0.152908 0.180856
O O12 0.956025 0.305440 0.983420
O O13 0.948087 0.098104 0.427499
O O14 0.846078 0.924967 0.310514
O O15 0.992040 0.608618 0.943210
O O16 0.859352 0.728124 0.136646
#
# Coordination Sequence:
#
# PCOD9140201 Si02
#       8
#     4   4   4   4   4   4   4   4
#     4  11  26  46  68 111 143 191 256 314 380 453
#     4  12  22  46  72 100 144 192 251 302 380 456
#     4  12  26  44  71 108 142 191 250 313 380 451
#     4  12  23  48  73 101 149 196 251 313 379 463
#     4  11  25  48  69 104 144 199 245 306 389 458
#     4  11  24  45  74 104 145 200 243 306 375 453
#     4  12  25  44  74 103 143 197 244 315 382 460
#     4  11  23  45  71 105 140 188 250 301 373 456
#
# _framework density 26.148734000000001
#
# number of rings (size 3 to 8) (size 9 to 14) (size 15 to 20)
#    0.000    0.500    5.000    4.500    5.250    0.000 
#    2.250    1.250    0.000    0.000    0.000    0.000 
#    0.000    0.000    0.000    0.000    0.000    0.000 
#
# Total GULP energy -89276.275580 kJ/mol
# GULP energy per Si atom -5579.767224 kJ/mol
# Density = 2.608922 g / cm^3
# Si number density = 26.148734 Si / 1000 Ang^3
#
#
#
# Elastic Constant Matrix: (Units=GPa)
#
#
# Indices 1 2 3 4 5 6 
#
# 1 96.3015 25.9611 30.8632 0.0000 -9.7874 0.0000
# 2 25.9611 78.0827 24.2549 0.0000 9.4176 0.0000
# 3 30.8632 24.2549 91.3382 0.0000 -20.9193 0.0000
# 4 0.0000 0.0000 0.0000 39.9363 0.0000 -6.7187
# 5 -9.7874 9.4176 -20.9193 0.0000 35.4765 0.0000
# 6 0.0000 0.0000 0.0000 -6.7187 0.0000 -305.3875
#
#
#
# Elastic Compliance Matrix: (Units=1/GPa)
#
#
# Indices 1 2 3 4 5 6 
#
# 1 0.012505 -0.003711 -0.002572 0.000000 0.002919 0.000000
# 2 -0.003711 0.016645 -0.005101 0.000000 -0.008450 0.000000
# 3 -0.002572 -0.005101 0.015399 0.000000 0.009725 0.000000
# 4 0.000000 0.000000 0.000000 0.024948 0.000000 -0.000549
# 5 0.002919 -0.008450 0.009725 0.000000 0.036971 0.000000
# 6 0.000000 0.000000 0.000000 -0.000549 0.000000 -0.003262
#
#
# Mechanical properties :
#
#
# Convention : Reuss Voigt Hill
#
# Bulk Modulus (GPa) = 45.91124 47.54232 46.72678
# Shear Modulus (GPa) = 37.52803 -33.68539 1.92132
#
# Velocity S-wave (km/s) = 3.79248 -3.59308 0.85811
# Velocity P-wave (km/s) = 6.06408 1.00368 4.34629
#
# Compressibility (1/GPa) = 0.02178116
#
# Stress axis : x y z
#
# Youngs Moduli (GPa) = 79.96635 60.07932 64.93778
#
# Poissons Ratio (x) = 0.22295 0.16699
# Poissons Ratio (y) = 0.29675 0.33128
# Poissons Ratio (z) = 0.20564 0.30649
#
# Static dielectric constant tensor:
#      x y z
#    x 2.079330 0.000000 0.036030 
#    y 0.000000 4.663670 0.000000 
#    z 0.036030 0.000000 2.066550 
# 
# From -- ./inp_files/17753.got.cif
#   From: 2010.05.17/outbox.cif.g08.bks.cpg/sg9_9_cif.got.tgz:17753.got - 2010.06.03 20:04:27.
