data_PCOD9140356
_publ_section_title
;
Structure prediction by ZEFSAII (Michael W. Deem and Ramdas Pophale) SiO2 
 PCOD9140356
Probable space group: C C
;
_chemical_formula_sum "Si O2"
_cell_formula_units_Z 28
_cell_length_a 7.443682
_cell_length_b 22.218019
_cell_length_c 9.245685
_cell_angle_alpha 90.000000
_cell_angle_beta 121.814138
_cell_angle_gamma 90.000000
_cell_volume 1299.361130
_symmetry_space_group_name_H-M "C C"
_symmetry_group_IT_number 9
_symmetry_cell_setting 'monoclinic'
loop_
_space_group_symop_operation_xyz
x,y,z
x,-y,1/2+z
1/2+x,1/2+y,z
1/2+x,1/2-y,1/2+z
loop_
_atom_site_type_symbol
_atom_site_label
_atom_site_fract_x
_atom_site_fract_y
_atom_site_fract_z
Si Si1 0.437610 0.327938 0.274550
Si Si2 0.579934 0.881139 0.605127
Si Si3 0.214202 0.293489 0.900022
Si Si4 0.084889 0.690464 0.817502
Si Si5 0.654703 0.554627 0.937885
Si Si6 0.172468 0.183632 0.443645
Si Si7 0.539490 0.567578 0.226622
O O1 0.600775 0.271666 0.347986
O O2 0.294815 0.342984 0.353268
O O3 0.560113 0.389955 0.303571
O O4 0.258379 0.312257 0.081783
O O5 0.580546 0.841271 0.750989
O O6 0.544523 0.832976 0.461568
O O7 0.402948 0.931581 0.539603
O O8 0.800905 0.913061 0.664310
O O9 0.449568 0.302634 0.930875
O O10 0.171511 0.758467 0.841020
O O11 0.869336 0.684359 0.636257
O O12 0.596142 0.492426 0.838409
O O13 0.582170 0.557576 0.074764
O O14 0.170168 0.123436 0.349402
#
# Coordination Sequence:
#
# PCOD9140356 Si02
#       7
#     4   4   4   4   4   4   4
#     4  12  25  42  71 109 142 180 240 287 359 418
#     4  11  26  49  74 105 143 185 240 288 361 416
#     4  11  24  42  71 107 139 185 225 294 355 422
#     4  12  24  42  74 107 144 182 227 302 353 427
#     4  12  28  49  74  99 145 187 244 288 350 422
#     4  11  24  43  70 102 146 180 237 283 363 412
#     4  11  29  49  70 105 137 193 239 294 341 427
#
# _framework density 21.549050999999999
#
# number of rings (size 3 to 8) (size 9 to 14) (size 15 to 20)
#    0.000    0.571    1.429    6.857   12.000    2.286 
#    0.000    0.000    0.000    0.000    0.000    0.000 
#    0.000    0.000    0.000    0.000    0.000    0.000 
#
# Total GULP energy -78230.487726 kJ/mol
# GULP energy per Si atom -5587.891980 kJ/mol
# Density = 2.150000 g / cm^3
# Si number density = 21.549051 Si / 1000 Ang^3
#
#
#
# Elastic Constant Matrix: (Units=GPa)
#
#
# Indices 1 2 3 4 5 6 
#
# 1 75.2785 39.0057 36.8717 0.0000 4.5476 0.0000
# 2 39.0057 160.4698 107.4591 0.0000 8.4741 0.0000
# 3 36.8717 107.4591 141.7601 0.0000 6.5421 0.0000
# 4 0.0000 0.0000 0.0000 38.4656 0.0000 6.5937
# 5 4.5476 8.4741 6.5421 0.0000 36.3775 0.0000
# 6 0.0000 0.0000 0.0000 6.5937 0.0000 26.9098
#
#
#
# Elastic Compliance Matrix: (Units=1/GPa)
#
#
# Indices 1 2 3 4 5 6 
#
# 1 0.015628 -0.002141 -0.002395 0.000000 -0.001024 0.000000
# 2 -0.002141 0.013005 -0.009250 0.000000 -0.001098 0.000000
# 3 -0.002395 -0.009250 0.014698 0.000000 -0.000189 0.000000
# 4 0.000000 0.000000 0.000000 0.027137 0.000000 -0.006649
# 5 -0.001024 -0.001098 -0.000189 0.000000 0.027907 0.000000
# 6 0.000000 0.000000 0.000000 -0.006649 0.000000 0.038790
#
#
# Mechanical properties :
#
#
# Convention : Reuss Voigt Hill
#
# Bulk Modulus (GPa) = 63.45781 82.68683 73.07232
# Shear Modulus (GPa) = 29.41334 33.29537 31.35435
#
# Velocity S-wave (km/s) = 3.69853 3.93504 3.81861
# Velocity P-wave (km/s) = 6.91020 7.68770 7.30929
#
# Compressibility (1/GPa) = 0.01575850
#
# Stress axis : x y z
#
# Youngs Moduli (GPa) = 63.98691 76.89501 68.03709
#
# Poissons Ratio (x) = 0.16465 0.16292
# Poissons Ratio (y) = 0.13701 0.62937
# Poissons Ratio (z) = 0.15322 0.71131
#
# Static dielectric constant tensor:
#      x y z
#    x 1.998030 0.000000 -0.072770 
#    y 0.000000 1.757900 0.000000 
#    z -0.072770 0.000000 1.801350 
# 
# From -- ./inp_files/5842.got.cif
#   From: 2010.05.17/outbox.cif.g08.bks.cpg/sg9_3_cif.got.tgz:5842.got - 2010.06.03 20:04:27.
