data_PCOD9140526
_publ_section_title
;
Structure prediction by ZEFSAII (Michael W. Deem and Ramdas Pophale) SiO2 
 PCOD9140526
Probable space group: C C
;
_chemical_formula_sum "Si O2"
_cell_formula_units_Z 32
_cell_length_a 14.856710
_cell_length_b 9.757546
_cell_length_c 11.569635
_cell_angle_alpha 90.000000
_cell_angle_beta 56.593030
_cell_angle_gamma 90.000000
_cell_volume 1400.088249
_symmetry_space_group_name_H-M "C C"
_symmetry_group_IT_number 9
_symmetry_cell_setting 'monoclinic'
loop_
_space_group_symop_operation_xyz
x,y,z
x,-y,1/2+z
1/2+x,1/2+y,z
1/2+x,1/2-y,1/2+z
loop_
_atom_site_type_symbol
_atom_site_label
_atom_site_fract_x
_atom_site_fract_y
_atom_site_fract_z
Si Si1 0.882130 0.126454 0.708150
Si Si2 0.057741 0.038843 0.214887
Si Si3 0.256869 0.641268 0.221775
Si Si4 0.065413 0.501318 0.738342
Si Si5 0.845624 0.406978 0.803337
Si Si6 0.940239 0.732577 0.948279
Si Si7 0.201857 0.737479 0.515902
Si Si8 0.277373 0.924854 0.118002
O O1 0.810814 0.247781 0.813043
O O2 0.950434 0.212484 0.568642
O O3 0.820202 0.002079 0.689541
O O4 0.964111 0.057692 0.737010
O O5 0.121888 0.132444 0.075941
O O6 0.999226 0.153764 0.330923
O O7 0.149154 0.951776 0.213780
O O8 0.144505 0.605678 0.241087
O O9 0.237775 0.697972 0.363283
O O10 0.311521 0.767454 0.116597
O O11 0.138084 0.609291 0.615799
O O12 0.973605 0.430394 0.727793
O O13 0.000747 0.591703 0.878984
O O14 0.816895 0.488166 0.703986
O O15 0.803969 0.449253 0.961873
O O16 0.812206 0.733180 0.009016
#
# Coordination Sequence:
#
# PCOD9140526 Si02
#       8
#     4   4   4   4   4   4   4   4
#     4  12  27  45  76 112 151 197 256 320 378 456
#     4  11  26  46  74 107 147 203 246 315 378 456
#     4  12  27  45  76 112 151 197 256 320 378 456
#     4  11  26  46  74 107 147 203 246 315 378 456
#     4  12  29  51  78 112 158 204 258 315 383 462
#     4  11  24  47  73 104 152 194 252 309 390 445
#     4  11  24  47  73 104 152 194 252 309 390 445
#     4  12  29  51  78 112 158 204 258 315 383 462
#
# _framework density 22.855702999999998
#
# number of rings (size 3 to 8) (size 9 to 14) (size 15 to 20)
#    0.000    0.500    2.500    4.500   14.000    0.000 
#    0.000    0.000    0.000    0.000    0.000    0.000 
#    0.000    0.000    0.000    0.000    0.000    0.000 
#
# Total GULP energy -89365.146082 kJ/mol
# GULP energy per Si atom -5585.321630 kJ/mol
# Density = 2.280368 g / cm^3
# Si number density = 22.855703 Si / 1000 Ang^3
#
#
#
# Elastic Constant Matrix: (Units=GPa)
#
#
# Indices 1 2 3 4 5 6 
#
# 1 103.0017 28.0167 -0.2179 0.0000 9.3016 0.0000
# 2 28.0167 139.4574 22.8575 0.0000 13.2225 0.0000
# 3 -0.2179 22.8575 93.7475 0.0000 18.5283 0.0000
# 4 0.0000 0.0000 0.0000 -13.9854 0.0000 12.3992
# 5 9.3016 13.2225 18.5283 0.0000 35.0600 0.0000
# 6 0.0000 0.0000 0.0000 12.3992 0.0000 33.9851
#
#
#
# Elastic Compliance Matrix: (Units=1/GPa)
#
#
# Indices 1 2 3 4 5 6 
#
# 1 0.010495 -0.002034 0.001026 0.000000 -0.002560 0.000000
# 2 -0.002034 0.008000 -0.001637 0.000000 -0.001613 0.000000
# 3 0.001026 -0.001637 0.012283 0.000000 -0.006146 0.000000
# 4 0.000000 0.000000 0.000000 -0.054027 0.000000 0.019711
# 5 -0.002560 -0.001613 -0.006146 0.000000 0.033058 0.000000
# 6 0.000000 0.000000 0.000000 0.019711 0.000000 0.022233
#
#
# Mechanical properties :
#
#
# Convention : Reuss Voigt Hill
#
# Bulk Modulus (GPa) = 39.23123 48.61324 43.92224
# Shear Modulus (GPa) = 109.10385 30.04863 69.57624
#
# Velocity S-wave (km/s) = 6.91662 3.62983 5.52337
# Velocity P-wave (km/s) = 8.99934 6.23565 7.74182
#
# Compressibility (1/GPa) = 0.02548990
#
# Stress axis : x y z
#
# Youngs Moduli (GPa) = 95.28222 124.99334 81.41236
#
# Poissons Ratio (x) = 0.25423 -0.08355
# Poissons Ratio (y) = 0.19380 0.13324
# Poissons Ratio (z) = -0.09778 0.20457
#
# Static dielectric constant tensor:
#      x y z
#    x 1.807470 0.000000 -0.004810 
#    y 0.000000 1.950570 0.000000 
#    z -0.004810 0.000000 1.921660 
# 
# From -- ./inp_files/17902.got.cif
#   From: 2010.05.17/outbox.cif.g08.bks.cpg/sg9_9_cif.got.tgz:17902.got - 2010.06.03 20:04:27.
