data_PCOD9140377
_publ_section_title
;
Structure prediction by ZEFSAII (Michael W. Deem and Ramdas Pophale) SiO2 
 PCOD9140377
Probable space group: C C
;
_chemical_formula_sum "Si O2"
_cell_formula_units_Z 32
_cell_length_a 11.559782
_cell_length_b 21.622341
_cell_length_c 5.487159
_cell_angle_alpha 90.000000
_cell_angle_beta 72.979004
_cell_angle_gamma 90.000000
_cell_volume 1311.437291
_symmetry_space_group_name_H-M "C C"
_symmetry_group_IT_number 9
_symmetry_cell_setting 'monoclinic'
loop_
_space_group_symop_operation_xyz
x,y,z
x,-y,1/2+z
1/2+x,1/2+y,z
1/2+x,1/2-y,1/2+z
loop_
_atom_site_type_symbol
_atom_site_label
_atom_site_fract_x
_atom_site_fract_y
_atom_site_fract_z
Si Si1 0.038880 0.560099 0.847510
Si Si2 0.279095 0.975625 0.416121
Si Si3 0.251522 0.716592 0.168109
Si Si4 0.827299 0.036049 0.630778
Si Si5 0.028340 0.366444 0.859916
Si Si6 0.959703 0.162204 0.377606
Si Si7 0.382313 0.230101 0.205897
Si Si8 0.212630 0.841238 0.460484
O O1 0.178914 0.538704 0.736510
O O2 0.020047 0.602439 0.623735
O O3 0.022949 0.593782 0.115791
O O4 0.922539 0.515489 0.885174
O O5 0.251806 0.907114 0.331924
O O6 0.230475 0.017746 0.224470
O O7 0.158997 0.663208 0.271010
O O8 0.371547 0.692805 0.229895
O O9 0.200853 0.781832 0.295340
O O10 0.277124 0.725626 0.868517
O O11 0.892263 0.102748 0.540948
O O12 0.860966 0.993893 0.373013
O O13 0.934938 0.310182 0.891411
O O14 0.977811 0.221649 0.542423
O O15 0.087967 0.147172 0.179967
O O16 0.321629 0.181411 0.065601
#
# Coordination Sequence:
#
# PCOD9140377 Si02
#       8
#     4   4   4   4   4   4   4   4
#     4  12  24  47  74 110 142 185 244 308 368 424
#     4  12  27  48  73 103 143 194 250 300 356 424
#     4  11  24  43  72 108 144 189 236 297 368 439
#     4  12  27  48  73 103 143 194 250 300 356 424
#     4  12  24  41  78 110 144 179 234 306 368 438
#     4  11  26  46  71 106 146 192 239 295 365 436
#     4  11  24  43  72 108 144 189 236 297 368 439
#     4  11  26  46  71 106 146 192 239 295 365 436
#
# _framework density 24.40071
#
# number of rings (size 3 to 8) (size 9 to 14) (size 15 to 20)
#    0.000    0.500    2.500    5.250    8.750    1.000 
#    0.000    0.000    0.000    0.000    0.000    0.000 
#    0.000    0.000    0.000    0.000    0.000    0.000 
#
# Total GULP energy -89419.991691 kJ/mol
# GULP energy per Si atom -5588.749481 kJ/mol
# Density = 2.434517 g / cm^3
# Si number density = 24.400710 Si / 1000 Ang^3
#
#
#
# Elastic Constant Matrix: (Units=GPa)
#
#
# Indices 1 2 3 4 5 6 
#
# 1 52.5337 26.3802 23.4140 0.0000 -0.2225 0.0000
# 2 26.3802 104.9067 42.5518 0.0000 7.0867 0.0000
# 3 23.4140 42.5518 99.3342 0.0000 5.8756 0.0000
# 4 0.0000 0.0000 0.0000 29.5840 0.0000 -51.0660
# 5 -0.2225 7.0867 5.8756 0.0000 39.4949 0.0000
# 6 0.0000 0.0000 0.0000 -51.0660 0.0000 -68.0002
#
#
#
# Elastic Compliance Matrix: (Units=1/GPa)
#
#
# Indices 1 2 3 4 5 6 
#
# 1 0.022845 -0.004386 -0.003592 0.000000 0.001450 0.000000
# 2 -0.004386 0.012450 -0.004203 0.000000 -0.001633 0.000000
# 3 -0.003592 -0.004203 0.012783 0.000000 -0.001168 0.000000
# 4 0.000000 0.000000 0.000000 0.014720 0.000000 -0.011055
# 5 0.001450 -0.001633 -0.001168 0.000000 0.025795 0.000000
# 6 0.000000 0.000000 0.000000 -0.011055 0.000000 -0.006404
#
#
# Mechanical properties :
#
#
# Convention : Reuss Voigt Hill
#
# Bulk Modulus (GPa) = 42.16342 49.05185 45.60763
# Shear Modulus (GPa) = 43.68512 11.17765 27.43139
#
# Velocity S-wave (km/s) = 4.23581 2.14262 3.35655
# Velocity P-wave (km/s) = 6.42183 5.12517 5.80979
#
# Compressibility (1/GPa) = 0.02371724
#
# Stress axis : x y z
#
# Youngs Moduli (GPa) = 43.77390 80.31976 78.22804
#
# Poissons Ratio (x) = 0.35226 0.28098
# Poissons Ratio (y) = 0.19198 0.32879
# Poissons Ratio (z) = 0.15723 0.33758
#
# Static dielectric constant tensor:
#      x y z
#    x 1.935590 0.000000 -0.008320 
#    y 0.000000 1.939830 0.000000 
#    z -0.008320 0.000000 1.972190 
# 
# From -- ./inp_files/1841.got.cif
#   From: 2010.05.17/outbox.cif.g08.bks.cpg/sg9_1_cif.got.tgz:1841.got - 2010.06.03 20:04:27.
