data_PCOD9140325
_publ_section_title
;
Structure prediction by ZEFSAII (Michael W. Deem and Ramdas Pophale) SiO2 
 PCOD9140325
Probable space group: C C
;
_chemical_formula_sum "Si O2"
_cell_formula_units_Z 28
_cell_length_a 18.332922
_cell_length_b 6.484148
_cell_length_c 9.143461
_cell_angle_alpha 90.000000
_cell_angle_beta 110.487032
_cell_angle_gamma 90.000000
_cell_volume 1018.168346
_symmetry_space_group_name_H-M "C C"
_symmetry_group_IT_number 9
_symmetry_cell_setting 'monoclinic'
loop_
_space_group_symop_operation_xyz
x,y,z
x,-y,1/2+z
1/2+x,1/2+y,z
1/2+x,1/2-y,1/2+z
loop_
_atom_site_type_symbol
_atom_site_label
_atom_site_fract_x
_atom_site_fract_y
_atom_site_fract_z
Si Si1 0.690000 0.683632 0.856550
Si Si2 0.558834 0.410779 0.790681
Si Si3 0.462879 0.023132 0.092262
Si Si4 0.794976 0.305174 0.947392
Si Si5 0.955976 0.008697 0.477718
Si Si6 0.574274 0.016137 0.423861
Si Si7 0.286778 0.487837 0.720558
O O1 0.616983 0.555006 0.743389
O O2 0.598403 0.211308 0.887219
O O3 0.737568 0.818398 0.775269
O O4 0.645659 0.837026 0.936017
O O5 0.484260 0.375274 0.635588
O O6 0.522036 0.524825 0.903435
O O7 0.491110 0.963248 0.779854
O O8 0.381923 0.906017 0.001571
O O9 0.451188 0.258371 0.031810
O O10 0.545468 0.973188 0.068522
O O11 0.792396 0.113703 0.062385
O O12 0.744127 0.503556 0.958450
O O13 0.761475 0.212048 0.770028
O O14 0.875037 0.986565 0.339366
#
# Coordination Sequence:
#
# PCOD9140325 Si02
#       7
#     4   4   4   4   4   4   4
#     4  12  28  48  76 119 165 207 261 339 417 479
#     4  11  26  46  78 112 156 208 270 332 396 495
#     4  11  24  49  79 112 155 211 270 334 396 489
#     4  12  29  52  82 118 168 215 277 342 414 496
#     4  11  23  49  78 114 152 211 274 326 407 475
#     4  11  26  45  80 115 155 209 270 330 408 486
#     4  12  28  51  79 120 159 219 272 339 418 492
#
# _framework density 27.500364000000001
#
# number of rings (size 3 to 8) (size 9 to 14) (size 15 to 20)
#    0.000    0.571    2.857    4.286    6.000    3.429 
#    0.000    0.000    0.000    0.000    0.000    0.000 
#    0.000    0.000    0.000    0.000    0.000    0.000 
#
# Total GULP energy -78300.886078 kJ/mol
# GULP energy per Si atom -5592.920434 kJ/mol
# Density = 2.743777 g / cm^3
# Si number density = 27.500364 Si / 1000 Ang^3
#
#
#
# Elastic Constant Matrix: (Units=GPa)
#
#
# Indices 1 2 3 4 5 6 
#
# 1 149.1709 64.0023 43.2383 0.0000 0.2606 0.0000
# 2 64.0023 129.5878 21.5656 0.0000 -12.7182 0.0000
# 3 43.2383 21.5656 103.4349 0.0000 -3.7549 0.0000
# 4 0.0000 0.0000 0.0000 43.4271 0.0000 3.1934
# 5 0.2606 -12.7182 -3.7549 0.0000 28.2240 0.0000
# 6 0.0000 0.0000 0.0000 3.1934 0.0000 72.3990
#
#
#
# Elastic Compliance Matrix: (Units=1/GPa)
#
#
# Indices 1 2 3 4 5 6 
#
# 1 0.009518 -0.004422 -0.003147 0.000000 -0.002499 0.000000
# 2 -0.004422 0.010387 -0.000146 0.000000 0.004702 0.000000
# 3 -0.003147 -0.000146 0.011066 0.000000 0.001435 0.000000
# 4 0.000000 0.000000 0.000000 0.023102 0.000000 -0.001019
# 5 -0.002499 0.004702 0.001435 0.000000 0.037764 0.000000
# 6 0.000000 0.000000 0.000000 -0.001019 0.000000 0.013857
#
#
# Mechanical properties :
#
#
# Convention : Reuss Voigt Hill
#
# Bulk Modulus (GPa) = 64.35485 71.08954 67.72220
# Shear Modulus (GPa) = 39.58674 45.70252 42.64463
#
# Velocity S-wave (km/s) = 3.79819 4.08105 3.94216
# Velocity P-wave (km/s) = 6.53355 6.93636 6.73797
#
# Compressibility (1/GPa) = 0.01553884
#
# Stress axis : x y z
#
# Youngs Moduli (GPa) = 105.06675 96.27709 90.36532
#
# Poissons Ratio (x) = 0.42576 0.28441
# Poissons Ratio (y) = 0.46463 0.01322
# Poissons Ratio (z) = 0.33068 0.01408
#
# Static dielectric constant tensor:
#      x y z
#    x 2.168100 0.000000 0.025050 
#    y 0.000000 2.264500 0.000000 
#    z 0.025050 0.000000 2.072610 
# 
# From -- ./inp_files/19684.got.cif
#   From: 2010.05.17/outbox.cif.g08.bks.cpg/sg9_10_cif.got.tgz:19684.got - 2010.06.03 20:04:27.
