data_PCOD9140043
_publ_section_title
;
Structure prediction by ZEFSAII (Michael W. Deem and Ramdas Pophale) SiO2 
 PCOD9140043
Probable space group: C C
;
_chemical_formula_sum "Si O2"
_cell_formula_units_Z 32
_cell_length_a 19.563190
_cell_length_b 8.983982
_cell_length_c 15.110539
_cell_angle_alpha 90.000000
_cell_angle_beta 29.531467
_cell_angle_gamma 90.000000
_cell_volume 1309.027080
_symmetry_space_group_name_H-M "C C"
_symmetry_group_IT_number 9
_symmetry_cell_setting 'monoclinic'
loop_
_space_group_symop_operation_xyz
x,y,z
x,-y,1/2+z
1/2+x,1/2+y,z
1/2+x,1/2-y,1/2+z
loop_
_atom_site_type_symbol
_atom_site_label
_atom_site_fract_x
_atom_site_fract_y
_atom_site_fract_z
Si Si1 0.914510 0.788336 0.246270
Si Si2 0.447887 0.242610 0.556852
Si Si3 0.130294 0.993957 0.406438
Si Si4 0.603082 0.040625 0.830316
Si Si5 0.373437 0.418999 0.479298
Si Si6 0.645344 0.059795 0.979671
Si Si7 0.615872 0.350658 0.753710
Si Si8 0.735442 0.728960 0.934184
O O1 0.925167 0.830495 0.336617
O O2 0.755342 0.823629 0.398520
O O3 0.989677 0.628117 0.155598
O O4 0.006931 0.901748 0.083042
O O5 0.579283 0.348742 0.411155
O O6 0.355436 0.313670 0.584573
O O7 0.387667 0.258288 0.723235
O O8 0.488256 0.080174 0.480970
O O9 0.197355 0.914326 0.415649
O O10 0.193682 0.089974 0.254424
O O11 0.681982 0.060329 0.834637
O O12 0.547876 0.195146 0.858425
O O13 0.722206 0.985323 0.629865
O O14 0.489806 0.541929 0.368578
O O15 0.660944 0.889761 0.997701
O O16 0.712538 0.318904 0.560424
#
# Coordination Sequence:
#
# PCOD9140043 Si02
#       8
#     4   4   4   4   4   4   4   4
#     4  12  26  48  76 110 158 204 263 325 392 465
#     4  11  24  45  72 104 150 205 253 320 391 463
#     4  11  22  47  70 106 155 202 250 324 389 456
#     4  12  25  46  74 108 153 205 265 318 392 466
#     4  11  25  48  70 105 154 205 257 325 393 462
#     4  12  26  49  77 113 157 209 253 331 389 466
#     4  11  26  45  77 109 149 208 261 323 392 467
#     4  12  24  48  76 113 156 204 264 322 404 465
#
# _framework density 24.445636
#
# number of rings (size 3 to 8) (size 9 to 14) (size 15 to 20)
#    0.000    0.500    6.250    1.500    3.500    2.000 
#    0.000    0.000    0.000    0.000    0.000    0.000 
#    0.000    0.000    0.000    0.000    0.000    0.000 
#
# Total GULP energy -89381.127569 kJ/mol
# GULP energy per Si atom -5586.320473 kJ/mol
# Density = 2.439000 g / cm^3
# Si number density = 24.445636 Si / 1000 Ang^3
#
#
#
# Elastic Constant Matrix: (Units=GPa)
#
#
# Indices 1 2 3 4 5 6 
#
# 1 62.1536 36.0335 42.0756 0.0000 16.7502 0.0000
# 2 36.0335 123.3362 60.5285 0.0000 13.8941 0.0000
# 3 42.0756 60.5285 104.1528 0.0000 31.5376 0.0000
# 4 0.0000 0.0000 0.0000 46.4794 0.0000 5.3836
# 5 16.7502 13.8941 31.5376 0.0000 37.3278 0.0000
# 6 0.0000 0.0000 0.0000 5.3836 0.0000 34.5022
#
#
#
# Elastic Compliance Matrix: (Units=1/GPa)
#
#
# Indices 1 2 3 4 5 6 
#
# 1 0.023327 -0.003260 -0.006352 0.000000 -0.003887 0.000000
# 2 -0.003260 0.011890 -0.006310 0.000000 0.002369 0.000000
# 3 -0.006352 -0.006310 0.019163 0.000000 -0.010991 0.000000
# 4 0.000000 0.000000 0.000000 0.021911 0.000000 -0.003419
# 5 -0.003887 0.002369 -0.010991 0.000000 0.036939 0.000000
# 6 0.000000 0.000000 0.000000 -0.003419 0.000000 0.029517
#
#
# Mechanical properties :
#
#
# Convention : Reuss Voigt Hill
#
# Bulk Modulus (GPa) = 44.37440 62.99086 53.68263
# Shear Modulus (GPa) = 27.45702 33.72888 30.59295
#
# Velocity S-wave (km/s) = 3.35503 3.71853 3.54145
# Velocity P-wave (km/s) = 5.76195 6.65284 6.22336
#
# Compressibility (1/GPa) = 0.02253552
#
# Stress axis : x y z
#
# Youngs Moduli (GPa) = 42.86929 84.10162 52.18460
#
# Poissons Ratio (x) = 0.27416 0.33147
# Poissons Ratio (y) = 0.13975 0.32930
# Poissons Ratio (z) = 0.27230 0.53071
#
# Static dielectric constant tensor:
#      x y z
#    x 1.998030 0.000000 -0.033470 
#    y 0.000000 1.969160 0.000000 
#    z -0.033470 0.000000 1.969810 
# 
# From -- ./inp_files/27344.got.cif
#   From: 2010.05.17/outbox.cif.g08.bks.cpg/sg9_14_cif.got.tgz:27344.got - 2010.06.03 20:04:27.
