data_PCOD9140446
_publ_section_title
;
Structure prediction by ZEFSAII (Michael W. Deem and Ramdas Pophale) SiO2 
 PCOD9140446
Probable space group: C C
;
_chemical_formula_sum "Si O2"
_cell_formula_units_Z 28
_cell_length_a 15.206623
_cell_length_b 14.866822
_cell_length_c 9.307222
_cell_angle_alpha 90.000000
_cell_angle_beta 35.851669
_cell_angle_gamma 90.000000
_cell_volume 1232.361011
_symmetry_space_group_name_H-M "C C"
_symmetry_group_IT_number 9
_symmetry_cell_setting 'monoclinic'
loop_
_space_group_symop_operation_xyz
x,y,z
x,-y,1/2+z
1/2+x,1/2+y,z
1/2+x,1/2-y,1/2+z
loop_
_atom_site_type_symbol
_atom_site_label
_atom_site_fract_x
_atom_site_fract_y
_atom_site_fract_z
Si Si1 0.223350 0.039458 0.165940
Si Si2 0.475984 0.411509 0.589966
Si Si3 0.647371 0.133338 0.429198
Si Si4 0.564790 0.301993 0.742476
Si Si5 0.424800 0.026651 0.171153
Si Si6 0.174112 0.769219 0.149559
Si Si7 0.499231 0.217750 0.120087
O O1 0.199367 0.138329 0.131788
O O2 0.356680 0.030441 0.103121
O O3 0.069194 0.003259 0.442013
O O4 0.276020 0.975416 0.966772
O O5 0.305871 0.411248 0.761255
O O6 0.483539 0.371437 0.741561
O O7 0.571928 0.339930 0.369462
O O8 0.617213 0.215870 0.579895
O O9 0.652562 0.176476 0.263835
O O10 0.516378 0.060818 0.594693
O O11 0.476564 0.266649 0.998325
O O12 0.529062 0.113199 0.052155
O O13 0.124229 0.764259 0.050867
O O14 0.351223 0.783946 0.914421
#
# Coordination Sequence:
#
# PCOD9140446 Si02
#       7
#     4   4   4   4   4   4   4
#     4  12  25  49  74 105 146 198 243 295 378 446
#     4  11  25  49  72 104 149 196 240 299 380 446
#     4  11  27  47  73 110 149 192 244 303 379 433
#     4  11  28  45  78 109 150 193 250 308 370 436
#     4  12  26  46  75 109 147 191 244 303 368 446
#     4  11  24  45  74 105 143 194 241 299 368 443
#     4  12  25  45  72 110 144 190 248 307 357 436
#
# _framework density 22.720616
#
# number of rings (size 3 to 8) (size 9 to 14) (size 15 to 20)
#    0.000    0.571    4.286    2.571    8.000    1.143 
#    5.143    0.000    0.000    0.000    0.000    0.000 
#    0.000    0.000    0.000    0.000    0.000    0.000 
#
# Total GULP energy -78280.378197 kJ/mol
# GULP energy per Si atom -5591.455586 kJ/mol
# Density = 2.266890 g / cm^3
# Si number density = 22.720616 Si / 1000 Ang^3
#
#
#
# Elastic Constant Matrix: (Units=GPa)
#
#
# Indices 1 2 3 4 5 6 
#
# 1 113.7071 23.6091 23.8569 0.0000 7.1599 0.0000
# 2 23.6091 86.1181 11.1716 0.0000 3.1269 0.0000
# 3 23.8569 11.1716 53.1456 0.0000 4.3952 0.0000
# 4 0.0000 0.0000 0.0000 26.0171 0.0000 -2.2718
# 5 7.1599 3.1269 4.3952 0.0000 48.0281 0.0000
# 6 0.0000 0.0000 0.0000 -2.2718 0.0000 30.3817
#
#
#
# Elastic Compliance Matrix: (Units=1/GPa)
#
#
# Indices 1 2 3 4 5 6 
#
# 1 0.010162 -0.002229 -0.004010 0.000000 -0.001003 0.000000
# 2 -0.002229 0.012441 -0.001587 0.000000 -0.000332 0.000000
# 3 -0.004010 -0.001587 0.021051 0.000000 -0.001225 0.000000
# 4 0.000000 0.000000 0.000000 0.038689 0.000000 0.002893
# 5 -0.001003 -0.000332 -0.001225 0.000000 0.021104 0.000000
# 6 0.000000 0.000000 0.000000 0.002893 0.000000 0.033131
#
#
# Mechanical properties :
#
#
# Convention : Reuss Voigt Hill
#
# Bulk Modulus (GPa) = 35.71236 41.13844 38.42540
# Shear Modulus (GPa) = 30.94732 33.84093 32.39412
#
# Velocity S-wave (km/s) = 3.69464 3.86351 3.78002
# Velocity P-wave (km/s) = 5.82689 6.16829 6.00002
#
# Compressibility (1/GPa) = 0.02800151
#
# Stress axis : x y z
#
# Youngs Moduli (GPa) = 98.40693 80.37908 47.50305
#
# Poissons Ratio (x) = 0.17918 0.19049
# Poissons Ratio (y) = 0.21937 0.07539
# Poissons Ratio (z) = 0.39462 0.12756
#
# Static dielectric constant tensor:
#      x y z
#    x 1.826450 0.000000 0.043370 
#    y 0.000000 1.882490 0.000000 
#    z 0.043370 0.000000 1.823620 
# 
# From -- ./inp_files/7341.got.cif
#   From: 2010.05.17/outbox.cif.g08.bks.cpg/sg9_4_cif.got.tgz:7341.got - 2010.06.03 20:04:27.
