data_PCOD9140790
_publ_section_title
;
Structure prediction by ZEFSAII (Michael W. Deem and Ramdas Pophale) SiO2 
 PCOD9140790
Probable space group: C C
;
_chemical_formula_sum "Si O2"
_cell_formula_units_Z 28
_cell_length_a 7.644243
_cell_length_b 9.432439
_cell_length_c 19.498654
_cell_angle_alpha 90.000000
_cell_angle_beta 123.753775
_cell_angle_gamma 90.000000
_cell_volume 1168.935057
_symmetry_space_group_name_H-M "C C"
_symmetry_group_IT_number 9
_symmetry_cell_setting 'monoclinic'
loop_
_space_group_symop_operation_xyz
x,y,z
x,-y,1/2+z
1/2+x,1/2+y,z
1/2+x,1/2-y,1/2+z
loop_
_atom_site_type_symbol
_atom_site_label
_atom_site_fract_x
_atom_site_fract_y
_atom_site_fract_z
Si Si1 0.693050 0.094714 0.494890
Si Si2 0.577399 0.625556 0.919293
Si Si3 0.776278 0.099446 0.284903
Si Si4 0.896723 0.392724 0.364883
Si Si5 0.159577 0.945638 0.070000
Si Si6 0.305950 0.889122 0.734302
Si Si7 0.124834 0.396870 0.143061
O O1 0.534968 0.212846 0.430210
O O2 0.672227 0.097505 0.572537
O O3 0.933854 0.129240 0.526966
O O4 0.620025 0.950133 0.441611
O O5 0.400868 0.524324 0.850336
O O6 0.759412 0.629022 0.902534
O O7 0.649970 0.555324 0.005603
O O8 0.897906 0.248301 0.320545
O O9 0.554529 0.114814 0.274699
O O10 0.708462 0.043465 0.195122
O O11 0.778752 0.513228 0.294613
O O12 0.377591 0.866954 0.102325
O O13 0.193164 0.027867 0.148090
O O14 0.234314 0.728481 0.709721
#
# Coordination Sequence:
#
# PCOD9140790 Si02
#       7
#     4   4   4   4   4   4   4
#     4  12  27  50  81 111 157 200 258 318 379 456
#     4  12  25  49  75 113 152 200 258 315 379 455
#     4  11  27  48  75 112 156 196 260 313 379 465
#     4  12  26  47  77 113 152 206 249 319 385 448
#     4  11  26  46  77 116 150 196 256 318 380 455
#     4  11  26  50  74 114 151 200 259 315 379 460
#     4  11  25  54  77 113 156 202 252 322 383 447
#
# _framework density 23.953426
#
# number of rings (size 3 to 8) (size 9 to 14) (size 15 to 20)
#    0.000    0.571    2.857    4.286    4.000    6.857 
#    5.143    0.000    0.000    0.000    0.000    0.000 
#    0.000    0.000    0.000    0.000    0.000    0.000 
#
# Total GULP energy -78349.969354 kJ/mol
# GULP energy per Si atom -5596.426382 kJ/mol
# Density = 2.389891 g / cm^3
# Si number density = 23.953426 Si / 1000 Ang^3
#
#
#
# Elastic Constant Matrix: (Units=GPa)
#
#
# Indices 1 2 3 4 5 6 
#
# 1 85.7635 53.8397 52.7907 0.0000 0.1487 0.0000
# 2 53.8397 120.7345 71.7974 0.0000 3.4245 0.0000
# 3 52.7907 71.7974 142.5810 0.0000 -15.1890 0.0000
# 4 0.0000 0.0000 0.0000 33.0616 0.0000 11.8435
# 5 0.1487 3.4245 -15.1890 0.0000 60.1528 0.0000
# 6 0.0000 0.0000 0.0000 11.8435 0.0000 20.0274
#
#
#
# Elastic Compliance Matrix: (Units=1/GPa)
#
#
# Indices 1 2 3 4 5 6 
#
# 1 0.017437 -0.005531 -0.003743 0.000000 -0.000673 0.000000
# 2 -0.005531 0.013878 -0.005162 0.000000 -0.002080 0.000000
# 3 -0.003743 -0.005162 0.011336 0.000000 0.003165 0.000000
# 4 0.000000 0.000000 0.000000 0.038376 0.000000 -0.022694
# 5 -0.000673 -0.002080 0.003165 0.000000 0.017544 0.000000
# 6 0.000000 0.000000 0.000000 -0.022694 0.000000 0.063352
#
#
# Mechanical properties :
#
#
# Convention : Reuss Voigt Hill
#
# Bulk Modulus (GPa) = 72.57177 78.43717 75.50447
# Shear Modulus (GPa) = 25.59018 34.02509 29.80763
#
# Velocity S-wave (km/s) = 3.27208 3.77300 3.53143
# Velocity P-wave (km/s) = 6.68118 7.19705 6.94390
#
# Compressibility (1/GPa) = 0.01377946
#
# Stress axis : x y z
#
# Youngs Moduli (GPa) = 57.34897 72.05766 88.21631
#
# Poissons Ratio (x) = 0.39856 0.33016
# Poissons Ratio (y) = 0.31720 0.45536
# Poissons Ratio (z) = 0.21463 0.37195
#
# Static dielectric constant tensor:
#      x y z
#    x 1.894610 0.000000 0.026160 
#    y 0.000000 1.962170 0.000000 
#    z 0.026160 0.000000 1.931590 
# 
# From -- ./inp_files/32362.got.cif
#   From: 2010.05.17/outbox.cif.g08.bks.cpg/sg9_17_cif.got.tgz:32362.got - 2010.06.03 20:04:27.
