data_PCOD9140059
_publ_section_title
;
Structure prediction by ZEFSAII (Michael W. Deem and Ramdas Pophale) SiO2 
 PCOD9140059
Probable space group: C C
;
_chemical_formula_sum "Si O2"
_cell_formula_units_Z 28
_cell_length_a 6.776346
_cell_length_b 19.881234
_cell_length_c 11.954545
_cell_angle_alpha 90.000000
_cell_angle_beta 125.337260
_cell_angle_gamma 90.000000
_cell_volume 1313.818085
_symmetry_space_group_name_H-M "C C"
_symmetry_group_IT_number 9
_symmetry_cell_setting 'monoclinic'
loop_
_space_group_symop_operation_xyz
x,y,z
x,-y,1/2+z
1/2+x,1/2+y,z
1/2+x,1/2-y,1/2+z
loop_
_atom_site_type_symbol
_atom_site_label
_atom_site_fract_x
_atom_site_fract_y
_atom_site_fract_z
Si Si1 0.998050 0.619494 0.575140
Si Si2 0.872112 0.387444 0.783742
Si Si3 0.217857 0.721436 0.281765
Si Si4 0.740374 0.250756 0.040253
Si Si5 0.459370 0.960163 0.277626
Si Si6 0.561673 0.374703 0.273268
Si Si7 0.926396 0.126633 0.980975
O O1 0.861683 0.620793 0.413316
O O2 0.934536 0.689693 0.614990
O O3 0.926032 0.561224 0.637362
O O4 0.283714 0.614571 0.646936
O O5 0.982823 0.460617 0.797350
O O6 0.611540 0.387212 0.640781
O O7 0.032705 0.328354 0.782041
O O8 0.480771 0.717812 0.425135
O O9 0.226275 0.709668 0.151293
O O10 0.137425 0.799248 0.265811
O O11 0.821356 0.200956 0.968360
O O12 0.237487 0.928654 0.274413
O O13 0.701405 0.923604 0.399984
O O14 0.564552 0.378316 0.408601
#
# Coordination Sequence:
#
# PCOD9140059 Si02
#       7
#     4   4   4   4   4   4   4
#     4  11  25  46  71 102 140 184 239 297 353 424
#     4  12  28  42  72 111 141 181 251 295 347 435
#     4  12  23  41  73 105 138 184 234 294 360 416
#     4  12  22  44  72 106 142 180 242 300 362 416
#     4  11  27  48  69  98 146 199 223 292 372 428
#     4  11  22  49  72  94 141 190 232 281 371 425
#     4  11  25  46  71 102 140 184 239 297 353 424
#
# _framework density 21.311931999999999
#
# number of rings (size 3 to 8) (size 9 to 14) (size 15 to 20)
#    0.000    0.571    2.857    5.143    4.000    0.000 
#    5.143    0.000    0.000    0.000    0.000    0.000 
#    0.000    0.000    0.000    0.000    0.000    0.000 
#
# Total GULP energy -78386.114705 kJ/mol
# GULP energy per Si atom -5599.008193 kJ/mol
# Density = 2.126342 g / cm^3
# Si number density = 21.311932 Si / 1000 Ang^3
#
#
#
# Elastic Constant Matrix: (Units=GPa)
#
#
# Indices 1 2 3 4 5 6 
#
# 1 81.1897 -11.2659 39.9920 0.0000 -6.5266 0.0000
# 2 -11.2659 55.2720 -8.7123 0.0000 -4.3988 0.0000
# 3 39.9920 -8.7123 124.4470 0.0000 -16.4488 0.0000
# 4 0.0000 0.0000 0.0000 35.6559 0.0000 1.4880
# 5 -6.5266 -4.3988 -16.4488 0.0000 21.6314 0.0000
# 6 0.0000 0.0000 0.0000 1.4880 0.0000 19.6257
#
#
#
# Elastic Compliance Matrix: (Units=1/GPa)
#
#
# Indices 1 2 3 4 5 6 
#
# 1 0.014972 0.002488 -0.004417 0.000000 0.001664 0.000000
# 2 0.002488 0.019253 0.001295 0.000000 0.005651 0.000000
# 3 -0.004417 0.001295 0.010455 0.000000 0.006881 0.000000
# 4 0.000000 0.000000 0.000000 0.028135 0.000000 -0.002133
# 5 0.001664 0.005651 0.006881 0.000000 0.053113 0.000000
# 6 0.000000 0.000000 0.000000 -0.002133 0.000000 0.051115
#
#
# Mechanical properties :
#
#
# Convention : Reuss Voigt Hill
#
# Bulk Modulus (GPa) = 23.03503 33.43737 28.23620
# Shear Modulus (GPa) = 25.93607 31.44225 28.68916
#
# Velocity S-wave (km/s) = 3.49230 3.84518 3.67298
# Velocity P-wave (km/s) = 5.20514 5.95293 5.59155
#
# Compressibility (1/GPa) = 0.04341214
#
# Stress axis : x y z
#
# Youngs Moduli (GPa) = 66.79319 51.93914 95.64623
#
# Poissons Ratio (x) = -0.12921 0.42248
# Poissons Ratio (y) = -0.16617 -0.12389
# Poissons Ratio (z) = 0.29503 -0.06728
#
# Static dielectric constant tensor:
#      x y z
#    x 1.762810 0.000000 -0.015040 
#    y 0.000000 1.745790 0.000000 
#    z -0.015040 0.000000 1.781390 
# 
# From -- ./inp_files/13275.got.cif
#   From: 2010.05.17/outbox.cif.g08.bks.cpg/sg9_7_cif.got.tgz:13275.got - 2010.06.03 20:04:27.
