data_PCOD9140999
_publ_section_title
;
Structure prediction by ZEFSAII (Michael W. Deem and Ramdas Pophale) SiO2 
 PCOD9140999
Probable space group: C C
;
_chemical_formula_sum "Si O2"
_cell_formula_units_Z 28
_cell_length_a 11.751016
_cell_length_b 10.283191
_cell_length_c 11.804224
_cell_angle_alpha 90.000000
_cell_angle_beta 58.503792
_cell_angle_gamma 90.000000
_cell_volume 1216.253663
_symmetry_space_group_name_H-M "C C"
_symmetry_group_IT_number 9
_symmetry_cell_setting 'monoclinic'
loop_
_space_group_symop_operation_xyz
x,y,z
x,-y,1/2+z
1/2+x,1/2+y,z
1/2+x,1/2-y,1/2+z
loop_
_atom_site_type_symbol
_atom_site_label
_atom_site_fract_x
_atom_site_fract_y
_atom_site_fract_z
Si Si1 0.048340 0.731802 0.541090
Si Si2 0.225396 0.332126 0.437371
Si Si3 0.617584 0.963998 0.824785
Si Si4 0.864523 0.952740 0.567092
Si Si5 0.380308 0.088064 0.287240
Si Si6 0.942413 0.747821 0.053638
Si Si7 0.849012 0.311875 0.357499
O O1 0.034486 0.606194 0.467119
O O2 0.209340 0.741106 0.463282
O O3 0.990945 0.859243 0.508716
O O4 0.957249 0.721457 0.701613
O O5 0.179597 0.405845 0.347189
O O6 0.290416 0.438140 0.485536
O O7 0.331470 0.216775 0.376158
O O8 0.086429 0.262394 0.539706
O O9 0.753801 0.896003 0.712024
O O10 0.523726 0.957117 0.762936
O O11 0.899178 0.101782 0.575763
O O12 0.364794 0.139824 0.167576
O O13 0.300169 0.957587 0.352835
O O14 0.932043 0.701586 0.930148
#
# Coordination Sequence:
#
# PCOD9140999 Si02
#       7
#     4   4   4   4   4   4   4
#     4  12  27  52  76 111 160 206 260 329 400 473
#     4  12  25  46  77 114 154 203 263 324 397 471
#     4  12  24  48  76 110 153 204 259 320 403 464
#     4  12  26  47  77 115 159 204 266 328 396 480
#     4  12  26  46  75 112 157 206 265 327 397 483
#     4  12  27  46  77 114 154 209 264 328 394 476
#     4  12  29  49  76 116 157 210 265 330 399 473
#
# _framework density 23.021512000000001
#
# number of rings (size 3 to 8) (size 9 to 14) (size 15 to 20)
#    0.000    0.000    7.143    2.571    4.000    0.000 
#    0.000    0.000    0.000    0.000    0.000    0.000 
#    0.000    0.000    0.000    0.000    0.000    0.000 
#
# Total GULP energy -77984.288591 kJ/mol
# GULP energy per Si atom -5570.306328 kJ/mol
# Density = 2.296911 g / cm^3
# Si number density = 23.021512 Si / 1000 Ang^3
#
#
#
# Elastic Constant Matrix: (Units=GPa)
#
#
# Indices 1 2 3 4 5 6 
#
# 1 122.4920 40.2932 30.0349 0.0000 0.4158 0.0000
# 2 40.2932 134.4090 31.2014 0.0000 7.6635 0.0000
# 3 30.0349 31.2014 71.6060 0.0000 3.3898 0.0000
# 4 0.0000 0.0000 0.0000 30.3923 0.0000 3.7824
# 5 0.4158 7.6635 3.3898 0.0000 30.1926 0.0000
# 6 0.0000 0.0000 0.0000 3.7824 0.0000 34.3440
#
#
#
# Elastic Compliance Matrix: (Units=1/GPa)
#
#
# Indices 1 2 3 4 5 6 
#
# 1 0.009655 -0.002214 -0.003122 0.000000 0.000780 0.000000
# 2 -0.002214 0.008873 -0.002848 0.000000 -0.001902 0.000000
# 3 -0.003122 -0.002848 0.016567 0.000000 -0.001094 0.000000
# 4 0.000000 0.000000 0.000000 0.033360 0.000000 -0.003674
# 5 0.000780 -0.001902 -0.001094 0.000000 0.033716 0.000000
# 6 0.000000 0.000000 0.000000 -0.003674 0.000000 0.029522
#
#
# Mechanical properties :
#
#
# Convention : Reuss Voigt Hill
#
# Bulk Modulus (GPa) = 53.39508 59.06287 56.22898
# Shear Modulus (GPa) = 32.40371 34.11761 33.26066
#
# Velocity S-wave (km/s) = 3.75579 3.85384 3.80513
# Velocity P-wave (km/s) = 6.48474 6.74640 6.61687
#
# Compressibility (1/GPa) = 0.01872832
#
# Stress axis : x y z
#
# Youngs Moduli (GPa) = 103.57381 112.69873 60.35954
#
# Poissons Ratio (x) = 0.24953 0.18843
# Poissons Ratio (y) = 0.22932 0.17188
# Poissons Ratio (z) = 0.32334 0.32093
#
# Static dielectric constant tensor:
#      x y z
#    x 1.892290 0.000000 -0.018400 
#    y 0.000000 1.912150 0.000000 
#    z -0.018400 0.000000 2.006030 
# 
# From -- ./inp_files/16098.got.cif
#   From: 2010.05.17/outbox.cif.g08.bks.cpg/sg9_9_cif.got.tgz:16098.got - 2010.06.03 20:04:27.
