data_PCOD9140078
_publ_section_title
;
Structure prediction by ZEFSAII (Michael W. Deem and Ramdas Pophale) SiO2 
 PCOD9140078
Probable space group: C C
;
_chemical_formula_sum "Si O2"
_cell_formula_units_Z 32
_cell_length_a 12.706588
_cell_length_b 5.335494
_cell_length_c 21.929662
_cell_angle_alpha 90.000000
_cell_angle_beta 112.463826
_cell_angle_gamma 90.000000
_cell_volume 1373.929163
_symmetry_space_group_name_H-M "C C"
_symmetry_group_IT_number 9
_symmetry_cell_setting 'monoclinic'
loop_
_space_group_symop_operation_xyz
x,y,z
x,-y,1/2+z
1/2+x,1/2+y,z
1/2+x,1/2-y,1/2+z
loop_
_atom_site_type_symbol
_atom_site_label
_atom_site_fract_x
_atom_site_fract_y
_atom_site_fract_z
Si Si1 0.937210 0.847960 0.125000
Si Si2 0.184697 0.764274 0.524248
Si Si3 0.030252 0.143848 0.458841
Si Si4 0.985647 0.353897 0.066585
Si Si5 0.094857 0.599593 0.849654
Si Si6 0.968917 0.103027 0.775552
Si Si7 0.319043 0.084158 0.948789
Si Si8 0.340597 0.695156 0.858713
O O1 0.803816 0.814322 0.078643
O O2 0.991695 0.587245 0.113931
O O3 0.948632 0.878919 0.199644
O O4 0.987904 0.093920 0.103581
O O5 0.084437 0.622641 0.537383
O O6 0.211618 0.789947 0.457135
O O7 0.135700 0.046320 0.520914
O O8 0.072632 0.330171 0.415605
O O9 0.927491 0.238887 0.476861
O O10 0.960327 0.914069 0.410842
O O11 0.864085 0.362983 0.003360
O O12 0.035156 0.350072 0.813160
O O13 0.227332 0.575248 0.861613
O O14 0.037708 0.846531 0.805171
O O15 0.853493 0.129661 0.790627
O O16 0.321596 0.977383 0.880709
#
# Coordination Sequence:
#
# PCOD9140078 Si02
#       8
#     4   4   4   4   4   4   4   4
#     4  11  27  48  70  99 138 186 242 285 334 418
#     4  11  23  42  69 100 136 185 214 287 349 404
#     4  11  23  41  65 105 146 173 223 283 352 428
#     4  11  25  46  67 103 138 180 231 285 341 410
#     4  11  25  44  71 101 138 185 221 288 353 402
#     4  11  26  48  70 100 138 183 241 287 337 412
#     4  11  23  40  67 102 144 171 226 280 350 424
#     4  11  24  41  69 104 138 177 226 285 352 418
#
# _framework density 23.290869000000001
#
# number of rings (size 3 to 8) (size 9 to 14) (size 15 to 20)
#    0.000    1.000    3.750    2.250    1.750    7.000 
#    0.000    0.000    0.000    0.000    0.000    0.000 
#    0.000    0.000    0.000    0.000    0.000    0.000 
#
# Total GULP energy -89299.894300 kJ/mol
# GULP energy per Si atom -5581.243394 kJ/mol
# Density = 2.323786 g / cm^3
# Si number density = 23.290869 Si / 1000 Ang^3
#
#
#
# Elastic Constant Matrix: (Units=GPa)
#
#
# Indices 1 2 3 4 5 6 
#
# 1 197.7429 52.6898 36.9066 0.0000 -26.0469 0.0000
# 2 52.6898 140.0994 39.8863 0.0000 -12.2802 0.0000
# 3 36.9066 39.8863 94.9080 0.0000 -36.3670 0.0000
# 4 0.0000 0.0000 0.0000 33.4226 0.0000 -7.1941
# 5 -26.0469 -12.2802 -36.3670 0.0000 36.3234 0.0000
# 6 0.0000 0.0000 0.0000 -7.1941 0.0000 44.4846
#
#
#
# Elastic Compliance Matrix: (Units=1/GPa)
#
#
# Indices 1 2 3 4 5 6 
#
# 1 0.006067 -0.001914 -0.000220 0.000000 0.003483 0.000000
# 2 -0.001914 0.008738 -0.003767 0.000000 -0.002190 0.000000
# 3 -0.000220 -0.003767 0.018912 0.000000 0.017503 0.000000
# 4 0.000000 0.000000 0.000000 0.030999 0.000000 0.005013
# 5 0.003483 -0.002190 0.017503 0.000000 0.046812 0.000000
# 6 0.000000 0.000000 0.000000 0.005013 0.000000 0.023290
#
#
# Mechanical properties :
#
#
# Convention : Reuss Voigt Hill
#
# Bulk Modulus (GPa) = 45.63127 76.85730 61.24429
# Shear Modulus (GPa) = 32.48306 43.06396 37.77351
#
# Velocity S-wave (km/s) = 3.73858 4.30462 4.03155
# Velocity P-wave (km/s) = 6.18631 7.60111 6.92991
#
# Compressibility (1/GPa) = 0.02191479
#
# Stress axis : x y z
#
# Youngs Moduli (GPa) = 164.82962 114.44171 52.87514
#
# Poissons Ratio (x) = 0.21900 0.01166
# Poissons Ratio (y) = 0.31542 0.19919
# Poissons Ratio (z) = 0.03633 0.43113
#
# Static dielectric constant tensor:
#      x y z
#    x 1.881260 0.000000 -0.016450 
#    y 0.000000 2.008070 0.000000 
#    z -0.016450 0.000000 1.898190 
# 
# From -- ./inp_files/32970.got.cif
#   From: 2010.05.17/outbox.cif.g08.bks.cpg/sg9_17_cif.got.tgz:32970.got - 2010.06.03 20:04:27.
