data_PCOD9140691
_publ_section_title
;
Structure prediction by ZEFSAII (Michael W. Deem and Ramdas Pophale) SiO2 
 PCOD9140691
Probable space group: C C
;
_chemical_formula_sum "Si O2"
_cell_formula_units_Z 28
_cell_length_a 9.235867
_cell_length_b 11.437588
_cell_length_c 11.688223
_cell_angle_alpha 90.000000
_cell_angle_beta 93.615038
_cell_angle_gamma 90.000000
_cell_volume 1232.240827
_symmetry_space_group_name_H-M "C C"
_symmetry_group_IT_number 9
_symmetry_cell_setting 'monoclinic'
loop_
_space_group_symop_operation_xyz
x,y,z
x,-y,1/2+z
1/2+x,1/2+y,z
1/2+x,1/2-y,1/2+z
loop_
_atom_site_type_symbol
_atom_site_label
_atom_site_fract_x
_atom_site_fract_y
_atom_site_fract_z
Si Si1 0.608610 0.977015 0.426790
Si Si2 0.861395 0.420356 0.771813
Si Si3 0.905211 0.908514 0.985596
Si Si4 0.056923 0.122916 0.914332
Si Si5 0.366838 0.151591 0.033154
Si Si6 0.280652 0.753641 0.965339
Si Si7 0.144252 0.878348 0.174649
O O1 0.483556 0.947632 0.511782
O O2 0.686906 0.852986 0.409070
O O3 0.518623 0.031655 0.317852
O O4 0.736596 0.057619 0.481381
O O5 0.868625 0.329212 0.668232
O O6 0.787518 0.360207 0.877391
O O7 0.761972 0.525430 0.719272
O O8 0.908935 0.769742 0.968427
O O9 0.002714 0.930125 0.103371
O O10 0.980563 0.995873 0.899229
O O11 0.091901 0.175018 0.791880
O O12 0.943927 0.203097 0.977466
O O13 0.208562 0.113712 0.986112
O O14 0.217645 0.793454 0.084345
#
# Coordination Sequence:
#
# PCOD9140691 Si02
#       7
#     4   4   4   4   4   4   4
#     4  11  26  47  72 108 153 193 255 308 376 451
#     4  12  25  45  77 107 150 196 249 314 377 449
#     4  11  25  47  70 110 148 193 255 307 373 459
#     4  11  25  48  73 109 154 199 252 314 380 456
#     4  12  24  46  75 107 152 198 246 314 378 448
#     4  11  26  47  73 113 149 200 259 309 387 455
#     4  12  23  46  76 106 156 197 252 318 381 448
#
# _framework density 22.722830999999999
#
# number of rings (size 3 to 8) (size 9 to 14) (size 15 to 20)
#    0.000    0.571    4.286    3.429    0.000    4.571 
#    5.143    0.000    0.000    0.000    0.000    0.000 
#    0.000    0.000    0.000    0.000    0.000    0.000 
#
# Total GULP energy -78270.893387 kJ/mol
# GULP energy per Si atom -5590.778099 kJ/mol
# Density = 2.267111 g / cm^3
# Si number density = 22.722831 Si / 1000 Ang^3
#
#
#
# Elastic Constant Matrix: (Units=GPa)
#
#
# Indices 1 2 3 4 5 6 
#
# 1 176.0434 21.9040 49.2146 0.0000 20.1800 0.0000
# 2 21.9040 62.7781 16.1003 0.0000 -3.4937 0.0000
# 3 49.2146 16.1003 105.0623 0.0000 -5.3747 0.0000
# 4 0.0000 0.0000 0.0000 28.7726 0.0000 7.0186
# 5 20.1800 -3.4937 -5.3747 0.0000 39.1091 0.0000
# 6 0.0000 0.0000 0.0000 7.0186 0.0000 41.3354
#
#
#
# Elastic Compliance Matrix: (Units=1/GPa)
#
#
# Indices 1 2 3 4 5 6 
#
# 1 0.007380 -0.001954 -0.003385 0.000000 -0.004448 0.000000
# 2 -0.001954 0.017149 -0.001594 0.000000 0.002321 0.000000
# 3 -0.003385 -0.001594 0.011511 0.000000 0.003186 0.000000
# 4 0.000000 0.000000 0.000000 0.036257 0.000000 -0.006156
# 5 -0.004448 0.002321 0.003186 0.000000 0.028510 0.000000
# 6 0.000000 0.000000 0.000000 -0.006156 0.000000 0.025238
#
#
# Mechanical properties :
#
#
# Convention : Reuss Voigt Hill
#
# Bulk Modulus (GPa) = 45.09861 57.59129 51.34495
# Shear Modulus (GPa) = 33.94406 38.95442 36.44924
#
# Velocity S-wave (km/s) = 3.86920 4.14494 4.00944
# Velocity P-wave (km/s) = 6.31279 6.95036 6.63923
#
# Compressibility (1/GPa) = 0.02217363
#
# Stress axis : x y z
#
# Youngs Moduli (GPa) = 135.50681 58.31271 86.87335
#
# Poissons Ratio (x) = 0.11396 0.29406
# Poissons Ratio (y) = 0.26482 0.13846
# Poissons Ratio (z) = 0.45868 0.09294
#
# Static dielectric constant tensor:
#      x y z
#    x 1.863430 0.000000 -0.026740 
#    y 0.000000 1.907330 0.000000 
#    z -0.026740 0.000000 1.820380 
# 
# From -- ./inp_files/14224.got.cif
#   From: 2010.05.17/outbox.cif.g08.bks.cpg/sg9_8_cif.got.tgz:14224.got - 2010.06.03 20:04:27.
