data_PCOD9140830
_publ_section_title
;
Structure prediction by ZEFSAII (Michael W. Deem and Ramdas Pophale) SiO2 
 PCOD9140830
Probable space group: C C
;
_chemical_formula_sum "Si O2"
_cell_formula_units_Z 24
_cell_length_a 5.761961
_cell_length_b 13.087067
_cell_length_c 13.205646
_cell_angle_alpha 90.000000
_cell_angle_beta 76.694134
_cell_angle_gamma 90.000000
_cell_volume 969.068441
_symmetry_space_group_name_H-M "C C"
_symmetry_group_IT_number 9
_symmetry_cell_setting 'monoclinic'
loop_
_space_group_symop_operation_xyz
x,y,z
x,-y,1/2+z
1/2+x,1/2+y,z
1/2+x,1/2-y,1/2+z
loop_
_atom_site_type_symbol
_atom_site_label
_atom_site_fract_x
_atom_site_fract_y
_atom_site_fract_z
Si Si1 0.094360 0.386393 0.354690
Si Si2 0.491323 0.250198 0.221334
Si Si3 0.396487 0.469214 0.503151
Si Si4 0.171215 0.761955 0.426250
Si Si5 0.762655 0.620093 0.540077
Si Si6 0.459008 0.978353 0.690772
O O1 0.287730 0.331327 0.265837
O O2 0.220385 0.456375 0.425218
O O3 0.537610 0.362446 0.482536
O O4 0.943301 0.457303 0.295118
O O5 0.652056 0.251918 0.306371
O O6 0.632698 0.287389 0.109900
O O7 0.388540 0.137969 0.215429
O O8 0.942887 0.294410 0.419894
O O9 0.581092 0.563642 0.482078
O O10 0.229578 0.476787 0.619140
O O11 0.017512 0.666117 0.480577
O O12 0.806916 0.534246 0.620811
#
# Coordination Sequence:
#
# PCOD9140830 Si02
#       6
#     4   4   4   4   4   4
#     4  11  26  51  76 114 163 204 268 338 407 471
#     4  11  26  48  73 114 152 204 268 327 404 474
#     4  11  26  49  75 112 154 208 269 328 405 480
#     4  11  26  50  74 117 156 206 271 335 397 481
#     4  12  26  49  78 110 162 207 271 328 406 482
#     4  12  26  47  78 111 147 211 265 332 399 478
#
# _framework density 24.766051000000001
#
# number of rings (size 3 to 8) (size 9 to 14) (size 15 to 20)
#    0.000    0.667    5.000    1.000    4.667    6.667 
#    0.000    0.000    0.000    0.000    0.000    0.000 
#    0.000    0.000    0.000    0.000    0.000    0.000 
#
# Total GULP energy -67209.585151 kJ/mol
# GULP energy per Si atom -5600.798763 kJ/mol
# Density = 2.470968 g / cm^3
# Si number density = 24.766051 Si / 1000 Ang^3
#
#
#
# Elastic Constant Matrix: (Units=GPa)
#
#
# Indices 1 2 3 4 5 6 
#
# 1 64.1512 19.1614 32.0538 0.0000 1.6559 0.0000
# 2 19.1614 152.7182 48.5766 0.0000 16.3461 0.0000
# 3 32.0538 48.5766 81.3448 0.0000 1.6684 0.0000
# 4 0.0000 0.0000 0.0000 48.5131 0.0000 -5.1578
# 5 1.6559 16.3461 1.6684 0.0000 38.7942 0.0000
# 6 0.0000 0.0000 0.0000 -5.1578 0.0000 45.2003
#
#
#
# Elastic Compliance Matrix: (Units=1/GPa)
#
#
# Indices 1 2 3 4 5 6 
#
# 1 0.019420 0.000062 -0.007679 0.000000 -0.000525 0.000000
# 2 0.000062 0.008501 -0.005032 0.000000 -0.003368 0.000000
# 3 -0.007679 -0.005032 0.018290 0.000000 0.001661 0.000000
# 4 0.000000 0.000000 0.000000 0.020866 0.000000 0.002381
# 5 -0.000525 -0.003368 0.001661 0.000000 0.027147 0.000000
# 6 0.000000 0.000000 0.000000 0.002381 0.000000 0.022395
#
#
# Mechanical properties :
#
#
# Convention : Reuss Voigt Hill
#
# Bulk Modulus (GPa) = 47.81522 55.31085 51.56304
# Shear Modulus (GPa) = 33.58210 39.72968 36.65589
#
# Velocity S-wave (km/s) = 3.68635 4.00959 3.85136
# Velocity P-wave (km/s) = 6.12108 6.61948 6.37515
#
# Compressibility (1/GPa) = 0.02091384
#
# Stress axis : x y z
#
# Youngs Moduli (GPa) = 51.49353 117.62824 54.67464
#
# Poissons Ratio (x) = -0.00729 0.41983
# Poissons Ratio (y) = -0.00319 0.27513
# Poissons Ratio (z) = 0.39540 0.59192
#
# Static dielectric constant tensor:
#      x y z
#    x 2.020260 0.000000 0.007440 
#    y 0.000000 1.918870 0.000000 
#    z 0.007440 0.000000 1.940580 
# 
# From -- ./inp_files/21611.got.cif
#   From: 2010.05.17/outbox.cif.g08.bks.cpg/sg9_11_cif.got.tgz:21611.got - 2010.06.03 20:04:27.
