data_PCOD9140382
_publ_section_title
;
Structure prediction by ZEFSAII (Michael W. Deem and Ramdas Pophale) SiO2 
 PCOD9140382
Probable space group: C C
;
_chemical_formula_sum "Si O2"
_cell_formula_units_Z 32
_cell_length_a 19.653996
_cell_length_b 9.326559
_cell_length_c 14.252136
_cell_angle_alpha 90.000000
_cell_angle_beta 31.106597
_cell_angle_gamma 90.000000
_cell_volume 1349.688336
_symmetry_space_group_name_H-M "C C"
_symmetry_group_IT_number 9
_symmetry_cell_setting 'monoclinic'
loop_
_space_group_symop_operation_xyz
x,y,z
x,-y,1/2+z
1/2+x,1/2+y,z
1/2+x,1/2-y,1/2+z
loop_
_atom_site_type_symbol
_atom_site_label
_atom_site_fract_x
_atom_site_fract_y
_atom_site_fract_z
Si Si1 0.012060 0.479455 0.466330
Si Si2 0.567554 0.507647 0.659309
Si Si3 0.832447 0.206143 0.465225
Si Si4 0.722782 0.006294 0.350434
Si Si5 0.969171 0.823829 0.104715
Si Si6 0.774800 0.340695 0.279348
Si Si7 0.184100 0.035189 0.221498
Si Si8 0.062036 0.413681 0.198098
O O1 0.164300 0.478408 0.317375
O O2 0.011974 0.480741 0.354029
O O3 0.957124 0.335495 0.579056
O O4 0.925387 0.606941 0.610857
O O5 0.427928 0.433768 0.856830
O O6 0.530513 0.640455 0.634626
O O7 0.666925 0.411822 0.476825
O O8 0.648627 0.522184 0.660106
O O9 0.772429 0.318598 0.612582
O O10 0.699384 0.164230 0.567177
O O11 0.948346 0.311644 0.291975
O O12 0.768604 0.170629 0.293876
O O13 0.603459 0.987679 0.564228
O O14 0.830445 0.900291 0.260664
O O15 0.055772 0.907648 0.925627
O O16 0.738568 0.407836 0.220994
#
# Coordination Sequence:
#
# PCOD9140382 Si02
#       8
#     4   4   4   4   4   4   4   4
#     4  12  29  48  77 110 151 196 256 318 386 458
#     4  11  24  43  76 105 150 196 253 305 377 453
#     4  12  20  42  76 110 136 202 260 300 354 474
#     4  12  29  48  77 110 151 196 256 318 386 458
#     4  11  27  47  73 112 147 195 257 312 376 456
#     4  11  27  47  73 112 147 195 257 312 376 456
#     4  11  24  43  76 105 150 196 253 305 377 453
#     4  12  26  46  76 104 150 204 260 296 388 464
#
# _framework density 23.709177
#
# number of rings (size 3 to 8) (size 9 to 14) (size 15 to 20)
#    0.000    0.500    6.250    0.000   14.000    0.000 
#    2.250    2.500    0.000    0.000    0.000    0.000 
#    0.000    0.000    0.000    0.000    0.000    0.000 
#
# Total GULP energy -89268.468457 kJ/mol
# GULP energy per Si atom -5579.279279 kJ/mol
# Density = 2.365521 g / cm^3
# Si number density = 23.709177 Si / 1000 Ang^3
#
#
#
# Elastic Constant Matrix: (Units=GPa)
#
#
# Indices 1 2 3 4 5 6 
#
# 1 94.3236 2.0447 20.3033 0.0000 31.0159 0.0000
# 2 2.0447 68.4478 6.5245 0.0000 18.0698 0.0000
# 3 20.3033 6.5245 89.6587 0.0000 -3.3342 0.0000
# 4 0.0000 0.0000 0.0000 35.3414 0.0000 -12.3292
# 5 31.0159 18.0698 -3.3342 0.0000 43.5080 0.0000
# 6 0.0000 0.0000 0.0000 -12.3292 0.0000 33.5992
#
#
#
# Elastic Compliance Matrix: (Units=1/GPa)
#
#
# Indices 1 2 3 4 5 6 
#
# 1 0.015693 0.003346 -0.004277 0.000000 -0.012905 0.000000
# 2 0.003346 0.017313 -0.002380 0.000000 -0.009758 0.000000
# 3 -0.004277 -0.002380 0.012481 0.000000 0.004994 0.000000
# 4 0.000000 0.000000 0.000000 0.032449 0.000000 0.011907
# 5 -0.012905 -0.009758 0.004994 0.000000 0.036619 0.000000
# 6 0.000000 0.000000 0.000000 0.011907 0.000000 0.034132
#
#
# Mechanical properties :
#
#
# Convention : Reuss Voigt Hill
#
# Bulk Modulus (GPa) = 25.73127 34.46390 30.09758
# Shear Modulus (GPa) = 29.71499 37.39356 33.55427
#
# Velocity S-wave (km/s) = 3.54405 3.97568 3.76605
# Velocity P-wave (km/s) = 5.25581 5.97012 5.62432
#
# Compressibility (1/GPa) = 0.03886322
#
# Stress axis : x y z
#
# Youngs Moduli (GPa) = 63.72143 57.76133 80.12237
#
# Poissons Ratio (x) = -0.19325 0.34269
# Poissons Ratio (y) = -0.21319 0.19072
# Poissons Ratio (z) = 0.27254 0.13749
#
# Static dielectric constant tensor:
#      x y z
#    x 1.972560 0.000000 0.006340 
#    y 0.000000 1.885890 0.000000 
#    z 0.006340 0.000000 1.951490 
# 
# From -- ./inp_files/27346.got.cif
#   From: 2010.05.17/outbox.cif.g08.bks.cpg/sg9_14_cif.got.tgz:27346.got - 2010.06.03 20:04:27.
