data_PCOD9140891
_publ_section_title
;
Structure prediction by ZEFSAII (Michael W. Deem and Ramdas Pophale) SiO2 
 PCOD9140891
Probable space group: C C
;
_chemical_formula_sum "Si O2"
_cell_formula_units_Z 20
_cell_length_a 7.114650
_cell_length_b 7.626588
_cell_length_c 16.752448
_cell_angle_alpha 90.000000
_cell_angle_beta 124.667110
_cell_angle_gamma 90.000000
_cell_volume 747.622799
_symmetry_space_group_name_H-M "C C"
_symmetry_group_IT_number 9
_symmetry_cell_setting 'monoclinic'
loop_
_space_group_symop_operation_xyz
x,y,z
x,-y,1/2+z
1/2+x,1/2+y,z
1/2+x,1/2-y,1/2+z
loop_
_atom_site_type_symbol
_atom_site_label
_atom_site_fract_x
_atom_site_fract_y
_atom_site_fract_z
Si Si1 0.554620 0.400723 0.118360
Si Si2 0.299824 0.625082 0.270437
Si Si3 0.193220 0.322967 0.919520
Si Si4 0.664364 0.208523 0.649937
Si Si5 0.799541 0.578979 0.444889
O O1 0.660325 0.586354 0.166910
O O2 0.345603 0.345378 0.125374
O O3 0.730220 0.244199 0.178289
O O4 0.429309 0.417725 0.002993
O O5 0.165743 0.674255 0.318291
O O6 0.232228 0.425401 0.235677
O O7 0.563116 0.655772 0.355569
O O8 0.243423 0.121369 0.952304
O O9 0.984162 0.403620 0.917981
O O10 0.418836 0.164138 0.550726
#
# Coordination Sequence:
#
# PCOD9140891 Si02
#       5
#     4   4   4   4   4
#     4  11  28  54  80 119 171 220 282 350 424 505
#     4  12  28  52  88 122 166 226 286 342 436 498
#     4  11  28  52  82 123 167 222 281 355 420 506
#     4  11  28  54  80 119 171 220 282 350 424 505
#     4  11  28  52  82 123 167 222 281 355 420 506
#
# _framework density 26.751456999999998
#
# number of rings (size 3 to 8) (size 9 to 14) (size 15 to 20)
#    0.000    0.800    2.000    1.200   11.200   11.200 
#    0.000    4.000    0.000    0.000    0.000    0.000 
#    0.000    0.000    0.000    0.000    0.000    0.000 
#
# Total GULP energy -56153.556449 kJ/mol
# GULP energy per Si atom -5615.355645 kJ/mol
# Density = 2.669057 g / cm^3
# Si number density = 26.751457 Si / 1000 Ang^3
#
#
#
# Elastic Constant Matrix: (Units=GPa)
#
#
# Indices 1 2 3 4 5 6 
#
# 1 121.9783 37.5793 40.3212 0.0000 23.0697 0.0000
# 2 37.5793 151.7533 11.9198 0.0000 5.2705 0.0000
# 3 40.3212 11.9198 134.7117 0.0000 21.7545 0.0000
# 4 0.0000 0.0000 0.0000 45.8492 0.0000 -5.7690
# 5 23.0697 5.2705 21.7545 0.0000 55.6616 0.0000
# 6 0.0000 0.0000 0.0000 -5.7690 0.0000 28.4222
#
#
#
# Elastic Compliance Matrix: (Units=1/GPa)
#
#
# Indices 1 2 3 4 5 6 
#
# 1 0.010263 -0.002247 -0.002370 0.000000 -0.003115 0.000000
# 2 -0.002247 0.007137 0.000000 0.000000 0.000256 0.000000
# 3 -0.002370 0.000000 0.008511 0.000000 -0.002344 0.000000
# 4 0.000000 0.000000 0.000000 0.022382 0.000000 0.004543
# 5 -0.003115 0.000256 -0.002344 0.000000 0.020149 0.000000
# 6 0.000000 0.000000 0.000000 0.004543 0.000000 0.036106
#
#
# Mechanical properties :
#
#
# Convention : Reuss Voigt Hill
#
# Bulk Modulus (GPa) = 59.96410 65.34267 62.65339
# Shear Modulus (GPa) = 41.89649 47.22816 44.56232
#
# Velocity S-wave (km/s) = 3.96174 4.20628 4.08584
# Velocity P-wave (km/s) = 6.58719 6.93320 6.76241
#
# Compressibility (1/GPa) = 0.01667664
#
# Stress axis : x y z
#
# Youngs Moduli (GPa) = 97.43764 140.11005 117.49187
#
# Poissons Ratio (x) = 0.31485 0.27846
# Poissons Ratio (y) = 0.21896 0.00003
# Poissons Ratio (z) = 0.23093 0.00003
#
# Static dielectric constant tensor:
#      x y z
#    x 2.135740 0.000000 0.012240 
#    y 0.000000 2.013000 0.000000 
#    z 0.012240 0.000000 2.142380 
# 
# From -- ./inp_files/21566.got.cif
#   From: 2010.05.17/outbox.cif.g08.bks.cpg/sg9_11_cif.got.tgz:21566.got - 2010.06.03 20:04:27.
