data_PCOD9140525
_publ_section_title
;
Structure prediction by ZEFSAII (Michael W. Deem and Ramdas Pophale) SiO2 
 PCOD9140525
Probable space group: C C
;
_chemical_formula_sum "Si O2"
_cell_formula_units_Z 32
_cell_length_a 14.566836
_cell_length_b 8.681055
_cell_length_c 11.345124
_cell_angle_alpha 90.000000
_cell_angle_beta 62.807096
_cell_angle_gamma 90.000000
_cell_volume 1276.085412
_symmetry_space_group_name_H-M "C C"
_symmetry_group_IT_number 9
_symmetry_cell_setting 'monoclinic'
loop_
_space_group_symop_operation_xyz
x,y,z
x,-y,1/2+z
1/2+x,1/2+y,z
1/2+x,1/2-y,1/2+z
loop_
_atom_site_type_symbol
_atom_site_label
_atom_site_fract_x
_atom_site_fract_y
_atom_site_fract_z
Si Si1 0.938820 0.788722 0.909610
Si Si2 0.328479 0.259135 0.744218
Si Si3 0.090433 0.745526 0.440483
Si Si4 0.567197 0.821317 0.694419
Si Si5 0.677242 0.633263 0.257691
Si Si6 0.943747 0.512383 0.092469
Si Si7 0.649728 0.523332 0.524302
Si Si8 0.263849 0.462148 0.135955
O O1 0.912357 0.734820 0.794908
O O2 0.053544 0.854683 0.843765
O O3 0.847936 0.909208 0.991611
O O4 0.931195 0.645221 0.003496
O O5 0.214099 0.252206 0.864952
O O6 0.357371 0.120406 0.639112
O O7 0.325828 0.424177 0.684995
O O8 0.050747 0.756163 0.330863
O O9 0.048352 0.583692 0.508529
O O10 0.067334 0.892906 0.533154
O O11 0.600977 0.685803 0.587906
O O12 0.466201 0.902240 0.702293
O O13 0.663497 0.939827 0.653812
O O14 0.710859 0.561147 0.365083
O O15 0.695207 0.547016 0.120586
O O16 0.722678 0.804678 0.218219
#
# Coordination Sequence:
#
# PCOD9140525 Si02
#       8
#     4   4   4   4   4   4   4   4
#     4  12  26  45  74 111 152 205 253 323 385 464
#     4  11  26  45  71 110 145 196 262 316 379 457
#     4  11  25  47  74 102 151 202 251 322 378 453
#     4  11  24  47  72 109 145 207 253 312 385 455
#     4  12  27  50  78 114 158 203 261 317 397 461
#     4  12  25  45  75 108 150 198 253 319 387 456
#     4  12  25  45  81 111 146 206 258 314 383 464
#     4  11  28  48  75 111 153 205 257 321 386 466
#
# _framework density 25.076688999999998
#
# number of rings (size 3 to 8) (size 9 to 14) (size 15 to 20)
#    0.000    0.500    2.500    6.000    7.000    2.000 
#    0.000    2.500    0.000    0.000    0.000    0.000 
#    0.000    0.000    0.000    0.000    0.000    0.000 
#
# Total GULP energy -89522.242758 kJ/mol
# GULP energy per Si atom -5595.140172 kJ/mol
# Density = 2.501961 g / cm^3
# Si number density = 25.076689 Si / 1000 Ang^3
#
#
#
# Elastic Constant Matrix: (Units=GPa)
#
#
# Indices 1 2 3 4 5 6 
#
# 1 67.7387 58.4787 49.2611 0.0000 15.0051 0.0000
# 2 58.4787 158.1037 55.8343 0.0000 19.6056 0.0000
# 3 49.2611 55.8343 115.3875 0.0000 26.9132 0.0000
# 4 0.0000 0.0000 0.0000 53.3312 0.0000 -1.4003
# 5 15.0051 19.6056 26.9132 0.0000 50.6190 0.0000
# 6 0.0000 0.0000 0.0000 -1.4003 0.0000 34.8793
#
#
#
# Elastic Compliance Matrix: (Units=1/GPa)
#
#
# Indices 1 2 3 4 5 6 
#
# 1 0.026680 -0.006997 -0.007753 0.000000 -0.001076 0.000000
# 2 -0.006997 0.009521 -0.001420 0.000000 -0.000859 0.000000
# 3 -0.007753 -0.001420 0.013698 0.000000 -0.004435 0.000000
# 4 0.000000 0.000000 0.000000 0.018771 0.000000 0.000754
# 5 -0.001076 -0.000859 -0.004435 0.000000 0.022765 0.000000
# 6 0.000000 0.000000 0.000000 0.000754 0.000000 0.028701
#
#
# Mechanical properties :
#
#
# Convention : Reuss Voigt Hill
#
# Bulk Modulus (GPa) = 56.95132 74.26424 65.60778
# Shear Modulus (GPa) = 31.58032 39.60961 35.59497
#
# Velocity S-wave (km/s) = 3.55258 3.97865 3.77164
# Velocity P-wave (km/s) = 6.29190 7.12639 6.72210
#
# Compressibility (1/GPa) = 0.01755885
#
# Stress axis : x y z
#
# Youngs Moduli (GPa) = 37.48174 105.03489 73.00418
#
# Poissons Ratio (x) = 0.73488 0.56603
# Poissons Ratio (y) = 0.26224 0.10364
# Poissons Ratio (z) = 0.29061 0.14911
#
# Static dielectric constant tensor:
#      x y z
#    x 1.973730 0.000000 -0.006970 
#    y 0.000000 2.008690 0.000000 
#    z -0.006970 0.000000 2.054700 
# 
# From -- ./inp_files/17924.got.cif
#   From: 2010.05.17/outbox.cif.g08.bks.cpg/sg9_9_cif.got.tgz:17924.got - 2010.06.03 20:04:27.
