data_PCOD9140693
_publ_section_title
;
Structure prediction by ZEFSAII (Michael W. Deem and Ramdas Pophale) SiO2 
 PCOD9140693
Probable space group: C C
;
_chemical_formula_sum "Si O2"
_cell_formula_units_Z 28
_cell_length_a 22.521336
_cell_length_b 9.074604
_cell_length_c 11.159150
_cell_angle_alpha 90.000000
_cell_angle_beta 150.320194
_cell_angle_gamma 90.000000
_cell_volume 1129.254714
_symmetry_space_group_name_H-M "C C"
_symmetry_group_IT_number 9
_symmetry_cell_setting 'monoclinic'
loop_
_space_group_symop_operation_xyz
x,y,z
x,-y,1/2+z
1/2+x,1/2+y,z
1/2+x,1/2-y,1/2+z
loop_
_atom_site_type_symbol
_atom_site_label
_atom_site_fract_x
_atom_site_fract_y
_atom_site_fract_z
Si Si1 0.596560 0.080883 0.130340
Si Si2 0.178848 0.296547 0.360247
Si Si3 0.545089 0.535118 0.189495
Si Si4 0.363993 0.732350 0.975936
Si Si5 0.258404 0.807179 0.543005
Si Si6 0.443558 0.052038 0.189622
Si Si7 0.895255 0.762104 0.888754
O O1 0.701089 0.194764 0.345214
O O2 0.607897 0.948079 0.245377
O O3 0.475068 0.173659 0.933135
O O4 0.574324 0.995074 0.967476
O O5 0.093651 0.158658 0.183142
O O6 0.275613 0.318967 0.425215
O O7 0.256210 0.253862 0.612403
O O8 0.655089 0.422686 0.402962
O O9 0.485751 0.635679 0.189013
O O10 0.438962 0.429123 0.961302
O O11 0.305762 0.722487 0.742148
O O12 0.386776 0.905951 0.033200
O O13 0.364241 0.895509 0.663812
O O14 0.434261 0.185269 0.080241
#
# Coordination Sequence:
#
# PCOD9140693 Si02
#       7
#     4   4   4   4   4   4   4
#     4  11  26  45  72 106 142 191 241 295 363 427
#     4  12  25  48  74 105 148 193 237 303 368 430
#     4  11  25  47  71 105 143 191 244 297 360 428
#     4  12  26  46  75 108 146 191 247 297 363 446
#     4  11  26  48  70 107 148 190 242 300 368 430
#     4  12  24  48  76 106 149 191 241 308 358 439
#     4  11  26  48  72 109 146 187 250 296 362 446
#
# _framework density 24.795116
#
# number of rings (size 3 to 8) (size 9 to 14) (size 15 to 20)
#    0.000    0.571    2.857    4.286    6.000    4.571 
#    0.000    0.000    0.000    0.000    0.000    0.000 
#    0.000    0.000    0.000    0.000    0.000    0.000 
#
# Total GULP energy -78349.406419 kJ/mol
# GULP energy per Si atom -5596.386173 kJ/mol
# Density = 2.473868 g / cm^3
# Si number density = 24.795116 Si / 1000 Ang^3
#
#
#
# Elastic Constant Matrix: (Units=GPa)
#
#
# Indices 1 2 3 4 5 6 
#
# 1 95.1622 18.3024 24.8457 0.0000 1.2467 0.0000
# 2 18.3024 160.1304 55.5491 0.0000 9.3961 0.0000
# 3 24.8457 55.5491 105.2309 0.0000 -9.0415 0.0000
# 4 0.0000 0.0000 0.0000 57.3511 0.0000 11.0492
# 5 1.2467 9.3961 -9.0415 0.0000 28.3046 0.0000
# 6 0.0000 0.0000 0.0000 11.0492 0.0000 29.0129
#
#
#
# Elastic Compliance Matrix: (Units=1/GPa)
#
#
# Indices 1 2 3 4 5 6 
#
# 1 0.011263 -0.000314 -0.002598 0.000000 -0.001222 0.000000
# 2 -0.000314 0.008105 -0.004559 0.000000 -0.004133 0.000000
# 3 -0.002598 -0.004559 0.013020 0.000000 0.005787 0.000000
# 4 0.000000 0.000000 0.000000 0.018817 0.000000 -0.007166
# 5 -0.001222 -0.004133 0.005787 0.000000 0.038604 0.000000
# 6 0.000000 0.000000 0.000000 -0.007166 0.000000 0.037197
#
#
# Mechanical properties :
#
#
# Convention : Reuss Voigt Hill
#
# Bulk Modulus (GPa) = 57.32441 61.99088 59.65765
# Shear Modulus (GPa) = 33.83731 40.38880 37.11305
#
# Velocity S-wave (km/s) = 3.69816 4.04034 3.87303
# Velocity P-wave (km/s) = 6.43464 6.84261 6.64176
#
# Compressibility (1/GPa) = 0.01744458
#
# Stress axis : x y z
#
# Youngs Moduli (GPa) = 88.78446 123.38069 76.80233
#
# Poissons Ratio (x) = 0.03878 0.19956
# Poissons Ratio (y) = 0.02790 0.35017
# Poissons Ratio (z) = 0.23070 0.56254
#
# Static dielectric constant tensor:
#      x y z
#    x 2.002050 0.000000 -0.028610 
#    y 0.000000 1.930170 0.000000 
#    z -0.028610 0.000000 1.961630 
# 
# From -- ./inp_files/15953.got.cif
#   From: 2010.05.17/outbox.cif.g08.bks.cpg/sg9_8_cif.got.tgz:15953.got - 2010.06.03 20:04:27.
