data_PCOD9140249
_publ_section_title
;
Structure prediction by ZEFSAII (Michael W. Deem and Ramdas Pophale) SiO2 
 PCOD9140249
Probable space group: C C
;
_chemical_formula_sum "Si O2"
_cell_formula_units_Z 32
_cell_length_a 5.066241
_cell_length_b 23.060870
_cell_length_c 12.589366
_cell_angle_alpha 90.000000
_cell_angle_beta 119.628245
_cell_angle_gamma 90.000000
_cell_volume 1278.529504
_symmetry_space_group_name_H-M "C C"
_symmetry_group_IT_number 9
_symmetry_cell_setting 'monoclinic'
loop_
_space_group_symop_operation_xyz
x,y,z
x,-y,1/2+z
1/2+x,1/2+y,z
1/2+x,1/2-y,1/2+z
loop_
_atom_site_type_symbol
_atom_site_label
_atom_site_fract_x
_atom_site_fract_y
_atom_site_fract_z
Si Si1 0.504460 0.259659 0.250000
Si Si2 0.817918 0.577758 0.596883
Si Si3 0.414699 0.599807 0.084374
Si Si4 0.315909 0.643877 0.291560
Si Si5 0.147566 0.521136 0.495145
Si Si6 0.503482 0.971434 0.738760
Si Si7 0.206756 0.705797 0.914698
Si Si8 0.159451 0.197299 0.561921
O O1 0.543016 0.190669 0.238316
O O2 0.320244 0.272756 0.321282
O O3 0.842909 0.285239 0.342752
O O4 0.450186 0.285165 0.120159
O O5 0.486106 0.550260 0.555638
O O6 0.056688 0.531545 0.691601
O O7 0.856110 0.643005 0.642304
O O8 0.930622 0.570466 0.499991
O O9 0.429455 0.638879 0.193565
O O10 0.731361 0.566247 0.135257
O O11 0.191923 0.543803 0.052370
O O12 0.316511 0.641830 0.969285
O O13 0.500556 0.666865 0.429297
O O14 0.255459 0.576936 0.301146
O O15 0.966074 0.508146 0.351239
O O16 0.309870 0.747721 0.034193
#
# Coordination Sequence:
#
# PCOD9140249 Si02
#       8
#     4   4   4   4   4   4   4   4
#     4  11  28  46  72 112 148 194 246 308 373 437
#     4  11  25  43  69 104 142 186 241 297 357 430
#     4  11  25  48  74 108 148 192 250 299 376 445
#     4  11  23  46  74 101 144 196 240 303 360 451
#     4  11  25  45  69 105 142 190 240 299 360 434
#     4  11  25  43  73 103 144 188 245 292 364 433
#     4  11  28  48  75 109 151 196 241 312 377 437
#     4  11  25  49  74 110 151 192 251 304 371 451
#
# _framework density 25.028755
#
# number of rings (size 3 to 8) (size 9 to 14) (size 15 to 20)
#    0.000    1.000    3.750    0.750    8.750    3.000 
#    0.000    0.000    0.000    0.000    0.000    0.000 
#    0.000    0.000    0.000    0.000    0.000    0.000 
#
# Total GULP energy -89197.443705 kJ/mol
# GULP energy per Si atom -5574.840232 kJ/mol
# Density = 2.497179 g / cm^3
# Si number density = 25.028755 Si / 1000 Ang^3
#
#
#
# Elastic Constant Matrix: (Units=GPa)
#
#
# Indices 1 2 3 4 5 6 
#
# 1 93.6619 22.8335 8.4376 0.0000 -11.6501 0.0000
# 2 22.8335 137.1210 31.5282 0.0000 -5.5085 0.0000
# 3 8.4376 31.5282 58.0740 0.0000 -16.7332 0.0000
# 4 0.0000 0.0000 0.0000 44.3847 0.0000 12.8143
# 5 -11.6501 -5.5085 -16.7332 0.0000 31.9311 0.0000
# 6 0.0000 0.0000 0.0000 12.8143 0.0000 1.0276
#
#
#
# Elastic Compliance Matrix: (Units=1/GPa)
#
#
# Indices 1 2 3 4 5 6 
#
# 1 0.011610 -0.001891 0.000549 0.000000 0.004198 0.000000
# 2 -0.001891 0.008674 -0.004949 0.000000 -0.001787 0.000000
# 3 0.000549 -0.004949 0.023131 0.000000 0.011468 0.000000
# 4 0.000000 0.000000 0.000000 -0.008664 0.000000 0.108049
# 5 0.004198 -0.001787 0.011468 0.000000 0.038550 0.000000
# 6 0.000000 0.000000 0.000000 0.108049 0.000000 -0.374248
#
#
# Mechanical properties :
#
#
# Convention : Reuss Voigt Hill
#
# Bulk Modulus (GPa) = 32.43258 46.05058 39.24158
# Shear Modulus (GPa) = -17.97999 30.53919 6.27960
#
# Velocity S-wave (km/s) = -2.68316 3.49687 1.58569
# Velocity P-wave (km/s) = 1.84042 5.89434 4.36637
#
# Compressibility (1/GPa) = 0.03083319
#
# Stress axis : x y z
#
# Youngs Moduli (GPa) = 86.13005 115.28837 43.23215
#
# Poissons Ratio (x) = 0.21801 -0.02375
# Poissons Ratio (y) = 0.16287 0.21397
# Poissons Ratio (z) = -0.04731 0.57059
#
# Static dielectric constant tensor:
#      x y z
#    x 2.108710 0.000000 -0.045860 
#    y 0.000000 2.007290 0.000000 
#    z -0.045860 0.000000 2.344090 
# 
# From -- ./inp_files/13822.got.cif
#   From: 2010.05.17/outbox.cif.g08.bks.cpg/sg9_7_cif.got.tgz:13822.got - 2010.06.03 20:04:27.
