data_PCOD9140575
_publ_section_title
;
Structure prediction by ZEFSAII (Michael W. Deem and Ramdas Pophale) SiO2 
 PCOD9140575
Probable space group: C C
;
_chemical_formula_sum "Si O2"
_cell_formula_units_Z 32
_cell_length_a 5.625909
_cell_length_b 12.835928
_cell_length_c 18.455642
_cell_angle_alpha 90.000000
_cell_angle_beta 67.684718
_cell_angle_gamma 90.000000
_cell_volume 1232.939575
_symmetry_space_group_name_H-M "C C"
_symmetry_group_IT_number 9
_symmetry_cell_setting 'monoclinic'
loop_
_space_group_symop_operation_xyz
x,y,z
x,-y,1/2+z
1/2+x,1/2+y,z
1/2+x,1/2-y,1/2+z
loop_
_atom_site_type_symbol
_atom_site_label
_atom_site_fract_x
_atom_site_fract_y
_atom_site_fract_z
Si Si1 0.069240 0.931071 0.287190
Si Si2 0.943682 0.702184 0.910141
Si Si3 0.511142 0.059980 0.199323
Si Si4 0.493041 0.416358 0.126900
Si Si5 0.573867 0.186487 0.063481
Si Si6 0.972828 0.289643 0.821792
Si Si7 0.190892 0.425165 0.914244
Si Si8 0.024587 0.050017 0.993412
O O1 0.124336 0.818652 0.315817
O O2 0.082805 0.918425 0.198973
O O3 0.287136 0.015776 0.274742
O O4 0.816095 0.992555 0.342686
O O5 0.798771 0.811451 0.922316
O O6 0.199263 0.733787 0.835245
O O7 0.764964 0.599763 0.923911
O O8 0.036258 0.686477 0.982387
O O9 0.421192 0.107403 0.133353
O O10 0.607492 0.154376 0.238381
O O11 0.714357 0.970232 0.160926
O O12 0.504326 0.299346 0.099403
O O13 0.632597 0.481547 0.047023
O O14 0.868038 0.149759 0.042454
O O15 0.961229 0.371397 0.890076
O O16 0.304245 0.487723 0.973389
#
# Coordination Sequence:
#
# PCOD9140575 Si02
#       8
#     4   4   4   4   4   4   4   4
#     4  12  25  45  74 110 144 200 247 310 378 459
#     4  12  25  48  76 106 151 198 252 321 384 459
#     4  11  25  47  73 109 148 195 252 307 383 450
#     4  11  24  48  76 107 149 199 251 319 381 454
#     4  11  24  49  76 107 144 198 251 318 381 462
#     4  12  27  48  74 111 156 194 251 314 386 464
#     4  12  25  47  74 107 149 200 249 311 381 464
#     4  11  27  50  73 111 149 200 259 316 388 460
#
# _framework density 25.954231
#
# number of rings (size 3 to 8) (size 9 to 14) (size 15 to 20)
#    0.000    0.500    5.000    3.000    0.000    6.000 
#   11.250    0.000    0.000    0.000    0.000    0.000 
#    0.000    0.000    0.000    0.000    0.000    0.000 
#
# Total GULP energy -89179.213956 kJ/mol
# GULP energy per Si atom -5573.700872 kJ/mol
# Density = 2.589516 g / cm^3
# Si number density = 25.954231 Si / 1000 Ang^3
#
#
#
# Elastic Constant Matrix: (Units=GPa)
#
#
# Indices 1 2 3 4 5 6 
#
# 1 31.8719 38.6848 17.7168 0.0000 7.8717 0.0000
# 2 38.6848 176.3885 40.3872 0.0000 -4.0361 0.0000
# 3 17.7168 40.3872 104.2792 0.0000 17.9650 0.0000
# 4 0.0000 0.0000 0.0000 66.0852 0.0000 8.2891
# 5 7.8717 -4.0361 17.9650 0.0000 39.0913 0.0000
# 6 0.0000 0.0000 0.0000 8.2891 0.0000 22.1754
#
#
#
# Elastic Compliance Matrix: (Units=1/GPa)
#
#
# Indices 1 2 3 4 5 6 
#
# 1 0.047230 -0.009991 -0.002540 0.000000 -0.009375 0.000000
# 2 -0.009991 0.008467 -0.002258 0.000000 0.003924 0.000000
# 3 -0.002540 -0.002258 0.011780 0.000000 -0.005136 0.000000
# 4 0.000000 0.000000 0.000000 0.015876 0.000000 -0.005935
# 5 -0.009375 0.003924 -0.005136 0.000000 0.030234 0.000000
# 6 0.000000 0.000000 0.000000 -0.005935 0.000000 0.047313
#
#
# Mechanical properties :
#
#
# Convention : Reuss Voigt Hill
#
# Bulk Modulus (GPa) = 26.38521 56.23526 41.31023
# Shear Modulus (GPa) = 24.61696 39.85375 32.23535
#
# Velocity S-wave (km/s) = 3.08307 3.92285 3.52804
# Velocity P-wave (km/s) = 4.78141 6.49865 5.70501
#
# Compressibility (1/GPa) = 0.03790003
#
# Stress axis : x y z
#
# Youngs Moduli (GPa) = 21.17309 118.10117 84.88736
#
# Poissons Ratio (x) = 1.17998 0.21557
# Poissons Ratio (y) = 0.21155 0.19166
# Poissons Ratio (z) = 0.05377 0.26666
#
# Static dielectric constant tensor:
#      x y z
#    x 2.187740 0.000000 -0.031170 
#    y 0.000000 1.983730 0.000000 
#    z -0.031170 0.000000 2.102830 
# 
# From -- ./inp_files/32083.got.cif
#   From: 2010.05.17/outbox.cif.g08.bks.cpg/sg9_17_cif.got.tgz:32083.got - 2010.06.03 20:04:27.
