data_PCOD9140123
_publ_section_title
;
Structure prediction by ZEFSAII (Michael W. Deem and Ramdas Pophale) SiO2 
 PCOD9140123
Probable space group: C C
;
_chemical_formula_sum "Si O2"
_cell_formula_units_Z 24
_cell_length_a 12.605386
_cell_length_b 13.474836
_cell_length_c 8.710228
_cell_angle_alpha 90.000000
_cell_angle_beta 135.631076
_cell_angle_gamma 90.000000
_cell_volume 1034.564594
_symmetry_space_group_name_H-M "C C"
_symmetry_group_IT_number 9
_symmetry_cell_setting 'monoclinic'
loop_
_space_group_symop_operation_xyz
x,y,z
x,-y,1/2+z
1/2+x,1/2+y,z
1/2+x,1/2-y,1/2+z
loop_
_atom_site_type_symbol
_atom_site_label
_atom_site_fract_x
_atom_site_fract_y
_atom_site_fract_z
Si Si1 0.300910 0.963113 0.311630
Si Si2 0.601011 0.481397 0.373261
Si Si3 0.601916 0.912956 0.157339
Si Si4 0.402882 0.253792 0.005306
Si Si5 0.662935 0.740978 0.982606
Si Si6 0.789110 0.924104 0.658484
O O1 0.141037 0.974373 0.236113
O O2 0.366590 0.858295 0.427290
O O3 0.430730 0.044367 0.474354
O O4 0.243532 0.955038 0.079557
O O5 0.637706 0.374815 0.490164
O O6 0.436516 0.523717 0.235216
O O7 0.612456 0.814680 0.063392
O O8 0.672228 0.896852 0.399681
O O9 0.703680 0.997560 0.179552
O O10 0.578968 0.251377 0.230298
O O11 0.330268 0.272077 0.099689
O O12 0.349759 0.332362 0.824166
#
# Coordination Sequence:
#
# PCOD9140123 Si02
#       6
#     4   4   4   4   4   4
#     4  11  24  43  65  92 130 172 214 268 330 390
#     4  11  24  43  65  92 130 172 214 268 330 390
#     4  12  24  42  69 101 133 173 224 278 330 391
#     4  11  23  43  67  93 129 173 217 270 331 393
#     4  11  23  43  67  93 129 173 217 270 331 393
#     4  12  24  42  69 101 133 173 224 278 330 391
#
# _framework density 23.198166000000001
#
# number of rings (size 3 to 8) (size 9 to 14) (size 15 to 20)
#    0.000    0.667    0.000   11.000    0.000    1.333 
#    0.000   10.000    0.000    2.000    0.000    0.000 
#    0.000    0.000    0.000    0.000    0.000    0.000 
#
# Total GULP energy -67046.811846 kJ/mol
# GULP energy per Si atom -5587.234321 kJ/mol
# Density = 2.314537 g / cm^3
# Si number density = 23.198166 Si / 1000 Ang^3
#
#
#
# Elastic Constant Matrix: (Units=GPa)
#
#
# Indices 1 2 3 4 5 6 
#
# 1 81.6372 29.5919 -4.9606 0.0000 10.0551 0.0000
# 2 29.5919 64.6592 -1.9082 0.0000 -12.4147 0.0000
# 3 -4.9606 -1.9082 108.7278 0.0000 -4.9649 0.0000
# 4 0.0000 0.0000 0.0000 47.3395 0.0000 -6.0173
# 5 10.0551 -12.4147 -4.9649 0.0000 36.4779 0.0000
# 6 0.0000 0.0000 0.0000 -6.0173 0.0000 29.2558
#
#
#
# Elastic Compliance Matrix: (Units=1/GPa)
#
#
# Indices 1 2 3 4 5 6 
#
# 1 0.016446 -0.008969 0.000248 0.000000 -0.007552 0.000000
# 2 -0.008969 0.021471 0.000417 0.000000 0.009837 0.000000
# 3 0.000248 0.000417 0.009277 0.000000 0.001336 0.000000
# 4 0.000000 0.000000 0.000000 0.021691 0.000000 0.004461
# 5 -0.007552 0.009837 0.001336 0.000000 0.033025 0.000000
# 6 0.000000 0.000000 0.000000 0.004461 0.000000 0.035099
#
#
# Mechanical properties :
#
#
# Convention : Reuss Voigt Hill
#
# Bulk Modulus (GPa) = 32.69534 33.38560 33.04047
# Shear Modulus (GPa) = 30.52260 38.10140 34.31200
#
# Velocity S-wave (km/s) = 3.63124 4.05709 3.85006
# Velocity P-wave (km/s) = 5.63078 6.03070 5.83417
#
# Compressibility (1/GPa) = 0.03058539
#
# Stress axis : x y z
#
# Youngs Moduli (GPa) = 60.80616 46.57343 107.79438
#
# Poissons Ratio (x) = 0.41773 -0.02674
# Poissons Ratio (y) = 0.54538 -0.04493
# Poissons Ratio (z) = -0.01508 -0.01941
#
# Static dielectric constant tensor:
#      x y z
#    x 1.887020 0.000000 0.000290 
#    y 0.000000 1.891210 0.000000 
#    z 0.000290 0.000000 1.882900 
# 
# From -- ./inp_files/6927.got.cif
#   From: 2010.05.17/outbox.cif.g08.bks.cpg/sg9_4_cif.got.tgz:6927.got - 2010.06.03 20:04:27.
