data_PCOD9140486
_publ_section_title
;
Structure prediction by ZEFSAII (Michael W. Deem and Ramdas Pophale) SiO2 
 PCOD9140486
Probable space group: C C
;
_chemical_formula_sum "Si O2"
_cell_formula_units_Z 28
_cell_length_a 9.821999
_cell_length_b 12.116341
_cell_length_c 16.550356
_cell_angle_alpha 90.000000
_cell_angle_beta 33.194125
_cell_angle_gamma 90.000000
_cell_volume 1078.313209
_symmetry_space_group_name_H-M "C C"
_symmetry_group_IT_number 9
_symmetry_cell_setting 'monoclinic'
loop_
_space_group_symop_operation_xyz
x,y,z
x,-y,1/2+z
1/2+x,1/2+y,z
1/2+x,1/2-y,1/2+z
loop_
_atom_site_type_symbol
_atom_site_label
_atom_site_fract_x
_atom_site_fract_y
_atom_site_fract_z
Si Si1 0.400920 0.205243 0.940410
Si Si2 0.214019 0.435318 0.672920
Si Si3 0.953669 0.327843 0.934329
Si Si4 0.829392 0.526482 0.101002
Si Si5 0.018421 0.351333 0.224432
Si Si6 0.584796 0.428374 0.354861
Si Si7 0.470725 0.784935 0.655825
O O1 0.347140 0.218498 0.870688
O O2 0.691542 0.238960 0.803663
O O3 0.312209 0.090456 0.024732
O O4 0.239843 0.289030 0.073503
O O5 0.451602 0.468486 0.501832
O O6 0.192932 0.375709 0.768050
O O7 0.097123 0.553530 0.746380
O O8 0.054273 0.351893 0.694954
O O9 0.003179 0.197830 0.896858
O O10 0.930553 0.405240 0.024687
O O11 0.662739 0.317471 0.048373
O O12 0.577545 0.499434 0.277558
O O13 0.970790 0.620406 0.085478
O O14 0.875891 0.419094 0.227452
#
# Coordination Sequence:
#
# PCOD9140486 Si02
#       7
#     4   4   4   4   4   4   4
#     4  12  27  48  71 110 146 195 249 310 386 458
#     4  11  24  46  73 100 143 192 240 310 374 437
#     4  11  26  48  76 111 141 195 257 311 376 462
#     4  12  24  49  74 108 145 201 247 303 394 444
#     4  12  27  45  71 104 149 186 242 318 372 463
#     4  11  26  47  71 106 147 189 248 307 378 454
#     4  11  24  49  78 105 149 192 253 311 374 464
#
# _framework density 25.966480000000001
#
# number of rings (size 3 to 8) (size 9 to 14) (size 15 to 20)
#    0.000    0.571    4.286    3.429    4.000    1.143 
#    7.714    0.000    0.000    0.000    0.000    0.000 
#    0.000    0.000    0.000    0.000    0.000    0.000 
#
# Total GULP energy -77965.803713 kJ/mol
# GULP energy per Si atom -5568.985980 kJ/mol
# Density = 2.590738 g / cm^3
# Si number density = 25.966480 Si / 1000 Ang^3
#
#
#
# Elastic Constant Matrix: (Units=GPa)
#
#
# Indices 1 2 3 4 5 6 
#
# 1 40.8083 7.5274 38.8640 -0.0010 13.8658 0.0005
# 2 7.5274 96.6975 47.7194 -0.0013 3.1083 0.0004
# 3 38.8640 47.7194 176.4120 -0.0058 38.6934 0.0018
# 4 -0.0010 -0.0013 -0.0058 46.2497 0.0016 14.9979
# 5 13.8658 3.1083 38.6934 0.0016 36.3779 -0.0006
# 6 0.0005 0.0004 0.0018 14.9979 -0.0006 31.4734
#
#
#
# Elastic Compliance Matrix: (Units=1/GPa)
#
#
# Indices 1 2 3 4 5 6 
#
# 1 0.032058 0.000617 -0.005919 0.000000 -0.005977 0.000000
# 2 0.000617 0.012230 -0.004126 0.000000 0.003108 0.000000
# 3 -0.005919 -0.004126 0.009803 0.000002 -0.007819 -0.000001
# 4 0.000000 0.000000 0.000002 0.025574 -0.000003 -0.012187
# 5 -0.005977 0.003108 -0.007819 -0.000003 0.037818 0.000003
# 6 0.000000 0.000000 -0.000001 -0.012187 0.000003 0.037580
#
#
# Mechanical properties :
#
#
# Convention : Reuss Voigt Hill
#
# Bulk Modulus (GPa) = 28.37910 55.79327 42.08618
# Shear Modulus (GPa) = 26.93043 37.47400 32.20222
#
# Velocity S-wave (km/s) = 3.22393 3.80303 3.52539
# Velocity P-wave (km/s) = 4.98108 6.38884 5.72837
#
# Compressibility (1/GPa) = 0.03523720
#
# Stress axis : x y z
#
# Youngs Moduli (GPa) = 31.19310 81.76862 102.00489
#
# Poissons Ratio (x) = -0.05048 0.60373
# Poissons Ratio (y) = -0.01926 0.42086
# Poissons Ratio (z) = 0.18462 0.33736
#
# Static dielectric constant tensor:
#      x y z
#    x 2.155620 0.000000 -0.094080 
#    y 0.000000 2.111580 0.000000 
#    z -0.094080 0.000000 2.070160 
# 
# From -- ./inp_files/16354.got.cif
#   From: 2010.05.17/outbox.cif.g08.bks.cpg/sg9_9_cif.got.tgz:16354.got - 2010.06.03 20:04:27.
