data_PCOD9140243
_publ_section_title
;
Structure prediction by ZEFSAII (Michael W. Deem and Ramdas Pophale) SiO2 
 PCOD9140243
Probable space group: C C
;
_chemical_formula_sum "Si O2"
_cell_formula_units_Z 28
_cell_length_a 15.721766
_cell_length_b 8.448089
_cell_length_c 14.438401
_cell_angle_alpha 90.000000
_cell_angle_beta 138.916659
_cell_angle_gamma 90.000000
_cell_volume 1260.223176
_symmetry_space_group_name_H-M "C C"
_symmetry_group_IT_number 9
_symmetry_cell_setting 'monoclinic'
loop_
_space_group_symop_operation_xyz
x,y,z
x,-y,1/2+z
1/2+x,1/2+y,z
1/2+x,1/2-y,1/2+z
loop_
_atom_site_type_symbol
_atom_site_label
_atom_site_fract_x
_atom_site_fract_y
_atom_site_fract_z
Si Si1 0.109670 0.890730 0.941350
Si Si2 0.527399 0.506372 0.078385
Si Si3 0.754566 0.910329 0.825302
Si Si4 0.094408 0.194246 0.804864
Si Si5 0.404750 0.836593 0.791206
Si Si6 0.634491 0.812272 0.130358
Si Si7 0.850302 0.290799 0.227944
O O1 0.981981 0.795931 0.806400
O O2 0.134956 0.042251 0.898230
O O3 0.234148 0.780236 0.058540
O O4 0.077388 0.958334 0.017689
O O5 0.556711 0.367384 0.172907
O O6 0.598517 0.665883 0.166893
O O7 0.374101 0.523371 0.947615
O O8 0.706259 0.819632 0.876018
O O9 0.805090 0.790239 0.787172
O O10 0.646135 0.021043 0.690740
O O11 0.973544 0.275348 0.755221
O O12 0.274297 0.735390 0.702111
O O13 0.373278 0.022423 0.761031
O O14 0.517087 0.814770 0.960669
#
# Coordination Sequence:
#
# PCOD9140243 Si02
#       7
#     4   4   4   4   4   4   4
#     4  11  23  48  71 105 146 186 240 296 360 420
#     4  11  24  46  73 106 141 187 241 304 352 431
#     4  11  25  46  74 106 141 189 245 299 360 429
#     4  12  26  45  73 107 143 188 245 299 356 434
#     4  12  24  42  76 106 144 193 238 296 362 430
#     4  12  23  49  71 106 144 194 238 297 370 420
#     4  11  23  46  72 104 141 195 233 295 364 422
#
# _framework density 22.218288000000001
#
# number of rings (size 3 to 8) (size 9 to 14) (size 15 to 20)
#    0.000    0.571    5.714    1.714    6.000    1.143 
#    2.571    0.000    0.000    0.000    0.000    0.000 
#    0.000    0.000    0.000    0.000    0.000    0.000 
#
# Total GULP energy -78320.876600 kJ/mol
# GULP energy per Si atom -5594.348329 kJ/mol
# Density = 2.216772 g / cm^3
# Si number density = 22.218288 Si / 1000 Ang^3
#
#
#
# Elastic Constant Matrix: (Units=GPa)
#
#
# Indices 1 2 3 4 5 6 
#
# 1 91.8221 48.3574 48.4157 0.0000 18.0675 0.0000
# 2 48.3574 93.9871 20.7534 0.0000 10.5500 0.0000
# 3 48.4157 20.7534 100.1068 0.0000 30.9150 0.0000
# 4 0.0000 0.0000 0.0000 44.3819 0.0000 1.2327
# 5 18.0675 10.5500 30.9150 0.0000 32.1579 0.0000
# 6 0.0000 0.0000 0.0000 1.2327 0.0000 44.0800
#
#
#
# Elastic Compliance Matrix: (Units=1/GPa)
#
#
# Indices 1 2 3 4 5 6 
#
# 1 0.019249 -0.008171 -0.007258 0.000000 -0.001156 0.000000
# 2 -0.008171 0.014714 0.001386 0.000000 -0.001569 0.000000
# 3 -0.007258 0.001386 0.017200 0.000000 -0.012912 0.000000
# 4 0.000000 0.000000 0.000000 0.022549 0.000000 -0.000631
# 5 -0.001156 -0.001569 -0.012912 0.000000 0.044673 0.000000
# 6 0.000000 0.000000 0.000000 -0.000631 0.000000 0.022704
#
#
# Mechanical properties :
#
#
# Convention : Reuss Voigt Hill
#
# Bulk Modulus (GPa) = 43.33647 57.88543 50.61095
# Shear Modulus (GPa) = 28.26976 35.34992 31.80984
#
# Velocity S-wave (km/s) = 3.57089 3.99310 3.78788
# Velocity P-wave (km/s) = 6.04557 6.88254 6.47759
#
# Compressibility (1/GPa) = 0.02307525
#
# Stress axis : x y z
#
# Youngs Moduli (GPa) = 51.95208 67.96283 58.13993
#
# Poissons Ratio (x) = 0.55533 0.42200
# Poissons Ratio (y) = 0.42450 -0.08058
# Poissons Ratio (z) = 0.37709 -0.09419
#
# Static dielectric constant tensor:
#      x y z
#    x 1.806410 0.000000 0.016200 
#    y 0.000000 1.838470 0.000000 
#    z 0.016200 0.000000 1.864230 
# 
# From -- ./inp_files/11413.got.cif
#   From: 2010.05.17/outbox.cif.g08.bks.cpg/sg9_6_cif.got.tgz:11413.got - 2010.06.03 20:04:27.
