data_PCOD9140385
_publ_section_title
;
Structure prediction by ZEFSAII (Michael W. Deem and Ramdas Pophale) SiO2 
 PCOD9140385
Probable space group: C C
;
_chemical_formula_sum "Si O2"
_cell_formula_units_Z 24
_cell_length_a 17.359407
_cell_length_b 7.646698
_cell_length_c 8.947707
_cell_angle_alpha 90.000000
_cell_angle_beta 127.867423
_cell_angle_gamma 90.000000
_cell_volume 937.639682
_symmetry_space_group_name_H-M "C C"
_symmetry_group_IT_number 9
_symmetry_cell_setting 'monoclinic'
loop_
_space_group_symop_operation_xyz
x,y,z
x,-y,1/2+z
1/2+x,1/2+y,z
1/2+x,1/2-y,1/2+z
loop_
_atom_site_type_symbol
_atom_site_label
_atom_site_fract_x
_atom_site_fract_y
_atom_site_fract_z
Si Si1 0.553680 0.018154 0.877490
Si Si2 0.730667 0.663667 0.246892
Si Si3 0.189108 0.558663 0.262603
Si Si4 0.902273 0.877782 0.985242
Si Si5 0.348795 0.913517 0.176804
Si Si6 0.512630 0.346650 0.424418
O O1 0.523844 0.861803 0.955815
O O2 0.622020 0.957579 0.825910
O O3 0.447120 0.067972 0.695940
O O4 0.621250 0.148294 0.055442
O O5 0.719564 0.872817 0.225061
O O6 0.804799 0.573097 0.220207
O O7 0.766394 0.634915 0.458993
O O8 0.622478 0.587557 0.086966
O O9 0.294279 0.631313 0.428469
O O10 0.887312 0.731074 0.840419
O O11 0.937604 0.051200 0.939979
O O12 0.977602 0.860313 0.210978
#
# Coordination Sequence:
#
# PCOD9140385 Si02
#       6
#     4   4   4   4   4   4
#     4  11  24  44  67  95 132 176 222 274 332 396
#     4  11  25  44  69 100 136 178 225 277 335 401
#     4  11  24  44  67  95 132 176 222 274 332 396
#     4  12  25  44  70 101 135 176 225 279 336 399
#     4  12  25  44  70 101 135 176 225 279 336 399
#     4  11  25  44  69 100 136 178 225 277 335 401
#
# _framework density 25.596184000000001
#
# number of rings (size 3 to 8) (size 9 to 14) (size 15 to 20)
#    0.000    0.667    0.000    8.000    0.000   12.000 
#    0.000    0.000    0.000    0.000    0.000    0.000 
#    0.000    0.000    0.000    0.000    0.000    0.000 
#
# Total GULP energy -67064.582503 kJ/mol
# GULP energy per Si atom -5588.715209 kJ/mol
# Density = 2.553793 g / cm^3
# Si number density = 25.596184 Si / 1000 Ang^3
#
#
#
# Elastic Constant Matrix: (Units=GPa)
#
#
# Indices 1 2 3 4 5 6 
#
# 1 179.8216 10.0712 52.0149 0.0000 28.7167 0.0000
# 2 10.0712 57.9223 20.0185 0.0000 1.1526 0.0000
# 3 52.0149 20.0185 164.4835 0.0000 19.8430 0.0000
# 4 0.0000 0.0000 0.0000 30.1902 0.0000 -2.7042
# 5 28.7167 1.1526 19.8430 0.0000 50.4980 0.0000
# 6 0.0000 0.0000 0.0000 -2.7042 0.0000 23.8882
#
#
#
# Elastic Compliance Matrix: (Units=1/GPa)
#
#
# Indices 1 2 3 4 5 6 
#
# 1 0.006555 -0.000512 -0.001640 0.000000 -0.003071 0.000000
# 2 -0.000512 0.018073 -0.002124 0.000000 0.000713 0.000000
# 3 -0.001640 -0.002124 0.007074 0.000000 -0.001799 0.000000
# 4 0.000000 0.000000 0.000000 0.033463 0.000000 0.003788
# 5 -0.003071 0.000713 -0.001799 0.000000 0.022240 0.000000
# 6 0.000000 0.000000 0.000000 0.003788 0.000000 0.042290
#
#
# Mechanical properties :
#
#
# Convention : Reuss Voigt Hill
#
# Bulk Modulus (GPa) = 43.19560 62.93741 53.06651
# Shear Modulus (GPa) = 34.25542 42.25680 38.25611
#
# Velocity S-wave (km/s) = 3.66225 4.06754 3.87020
# Velocity P-wave (km/s) = 5.89875 6.83387 6.38345
#
# Compressibility (1/GPa) = 0.02315050
#
# Stress axis : x y z
#
# Youngs Moduli (GPa) = 152.56521 55.33021 141.36889
#
# Poissons Ratio (x) = 0.02832 0.23184
# Poissons Ratio (y) = 0.07808 0.30024
# Poissons Ratio (z) = 0.25020 0.11751
#
# Static dielectric constant tensor:
#      x y z
#    x 2.018380 0.000000 0.093050 
#    y 0.000000 2.114400 0.000000 
#    z 0.093050 0.000000 2.131190 
# 
# From -- ./inp_files/10408.got.cif
#   From: 2010.05.17/outbox.cif.g08.bks.cpg/sg9_6_cif.got.tgz:10408.got - 2010.06.03 20:04:27.
