data_PCOD9140787
_publ_section_title
;
Structure prediction by ZEFSAII (Michael W. Deem and Ramdas Pophale) SiO2 
 PCOD9140787
Probable space group: C C
;
_chemical_formula_sum "Si O2"
_cell_formula_units_Z 24
_cell_length_a 5.142127
_cell_length_b 18.498886
_cell_length_c 9.568949
_cell_angle_alpha 90.000000
_cell_angle_beta 99.270959
_cell_angle_gamma 90.000000
_cell_volume 898.343160
_symmetry_space_group_name_H-M "C C"
_symmetry_group_IT_number 9
_symmetry_cell_setting 'monoclinic'
loop_
_space_group_symop_operation_xyz
x,y,z
x,-y,1/2+z
1/2+x,1/2+y,z
1/2+x,1/2-y,1/2+z
loop_
_atom_site_type_symbol
_atom_site_label
_atom_site_fract_x
_atom_site_fract_y
_atom_site_fract_z
Si Si1 0.943980 0.528185 0.256260
Si Si2 0.228816 0.226837 0.296478
Si Si3 0.418311 0.134824 0.754630
Si Si4 0.615759 0.685797 0.994756
Si Si5 0.610890 0.399303 0.952985
Si Si6 0.379025 0.538200 0.054693
O O1 0.010324 0.445462 0.299069
O O2 0.870537 0.573056 0.389860
O O3 0.651342 0.527130 0.164009
O O4 0.143187 0.543665 0.145993
O O5 0.447731 0.244951 0.430659
O O6 0.026942 0.170742 0.354531
O O7 0.130993 0.305159 0.236957
O O8 0.284784 0.191457 0.151213
O O9 0.295101 0.167289 0.881701
O O10 0.206523 0.127199 0.612271
O O11 0.422311 0.617418 0.994950
O O12 0.409191 0.466634 0.956584
#
# Coordination Sequence:
#
# PCOD9140787 Si02
#       6
#     4   4   4   4   4   4
#     4  11  26  50  84 121 162 215 279 343 411 490
#     4  12  28  50  79 120 165 216 275 344 417 498
#     4  11  28  48  78 118 163 215 270 344 413 495
#     4  12  28  51  80 120 164 220 275 342 421 498
#     4  11  25  53  80 125 154 221 279 343 406 497
#     4  11  27  50  85 120 164 215 278 342 412 496
#
# _framework density 26.715847
#
# number of rings (size 3 to 8) (size 9 to 14) (size 15 to 20)
#    0.000    0.667    5.000    0.000    9.333    4.000 
#    0.000    0.000    0.000    0.000    0.000    0.000 
#    0.000    0.000    0.000    0.000    0.000    0.000 
#
# Total GULP energy -67133.106805 kJ/mol
# GULP energy per Si atom -5594.425567 kJ/mol
# Density = 2.665504 g / cm^3
# Si number density = 26.715847 Si / 1000 Ang^3
#
#
#
# Elastic Constant Matrix: (Units=GPa)
#
#
# Indices 1 2 3 4 5 6 
#
# 1 84.0871 12.2056 6.4153 0.0000 -14.2128 0.0000
# 2 12.2056 148.3207 23.6940 0.0000 4.2317 0.0000
# 3 6.4153 23.6940 122.4672 0.0000 18.7237 0.0000
# 4 0.0000 0.0000 0.0000 137.4498 0.0000 26.8190
# 5 -14.2128 4.2317 18.7237 0.0000 29.2261 0.0000
# 6 0.0000 0.0000 0.0000 26.8190 0.0000 50.7922
#
#
#
# Elastic Compliance Matrix: (Units=1/GPa)
#
#
# Indices 1 2 3 4 5 6 
#
# 1 0.013495 -0.001062 -0.001694 0.000000 0.007802 0.000000
# 2 -0.001062 0.007042 -0.001188 0.000000 -0.000775 0.000000
# 3 -0.001694 -0.001188 0.009516 0.000000 -0.006748 0.000000
# 4 0.000000 0.000000 0.000000 0.008111 0.000000 -0.004283
# 5 0.007802 -0.000775 -0.006748 0.000000 0.042445 0.000000
# 6 0.000000 0.000000 0.000000 -0.004283 0.000000 0.021949
#
#
# Mechanical properties :
#
#
# Convention : Reuss Voigt Hill
#
# Bulk Modulus (GPa) = 45.12158 48.83387 46.97773
# Shear Modulus (GPa) = 42.43232 64.33095 53.38163
#
# Velocity S-wave (km/s) = 3.98965 4.91243 4.47489
# Velocity P-wave (km/s) = 6.17650 7.10596 6.65747
#
# Compressibility (1/GPa) = 0.02216234
#
# Stress axis : x y z
#
# Youngs Moduli (GPa) = 74.10379 142.01512 105.08861
#
# Poissons Ratio (x) = 0.15088 0.17803
# Poissons Ratio (y) = 0.07873 0.12487
# Poissons Ratio (z) = 0.12554 0.16874
#
# Static dielectric constant tensor:
#      x y z
#    x 2.198290 0.000000 0.152680 
#    y 0.000000 1.848080 0.000000 
#    z 0.152680 0.000000 2.217970 
# 
# From -- ./inp_files/3844.got.cif
#   From: 2010.05.17/outbox.cif.g08.bks.cpg/sg9_2_cif.got.tgz:3844.got - 2010.06.03 20:04:27.
