data_PCOD9140105
_publ_section_title
;
Structure prediction by ZEFSAII (Michael W. Deem and Ramdas Pophale) SiO2 
 PCOD9140105
Probable space group: C C
;
_chemical_formula_sum "Si O2"
_cell_formula_units_Z 24
_cell_length_a 17.880038
_cell_length_b 6.487313
_cell_length_c 18.735902
_cell_angle_alpha 90.000000
_cell_angle_beta 31.635148
_cell_angle_gamma 90.000000
_cell_volume 1139.882954
_symmetry_space_group_name_H-M "C C"
_symmetry_group_IT_number 9
_symmetry_cell_setting 'monoclinic'
loop_
_space_group_symop_operation_xyz
x,y,z
x,-y,1/2+z
1/2+x,1/2+y,z
1/2+x,1/2-y,1/2+z
loop_
_atom_site_type_symbol
_atom_site_label
_atom_site_fract_x
_atom_site_fract_y
_atom_site_fract_z
Si Si1 0.113350 0.611326 0.648620
Si Si2 0.715890 0.349122 0.699806
Si Si3 0.435034 0.825181 0.020608
Si Si4 0.244374 0.463673 0.771748
Si Si5 0.513193 0.289838 0.308306
Si Si6 0.346802 0.404918 0.844932
O O1 0.207547 0.732364 0.630977
O O2 0.096073 0.385243 0.697123
O O3 0.957835 0.716078 0.765452
O O4 0.917211 0.091302 0.830660
O O5 0.606666 0.537738 0.774238
O O6 0.863077 0.459136 0.599814
O O7 0.690271 0.178255 0.781276
O O8 0.423160 0.813431 0.944616
O O9 0.602233 0.829672 0.900599
O O10 0.348087 0.645522 0.130191
O O11 0.325074 0.468119 0.780980
O O12 0.696797 0.129109 0.506600
#
# Coordination Sequence:
#
# PCOD9140105 Si02
#       6
#     4   4   4   4   4   4
#     4  11  23  47  72  99 141 181 239 283 349 425
#     4  11  23  42  72 101 132 183 235 288 338 419
#     4  12  24  46  70 100 141 183 236 290 347 423
#     4  12  27  43  69 107 145 181 233 291 358 414
#     4  11  23  45  71 100 132 184 238 284 341 419
#     4  11  26  43  70 105 139 184 225 292 357 412
#
# _framework density 21.054794999999999
#
# number of rings (size 3 to 8) (size 9 to 14) (size 15 to 20)
#    0.000    0.667    3.333    4.000    4.667    4.000 
#    0.000    0.000    0.000    0.000    0.000    0.000 
#    0.000    0.000    0.000    0.000    0.000    0.000 
#
# Total GULP energy -67035.765512 kJ/mol
# GULP energy per Si atom -5586.313793 kJ/mol
# Density = 2.100687 g / cm^3
# Si number density = 21.054795 Si / 1000 Ang^3
#
#
#
# Elastic Constant Matrix: (Units=GPa)
#
#
# Indices 1 2 3 4 5 6 
#
# 1 121.6088 18.4567 16.6599 -0.0005 2.1640 -0.0002
# 2 18.4567 80.6617 28.1819 -0.0013 5.9055 0.0000
# 3 16.6599 28.1819 98.8082 0.0005 14.0789 -0.0001
# 4 -0.0005 -0.0013 0.0005 32.1312 -0.0004 -0.2241
# 5 2.1640 5.9055 14.0789 -0.0004 25.7918 0.0000
# 6 -0.0002 0.0000 -0.0001 -0.2241 0.0000 7.5438
#
#
#
# Elastic Compliance Matrix: (Units=1/GPa)
#
#
# Indices 1 2 3 4 5 6 
#
# 1 0.008606 -0.001629 -0.001016 0.000000 0.000205 0.000000
# 2 -0.001629 0.014107 -0.003587 0.000001 -0.001135 0.000000
# 3 -0.001016 -0.003587 0.012129 0.000000 -0.005714 0.000000
# 4 0.000000 0.000001 0.000000 0.031129 0.000001 0.000925
# 5 0.000205 -0.001135 -0.005714 0.000001 0.042134 0.000000
# 6 0.000000 0.000000 0.000000 0.000925 0.000000 0.132587
#
#
# Mechanical properties :
#
#
# Convention : Reuss Voigt Hill
#
# Bulk Modulus (GPa) = 44.68715 47.51951 46.10333
# Shear Modulus (GPa) = 19.18542 28.94537 24.06539
#
# Velocity S-wave (km/s) = 3.02191 3.71180 3.38448
# Velocity P-wave (km/s) = 5.78327 6.40222 6.10060
#
# Compressibility (1/GPa) = 0.02237780
#
# Stress axis : x y z
#
# Youngs Moduli (GPa) = 116.19995 70.88867 82.44609
#
# Poissons Ratio (x) = 0.11550 0.08373
# Poissons Ratio (y) = 0.18933 0.29573
# Poissons Ratio (z) = 0.11801 0.25428
#
# Static dielectric constant tensor:
#      x y z
#    x 1.717480 0.000000 -0.009240 
#    y 0.000000 1.762960 0.000000 
#    z -0.009240 0.000000 1.811210 
# 
# From -- ./inp_files/35707.got.cif
#   From: 2010.05.17/outbox.cif.g08.bks.cpg/sg9_18_cif.got.tgz:35707.got - 2010.06.03 20:04:27.
