data_PCOD9140632
_publ_section_title
;
Structure prediction by ZEFSAII (Michael W. Deem and Ramdas Pophale) SiO2 
 PCOD9140632
Probable space group: C C
;
_chemical_formula_sum "Si O2"
_cell_formula_units_Z 28
_cell_length_a 10.285512
_cell_length_b 16.575957
_cell_length_c 7.757322
_cell_angle_alpha 90.000000
_cell_angle_beta 59.768091
_cell_angle_gamma 90.000000
_cell_volume 1142.687134
_symmetry_space_group_name_H-M "C C"
_symmetry_group_IT_number 9
_symmetry_cell_setting 'monoclinic'
loop_
_space_group_symop_operation_xyz
x,y,z
x,-y,1/2+z
1/2+x,1/2+y,z
1/2+x,1/2-y,1/2+z
loop_
_atom_site_type_symbol
_atom_site_label
_atom_site_fract_x
_atom_site_fract_y
_atom_site_fract_z
Si Si1 0.667000 0.256337 0.917470
Si Si2 0.875199 0.074261 0.243979
Si Si3 0.623337 0.811725 0.802453
Si Si4 0.420266 0.931257 0.504771
Si Si5 0.266220 0.405351 0.203399
Si Si6 0.356232 0.096879 0.428969
Si Si7 0.157261 0.177939 0.063860
O O1 0.775813 0.181508 0.790053
O O2 0.733976 0.339220 0.949493
O O3 0.597320 0.279339 0.779575
O O4 0.582692 0.221501 0.140208
O O5 0.758188 0.124144 0.203725
O O6 0.827429 0.097647 0.469367
O O7 0.041072 0.106981 0.096641
O O8 0.852601 0.979052 0.236273
O O9 0.475387 0.856873 0.968577
O O10 0.665408 0.740433 0.902961
O O11 0.588444 0.928406 0.318641
O O12 0.438775 0.927861 0.697212
O O13 0.319189 0.858097 0.504183
O O14 0.322938 0.011909 0.536231
#
# Coordination Sequence:
#
# PCOD9140632 Si02
#       7
#     4   4   4   4   4   4   4
#     4  11  26  46  73 108 144 192 245 309 362 439
#     4  12  27  46  75 115 149 196 246 312 372 437
#     4  12  24  45  76 108 150 195 245 299 372 441
#     4  11  25  48  73 107 141 198 246 298 369 445
#     4  12  24  47  77 102 152 190 252 300 368 444
#     4  11  25  44  72 108 140 192 247 298 367 439
#     4  11  29  48  74 112 152 193 245 310 372 429
#
# _framework density 24.503644999999999
#
# number of rings (size 3 to 8) (size 9 to 14) (size 15 to 20)
#    0.000    0.571    4.286    2.571    6.000    2.286 
#    0.000    0.000    0.000    0.000    0.000    0.000 
#    0.000    0.000    0.000    0.000    0.000    0.000 
#
# Total GULP energy -78346.314993 kJ/mol
# GULP energy per Si atom -5596.165357 kJ/mol
# Density = 2.444787 g / cm^3
# Si number density = 24.503645 Si / 1000 Ang^3
#
#
#
# Elastic Constant Matrix: (Units=GPa)
#
#
# Indices 1 2 3 4 5 6 
#
# 1 38.7929 21.9207 0.7855 0.0000 11.0090 0.0000
# 2 21.9207 148.8050 18.6060 0.0000 14.4934 0.0000
# 3 0.7855 18.6060 40.5994 0.0000 17.9646 0.0000
# 4 0.0000 0.0000 0.0000 14.1872 0.0000 12.8979
# 5 11.0090 14.4934 17.9646 0.0000 25.0029 0.0000
# 6 0.0000 0.0000 0.0000 12.8979 0.0000 63.3037
#
#
#
# Elastic Compliance Matrix: (Units=1/GPa)
#
#
# Indices 1 2 3 4 5 6 
#
# 1 0.033494 -0.004284 0.009885 0.000000 -0.019367 0.000000
# 2 -0.004284 0.007795 -0.003408 0.000000 -0.000184 0.000000
# 3 0.009885 -0.003408 0.039663 0.000000 -0.030874 0.000000
# 4 0.000000 0.000000 0.000000 0.086510 0.000000 -0.017626
# 5 -0.019367 -0.000184 -0.030874 0.000000 0.070812 0.000000
# 6 0.000000 0.000000 0.000000 -0.017626 0.000000 0.019388
#
#
# Mechanical properties :
#
#
# Convention : Reuss Voigt Hill
#
# Bulk Modulus (GPa) = 11.71813 34.53575 23.12694
# Shear Modulus (GPa) = 17.74786 32.95779 25.35283
#
# Velocity S-wave (km/s) = 2.69419 3.67142 3.22010
# Velocity P-wave (km/s) = 3.80405 5.66544 4.82535
#
# Compressibility (1/GPa) = 0.08533787
#
# Stress axis : x y z
#
# Youngs Moduli (GPa) = 29.85573 128.28250 25.21238
#
# Poissons Ratio (x) = 0.54953 -0.24921
# Poissons Ratio (y) = 0.12789 0.08593
# Poissons Ratio (z) = -0.29511 0.43722
#
# Static dielectric constant tensor:
#      x y z
#    x 1.906900 0.000000 0.005260 
#    y 0.000000 1.959170 0.000000 
#    z 0.005260 0.000000 1.920480 
# 
# From -- ./inp_files/7513.got.cif
#   From: 2010.05.17/outbox.cif.g08.bks.cpg/sg9_4_cif.got.tgz:7513.got - 2010.06.03 20:04:27.
