data_PCOD9140346
_publ_section_title
;
Structure prediction by ZEFSAII (Michael W. Deem and Ramdas Pophale) SiO2 
 PCOD9140346
Probable space group: C C
;
_chemical_formula_sum "Si O2"
_cell_formula_units_Z 32
_cell_length_a 7.181788
_cell_length_b 12.918032
_cell_length_c 14.996688
_cell_angle_alpha 90.000000
_cell_angle_beta 68.684232
_cell_angle_gamma 90.000000
_cell_volume 1296.133340
_symmetry_space_group_name_H-M "C C"
_symmetry_group_IT_number 9
_symmetry_cell_setting 'monoclinic'
loop_
_space_group_symop_operation_xyz
x,y,z
x,-y,1/2+z
1/2+x,1/2+y,z
1/2+x,1/2-y,1/2+z
loop_
_atom_site_type_symbol
_atom_site_label
_atom_site_fract_x
_atom_site_fract_y
_atom_site_fract_z
Si Si1 0.780330 0.205234 0.066800
Si Si2 0.329076 0.079464 0.637406
Si Si3 0.014266 0.571971 0.219202
Si Si4 0.743490 0.939883 0.312432
Si Si5 0.595651 0.449674 0.535063
Si Si6 0.775940 0.916419 0.981197
Si Si7 0.490194 0.270623 0.337438
Si Si8 0.867560 0.699345 0.880319
O O1 0.593569 0.129061 0.115583
O O2 0.741856 0.309990 0.124944
O O3 0.209196 0.996970 0.094336
O O4 0.962802 0.148679 0.084406
O O5 0.564373 0.092911 0.568222
O O6 0.353206 0.015594 0.724728
O O7 0.195461 0.512710 0.237440
O O8 0.941781 0.664437 0.295350
O O9 0.945090 0.875865 0.291814
O O10 0.588263 0.843920 0.329562
O O11 0.729313 0.014251 0.401345
O O12 0.445301 0.525279 0.508616
O O13 0.358273 0.278023 0.452254
O O14 0.759084 0.399809 0.442069
O O15 0.856103 0.802370 0.942495
O O16 0.723463 0.269411 0.323820
#
# Coordination Sequence:
#
# PCOD9140346 Si02
#       8
#     4   4   4   4   4   4   4   4
#     4  11  25  50  74 106 147 197 255 310 369 456
#     4  12  25  44  71 104 152 189 244 308 377 437
#     4  12  28  47  73 110 156 197 252 319 373 441
#     4  12  25  45  72 104 149 191 246 310 377 438
#     4  11  24  41  75 107 139 191 251 300 377 440
#     4  12  22  43  73 107 142 191 246 312 367 452
#     4  11  25  51  73 108 150 192 255 307 371 454
#     4  11  24  41  75 106 139 190 245 300 377 448
#
# _framework density 24.688818999999999
#
# number of rings (size 3 to 8) (size 9 to 14) (size 15 to 20)
#    0.000    0.500    8.750    0.000    3.500    2.000 
#    0.000    0.000    0.000    0.000    0.000    0.000 
#    0.000    0.000    0.000    0.000    0.000    0.000 
#
# Total GULP energy -89523.233416 kJ/mol
# GULP energy per Si atom -5595.202088 kJ/mol
# Density = 2.463263 g / cm^3
# Si number density = 24.688819 Si / 1000 Ang^3
#
#
#
# Elastic Constant Matrix: (Units=GPa)
#
#
# Indices 1 2 3 4 5 6 
#
# 1 67.7483 20.2225 14.6868 0.0000 15.3747 0.0000
# 2 20.2225 135.1855 43.0617 0.0000 3.8770 0.0000
# 3 14.6868 43.0617 89.4883 0.0000 11.2689 0.0000
# 4 0.0000 0.0000 0.0000 41.5463 0.0000 -0.8736
# 5 15.3747 3.8770 11.2689 0.0000 36.6560 0.0000
# 6 0.0000 0.0000 0.0000 -0.8736 0.0000 39.5800
#
#
#
# Elastic Compliance Matrix: (Units=1/GPa)
#
#
# Indices 1 2 3 4 5 6 
#
# 1 0.017096 -0.002055 -0.000979 0.000000 -0.006652 0.000000
# 2 -0.002055 0.008988 -0.004137 0.000000 0.001183 0.000000
# 3 -0.000979 -0.004137 0.013752 0.000000 -0.003379 0.000000
# 4 0.000000 0.000000 0.000000 0.024081 0.000000 0.000532
# 5 -0.006652 0.001183 -0.003379 0.000000 0.030985 0.000000
# 6 0.000000 0.000000 0.000000 0.000532 0.000000 0.025277
#
#
# Mechanical properties :
#
#
# Convention : Reuss Voigt Hill
#
# Bulk Modulus (GPa) = 39.22520 49.81823 44.52171
# Shear Modulus (GPa) = 34.96063 37.85319 36.40691
#
# Velocity S-wave (km/s) = 3.76713 3.91987 3.84426
# Velocity P-wave (km/s) = 5.90288 6.38040 6.14628
#
# Compressibility (1/GPa) = 0.02549382
#
# Stress axis : x y z
#
# Youngs Moduli (GPa) = 58.49409 111.25381 72.71866
#
# Poissons Ratio (x) = 0.22858 0.07122
# Poissons Ratio (y) = 0.12018 0.30084
# Poissons Ratio (z) = 0.05729 0.46026
#
# Static dielectric constant tensor:
#      x y z
#    x 1.974580 0.000000 -0.071560 
#    y 0.000000 1.942030 0.000000 
#    z -0.071560 0.000000 2.070360 
# 
# From -- ./inp_files/32491.got.cif
#   From: 2010.05.17/outbox.cif.g08.bks.cpg/sg9_17_cif.got.tgz:32491.got - 2010.06.03 20:04:27.
