data_PCOD9140962
_publ_section_title
;
Structure prediction by ZEFSAII (Michael W. Deem and Ramdas Pophale) SiO2 
 PCOD9140962
Probable space group: C C
;
_chemical_formula_sum "Si O2"
_cell_formula_units_Z 24
_cell_length_a 5.328475
_cell_length_b 26.841041
_cell_length_c 4.981694
_cell_angle_alpha 90.000000
_cell_angle_beta 124.376634
_cell_angle_gamma 90.000000
_cell_volume 588.049987
_symmetry_space_group_name_H-M "C C"
_symmetry_group_IT_number 9
_symmetry_cell_setting 'monoclinic'
loop_
_space_group_symop_operation_xyz
x,y,z
x,-y,1/2+z
1/2+x,1/2+y,z
1/2+x,1/2-y,1/2+z
loop_
_atom_site_type_symbol
_atom_site_label
_atom_site_fract_x
_atom_site_fract_y
_atom_site_fract_z
Si Si1 0.238770 0.142788 0.778630
Si Si2 0.728703 0.524776 0.212412
Si Si3 0.731271 0.707441 0.285217
Si Si4 0.240343 0.282104 0.784459
Si Si5 0.725513 0.887063 0.208737
Si Si6 0.728257 0.061596 0.208295
O O1 0.071625 0.184342 0.477705
O O2 0.939583 0.103267 0.538040
O O3 0.541818 0.175363 0.027306
O O4 0.500983 0.099366 0.862609
O O5 0.003053 0.570872 0.385604
O O6 0.945427 0.483484 0.521206
O O7 0.442662 0.568909 0.018792
O O8 0.514797 0.481748 0.910165
O O9 0.398074 0.743886 0.102802
O O10 0.029841 0.666333 0.501643
O O11 0.558206 0.657167 0.962181
O O12 0.879560 0.255524 0.614402
#
# Coordination Sequence:
#
# PCOD9140962 Si02
#       6
#     4   4   4   4   4   4
#     4  12  25  45  70 102 139 183 232 292 355 426
#     4  12  24  42  64  94 131 174 223 280 343 414
#     4  12  26  47  73 106 144 189 239 296 363 434
#     4  12  27  49  76 110 149 195 246 304 367 442
#     4  12  24  43  67  98 134 177 229 286 349 420
#     4  12  24  42  66  96 131 176 225 282 345 416
#
# _framework density 40.812860999999998
#
# number of rings (size 3 to 8) (size 9 to 14) (size 15 to 20)
#    0.000    0.000    0.000   11.000    0.000    2.667 
#    0.000    0.000    0.000    0.000    0.000    0.000 
#    0.000    0.000    0.000    0.000    0.000    0.000 
#
# Total GULP energy -67000.892488 kJ/mol
# GULP energy per Si atom -5583.407707 kJ/mol
# Density = 4.071997 g / cm^3
# Si number density = 40.812861 Si / 1000 Ang^3
#
#
#
# Elastic Constant Matrix: (Units=GPa)
#
#
# Indices 1 2 3 4 5 6 
#
# 1 479.6388 225.3867 286.6318 0.0000 37.7419 0.0000
# 2 225.3867 516.7661 215.0842 0.0000 50.2098 0.0000
# 3 286.6318 215.0842 651.3658 0.0000 91.0645 0.0000
# 4 0.0000 0.0000 0.0000 176.3132 0.0000 -8.1955
# 5 37.7419 50.2098 91.0645 0.0000 226.0607 0.0000
# 6 0.0000 0.0000 0.0000 -8.1955 0.0000 124.4742
#
#
#
# Elastic Compliance Matrix: (Units=1/GPa)
#
#
# Indices 1 2 3 4 5 6 
#
# 1 0.003176 -0.000937 -0.001105 0.000000 0.000123 0.000000
# 2 -0.000937 0.002530 -0.000388 0.000000 -0.000249 0.000000
# 3 -0.001105 -0.000388 0.002238 0.000000 -0.000631 0.000000
# 4 0.000000 0.000000 0.000000 0.005689 0.000000 0.000375
# 5 0.000123 -0.000249 -0.000631 0.000000 0.004712 0.000000
# 6 0.000000 0.000000 0.000000 0.000375 0.000000 0.008058
#
#
# Mechanical properties :
#
#
# Convention : Reuss Voigt Hill
#
# Bulk Modulus (GPa) = 324.41800 344.66402 334.54101
# Shear Modulus (GPa) = 154.83403 166.74749 160.79076
#
# Velocity S-wave (km/s) = 6.16603 6.39885 6.28352
# Velocity P-wave (km/s) = 11.41731 11.79945 11.60995
#
# Compressibility (1/GPa) = 0.00308244
#
# Stress axis : x y z
#
# Youngs Moduli (GPa) = 314.84117 395.32449 446.82532
#
# Poissons Ratio (x) = 0.37048 0.49394
# Poissons Ratio (y) = 0.29506 0.17340
# Poissons Ratio (z) = 0.34804 0.15341
#
# Static dielectric constant tensor:
#      x y z
#    x 6.456450 0.000000 -1.044760 
#    y 0.000000 3.801590 0.000000 
#    z -1.044760 0.000000 3.831930 
# 
# From -- ./inp_files/17304.got.cif
#   From: 2010.05.17/outbox.cif.g08.bks.cpg/sg9_9_cif.got.tgz:17304.got - 2010.06.03 20:04:27.
