data_PCOD9140517
_publ_section_title
;
Structure prediction by ZEFSAII (Michael W. Deem and Ramdas Pophale) SiO2 
 PCOD9140517
Probable space group: C C
;
_chemical_formula_sum "Si O2"
_cell_formula_units_Z 32
_cell_length_a 9.850271
_cell_length_b 9.612036
_cell_length_c 28.025631
_cell_angle_alpha 90.000000
_cell_angle_beta 147.112249
_cell_angle_gamma 90.000000
_cell_volume 1440.836657
_symmetry_space_group_name_H-M "C C"
_symmetry_group_IT_number 9
_symmetry_cell_setting 'monoclinic'
loop_
_space_group_symop_operation_xyz
x,y,z
x,-y,1/2+z
1/2+x,1/2+y,z
1/2+x,1/2-y,1/2+z
loop_
_atom_site_type_symbol
_atom_site_label
_atom_site_fract_x
_atom_site_fract_y
_atom_site_fract_z
Si Si1 0.666320 0.199978 0.010350
Si Si2 0.787110 0.558216 0.282520
Si Si3 0.036491 0.118041 0.307358
Si Si4 0.396397 0.419551 0.096231
Si Si5 0.762681 0.143152 0.934818
Si Si6 0.590910 0.701571 0.823668
Si Si7 0.998591 0.688679 0.190425
Si Si8 0.162379 0.936467 0.077305
O O1 0.769222 0.307943 0.079219
O O2 0.802486 0.204566 0.999664
O O3 0.379343 0.237108 0.917521
O O4 0.691388 0.040195 0.033785
O O5 0.609520 0.602457 0.273641
O O6 0.624875 0.488324 0.193062
O O7 0.006004 0.449104 0.361697
O O8 0.920486 0.695059 0.302899
O O9 0.219102 0.231079 0.385581
O O10 0.760292 0.169186 0.239959
O O11 0.054858 0.957542 0.328840
O O12 0.329455 0.283718 0.106036
O O13 0.490732 0.387290 0.070791
O O14 0.983967 0.033241 0.991619
O O15 0.533828 0.732869 0.751030
O O16 0.874031 0.538620 0.159956
#
# Coordination Sequence:
#
# PCOD9140517 Si02
#       8
#     4   4   4   4   4   4   4   4
#     4  11  24  47  67 100 142 181 229 293 346 415
#     4  12  24  46  73  99 138 188 226 290 352 413
#     4  12  25  42  74 102 136 184 236 288 345 419
#     4  11  25  44  68 100 144 180 227 289 354 409
#     4  11  24  47  68  98 143 182 228 291 357 408
#     4  12  25  46  72 100 136 187 237 283 346 424
#     4  12  26  47  70 103 141 185 236 286 348 422
#     4  11  27  43  70 100 142 187 227 292 352 416
#
# _framework density 22.209316999999999
#
# number of rings (size 3 to 8) (size 9 to 14) (size 15 to 20)
#    0.000    0.500    7.500    0.000    5.250    2.000 
#    2.250    0.000    0.000    0.000    0.000    0.000 
#    0.000    0.000    0.000    0.000    0.000    0.000 
#
# Total GULP energy -89508.877530 kJ/mol
# GULP energy per Si atom -5594.304846 kJ/mol
# Density = 2.215877 g / cm^3
# Si number density = 22.209317 Si / 1000 Ang^3
#
#
#
# Elastic Constant Matrix: (Units=GPa)
#
#
# Indices 1 2 3 4 5 6 
#
# 1 75.1058 52.6872 4.7441 0.0000 -5.9255 0.0000
# 2 52.6872 108.9779 9.3573 0.0000 -20.6845 0.0000
# 3 4.7441 9.3573 44.2857 0.0000 -9.6159 0.0000
# 4 0.0000 0.0000 0.0000 38.7551 0.0000 -4.1108
# 5 -5.9255 -20.6845 -9.6159 0.0000 29.9024 0.0000
# 6 0.0000 0.0000 0.0000 -4.1108 0.0000 37.1091
#
#
#
# Elastic Compliance Matrix: (Units=1/GPa)
#
#
# Indices 1 2 3 4 5 6 
#
# 1 0.020432 -0.010466 -0.000721 0.000000 -0.003422 0.000000
# 2 -0.010466 0.015944 -0.000326 0.000000 0.008850 0.000000
# 3 -0.000721 -0.000326 0.024347 0.000000 0.007461 0.000000
# 4 0.000000 0.000000 0.000000 0.026110 0.000000 0.002892
# 5 -0.003422 0.008850 0.007461 0.000000 0.041285 0.000000
# 6 0.000000 0.000000 0.000000 0.002892 0.000000 0.027268
#
#
# Mechanical properties :
#
#
# Convention : Reuss Voigt Hill
#
# Bulk Modulus (GPa) = 26.52683 40.21630 33.37157
# Shear Modulus (GPa) = 26.18124 31.92536 29.05330
#
# Velocity S-wave (km/s) = 3.43715 3.79552 3.62077
# Velocity P-wave (km/s) = 5.26516 6.11188 5.70426
#
# Compressibility (1/GPa) = 0.03769768
#
# Stress axis : x y z
#
# Youngs Moduli (GPa) = 48.94290 62.71993 41.07319
#
# Poissons Ratio (x) = 0.65642 0.02959
# Poissons Ratio (y) = 0.51223 0.01339
# Poissons Ratio (z) = 0.03526 0.02045
#
# Static dielectric constant tensor:
#      x y z
#    x 1.782330 0.000000 0.003030 
#    y 0.000000 1.824570 0.000000 
#    z 0.003030 0.000000 1.862660 
# 
# From -- ./inp_files/36342.got.cif
#   From: 2010.05.17/outbox.cif.g08.bks.cpg/sg9_19_cif.got.tgz:36342.got - 2010.06.03 20:04:27.
