data_PCOD9140074
_publ_section_title
;
Structure prediction by ZEFSAII (Michael W. Deem and Ramdas Pophale) SiO2 
 PCOD9140074
Probable space group: C C
;
_chemical_formula_sum "Si O2"
_cell_formula_units_Z 32
_cell_length_a 27.878362
_cell_length_b 5.558817
_cell_length_c 26.518838
_cell_angle_alpha 90.000000
_cell_angle_beta 160.190586
_cell_angle_gamma 90.000000
_cell_volume 1392.727296
_symmetry_space_group_name_H-M "C C"
_symmetry_group_IT_number 9
_symmetry_cell_setting 'monoclinic'
loop_
_space_group_symop_operation_xyz
x,y,z
x,-y,1/2+z
1/2+x,1/2+y,z
1/2+x,1/2-y,1/2+z
loop_
_atom_site_type_symbol
_atom_site_label
_atom_site_fract_x
_atom_site_fract_y
_atom_site_fract_z
Si Si1 0.033720 0.236371 0.713770
Si Si2 0.660748 0.480757 0.582706
Si Si3 0.999023 0.486015 0.387739
Si Si4 0.728003 0.701867 0.440483
Si Si5 0.225930 0.391623 0.339944
Si Si6 0.415569 0.258544 0.992975
Si Si7 0.669252 0.518613 0.209759
Si Si8 0.978995 0.517617 0.748135
O O1 0.128646 0.431609 0.777003
O O2 0.916418 0.221699 0.554274
O O3 0.959819 0.281511 0.694575
O O4 0.134949 0.017943 0.827544
O O5 0.830294 0.503591 0.736588
O O6 0.583468 0.235565 0.485496
O O7 0.655503 0.438477 0.637624
O O8 0.577505 0.734339 0.484733
O O9 0.998401 0.489714 0.326290
O O10 0.808584 0.766913 0.468136
O O11 0.841157 0.661360 0.595765
O O12 0.616479 0.876110 0.356913
O O13 0.322022 0.504110 0.391246
O O14 0.126703 0.211979 0.209998
O O15 0.328758 0.044926 0.883376
O O16 0.568511 0.292351 0.121819
#
# Coordination Sequence:
#
# PCOD9140074 Si02
#       8
#     4   4   4   4   4   4   4   4
#     4  11  23  42  66 109 148 188 238 296 370 464
#     4  12  30  55  82 119 154 211 274 346 397 474
#     4  12  29  55  83 115 159 204 280 340 405 466
#     4  11  23  45  66 109 142 194 238 300 371 472
#     4  11  23  39  67 103 146 188 234 294 361 460
#     4  12  24  44  67 107 145 192 239 301 371 464
#     4  12  28  43  79  99 150 193 252 304 392 445
#     4  11  26  41  78  99 146 194 245 309 389 449
#
# _framework density 22.976502
#
# number of rings (size 3 to 8) (size 9 to 14) (size 15 to 20)
#    0.000    0.500    2.500    4.500   10.500    1.000 
#    0.000    0.000    0.000    0.000    0.000    0.000 
#    0.000    0.000    0.000    0.000    0.000    0.000 
#
# Total GULP energy -89100.692800 kJ/mol
# GULP energy per Si atom -5568.793300 kJ/mol
# Density = 2.292421 g / cm^3
# Si number density = 22.976502 Si / 1000 Ang^3
#
#
#
# Elastic Constant Matrix: (Units=GPa)
#
#
# Indices 1 2 3 4 5 6 
#
# 1 158.2017 36.1575 55.4197 0.0001 -42.6242 -0.0002
# 2 36.1575 78.9377 41.8498 0.0029 -11.5588 0.0015
# 3 55.4197 41.8498 124.9392 -0.0006 -12.0901 -0.0001
# 4 0.0001 0.0029 -0.0006 18.4938 -0.0002 -0.0665
# 5 -42.6242 -11.5588 -12.0901 -0.0002 53.7586 -0.0004
# 6 -0.0002 0.0015 -0.0001 -0.0665 -0.0004 20.9137
#
#
#
# Elastic Compliance Matrix: (Units=1/GPa)
#
#
# Indices 1 2 3 4 5 6 
#
# 1 0.009537 -0.001833 -0.002988 0.000000 0.006495 0.000000
# 2 -0.001833 0.016015 -0.004456 -0.000003 0.000988 -0.000001
# 3 -0.002988 -0.004456 0.010733 0.000001 -0.000913 0.000000
# 4 0.000000 -0.000003 0.000001 0.054073 0.000000 0.000172
# 5 0.006495 0.000988 -0.000913 0.000000 0.023759 0.000000
# 6 0.000000 -0.000001 0.000000 0.000172 0.000000 0.047816
#
#
# Mechanical properties :
#
#
# Convention : Reuss Voigt Hill
#
# Bulk Modulus (GPa) = 56.39582 69.88142 63.13862
# Shear Modulus (GPa) = 26.82465 33.87666 30.35066
#
# Velocity S-wave (km/s) = 3.42055 3.84396 3.63842
# Velocity P-wave (km/s) = 6.34023 7.08391 6.72236
#
# Compressibility (1/GPa) = 0.01773181
#
# Stress axis : x y z
#
# Youngs Moduli (GPa) = 104.85834 62.44243 93.16884
#
# Poissons Ratio (x) = 0.11447 0.27835
# Poissons Ratio (y) = 0.19223 0.41512
# Poissons Ratio (z) = 0.31328 0.27822
#
# Static dielectric constant tensor:
#      x y z
#    x 1.810150 0.000000 -0.033450 
#    y 0.000000 2.233470 0.000000 
#    z -0.033450 0.000000 2.430310 
# 
# From -- ./inp_files/12648.got.cif
#   From: 2010.05.17/outbox.cif.g08.bks.cpg/sg9_7_cif.got.tgz:12648.got - 2010.06.03 20:04:27.
