data_PCOD9140204
_publ_section_title
;
Structure prediction by ZEFSAII (Michael W. Deem and Ramdas Pophale) SiO2 
 PCOD9140204
Probable space group: C C
;
_chemical_formula_sum "Si O2"
_cell_formula_units_Z 32
_cell_length_a 11.640211
_cell_length_b 11.893927
_cell_length_c 9.882108
_cell_angle_alpha 90.000000
_cell_angle_beta 105.101260
_cell_angle_gamma 90.000000
_cell_volume 1320.909633
_symmetry_space_group_name_H-M "C C"
_symmetry_group_IT_number 9
_symmetry_cell_setting 'monoclinic'
loop_
_space_group_symop_operation_xyz
x,y,z
x,-y,1/2+z
1/2+x,1/2+y,z
1/2+x,1/2-y,1/2+z
loop_
_atom_site_type_symbol
_atom_site_label
_atom_site_fract_x
_atom_site_fract_y
_atom_site_fract_z
Si Si1 0.326360 0.735784 0.018010
Si Si2 0.107814 0.026265 0.688233
Si Si3 0.934686 0.659354 0.128318
Si Si4 0.204688 0.402389 0.715472
Si Si5 0.058279 0.794014 0.734766
Si Si6 0.930245 0.144510 0.455840
Si Si7 0.283332 0.652673 0.750001
Si Si8 0.255129 0.972500 0.986027
O O1 0.604000 0.605907 0.153585
O O2 0.238183 0.676364 0.097717
O O3 0.442566 0.762342 0.140071
O O4 0.359384 0.645196 0.911519
O O5 0.981804 0.078135 0.602667
O O6 0.171953 0.038694 0.852843
O O7 0.193618 0.075540 0.601676
O O8 0.852986 0.752692 0.183154
O O9 0.067982 0.624292 0.215920
O O10 0.950947 0.724971 0.992927
O O11 0.859095 0.550264 0.072406
O O12 0.296016 0.376513 0.866960
O O13 0.241528 0.530616 0.685660
O O14 0.160934 0.703815 0.774387
O O15 0.012428 0.868843 0.847932
O O16 0.297698 0.854712 0.935925
#
# Coordination Sequence:
#
# PCOD9140204 Si02
#       8
#     4   4   4   4   4   4   4   4
#     4  11  25  49  73 107 153 206 258 327 413 473
#     4  12  23  46  75 108 146 200 265 316 387 485
#     4  12  28  47  75 119 153 206 266 332 406 482
#     4  11  28  51  75 112 164 204 263 340 397 491
#     4  11  23  45  72 103 150 198 259 325 391 476
#     4  11  27  47  74 112 148 210 257 332 406 464
#     4  12  25  49  74 115 152 206 266 326 408 475
#     4  12  25  46  78 112 152 202 266 330 396 486
#
# _framework density 24.225729000000001
#
# number of rings (size 3 to 8) (size 9 to 14) (size 15 to 20)
#    0.000    0.500    3.750    3.000   10.500    2.000 
#    6.750    0.000    0.000    0.000    0.000    0.000 
#    0.000    0.000    0.000    0.000    0.000    0.000 
#
# Total GULP energy -89164.190255 kJ/mol
# GULP energy per Si atom -5572.761891 kJ/mol
# Density = 2.417059 g / cm^3
# Si number density = 24.225729 Si / 1000 Ang^3
#
#
#
# Elastic Constant Matrix: (Units=GPa)
#
#
# Indices 1 2 3 4 5 6 
#
# 1 115.9014 35.6478 50.5693 0.0000 46.0612 0.0000
# 2 35.6478 129.4394 40.2820 0.0000 30.8456 0.0000
# 3 50.5693 40.2820 106.2078 0.0000 22.6259 0.0000
# 4 0.0000 0.0000 0.0000 36.1005 0.0000 3.2401
# 5 46.0612 30.8456 22.6259 0.0000 24.2824 0.0000
# 6 0.0000 0.0000 0.0000 3.2401 0.0000 31.9185
#
#
#
# Elastic Compliance Matrix: (Units=1/GPa)
#
#
# Indices 1 2 3 4 5 6 
#
# 1 0.046729 0.012592 -0.005907 0.000000 -0.099132 0.000000
# 2 0.012592 0.014668 -0.003120 0.000000 -0.039612 0.000000
# 3 -0.005907 -0.003120 0.012701 0.000000 0.003333 0.000000
# 4 0.000000 0.000000 0.000000 0.027955 0.000000 -0.002838
# 5 -0.099132 -0.039612 0.003333 0.000000 0.276436 0.000000
# 6 0.000000 0.000000 0.000000 -0.002838 0.000000 0.031618
#
#
# Mechanical properties :
#
#
# Convention : Reuss Voigt Hill
#
# Bulk Modulus (GPa) = 12.31094 67.17188 39.74141
# Shear Modulus (GPa) = 11.62646 33.46357 22.54502
#
# Velocity S-wave (km/s) = 2.19309 3.72065 3.05392
# Velocity P-wave (km/s) = 3.39200 6.80039 5.37359
#
# Compressibility (1/GPa) = 0.08122855
#
# Stress axis : x y z
#
# Youngs Moduli (GPa) = 21.40009 68.17441 78.73237
#
# Poissons Ratio (x) = -0.85847 0.46506
# Poissons Ratio (y) = -0.26947 0.24567
# Poissons Ratio (z) = 0.12641 0.21272
#
# Static dielectric constant tensor:
#      x y z
#    x 2.027730 0.000000 0.025270 
#    y 0.000000 1.911940 0.000000 
#    z 0.025270 0.000000 1.967000 
# 
# From -- ./inp_files/16502.got.cif
#   From: 2010.05.17/outbox.cif.g08.bks.cpg/sg9_9_cif.got.tgz:16502.got - 2010.06.03 20:04:27.
