data_PCOD9140655
_publ_section_title
;
Structure prediction by ZEFSAII (Michael W. Deem and Ramdas Pophale) SiO2 
 PCOD9140655
Probable space group: C C
;
_chemical_formula_sum "Si O2"
_cell_formula_units_Z 32
_cell_length_a 8.618090
_cell_length_b 18.338193
_cell_length_c 9.200081
_cell_angle_alpha 90.000000
_cell_angle_beta 107.228118
_cell_angle_gamma 90.000000
_cell_volume 1388.746968
_symmetry_space_group_name_H-M "C C"
_symmetry_group_IT_number 9
_symmetry_cell_setting 'monoclinic'
loop_
_space_group_symop_operation_xyz
x,y,z
x,-y,1/2+z
1/2+x,1/2+y,z
1/2+x,1/2-y,1/2+z
loop_
_atom_site_type_symbol
_atom_site_label
_atom_site_fract_x
_atom_site_fract_y
_atom_site_fract_z
Si Si1 0.607890 0.894134 0.927760
Si Si2 0.254610 0.664057 0.731026
Si Si3 0.591729 0.308086 0.793010
Si Si4 0.301772 0.920734 0.339710
Si Si5 0.683727 0.059075 0.950528
Si Si6 0.734399 0.824531 0.694179
Si Si7 0.766973 0.568984 0.176674
Si Si8 0.068653 0.184677 0.617044
O O1 0.706751 0.839005 0.854817
O O2 0.436861 0.907654 0.801250
O O3 0.695672 0.972505 0.960414
O O4 0.604435 0.860475 0.086585
O O5 0.208423 0.738750 0.800208
O O6 0.284408 0.599878 0.854465
O O7 0.407304 0.671309 0.666002
O O8 0.405713 0.287652 0.710627
O O9 0.641467 0.370753 0.695167
O O10 0.588832 0.340804 0.955921
O O11 0.494894 0.921982 0.366549
O O12 0.281151 0.931381 0.506969
O O13 0.211839 0.849891 0.254098
O O14 0.229299 0.989530 0.231181
O O15 0.725704 0.097931 0.112904
O O16 0.591657 0.771526 0.605244
#
# Coordination Sequence:
#
# PCOD9140655 Si02
#       8
#     4   4   4   4   4   4   4   4
#     4  11  25  45  75 103 148 185 242 291 353 426
#     4  12  27  46  73 106 144 194 240 294 361 420
#     4  12  28  47  72 105 145 192 239 297 364 423
#     4  11  26  47  75 106 146 186 239 295 358 432
#     4  11  25  46  72 109 140 194 235 292 356 427
#     4  12  25  47  71 102 147 185 239 296 355 424
#     4  11  26  46  75 108 142 193 235 294 362 426
#     4  12  28  48  71 105 146 187 241 303 355 432
#
# _framework density 23.042352999999999
#
# number of rings (size 3 to 8) (size 9 to 14) (size 15 to 20)
#    0.000    0.500    3.750    3.000   12.250    2.000 
#    0.000    0.000    0.000    0.000    0.000    0.000 
#    0.000    0.000    0.000    0.000    0.000    0.000 
#
# Total GULP energy -89528.085369 kJ/mol
# GULP energy per Si atom -5595.505336 kJ/mol
# Density = 2.298991 g / cm^3
# Si number density = 23.042353 Si / 1000 Ang^3
#
#
#
# Elastic Constant Matrix: (Units=GPa)
#
#
# Indices 1 2 3 4 5 6 
#
# 1 67.2620 19.7179 12.7277 0.0000 -22.0097 0.0000
# 2 19.7179 64.6862 1.2027 0.0000 -13.1775 0.0000
# 3 12.7277 1.2027 105.3296 0.0000 -25.5969 0.0000
# 4 0.0000 0.0000 0.0000 40.3432 0.0000 -5.7661
# 5 -22.0097 -13.1775 -25.5969 0.0000 36.3308 0.0000
# 6 0.0000 0.0000 0.0000 -5.7661 0.0000 16.7686
#
#
#
# Elastic Compliance Matrix: (Units=1/GPa)
#
#
# Indices 1 2 3 4 5 6 
#
# 1 0.019375 -0.003759 0.000269 0.000000 0.010564 0.000000
# 2 -0.003759 0.017633 0.001513 0.000000 0.005184 0.000000
# 3 0.000269 0.001513 0.011604 0.000000 0.008887 0.000000
# 4 0.000000 0.000000 0.000000 0.026069 0.000000 0.008964
# 5 0.010564 0.005184 0.008887 0.000000 0.042066 0.000000
# 6 0.000000 0.000000 0.000000 0.008964 0.000000 0.062718
#
#
# Mechanical properties :
#
#
# Convention : Reuss Voigt Hill
#
# Bulk Modulus (GPa) = 22.39282 33.84161 28.11722
# Shear Modulus (GPa) = 25.21368 32.26381 28.73875
#
# Velocity S-wave (km/s) = 3.31151 3.74598 3.53542
# Velocity P-wave (km/s) = 4.93565 5.78173 5.37536
#
# Compressibility (1/GPa) = 0.04465717
#
# Stress axis : x y z
#
# Youngs Moduli (GPa) = 51.61302 56.71165 86.17731
#
# Poissons Ratio (x) = 0.21318 -0.02317
# Poissons Ratio (y) = 0.19401 -0.13036
# Poissons Ratio (z) = -0.01388 -0.08579
#
# Static dielectric constant tensor:
#      x y z
#    x 1.883430 0.000000 0.047620 
#    y 0.000000 1.828400 0.000000 
#    z 0.047620 0.000000 1.852750 
# 
# From -- ./inp_files/5783.got.cif
#   From: 2010.05.17/outbox.cif.g08.bks.cpg/sg9_3_cif.got.tgz:5783.got - 2010.06.03 20:04:27.
