data_PCOD9140184
_publ_section_title
;
Structure prediction by ZEFSAII (Michael W. Deem and Ramdas Pophale) SiO2 
 PCOD9140184
Probable space group: C C
;
_chemical_formula_sum "Si O2"
_cell_formula_units_Z 24
_cell_length_a 5.015609
_cell_length_b 27.774121
_cell_length_c 7.366987
_cell_angle_alpha 90.000000
_cell_angle_beta 114.637428
_cell_angle_gamma 90.000000
_cell_volume 932.825855
_symmetry_space_group_name_H-M "C C"
_symmetry_group_IT_number 9
_symmetry_cell_setting 'monoclinic'
loop_
_space_group_symop_operation_xyz
x,y,z
x,-y,1/2+z
1/2+x,1/2+y,z
1/2+x,1/2-y,1/2+z
loop_
_atom_site_type_symbol
_atom_site_label
_atom_site_fract_x
_atom_site_fract_y
_atom_site_fract_z
Si Si1 0.837340 0.062571 0.570660
Si Si2 0.949499 0.712438 0.407741
Si Si3 0.870101 0.615024 0.285723
Si Si4 0.606477 0.289915 0.146364
Si Si5 0.399729 0.883215 0.380101
Si Si6 0.865190 0.950900 0.643580
O O1 0.554353 0.096124 0.510945
O O2 0.848008 0.063759 0.351699
O O3 0.116729 0.085426 0.744716
O O4 0.806075 0.007133 0.613907
O O5 0.279291 0.689789 0.513231
O O6 0.013194 0.752272 0.275113
O O7 0.739852 0.666156 0.313186
O O8 0.786917 0.735367 0.535086
O O9 0.688328 0.566754 0.187490
O O10 0.953026 0.630869 0.106007
O O11 0.828368 0.332298 0.267244
O O12 0.667545 0.920985 0.445812
#
# Coordination Sequence:
#
# PCOD9140184 Si02
#       6
#     4   4   4   4   4   4
#     4  11  23  45  67 109 147 198 255 316 387 461
#     4  12  27  50  79 113 158 204 264 327 396 470
#     4  11  25  44  73 106 153 195 257 318 389 465
#     4  12  27  50  79 113 158 205 262 330 393 472
#     4  11  25  44  73 107 152 198 254 319 391 460
#     4  11  25  41  73 104 148 198 254 318 386 470
#
# _framework density 25.728278
#
# number of rings (size 3 to 8) (size 9 to 14) (size 15 to 20)
#    0.000    0.667    1.667    5.000    4.667    6.667 
#    3.000    0.000    0.000    0.000    0.000    0.000 
#    0.000    0.000    0.000    0.000    0.000    0.000 
#
# Total GULP energy -66900.482486 kJ/mol
# GULP energy per Si atom -5575.040207 kJ/mol
# Density = 2.566972 g / cm^3
# Si number density = 25.728278 Si / 1000 Ang^3
#
#
#
# Elastic Constant Matrix: (Units=GPa)
#
#
# Indices 1 2 3 4 5 6 
#
# 1 100.0142 17.7761 21.4333 0.0000 -11.1403 0.0000
# 2 17.7761 136.6115 24.8928 0.0000 -9.2010 0.0000
# 3 21.4333 24.8928 118.1488 0.0000 7.9081 0.0000
# 4 0.0000 0.0000 0.0000 42.3045 0.0000 4.2265
# 5 -11.1403 -9.2010 7.9081 0.0000 48.2171 0.0000
# 6 0.0000 0.0000 0.0000 4.2265 0.0000 25.4144
#
#
#
# Elastic Compliance Matrix: (Units=1/GPa)
#
#
# Indices 1 2 3 4 5 6 
#
# 1 0.010873 -0.000877 -0.001966 0.000000 0.002667 0.000000
# 2 -0.000877 0.007829 -0.001594 0.000000 0.001553 0.000000
# 3 -0.001966 -0.001594 0.009309 0.000000 -0.002285 0.000000
# 4 0.000000 0.000000 0.000000 0.024038 0.000000 -0.003998
# 5 0.002667 0.001553 -0.002285 0.000000 0.022027 0.000000
# 6 0.000000 0.000000 0.000000 -0.003998 0.000000 0.040013
#
#
# Mechanical properties :
#
#
# Convention : Reuss Voigt Hill
#
# Bulk Modulus (GPa) = 52.25588 53.66434 52.96011
# Shear Modulus (GPa) = 38.65698 42.56531 40.61115
#
# Velocity S-wave (km/s) = 3.88043 4.07187 3.97730
# Velocity P-wave (km/s) = 6.35859 6.55822 6.45918
#
# Compressibility (1/GPa) = 0.01913660
#
# Stress axis : x y z
#
# Youngs Moduli (GPa) = 91.97174 127.72614 107.41724
#
# Poissons Ratio (x) = 0.11200 0.21121
# Poissons Ratio (y) = 0.08065 0.17127
# Poissons Ratio (z) = 0.18084 0.20365
#
# Static dielectric constant tensor:
#      x y z
#    x 2.450490 0.000000 0.007390 
#    y 0.000000 2.040580 0.000000 
#    z 0.007390 0.000000 2.158150 
# 
# From -- ./inp_files/4198.got.cif
#   From: 2010.05.17/outbox.cif.g08.bks.cpg/sg9_3_cif.got.tgz:4198.got - 2010.06.03 20:04:27.
