data_PCOD9140139
_publ_section_title
;
Structure prediction by ZEFSAII (Michael W. Deem and Ramdas Pophale) SiO2 
 PCOD9140139
Probable space group: C C
;
_chemical_formula_sum "Si O2"
_cell_formula_units_Z 28
_cell_length_a 10.624218
_cell_length_b 8.985752
_cell_length_c 18.542998
_cell_angle_alpha 90.000000
_cell_angle_beta 140.886467
_cell_angle_gamma 90.000000
_cell_volume 1116.769944
_symmetry_space_group_name_H-M "C C"
_symmetry_group_IT_number 9
_symmetry_cell_setting 'monoclinic'
loop_
_space_group_symop_operation_xyz
x,y,z
x,-y,1/2+z
1/2+x,1/2+y,z
1/2+x,1/2-y,1/2+z
loop_
_atom_site_type_symbol
_atom_site_label
_atom_site_fract_x
_atom_site_fract_y
_atom_site_fract_z
Si Si1 0.371530 0.111745 0.653750
Si Si2 0.834675 0.979882 0.507646
Si Si3 0.063220 0.324167 0.784115
Si Si4 0.201311 0.348473 0.199641
Si Si5 0.554136 0.075672 0.484272
Si Si6 0.021412 0.906892 0.454510
Si Si7 0.743060 0.410649 0.257349
O O1 0.489953 0.956331 0.701400
O O2 0.157935 0.052391 0.528587
O O3 0.520855 0.210313 0.671199
O O4 0.358948 0.140961 0.735026
O O5 0.711523 0.102848 0.407542
O O6 0.690191 0.946140 0.509310
O O7 0.035862 0.037776 0.631486
O O8 0.895621 0.870062 0.471425
O O9 0.185442 0.210106 0.790838
O O10 0.857386 0.263528 0.728505
O O11 0.088278 0.433579 0.084620
O O12 0.366092 0.432828 0.321492
O O13 0.621136 0.243793 0.490824
O O14 0.348889 0.039096 0.352323
#
# Coordination Sequence:
#
# PCOD9140139 Si02
#       7
#     4   4   4   4   4   4   4
#     4  11  24  47  70 103 152 182 235 302 363 425
#     4  11  23  45  74 102 144 193 236 299 367 418
#     4  12  23  46  74 101 141 192 235 297 360 419
#     4  12  24  41  74 110 133 194 239 289 366 430
#     4  12  24  43  72 105 141 186 243 301 354 424
#     4  11  23  43  72  99 144 190 232 296 363 422
#     4  11  25  45  76 106 143 191 242 298 361 430
#
# _framework density 25.072306999999999
#
# number of rings (size 3 to 8) (size 9 to 14) (size 15 to 20)
#    0.000    0.571    7.143    0.000    4.000    0.000 
#    0.000   11.429    3.143    0.000    0.000    0.000 
#    0.000    0.000    0.000    0.000    0.000    0.000 
#
# Total GULP energy -78048.162624 kJ/mol
# GULP energy per Si atom -5574.868759 kJ/mol
# Density = 2.501524 g / cm^3
# Si number density = 25.072307 Si / 1000 Ang^3
#
#
#
# Elastic Constant Matrix: (Units=GPa)
#
#
# Indices 1 2 3 4 5 6 
#
# 1 90.0948 36.9928 45.7765 0.0000 -5.1168 0.0000
# 2 36.9928 38.2453 1.7508 0.0000 7.5445 0.0000
# 3 45.7765 1.7508 189.6990 0.0000 -8.9124 0.0000
# 4 0.0000 0.0000 0.0000 24.4634 0.0000 11.6995
# 5 -5.1168 7.5445 -8.9124 0.0000 41.6601 0.0000
# 6 0.0000 0.0000 0.0000 11.6995 0.0000 38.4730
#
#
#
# Elastic Compliance Matrix: (Units=1/GPa)
#
#
# Indices 1 2 3 4 5 6 
#
# 1 0.024147 -0.024343 -0.005309 0.000000 0.006238 0.000000
# 2 -0.024343 0.051702 0.004866 0.000000 -0.011312 0.000000
# 3 -0.005309 0.004866 0.006501 0.000000 -0.000142 0.000000
# 4 0.000000 0.000000 0.000000 0.047834 0.000000 -0.014546
# 5 0.006238 -0.011312 -0.000142 0.000000 0.026788 0.000000
# 6 0.000000 0.000000 0.000000 -0.014546 0.000000 0.030416
#
#
# Mechanical properties :
#
#
# Convention : Reuss Voigt Hill
#
# Bulk Modulus (GPa) = 30.51016 54.11995 42.31505
# Shear Modulus (GPa) = 20.17055 36.48724 28.32889
#
# Velocity S-wave (km/s) = 2.83944 3.81895 3.36503
# Velocity P-wave (km/s) = 4.79011 6.40923 5.65789
#
# Compressibility (1/GPa) = 0.03277597
#
# Stress axis : x y z
#
# Youngs Moduli (GPa) = 41.41372 19.34166 153.82134
#
# Poissons Ratio (x) = 0.47084 0.81665
# Poissons Ratio (y) = 1.00815 -0.74845
# Poissons Ratio (z) = 0.21987 -0.09411
#
# Static dielectric constant tensor:
#      x y z
#    x 2.155270 0.000000 0.000670 
#    y 0.000000 2.019190 0.000000 
#    z 0.000670 0.000000 1.977390 
# 
# From -- ./inp_files/33182.got.cif
#   From: 2010.05.17/outbox.cif.g08.bks.cpg/sg9_17_cif.got.tgz:33182.got - 2010.06.03 20:04:27.
