data_PCOD9140310
_publ_section_title
;
Structure prediction by ZEFSAII (Michael W. Deem and Ramdas Pophale) SiO2 
 PCOD9140310
Probable space group: C C
;
_chemical_formula_sum "Si O2"
_cell_formula_units_Z 20
_cell_length_a 7.001584
_cell_length_b 7.451959
_cell_length_c 21.986715
_cell_angle_alpha 90.000000
_cell_angle_beta 138.737154
_cell_angle_gamma 90.000000
_cell_volume 756.573920
_symmetry_space_group_name_H-M "C C"
_symmetry_group_IT_number 9
_symmetry_cell_setting 'monoclinic'
loop_
_space_group_symop_operation_xyz
x,y,z
x,-y,1/2+z
1/2+x,1/2+y,z
1/2+x,1/2-y,1/2+z
loop_
_atom_site_type_symbol
_atom_site_label
_atom_site_fract_x
_atom_site_fract_y
_atom_site_fract_z
Si Si1 0.525150 0.685438 0.092930
Si Si2 0.671573 0.537099 0.007001
Si Si3 0.556968 0.355241 0.276297
Si Si4 0.787934 0.808551 0.670086
Si Si5 0.570011 0.031400 0.820385
O O1 0.536280 0.540801 0.042572
O O2 0.440310 0.642778 0.142223
O O3 0.843529 0.773671 0.173676
O O4 0.303707 0.844474 0.022289
O O5 0.949868 0.665589 0.076047
O O6 0.403132 0.590484 0.901248
O O7 0.396648 0.546016 0.247048
O O8 0.874832 0.399954 0.328978
O O9 0.573677 0.184940 0.324047
O O10 0.911968 0.620608 0.724188
#
# Coordination Sequence:
#
# PCOD9140310 Si02
#       5
#     4   4   4   4   4
#     4  11  23  48  77 109 156 209 261 324 398 470
#     4  11  26  46  75 118 156 209 264 333 392 475
#     4  11  24  45  75 109 148 209 257 323 388 475
#     4  11  26  47  79 106 163 209 268 322 406 470
#     4  12  25  48  76 114 163 204 270 324 400 470
#
# _framework density 26.434958000000002
#
# number of rings (size 3 to 8) (size 9 to 14) (size 15 to 20)
#    0.000    0.800    4.000    2.400    2.800    1.600 
#    3.600    6.000    0.000    0.000    0.000    0.000 
#    0.000    0.000    0.000    0.000    0.000    0.000 
#
# Total GULP energy -55940.549061 kJ/mol
# GULP energy per Si atom -5594.054906 kJ/mol
# Density = 2.637479 g / cm^3
# Si number density = 26.434958 Si / 1000 Ang^3
#
#
#
# Elastic Constant Matrix: (Units=GPa)
#
#
# Indices 1 2 3 4 5 6 
#
# 1 101.4199 54.4787 49.2504 0.0000 33.2856 0.0000
# 2 54.4787 140.8813 39.8418 0.0000 18.0779 0.0000
# 3 49.2504 39.8418 169.4278 0.0000 55.1147 0.0000
# 4 0.0000 0.0000 0.0000 26.7925 0.0000 -0.8521
# 5 33.2856 18.0779 55.1147 0.0000 45.9695 0.0000
# 6 0.0000 0.0000 0.0000 -0.8521 0.0000 47.8338
#
#
#
# Elastic Compliance Matrix: (Units=1/GPa)
#
#
# Indices 1 2 3 4 5 6 
#
# 1 0.015534 -0.004728 -0.000573 0.000000 -0.008701 0.000000
# 2 -0.004728 0.009097 -0.001172 0.000000 0.001251 0.000000
# 3 -0.000573 -0.001172 0.009934 0.000000 -0.011034 0.000000
# 4 0.000000 0.000000 0.000000 0.037345 0.000000 0.000665
# 5 -0.008701 0.001251 -0.011034 0.000000 0.040791 0.000000
# 6 0.000000 0.000000 0.000000 0.000665 0.000000 0.020918
#
#
# Mechanical properties :
#
#
# Convention : Reuss Voigt Hill
#
# Bulk Modulus (GPa) = 46.25626 77.65230 61.95428
# Shear Modulus (GPa) = 32.51573 41.99637 37.25605
#
# Velocity S-wave (km/s) = 3.51098 3.99013 3.75820
# Velocity P-wave (km/s) = 5.82856 7.11806 6.50534
#
# Compressibility (1/GPa) = 0.02161869
#
# Stress axis : x y z
#
# Youngs Moduli (GPa) = 64.37547 109.92049 100.66654
#
# Poissons Ratio (x) = 0.51974 0.05769
# Poissons Ratio (y) = 0.30439 0.11796
# Poissons Ratio (z) = 0.03689 0.12880
#
# Static dielectric constant tensor:
#      x y z
#    x 2.086350 0.000000 -0.021200 
#    y 0.000000 2.101330 0.000000 
#    z -0.021200 0.000000 2.057160 
# 
# From -- ./inp_files/29023.got.cif
#   From: 2010.05.17/outbox.cif.g08.bks.cpg/sg9_15_cif.got.tgz:29023.got - 2010.06.03 20:04:27.
