data_PCOD9140584
_publ_section_title
;
Structure prediction by ZEFSAII (Michael W. Deem and Ramdas Pophale) SiO2 
 PCOD9140584
Probable space group: C C
;
_chemical_formula_sum "Si O2"
_cell_formula_units_Z 24
_cell_length_a 5.648931
_cell_length_b 12.314104
_cell_length_c 13.638705
_cell_angle_alpha 90.000000
_cell_angle_beta 88.641114
_cell_angle_gamma 90.000000
_cell_volume 948.462286
_symmetry_space_group_name_H-M "C C"
_symmetry_group_IT_number 9
_symmetry_cell_setting 'monoclinic'
loop_
_space_group_symop_operation_xyz
x,y,z
x,-y,1/2+z
1/2+x,1/2+y,z
1/2+x,1/2-y,1/2+z
loop_
_atom_site_type_symbol
_atom_site_label
_atom_site_fract_x
_atom_site_fract_y
_atom_site_fract_z
Si Si1 0.915480 0.515522 0.743380
Si Si2 0.365652 0.786414 0.128506
Si Si3 0.690821 0.735377 0.950411
Si Si4 0.037774 0.137049 0.304783
Si Si5 0.053632 0.393083 0.554630
Si Si6 0.319396 0.585431 0.864931
O O1 0.771257 0.606293 0.683412
O O2 0.806482 0.411537 0.801913
O O3 0.049773 0.461017 0.652106
O O4 0.074581 0.593747 0.808880
O O5 0.486550 0.703491 0.205861
O O6 0.145666 0.725252 0.083427
O O7 0.550866 0.801396 0.036481
O O8 0.497792 0.685978 0.875515
O O9 0.901677 0.799288 0.893116
O O10 0.805013 0.629869 0.003620
O O11 0.923832 0.018059 0.310803
O O12 0.239002 0.440139 0.475812
#
# Coordination Sequence:
#
# PCOD9140584 Si02
#       6
#     4   4   4   4   4   4
#     4  12  26  47  79 111 154 206 262 327 395 470
#     4  11  25  46  74 110 152 202 262 318 391 474
#     4  11  26  47  75 113 159 205 265 327 394 470
#     4  12  24  46  72 114 154 199 260 329 392 470
#     4  11  24  49  72 112 153 201 260 323 393 469
#     4  11  25  45  74 112 152 207 265 322 393 469
#
# _framework density 25.304113999999998
#
# number of rings (size 3 to 8) (size 9 to 14) (size 15 to 20)
#    0.000    0.667    3.333    4.000    0.000    9.333 
#    3.000    0.000    0.000    0.000    0.000    0.000 
#    0.000    0.000    0.000    0.000    0.000    0.000 
#
# Total GULP energy -66966.918371 kJ/mol
# GULP energy per Si atom -5580.576531 kJ/mol
# Density = 2.524652 g / cm^3
# Si number density = 25.304114 Si / 1000 Ang^3
#
#
#
# Elastic Constant Matrix: (Units=GPa)
#
#
# Indices 1 2 3 4 5 6 
#
# 1 69.5789 43.5203 55.8472 0.0000 1.8680 0.0000
# 2 43.5203 121.4311 67.7548 0.0000 -12.0339 0.0000
# 3 55.8472 67.7548 140.8960 0.0000 -19.5386 0.0000
# 4 0.0000 0.0000 0.0000 50.3406 0.0000 -8.0800
# 5 1.8680 -12.0339 -19.5386 0.0000 41.6747 0.0000
# 6 0.0000 0.0000 0.0000 -8.0800 0.0000 34.8498
#
#
#
# Elastic Compliance Matrix: (Units=1/GPa)
#
#
# Indices 1 2 3 4 5 6 
#
# 1 0.023986 -0.004684 -0.008120 0.000000 -0.006234 0.000000
# 2 -0.004684 0.012192 -0.003732 0.000000 0.001981 0.000000
# 3 -0.008120 -0.003732 0.012847 0.000000 0.005309 0.000000
# 4 0.000000 0.000000 0.000000 0.020632 0.000000 0.004784
# 5 -0.006234 0.001981 0.005309 0.000000 0.027336 0.000000
# 6 0.000000 0.000000 0.000000 0.004784 0.000000 0.029804
#
#
# Mechanical properties :
#
#
# Convention : Reuss Voigt Hill
#
# Bulk Modulus (GPa) = 62.67772 74.01674 68.34723
# Shear Modulus (GPa) = 30.26872 36.35860 33.31366
#
# Velocity S-wave (km/s) = 3.46236 3.79471 3.63234
# Velocity P-wave (km/s) = 6.38807 6.96521 6.68288
#
# Compressibility (1/GPa) = 0.01595463
#
# Stress axis : x y z
#
# Youngs Moduli (GPa) = 41.69012 82.01829 77.84098
#
# Poissons Ratio (x) = 0.38417 0.63204
# Poissons Ratio (y) = 0.19527 0.29049
# Poissons Ratio (z) = 0.33851 0.30608
#
# Static dielectric constant tensor:
#      x y z
#    x 2.299670 0.000000 0.016400 
#    y 0.000000 1.980220 0.000000 
#    z 0.016400 0.000000 1.975710 
# 
# From -- ./inp_files/12966.got.cif
#   From: 2010.05.17/outbox.cif.g08.bks.cpg/sg9_7_cif.got.tgz:12966.got - 2010.06.03 20:04:27.
