data_PCOD9140041
_publ_section_title
;
Structure prediction by ZEFSAII (Michael W. Deem and Ramdas Pophale) SiO2 
 PCOD9140041
Probable space group: C C
;
_chemical_formula_sum "Si O2"
_cell_formula_units_Z 28
_cell_length_a 8.021049
_cell_length_b 12.122254
_cell_length_c 14.117093
_cell_angle_alpha 90.000000
_cell_angle_beta 53.522404
_cell_angle_gamma 90.000000
_cell_volume 1103.733326
_symmetry_space_group_name_H-M "C C"
_symmetry_group_IT_number 9
_symmetry_cell_setting 'monoclinic'
loop_
_space_group_symop_operation_xyz
x,y,z
x,-y,1/2+z
1/2+x,1/2+y,z
1/2+x,1/2-y,1/2+z
loop_
_atom_site_type_symbol
_atom_site_label
_atom_site_fract_x
_atom_site_fract_y
_atom_site_fract_z
Si Si1 0.435590 0.978225 0.484170
Si Si2 0.337983 0.576235 0.085421
Si Si3 0.188730 0.036730 0.388967
Si Si4 0.150335 0.846087 0.270960
Si Si5 0.500706 0.791653 0.997609
Si Si6 0.292954 0.400757 0.254822
Si Si7 0.897147 0.668060 0.166883
O O1 0.280749 0.036690 0.463061
O O2 0.571148 0.891696 0.379366
O O3 0.331913 0.910952 0.603551
O O4 0.576943 0.081616 0.471572
O O5 0.520928 0.667849 0.035669
O O6 0.284418 0.513011 0.198463
O O7 0.135608 0.631638 0.106993
O O8 0.446398 0.486122 0.981924
O O9 0.267331 0.932938 0.299089
O O10 0.263682 0.140494 0.305033
O O11 0.297558 0.815675 0.133722
O O12 0.058979 0.749130 0.369664
O O13 0.957319 0.901831 0.283870
O O14 0.359534 0.297613 0.166385
#
# Coordination Sequence:
#
# PCOD9140041 Si02
#       7
#     4   4   4   4   4   4   4
#     4  12  25  47  75 113 156 204 263 337 403 477
#     4  11  25  48  78 111 152 209 265 322 400 484
#     4  11  25  47  71 113 155 201 272 326 395 485
#     4  11  23  45  76 109 149 210 261 325 399 477
#     4  11  22  46  78 107 151 208 260 322 396 483
#     4  12  26  46  79 112 154 209 269 329 403 482
#     4  12  26  49  75 113 161 207 264 333 404 480
#
# _framework density 25.368445000000001
#
# number of rings (size 3 to 8) (size 9 to 14) (size 15 to 20)
#    0.000    0.571    4.286    4.286    2.000    0.000 
#   10.286    2.857    0.000    0.000    0.000    0.000 
#    0.000    0.000    0.000    0.000    0.000    0.000 
#
# Total GULP energy -77994.323233 kJ/mol
# GULP energy per Si atom -5571.023088 kJ/mol
# Density = 2.531071 g / cm^3
# Si number density = 25.368445 Si / 1000 Ang^3
#
#
#
# Elastic Constant Matrix: (Units=GPa)
#
#
# Indices 1 2 3 4 5 6 
#
# 1 35.3570 21.4068 19.7739 0.0000 10.6180 0.0000
# 2 21.4068 127.1808 32.7796 0.0000 16.5618 0.0000
# 3 19.7739 32.7796 146.7297 0.0000 3.0494 0.0000
# 4 0.0000 0.0000 0.0000 39.3169 0.0000 -3.5578
# 5 10.6180 16.5618 3.0494 0.0000 38.1811 0.0000
# 6 0.0000 0.0000 0.0000 -3.5578 0.0000 27.3178
#
#
#
# Elastic Compliance Matrix: (Units=1/GPa)
#
#
# Indices 1 2 3 4 5 6 
#
# 1 0.035055 -0.003943 -0.003682 0.000000 -0.007744 0.000000
# 2 -0.003943 0.009274 -0.001482 0.000000 -0.002808 0.000000
# 3 -0.003682 -0.001482 0.007621 0.000000 0.001058 0.000000
# 4 0.000000 0.000000 0.000000 0.025738 0.000000 0.003352
# 5 -0.007744 -0.002808 0.001058 0.000000 0.029478 0.000000
# 6 0.000000 0.000000 0.000000 0.003352 0.000000 0.037043
#
#
# Mechanical properties :
#
#
# Convention : Reuss Voigt Hill
#
# Bulk Modulus (GPa) = 29.64259 50.79868 40.22064
# Shear Modulus (GPa) = 28.79051 36.65032 32.72041
#
# Velocity S-wave (km/s) = 3.37247 3.80507 3.59529
# Velocity P-wave (km/s) = 5.18411 6.27476 5.75533
#
# Compressibility (1/GPa) = 0.03373524
#
# Stress axis : x y z
#
# Youngs Moduli (GPa) = 28.52641 107.82669 131.22281
#
# Poissons Ratio (x) = 0.42514 0.48322
# Poissons Ratio (y) = 0.11247 0.19449
# Poissons Ratio (z) = 0.10505 0.15981
#
# Static dielectric constant tensor:
#      x y z
#    x 2.029810 0.000000 -0.017290 
#    y 0.000000 2.208500 0.000000 
#    z -0.017290 0.000000 2.041710 
# 
# From -- ./inp_files/14218.got.cif
#   From: 2010.05.17/outbox.cif.g08.bks.cpg/sg9_8_cif.got.tgz:14218.got - 2010.06.03 20:04:27.
