data_PCOD9140367
_publ_section_title
;
Structure prediction by ZEFSAII (Michael W. Deem and Ramdas Pophale) SiO2 
 PCOD9140367
Probable space group: C C
;
_chemical_formula_sum "Si O2"
_cell_formula_units_Z 32
_cell_length_a 15.110336
_cell_length_b 11.408063
_cell_length_c 8.773816
_cell_angle_alpha 90.000000
_cell_angle_beta 109.049774
_cell_angle_gamma 90.000000
_cell_volume 1429.599965
_symmetry_space_group_name_H-M "C C"
_symmetry_group_IT_number 9
_symmetry_cell_setting 'monoclinic'
loop_
_space_group_symop_operation_xyz
x,y,z
x,-y,1/2+z
1/2+x,1/2+y,z
1/2+x,1/2-y,1/2+z
loop_
_atom_site_type_symbol
_atom_site_label
_atom_site_fract_x
_atom_site_fract_y
_atom_site_fract_z
Si Si1 0.848400 0.356720 0.994580
Si Si2 0.337199 0.888422 0.352752
Si Si3 0.177221 0.730756 0.724694
Si Si4 0.808670 0.045528 0.688304
Si Si5 0.060924 0.113285 0.347923
Si Si6 0.401246 0.614849 0.043386
Si Si7 0.637304 0.637693 0.888355
Si Si8 0.956927 0.805230 0.086864
O O1 0.858271 0.478331 0.914178
O O2 0.766453 0.289320 0.857338
O O3 0.838931 0.377194 0.170408
O O4 0.922644 0.251038 0.027375
O O5 0.232599 0.849027 0.345093
O O6 0.413054 0.812850 0.490014
O O7 0.210328 0.602318 0.685690
O O8 0.101772 0.763474 0.810791
O O9 0.151790 0.802596 0.559489
O O10 0.864877 0.131413 0.605199
O O11 0.817074 0.917948 0.615416
O O12 0.871465 0.053220 0.873525
O O13 0.992088 0.067558 0.177369
O O14 0.004246 0.135764 0.467308
O O15 0.129376 0.003413 0.407695
O O16 0.543317 0.691384 0.757065
#
# Coordination Sequence:
#
# PCOD9140367 Si02
#       8
#     4   4   4   4   4   4   4   4
#     4  11  25  44  73 104 145 196 244 304 374 446
#     4  12  25  46  73 106 151 195 251 304 380 441
#     4  11  24  43  70 109 149 189 246 314 373 434
#     4  11  24  43  69 109 143 194 243 306 379 439
#     4  12  23  41  69 110 144 189 245 312 363 440
#     4  11  24  43  74 102 147 189 251 303 372 443
#     4  12  24  40  76 111 148 187 259 308 364 453
#     4  12  25  42  72 109 147 195 243 313 379 436
#
# _framework density 22.383883999999998
#
# number of rings (size 3 to 8) (size 9 to 14) (size 15 to 20)
#    0.000    0.500    5.000    3.750    1.750    0.000 
#    0.000    0.000   13.750    0.000    0.000    0.000 
#    0.000    0.000    0.000    0.000    0.000    0.000 
#
# Total GULP energy -89256.972948 kJ/mol
# GULP energy per Si atom -5578.560809 kJ/mol
# Density = 2.233294 g / cm^3
# Si number density = 22.383884 Si / 1000 Ang^3
#
#
#
# Elastic Constant Matrix: (Units=GPa)
#
#
# Indices 1 2 3 4 5 6 
#
# 1 57.1307 18.6135 13.8734 0.0000 -5.4687 0.0000
# 2 18.6135 69.4434 30.8004 0.0000 6.5351 0.0000
# 3 13.8734 30.8004 78.3617 0.0000 -10.4941 0.0000
# 4 0.0000 0.0000 0.0000 32.4184 0.0000 2.1522
# 5 -5.4687 6.5351 -10.4941 0.0000 38.4624 0.0000
# 6 0.0000 0.0000 0.0000 2.1522 0.0000 35.6160
#
#
#
# Elastic Compliance Matrix: (Units=1/GPa)
#
#
# Indices 1 2 3 4 5 6 
#
# 1 0.019760 -0.005170 -0.001009 0.000000 0.003413 0.000000
# 2 -0.005170 0.019779 -0.007688 0.000000 -0.006193 0.000000
# 3 -0.001009 -0.007688 0.016729 0.000000 0.005727 0.000000
# 4 0.000000 0.000000 0.000000 0.030971 0.000000 -0.001871
# 5 0.003413 -0.006193 0.005727 0.000000 0.029099 0.000000
# 6 0.000000 0.000000 0.000000 -0.001871 0.000000 0.028190
#
#
# Mechanical properties :
#
#
# Convention : Reuss Voigt Hill
#
# Bulk Modulus (GPa) = 35.04753 36.83447 35.94100
# Shear Modulus (GPa) = 27.50670 30.74261 29.12466
#
# Velocity S-wave (km/s) = 3.50932 3.71000 3.61105
# Velocity P-wave (km/s) = 5.66673 5.90285 5.78600
#
# Compressibility (1/GPa) = 0.02853268
#
# Stress axis : x y z
#
# Youngs Moduli (GPa) = 50.60767 50.55936 59.77694
#
# Poissons Ratio (x) = 0.26139 0.06033
# Poissons Ratio (y) = 0.26164 0.45958
# Poissons Ratio (z) = 0.05108 0.38871
#
# Static dielectric constant tensor:
#      x y z
#    x 1.925400 0.000000 0.009340 
#    y 0.000000 1.903500 0.000000 
#    z 0.009340 0.000000 1.831980 
# 
# From -- ./inp_files/9296.got.cif
#   From: 2010.05.17/outbox.cif.g08.bks.cpg/sg9_5_cif.got.tgz:9296.got - 2010.06.03 20:04:27.
