data_PCOD9140120
_publ_section_title
;
Structure prediction by ZEFSAII (Michael W. Deem and Ramdas Pophale) SiO2 
 PCOD9140120
Probable space group: C C
;
_chemical_formula_sum "Si O2"
_cell_formula_units_Z 32
_cell_length_a 23.452922
_cell_length_b 5.228917
_cell_length_c 11.761722
_cell_angle_alpha 90.000000
_cell_angle_beta 72.949916
_cell_angle_gamma 90.000000
_cell_volume 1378.985461
_symmetry_space_group_name_H-M "C C"
_symmetry_group_IT_number 9
_symmetry_cell_setting 'monoclinic'
loop_
_space_group_symop_operation_xyz
x,y,z
x,-y,1/2+z
1/2+x,1/2+y,z
1/2+x,1/2-y,1/2+z
loop_
_atom_site_type_symbol
_atom_site_label
_atom_site_fract_x
_atom_site_fract_y
_atom_site_fract_z
Si Si1 0.634860 0.057182 0.538190
Si Si2 0.440693 0.468487 0.267600
Si Si3 0.673172 0.668502 0.809411
Si Si4 0.254210 0.432501 0.580031
Si Si5 0.778364 0.466657 0.880269
Si Si6 0.858846 0.211617 0.500943
Si Si7 0.580869 0.544757 0.679386
Si Si8 0.392779 0.033104 0.674339
O O1 0.649635 0.089584 0.396253
O O2 0.594794 0.296316 0.596857
O O3 0.696920 0.092201 0.571340
O O4 0.603623 0.796505 0.597629
O O5 0.404436 0.544301 0.401897
O O6 0.511051 0.458962 0.245036
O O7 0.423201 0.191209 0.230598
O O8 0.420999 0.694993 0.190793
O O9 0.721582 0.745794 0.686841
O O10 0.711188 0.505896 0.877268
O O11 0.619181 0.541713 0.773273
O O12 0.313620 0.544329 0.603956
O O13 0.277725 0.291729 0.452899
O O14 0.808219 0.666760 0.949726
O O15 0.823799 0.501443 0.750449
O O16 0.893929 0.434911 0.544675
#
# Coordination Sequence:
#
# PCOD9140120 Si02
#       8
#     4   4   4   4   4   4   4   4
#     4  11  25  45  69 109 142 190 241 300 354 433
#     4  11  26  52  71 105 143 190 247 300 345 436
#     4  11  24  42  74 105 146 197 229 305 368 426
#     4  11  24  40  67 105 149 179 240 289 371 437
#     4  11  23  43  65 110 151 182 231 302 358 451
#     4  11  25  42  70 108 145 186 234 300 363 439
#     4  11  27  50  74 101 146 193 251 296 354 428
#     4  11  26  42  76 103 144 195 233 294 373 414
#
# _framework density 23.205465
#
# number of rings (size 3 to 8) (size 9 to 14) (size 15 to 20)
#    0.000    1.000    2.500    3.000    8.750    4.000 
#    0.000    6.250    0.000    0.000    0.000    0.000 
#    0.000    0.000    0.000    0.000    0.000    0.000 
#
# Total GULP energy -89434.198496 kJ/mol
# GULP energy per Si atom -5589.637406 kJ/mol
# Density = 2.315265 g / cm^3
# Si number density = 23.205465 Si / 1000 Ang^3
#
#
#
# Elastic Constant Matrix: (Units=GPa)
#
#
# Indices 1 2 3 4 5 6 
#
# 1 138.5410 9.7716 25.1129 0.0000 -22.3160 0.0000
# 2 9.7716 62.5483 -6.8421 0.0000 -2.3054 0.0000
# 3 25.1129 -6.8421 31.9676 0.0000 4.0163 0.0000
# 4 0.0000 0.0000 0.0000 27.9097 0.0000 4.3077
# 5 -22.3160 -2.3054 4.0163 0.0000 35.1034 0.0000
# 6 0.0000 0.0000 0.0000 4.3077 0.0000 32.4862
#
#
#
# Elastic Compliance Matrix: (Units=1/GPa)
#
#
# Indices 1 2 3 4 5 6 
#
# 1 0.010329 -0.002384 -0.009567 0.000000 0.007505 0.000000
# 2 -0.002384 0.016937 0.005629 0.000000 -0.001047 0.000000
# 3 -0.009567 0.005629 0.041314 0.000000 -0.010439 0.000000
# 4 0.000000 0.000000 0.000000 0.036578 0.000000 -0.004850
# 5 0.007505 -0.001047 -0.010439 0.000000 0.034384 0.000000
# 6 0.000000 0.000000 0.000000 -0.004850 0.000000 0.031425
#
#
# Mechanical properties :
#
#
# Convention : Reuss Voigt Hill
#
# Bulk Modulus (GPa) = 17.87738 32.12685 25.00211
# Shear Modulus (GPa) = 24.72095 32.76750 28.74422
#
# Velocity S-wave (km/s) = 3.26745 3.76182 3.52331
# Velocity P-wave (km/s) = 4.68568 5.72214 5.22965
#
# Compressibility (1/GPa) = 0.05593662
#
# Stress axis : x y z
#
# Youngs Moduli (GPa) = 96.81192 59.04160 24.20488
#
# Poissons Ratio (x) = 0.14073 0.23158
# Poissons Ratio (y) = 0.23077 -0.13625
# Poissons Ratio (z) = 0.92624 -0.33236
#
# Static dielectric constant tensor:
#      x y z
#    x 1.853830 0.000000 0.046940 
#    y 0.000000 2.020370 0.000000 
#    z 0.046940 0.000000 1.967890 
# 
# From -- ./inp_files/19809.got.cif
#   From: 2010.05.17/outbox.cif.g08.bks.cpg/sg9_10_cif.got.tgz:19809.got - 2010.06.03 20:04:27.
