data_PCOD9140197
_publ_section_title
;
Structure prediction by ZEFSAII (Michael W. Deem and Ramdas Pophale) SiO2 
 PCOD9140197
Probable space group: C C
;
_chemical_formula_sum "Si O2"
_cell_formula_units_Z 32
_cell_length_a 15.059374
_cell_length_b 19.949521
_cell_length_c 8.610727
_cell_angle_alpha 90.000000
_cell_angle_beta 31.379836
_cell_angle_gamma 90.000000
_cell_volume 1347.021328
_symmetry_space_group_name_H-M "C C"
_symmetry_group_IT_number 9
_symmetry_cell_setting 'monoclinic'
loop_
_space_group_symop_operation_xyz
x,y,z
x,-y,1/2+z
1/2+x,1/2+y,z
1/2+x,1/2-y,1/2+z
loop_
_atom_site_type_symbol
_atom_site_label
_atom_site_fract_x
_atom_site_fract_y
_atom_site_fract_z
Si Si1 0.416330 0.804194 0.256940
Si Si2 0.213369 0.542750 0.284942
Si Si3 0.865695 0.541427 0.346925
Si Si4 0.216214 0.077715 0.233928
Si Si5 0.824280 0.085579 0.449514
Si Si6 0.059003 0.643804 0.260872
Si Si7 0.422749 0.333461 0.080476
Si Si8 0.122313 0.294916 0.229026
O O1 0.324695 0.870526 0.463317
O O2 0.296693 0.744216 0.487028
O O3 0.586799 0.796879 0.099545
O O4 0.457249 0.803133 0.015842
O O5 0.318429 0.572610 0.273672
O O6 0.142853 0.595360 0.266025
O O7 0.040480 0.503203 0.594542
O O8 0.319663 0.485894 0.037896
O O9 0.802097 0.563424 0.272262
O O10 0.722558 0.493728 0.638063
O O11 0.918898 0.604560 0.370885
O O12 0.035364 0.116121 0.518191
O O13 0.949107 0.131092 0.370044
O O14 0.647739 0.128146 0.736241
O O15 0.223481 0.667247 0.920112
O O16 0.487665 0.257086 0.000302
#
# Coordination Sequence:
#
# PCOD9140197 Si02
#       8
#     4   4   4   4   4   4   4   4
#     4  11  23  45  70  97 136 186 233 292 351 432
#     4  12  21  37  74 102 131 186 231 291 344 435
#     4  12  20  40  71 103 135 192 232 296 348 429
#     4  11  24  42  67  99 146 184 241 288 363 413
#     4  12  22  43  71 105 140 184 239 286 364 422
#     4  12  24  43  70 108 138 180 248 285 360 429
#     4  11  27  45  67 109 143 189 238 302 353 424
#     4  11  23  45  74  97 139 189 236 286 361 422
#
# _framework density 23.756121
#
# number of rings (size 3 to 8) (size 9 to 14) (size 15 to 20)
#    0.000    0.500    7.500    0.750    0.000    2.000 
#    2.250    3.750    0.000    0.000    0.000    0.000 
#    0.000    0.000    0.000    0.000    0.000    0.000 
#
# Total GULP energy -89297.945159 kJ/mol
# GULP energy per Si atom -5581.121572 kJ/mol
# Density = 2.370205 g / cm^3
# Si number density = 23.756121 Si / 1000 Ang^3
#
#
#
# Elastic Constant Matrix: (Units=GPa)
#
#
# Indices 1 2 3 4 5 6 
#
# 1 127.5827 22.6023 15.6109 -0.0039 6.1675 0.0015
# 2 22.6023 76.8272 15.8230 -0.0031 -0.0977 0.0007
# 3 15.6109 15.8230 40.4901 -0.0072 5.6893 0.0030
# 4 -0.0039 -0.0031 -0.0072 21.9280 0.0029 -3.8653
# 5 6.1675 -0.0977 5.6893 0.0029 29.0335 -0.0013
# 6 0.0015 0.0007 0.0030 -3.8653 -0.0013 41.9834
#
#
#
# Elastic Compliance Matrix: (Units=1/GPa)
#
#
# Indices 1 2 3 4 5 6 
#
# 1 0.008548 -0.002042 -0.002305 0.000001 -0.001371 0.000000
# 2 -0.002042 0.014682 -0.005160 0.000000 0.001494 0.000000
# 3 -0.002305 -0.005160 0.028316 0.000009 -0.005076 -0.000001
# 4 0.000001 0.000000 0.000009 0.046356 -0.000006 0.004268
# 5 -0.001371 0.001494 -0.005076 -0.000006 0.035734 0.000001
# 6 0.000000 0.000000 -0.000001 0.004268 0.000001 0.024212
#
#
# Mechanical properties :
#
#
# Convention : Reuss Voigt Hill
#
# Bulk Modulus (GPa) = 30.73951 39.21917 34.97934
# Shear Modulus (GPa) = 26.63747 31.31322 28.97535
#
# Velocity S-wave (km/s) = 3.35220 3.63452 3.49621
# Velocity P-wave (km/s) = 5.28684 5.84448 5.57264
#
# Compressibility (1/GPa) = 0.03253142
#
# Stress axis : x y z
#
# Youngs Moduli (GPa) = 116.98487 68.11261 35.31585
#
# Poissons Ratio (x) = 0.13907 0.08141
# Poissons Ratio (y) = 0.23886 0.18223
# Poissons Ratio (z) = 0.26967 0.35147
#
# Static dielectric constant tensor:
#      x y z
#    x 1.927890 0.000000 0.020380 
#    y 0.000000 1.951450 0.000000 
#    z 0.020380 0.000000 1.959440 
# 
# From -- ./inp_files/10082.got.cif
#   From: 2010.05.17/outbox.cif.g08.bks.cpg/sg9_6_cif.got.tgz:10082.got - 2010.06.03 20:04:27.
