data_PCOD9140311
_publ_section_title
;
Structure prediction by ZEFSAII (Michael W. Deem and Ramdas Pophale) SiO2 
 PCOD9140311
Probable space group: C C
;
_chemical_formula_sum "Si O2"
_cell_formula_units_Z 32
_cell_length_a 4.941727
_cell_length_b 23.262163
_cell_length_c 11.102055
_cell_angle_alpha 90.000000
_cell_angle_beta 102.240414
_cell_angle_gamma 90.000000
_cell_volume 1247.226332
_symmetry_space_group_name_H-M "C C"
_symmetry_group_IT_number 9
_symmetry_cell_setting 'monoclinic'
loop_
_space_group_symop_operation_xyz
x,y,z
x,-y,1/2+z
1/2+x,1/2+y,z
1/2+x,1/2-y,1/2+z
loop_
_atom_site_type_symbol
_atom_site_label
_atom_site_fract_x
_atom_site_fract_y
_atom_site_fract_z
Si Si1 0.744960 0.273850 0.301040
Si Si2 0.748467 0.403734 0.351362
Si Si3 0.652162 0.754910 0.146572
Si Si4 0.024581 0.875601 0.571134
Si Si5 0.083243 0.407714 0.731607
Si Si6 0.828234 0.168956 0.452661
Si Si7 0.175747 0.937827 0.068672
Si Si8 0.635022 0.007291 0.444618
O O1 0.834385 0.337713 0.343165
O O2 0.414882 0.261895 0.262834
O O3 0.910274 0.227860 0.395835
O O4 0.856204 0.263192 0.178729
O O5 0.511057 0.395822 0.430954
O O6 0.683970 0.426942 0.212033
O O7 0.974665 0.447747 0.422230
O O8 0.628230 0.691366 0.085881
O O9 0.694515 0.808024 0.061191
O O10 0.275044 0.909981 0.656186
O O11 0.774604 0.887229 0.639362
O O12 0.118575 0.360387 0.839314
O O13 0.148672 0.465899 0.810726
O O14 0.950723 0.454991 0.021613
O O15 0.055933 0.120966 0.499446
O O16 0.944693 0.986393 0.021753
#
# Coordination Sequence:
#
# PCOD9140311 Si02
#       8
#     4   4   4   4   4   4   4   4
#     4  12  27  44  76 115 161 204 251 326 390 483
#     4  12  30  54  80 118 163 209 268 334 400 475
#     4  12  25  44  69 120 160 201 252 314 398 481
#     4  12  25  47  76 116 157 205 255 323 391 478
#     4  11  25  47  77 109 149 210 265 314 388 470
#     4  11  23  48  78 110 159 197 261 314 409 463
#     4  11  28  52  84 115 152 214 268 332 397 479
#     4  11  29  54  82 109 153 214 270 335 389 465
#
# _framework density 25.656932999999999
#
# number of rings (size 3 to 8) (size 9 to 14) (size 15 to 20)
#    0.000    0.500    5.000    1.500    5.250    7.000 
#    2.250    0.000    0.000    0.000    0.000    0.000 
#    0.000    0.000    0.000    0.000    0.000    0.000 
#
# Total GULP energy -89612.157155 kJ/mol
# GULP energy per Si atom -5600.759822 kJ/mol
# Density = 2.559854 g / cm^3
# Si number density = 25.656933 Si / 1000 Ang^3
#
#
#
# Elastic Constant Matrix: (Units=GPa)
#
#
# Indices 1 2 3 4 5 6 
#
# 1 92.5030 22.5978 8.2206 0.0000 -7.9467 0.0000
# 2 22.5978 157.3654 45.7708 0.0000 9.7782 0.0000
# 3 8.2206 45.7708 95.2319 0.0000 -11.1826 0.0000
# 4 0.0000 0.0000 0.0000 37.2329 0.0000 -9.2900
# 5 -7.9467 9.7782 -11.1826 0.0000 23.3244 0.0000
# 6 0.0000 0.0000 0.0000 -9.2900 0.0000 29.4002
#
#
#
# Elastic Compliance Matrix: (Units=1/GPa)
#
#
# Indices 1 2 3 4 5 6 
#
# 1 0.011740 -0.002204 0.000661 0.000000 0.005241 0.000000
# 2 -0.002204 0.008418 -0.004618 0.000000 -0.006494 0.000000
# 3 0.000661 -0.004618 0.013688 0.000000 0.008724 0.000000
# 4 0.000000 0.000000 0.000000 0.029157 0.000000 0.009213
# 5 0.005241 -0.006494 0.008724 0.000000 0.051564 0.000000
# 6 0.000000 0.000000 0.000000 0.009213 0.000000 0.036925
#
#
# Mechanical properties :
#
#
# Convention : Reuss Voigt Hill
#
# Bulk Modulus (GPa) = 46.45951 55.36429 50.91190
# Shear Modulus (GPa) = 29.24192 35.89224 32.56708
#
# Velocity S-wave (km/s) = 3.37965 3.74428 3.56663
# Velocity P-wave (km/s) = 5.77725 6.34968 6.07022
#
# Compressibility (1/GPa) = 0.02152412
#
# Stress axis : x y z
#
# Youngs Moduli (GPa) = 85.17647 118.79517 73.05900
#
# Poissons Ratio (x) = 0.26181 -0.04831
# Poissons Ratio (y) = 0.18772 0.33740
# Poissons Ratio (z) = -0.05632 0.54861
#
# Static dielectric constant tensor:
#      x y z
#    x 1.973320 0.000000 -0.017400 
#    y 0.000000 2.077980 0.000000 
#    z -0.017400 0.000000 2.075770 
# 
# From -- ./inp_files/13825.got.cif
#   From: 2010.05.17/outbox.cif.g08.bks.cpg/sg9_7_cif.got.tgz:13825.got - 2010.06.03 20:04:27.
