data_PCOD9140842
_publ_section_title
;
Structure prediction by ZEFSAII (Michael W. Deem and Ramdas Pophale) SiO2 
 PCOD9140842
Probable space group: C C
;
_chemical_formula_sum "Si O2"
_cell_formula_units_Z 28
_cell_length_a 14.357491
_cell_length_b 13.430449
_cell_length_c 9.249853
_cell_angle_alpha 90.000000
_cell_angle_beta 39.753299
_cell_angle_gamma 90.000000
_cell_volume 1140.599305
_symmetry_space_group_name_H-M "C C"
_symmetry_group_IT_number 9
_symmetry_cell_setting 'monoclinic'
loop_
_space_group_symop_operation_xyz
x,y,z
x,-y,1/2+z
1/2+x,1/2+y,z
1/2+x,1/2-y,1/2+z
loop_
_atom_site_type_symbol
_atom_site_label
_atom_site_fract_x
_atom_site_fract_y
_atom_site_fract_z
Si Si1 0.575820 0.839216 0.409690
Si Si2 0.776491 0.732033 0.343826
Si Si3 0.724219 0.806320 0.929765
Si Si4 0.597669 0.058572 0.330067
Si Si5 0.404960 0.465890 0.859273
Si Si6 0.106793 0.940342 0.890251
Si Si7 0.296261 0.138947 0.623105
O O1 0.706010 0.832144 0.369287
O O2 0.447431 0.770691 0.618595
O O3 0.527508 0.953338 0.460830
O O4 0.630176 0.803534 0.188111
O O5 0.711288 0.649751 0.311135
O O6 0.745002 0.703053 0.545943
O O7 0.637702 0.872111 0.916687
O O8 0.864891 0.870658 0.808814
O O9 0.768779 0.703818 0.800315
O O10 0.467800 0.113294 0.399690
O O11 0.752293 0.021149 0.079463
O O12 0.497556 0.430933 0.886128
O O13 0.507187 0.537998 0.647430
O O14 0.205465 0.037620 0.741173
#
# Coordination Sequence:
#
# PCOD9140842 Si02
#       7
#     4   4   4   4   4   4   4
#     4  11  30  49  78 118 162 211 260 341 402 482
#     4  12  30  49  79 118 164 207 272 335 408 476
#     4  11  29  47  83 116 157 209 271 327 402 485
#     4  11  27  50  82 112 162 207 273 325 402 474
#     4  11  26  49  78 115 155 207 260 335 397 476
#     4  12  26  50  80 115 158 207 270 332 402 475
#     4  12  30  50  82 116 162 212 272 329 403 482
#
# _framework density 24.548497999999999
#
# number of rings (size 3 to 8) (size 9 to 14) (size 15 to 20)
#    0.000    0.571    4.286    0.000   16.000    1.143 
#    0.000    0.000    0.000    0.000    0.000    0.000 
#    0.000    0.000    0.000    0.000    0.000    0.000 
#
# Total GULP energy -78482.067104 kJ/mol
# GULP energy per Si atom -5605.861936 kJ/mol
# Density = 2.449262 g / cm^3
# Si number density = 24.548498 Si / 1000 Ang^3
#
#
#
# Elastic Constant Matrix: (Units=GPa)
#
#
# Indices 1 2 3 4 5 6 
#
# 1 146.2894 38.0222 16.8825 0.0000 0.2717 0.0000
# 2 38.0222 81.0960 12.9120 0.0000 8.7974 0.0000
# 3 16.8825 12.9120 61.5624 0.0000 -10.6988 0.0000
# 4 0.0000 0.0000 0.0000 28.3090 0.0000 -4.6376
# 5 0.2717 8.7974 -10.6988 0.0000 36.4859 0.0000
# 6 0.0000 0.0000 0.0000 -4.6376 0.0000 49.5531
#
#
#
# Elastic Compliance Matrix: (Units=1/GPa)
#
#
# Indices 1 2 3 4 5 6 
#
# 1 0.007911 -0.003535 -0.001359 0.000000 0.000395 0.000000
# 2 -0.003535 0.014937 -0.002934 0.000000 -0.004436 0.000000
# 3 -0.001359 -0.002934 0.018289 0.000000 0.006080 0.000000
# 4 0.000000 0.000000 0.000000 0.035874 0.000000 0.003357
# 5 0.000395 -0.004436 0.006080 0.000000 0.030257 0.000000
# 6 0.000000 0.000000 0.000000 0.003357 0.000000 0.020495
#
#
# Mechanical properties :
#
#
# Convention : Reuss Voigt Hill
#
# Bulk Modulus (GPa) = 39.24862 47.17569 43.21215
# Shear Modulus (GPa) = 32.91347 37.61166 35.26256
#
# Velocity S-wave (km/s) = 3.66560 3.91850 3.79416
# Velocity P-wave (km/s) = 5.82567 6.30332 6.06920
#
# Compressibility (1/GPa) = 0.02547861
#
# Stress axis : x y z
#
# Youngs Moduli (GPa) = 126.40952 66.94769 54.67898
#
# Poissons Ratio (x) = 0.23669 0.07432
# Poissons Ratio (y) = 0.44691 0.16044
# Poissons Ratio (z) = 0.17182 0.19644
#
# Static dielectric constant tensor:
#      x y z
#    x 1.889290 0.000000 -0.002520 
#    y 0.000000 1.982620 0.000000 
#    z -0.002520 0.000000 1.927120 
# 
# From -- ./inp_files/9633.got.cif
#   From: 2010.05.17/outbox.cif.g08.bks.cpg/sg9_5_cif.got.tgz:9633.got - 2010.06.03 20:04:27.
