data_PCOD9140112
_publ_section_title
;
Structure prediction by ZEFSAII (Michael W. Deem and Ramdas Pophale) SiO2 
 PCOD9140112
Probable space group: C C
;
_chemical_formula_sum "Si O2"
_cell_formula_units_Z 32
_cell_length_a 6.510146
_cell_length_b 18.518899
_cell_length_c 13.501344
_cell_angle_alpha 90.000000
_cell_angle_beta 105.164574
_cell_angle_gamma 90.000000
_cell_volume 1571.051777
_symmetry_space_group_name_H-M "C C"
_symmetry_group_IT_number 9
_symmetry_cell_setting 'monoclinic'
loop_
_space_group_symop_operation_xyz
x,y,z
x,-y,1/2+z
1/2+x,1/2+y,z
1/2+x,1/2-y,1/2+z
loop_
_atom_site_type_symbol
_atom_site_label
_atom_site_fract_x
_atom_site_fract_y
_atom_site_fract_z
Si Si1 0.649920 0.274974 0.845350
Si Si2 0.732229 0.439338 0.901924
Si Si3 0.386567 0.467762 0.476684
Si Si4 0.475637 0.962626 0.285654
Si Si5 0.734648 0.315543 0.284152
Si Si6 0.533959 0.314551 0.472426
Si Si7 0.304316 0.721080 0.651130
Si Si8 0.136674 0.559159 0.598359
O O1 0.654931 0.359274 0.868390
O O2 0.417155 0.242116 0.828721
O O3 0.723639 0.257462 0.742580
O O4 0.820376 0.232906 0.935215
O O5 0.822526 0.478526 0.815534
O O6 0.550401 0.487011 0.930501
O O7 0.931327 0.434597 0.002161
O O8 0.486476 0.390868 0.517352
O O9 0.314237 0.515109 0.560797
O O10 0.174980 0.451889 0.384902
O O11 0.346598 0.887971 0.260525
O O12 0.568104 0.980680 0.190094
O O13 0.612655 0.332180 0.371183
O O14 0.558978 0.284763 0.187308
O O15 0.709768 0.267615 0.550307
O O16 0.218874 0.639103 0.634787
#
# Coordination Sequence:
#
# PCOD9140112 Si02
#       8
#     4   4   4   4   4   4   4   4
#     4  11  24  45  67 100 138 175 229 287 340 405
#     4  11  26  44  71 104 137 178 229 289 337 410
#     4  11  25  43  69 105 135 180 230 284 343 407
#     4  11  23  46  70  97 137 183 227 273 351 414
#     4  11  23  42  73  96 131 188 227 281 344 410
#     4  11  23  45  68  97 138 177 229 286 337 415
#     4  11  25  42  70 101 132 182 235 279 348 411
#     4  11  25  43  72 100 136 183 230 277 350 414
#
# _framework density 20.368518999999999
#
# number of rings (size 3 to 8) (size 9 to 14) (size 15 to 20)
#    0.000    1.000    5.000    0.750    3.500    4.000 
#    0.000    0.000    0.000    0.000    0.000    0.000 
#    0.000    0.000    0.000    0.000    0.000    0.000 
#
# Total GULP energy -89526.942618 kJ/mol
# GULP energy per Si atom -5595.433914 kJ/mol
# Density = 2.032216 g / cm^3
# Si number density = 20.368519 Si / 1000 Ang^3
#
#
#
# Elastic Constant Matrix: (Units=GPa)
#
#
# Indices 1 2 3 4 5 6 
#
# 1 106.1617 57.4728 22.4723 0.0000 11.3442 0.0000
# 2 57.4728 135.8797 32.5598 0.0000 4.5923 0.0000
# 3 22.4723 32.5598 68.4642 0.0000 2.5047 0.0000
# 4 0.0000 0.0000 0.0000 20.3274 0.0000 -0.4748
# 5 11.3442 4.5923 2.5047 0.0000 39.2263 0.0000
# 6 0.0000 0.0000 0.0000 -0.4748 0.0000 20.5726
#
#
#
# Elastic Compliance Matrix: (Units=1/GPa)
#
#
# Indices 1 2 3 4 5 6 
#
# 1 0.012749 -0.004869 -0.001759 0.000000 -0.003005 0.000000
# 2 -0.004869 0.010186 -0.003262 0.000000 0.000424 0.000000
# 3 -0.001759 -0.003262 0.016741 0.000000 -0.000178 0.000000
# 4 0.000000 0.000000 0.000000 0.049221 0.000000 0.001136
# 5 -0.003005 0.000424 -0.000178 0.000000 0.026324 0.000000
# 6 0.000000 0.000000 0.000000 0.001136 0.000000 0.048635
#
#
# Mechanical properties :
#
#
# Convention : Reuss Voigt Hill
#
# Bulk Modulus (GPa) = 50.25969 59.50171 54.88070
# Shear Modulus (GPa) = 26.27866 29.22530 27.75198
#
# Velocity S-wave (km/s) = 3.59578 3.79202 3.69520
# Velocity P-wave (km/s) = 6.47829 6.96050 6.72372
#
# Compressibility (1/GPa) = 0.01989666
#
# Stress axis : x y z
#
# Youngs Moduli (GPa) = 78.43630 98.17122 59.73302
#
# Poissons Ratio (x) = 0.47804 0.10507
# Poissons Ratio (y) = 0.38194 0.19482
# Poissons Ratio (z) = 0.13797 0.32019
#
# Static dielectric constant tensor:
#      x y z
#    x 1.722170 0.000000 0.000120 
#    y 0.000000 1.682080 0.000000 
#    z 0.000120 0.000000 1.724750 
# 
# From -- ./inp_files/13470.got.cif
#   From: 2010.05.17/outbox.cif.g08.bks.cpg/sg9_7_cif.got.tgz:13470.got - 2010.06.03 20:04:27.
