data_PCOD9140439
_publ_section_title
;
Structure prediction by ZEFSAII (Michael W. Deem and Ramdas Pophale) SiO2 
 PCOD9140439
Probable space group: C C
;
_chemical_formula_sum "Si O2"
_cell_formula_units_Z 32
_cell_length_a 10.846114
_cell_length_b 16.217830
_cell_length_c 9.644734
_cell_angle_alpha 90.000000
_cell_angle_beta 57.247782
_cell_angle_gamma 90.000000
_cell_volume 1426.797995
_symmetry_space_group_name_H-M "C C"
_symmetry_group_IT_number 9
_symmetry_cell_setting 'monoclinic'
loop_
_space_group_symop_operation_xyz
x,y,z
x,-y,1/2+z
1/2+x,1/2+y,z
1/2+x,1/2-y,1/2+z
loop_
_atom_site_type_symbol
_atom_site_label
_atom_site_fract_x
_atom_site_fract_y
_atom_site_fract_z
Si Si1 0.392070 0.684754 0.628120
Si Si2 0.609180 0.294879 0.460431
Si Si3 0.084062 0.700275 0.197222
Si Si4 0.262930 0.482638 0.332249
Si Si5 0.942189 0.456889 0.656281
Si Si6 0.573744 0.754705 0.284081
Si Si7 0.370806 0.901277 0.418923
Si Si8 0.351666 0.406113 0.535616
O O1 0.510900 0.723322 0.661638
O O2 0.329574 0.596347 0.709962
O O3 0.479896 0.689953 0.429886
O O4 0.247589 0.742925 0.706551
O O5 0.611503 0.227928 0.337635
O O6 0.545394 0.256467 0.639274
O O7 0.757326 0.337714 0.420689
O O8 0.507068 0.367836 0.468431
O O9 0.241634 0.666231 0.048760
O O10 0.977360 0.623642 0.228116
O O11 0.350814 0.478016 0.422875
O O12 0.286360 0.558940 0.217437
O O13 0.094739 0.480529 0.485820
O O14 0.833394 0.438214 0.593683
O O15 0.898442 0.528137 0.789278
O O16 0.512757 0.844624 0.361686
#
# Coordination Sequence:
#
# PCOD9140439 Si02
#       8
#     4   4   4   4   4   4   4   4
#     4  12  24  49  77 103 145 190 250 303 367 443
#     4  12  27  45  68 109 149 194 247 308 366 436
#     4  11  24  48  71 108 139 195 246 305 363 446
#     4  11  24  45  73 103 136 191 242 302 372 434
#     4  11  24  47  75 104 146 193 251 302 376 449
#     4  12  25  45  75 107 143 190 243 311 368 437
#     4  12  26  47  70 109 150 195 251 304 374 445
#     4  11  26  44  69 103 146 186 248 295 372 436
#
# _framework density 22.427841999999998
#
# number of rings (size 3 to 8) (size 9 to 14) (size 15 to 20)
#    0.000    0.500    5.000    3.000    5.250    1.000 
#    2.250    0.000    0.000    0.000    0.000    0.000 
#    0.000    0.000    0.000    0.000    0.000    0.000 
#
# Total GULP energy -89418.486950 kJ/mol
# GULP energy per Si atom -5588.655434 kJ/mol
# Density = 2.237680 g / cm^3
# Si number density = 22.427842 Si / 1000 Ang^3
#
#
#
# Elastic Constant Matrix: (Units=GPa)
#
#
# Indices 1 2 3 4 5 6 
#
# 1 105.9161 18.8446 35.2001 0.0000 8.4073 0.0000
# 2 18.8446 77.5168 37.1286 0.0000 9.9138 0.0000
# 3 35.2001 37.1286 85.8405 0.0000 33.5931 0.0000
# 4 0.0000 0.0000 0.0000 46.2426 0.0000 7.5711
# 5 8.4073 9.9138 33.5931 0.0000 32.5499 0.0000
# 6 0.0000 0.0000 0.0000 7.5711 0.0000 12.9682
#
#
#
# Elastic Compliance Matrix: (Units=1/GPa)
#
#
# Indices 1 2 3 4 5 6 
#
# 1 0.011123 -0.000432 -0.005538 0.000000 0.002974 0.000000
# 2 -0.000432 0.016584 -0.008493 0.000000 0.003826 0.000000
# 3 -0.005538 -0.008493 0.026878 0.000000 -0.023722 0.000000
# 4 0.000000 0.000000 0.000000 0.023911 0.000000 -0.013960
# 5 0.002974 0.003826 -0.023722 0.000000 0.053270 0.000000
# 6 0.000000 0.000000 0.000000 -0.013960 0.000000 0.085262
#
#
# Mechanical properties :
#
#
# Convention : Reuss Voigt Hill
#
# Bulk Modulus (GPa) = 38.97492 50.18000 44.57746
# Shear Modulus (GPa) = 19.64586 30.22547 24.93566
#
# Velocity S-wave (km/s) = 2.96287 3.67505 3.33801
# Velocity P-wave (km/s) = 5.39634 6.35850 5.89708
#
# Compressibility (1/GPa) = 0.02565753
#
# Stress axis : x y z
#
# Youngs Moduli (GPa) = 89.90578 60.29837 37.20578
#
# Poissons Ratio (x) = 0.02603 0.20606
# Poissons Ratio (y) = 0.03881 0.31601
# Poissons Ratio (z) = 0.49793 0.51214
#
# Static dielectric constant tensor:
#      x y z
#    x 1.852880 0.000000 0.021820 
#    y 0.000000 1.833700 0.000000 
#    z 0.021820 0.000000 1.844080 
# 
# From -- ./inp_files/8005.got.cif
#   From: 2010.05.17/outbox.cif.g08.bks.cpg/sg9_5_cif.got.tgz:8005.got - 2010.06.03 20:04:27.
