data_PCOD9140018
_publ_section_title
;
Structure prediction by ZEFSAII (Michael W. Deem and Ramdas Pophale) SiO2 
 PCOD9140018
Probable space group: C C
;
_chemical_formula_sum "Si O2"
_cell_formula_units_Z 32
_cell_length_a 12.556940
_cell_length_b 8.267111
_cell_length_c 20.962394
_cell_angle_alpha 90.000000
_cell_angle_beta 36.338379
_cell_angle_gamma 90.000000
_cell_volume 1289.453209
_symmetry_space_group_name_H-M "C C"
_symmetry_group_IT_number 9
_symmetry_cell_setting 'monoclinic'
loop_
_space_group_symop_operation_xyz
x,y,z
x,-y,1/2+z
1/2+x,1/2+y,z
1/2+x,1/2-y,1/2+z
loop_
_atom_site_type_symbol
_atom_site_label
_atom_site_fract_x
_atom_site_fract_y
_atom_site_fract_z
Si Si1 0.427390 0.170626 0.512470
Si Si2 0.644441 0.156637 0.901782
Si Si3 0.382041 0.654041 0.604732
Si Si4 0.727310 0.932640 0.047541
Si Si5 0.120037 0.220575 0.804256
Si Si6 0.567314 0.363108 0.814711
Si Si7 0.547679 0.226466 0.200480
Si Si8 0.482297 0.660896 0.123520
O O1 0.470374 0.278194 0.429981
O O2 0.213254 0.150194 0.611706
O O3 0.474593 0.252425 0.557214
O O4 0.549705 0.015235 0.443766
O O5 0.577402 0.262156 0.874602
O O6 0.857116 0.184226 0.794482
O O7 0.551555 0.232109 0.008917
O O8 0.337722 0.561231 0.560473
O O9 0.196262 0.749112 0.709420
O O10 0.456588 0.526957 0.620377
O O11 0.636367 0.754515 0.086398
O O12 0.580868 0.076796 0.134924
O O13 0.856309 0.924646 0.921537
O O14 0.071774 0.322786 0.764189
O O15 0.299815 0.291991 0.747022
O O16 0.162746 0.035885 0.767304
#
# Coordination Sequence:
#
# PCOD9140018 Si02
#       8
#     4   4   4   4   4   4   4   4
#     4  11  23  46  72 107 153 203 269 317 405 475
#     4  11  26  43  71 109 152 203 256 332 392 478
#     4  11  23  48  67 112 159 195 266 326 401 481
#     4  11  24  46  76 114 153 212 262 328 409 482
#     4  11  22  45  75 103 150 206 251 329 390 469
#     4  11  24  46  73 105 160 201 252 337 394 480
#     4  11  24  46  75 110 155 202 269 325 400 481
#     4  11  24  44  73 108 148 202 259 328 391 486
#
# _framework density 24.81672
#
# number of rings (size 3 to 8) (size 9 to 14) (size 15 to 20)
#    0.000    1.000    3.750    3.750    1.750    3.000 
#   13.500    0.000    0.000    0.000    0.000    0.000 
#    0.000    0.000    0.000    0.000    0.000    0.000 
#
# Total GULP energy -89181.614966 kJ/mol
# GULP energy per Si atom -5573.850935 kJ/mol
# Density = 2.476024 g / cm^3
# Si number density = 24.816720 Si / 1000 Ang^3
#
#
#
# Elastic Constant Matrix: (Units=GPa)
#
#
# Indices 1 2 3 4 5 6 
#
# 1 60.7373 15.6653 27.0710 0.0000 -6.7151 0.0000
# 2 15.6653 133.0544 64.4398 0.0000 0.3497 0.0000
# 3 27.0710 64.4398 191.1132 0.0000 -6.5882 0.0000
# 4 0.0000 0.0000 0.0000 57.0737 0.0000 4.4135
# 5 -6.7151 0.3497 -6.5882 0.0000 37.0636 0.0000
# 6 0.0000 0.0000 0.0000 4.4135 0.0000 25.7152
#
#
#
# Elastic Compliance Matrix: (Units=1/GPa)
#
#
# Indices 1 2 3 4 5 6 
#
# 1 0.017998 -0.001124 -0.002070 0.000000 0.002903 0.000000
# 2 -0.001124 0.009067 -0.002926 0.000000 -0.000809 0.000000
# 3 -0.002070 -0.002926 0.006540 0.000000 0.000815 0.000000
# 4 0.000000 0.000000 0.000000 0.017757 0.000000 -0.003048
# 5 0.002903 -0.000809 0.000815 0.000000 0.027659 0.000000
# 6 0.000000 0.000000 0.000000 -0.003048 0.000000 0.039411
#
#
# Mechanical properties :
#
#
# Convention : Reuss Voigt Hill
#
# Bulk Modulus (GPa) = 46.80522 66.58412 56.69467
# Shear Modulus (GPa) = 36.28585 42.48574 39.38580
#
# Velocity S-wave (km/s) = 3.82796 4.14210 3.98812
# Velocity P-wave (km/s) = 6.19992 7.05440 6.64092
#
# Compressibility (1/GPa) = 0.02136514
#
# Stress axis : x y z
#
# Youngs Moduli (GPa) = 55.56172 110.28668 152.89456
#
# Poissons Ratio (x) = 0.12396 0.31654
# Poissons Ratio (y) = 0.06245 0.44737
# Poissons Ratio (z) = 0.11503 0.32270
#
# Static dielectric constant tensor:
#      x y z
#    x 1.994350 0.000000 -0.021940 
#    y 0.000000 2.094070 0.000000 
#    z -0.021940 0.000000 2.052460 
# 
# From -- ./inp_files/35573.got.cif
#   From: 2010.05.17/outbox.cif.g08.bks.cpg/sg9_18_cif.got.tgz:35573.got - 2010.06.03 20:04:27.
