data_PCOD9140896
_publ_section_title
;
Structure prediction by ZEFSAII (Michael W. Deem and Ramdas Pophale) SiO2 
 PCOD9140896
Probable space group: C C
;
_chemical_formula_sum "Si O2"
_cell_formula_units_Z 28
_cell_length_a 20.173031
_cell_length_b 12.643165
_cell_length_c 5.528237
_cell_angle_alpha 90.000000
_cell_angle_beta 56.764338
_cell_angle_gamma 90.000000
_cell_volume 1179.341977
_symmetry_space_group_name_H-M "C C"
_symmetry_group_IT_number 9
_symmetry_cell_setting 'monoclinic'
loop_
_space_group_symop_operation_xyz
x,y,z
x,-y,1/2+z
1/2+x,1/2+y,z
1/2+x,1/2-y,1/2+z
loop_
_atom_site_type_symbol
_atom_site_label
_atom_site_fract_x
_atom_site_fract_y
_atom_site_fract_z
Si Si1 0.344610 0.432978 0.146510
Si Si2 0.225474 0.019993 0.384781
Si Si3 0.207681 0.744640 0.920369
Si Si4 0.187015 0.303809 0.961701
Si Si5 0.061979 0.556776 0.711771
Si Si6 0.434685 0.225984 0.966359
Si Si7 0.346602 0.173793 0.642527
O O1 0.343918 0.500000 0.397895
O O2 0.268718 0.352923 0.298294
O O3 0.419298 0.351807 0.997133
O O4 0.249671 0.141946 0.336387
O O5 0.180951 0.000000 0.723829
O O6 0.298615 0.937472 0.238500
O O7 0.158445 0.739918 0.774871
O O8 0.158445 0.739918 0.262812
O O9 0.278727 0.265920 0.778276
O O10 0.157020 0.423603 0.021690
O O11 0.040148 0.500000 0.505434
O O12 0.019553 0.670185 0.796623
O O13 0.396087 0.186686 0.788893
O O14 0.396086 0.186686 0.298220
#
# Coordination Sequence:
#
# PCOD9140896 Si02
#       7
#     4   4   4   4   4   4   4
#     4  12  24  39  65  97 134 179 236 288 359 412
#     4  12  20  34  61  99 144 166 224 286 359 413
#     4  12  23  40  65 105 142 179 231 312 349 423
#     4  12  23  45  67 101 147 185 241 292 364 426
#     4  12  30  51  75 109 150 200 237 297 383 446
#     4  12  26  47  68 103 145 188 243 299 363 435
#     4  12  22  42  73 108 142 185 238 306 361 421
#
# _framework density 23.742052999999999
#
# number of rings (size 3 to 8) (size 9 to 14) (size 15 to 20)
#    0.000    0.000    5.714    4.286    0.000    9.143 
#    0.000    0.000    6.286    0.000    0.000    0.000 
#    0.000    0.000    0.000    0.000    0.000    0.000 
#
# Total GULP energy -78159.261425 kJ/mol
# GULP energy per Si atom -5582.804387 kJ/mol
# Density = 2.368802 g / cm^3
# Si number density = 23.742053 Si / 1000 Ang^3
#
#
#
# Elastic Constant Matrix: (Units=GPa)
#
#
# Indices 1 2 3 4 5 6 
#
# 1 88.0123 55.1371 89.8819 0.0000 27.6895 0.0000
# 2 55.1371 166.2490 65.0552 0.0000 10.4949 0.0000
# 3 89.8819 65.0552 181.6702 0.0000 71.4101 0.0000
# 4 0.0000 0.0000 0.0000 47.1158 0.0000 4.5880
# 5 27.6895 10.4949 71.4101 0.0000 58.4098 0.0000
# 6 0.0000 0.0000 0.0000 4.5880 0.0000 42.7800
#
#
#
# Elastic Compliance Matrix: (Units=1/GPa)
#
#
# Indices 1 2 3 4 5 6 
#
# 1 0.025700 -0.003634 -0.013248 0.000000 0.004667 0.000000
# 2 -0.003634 0.007896 -0.002212 0.000000 0.003009 0.000000
# 3 -0.013248 -0.002212 0.019687 0.000000 -0.017391 0.000000
# 4 0.000000 0.000000 0.000000 0.021448 0.000000 -0.002300
# 5 0.004667 0.003009 -0.017391 0.000000 0.035630 0.000000
# 6 0.000000 0.000000 0.000000 -0.002300 0.000000 0.023622
#
#
# Mechanical properties :
#
#
# Convention : Reuss Voigt Hill
#
# Bulk Modulus (GPa) = 66.24815 95.11999 80.68407
# Shear Modulus (GPa) = 28.21606 44.71826 36.46716
#
# Velocity S-wave (km/s) = 3.45112 4.34464 3.92340
# Velocity P-wave (km/s) = 6.62149 8.08201 7.38793
#
# Compressibility (1/GPa) = 0.01509476
#
# Stress axis : x y z
#
# Youngs Moduli (GPa) = 38.91029 126.64600 50.79400
#
# Poissons Ratio (x) = 0.46022 0.67293
# Poissons Ratio (y) = 0.14140 0.11237
# Poissons Ratio (z) = 0.51549 0.28017
#
# Static dielectric constant tensor:
#      x y z
#    x 1.947850 0.000000 0.029600 
#    y 0.000000 1.923540 0.000000 
#    z 0.029600 0.000000 1.975830 
# 
# From -- ./inp_files/3157.got.cif
#   From: 2010.05.17/outbox.cif.g08.bks.cpg/sg9_2_cif.got.tgz:3157.got - 2010.06.03 20:04:27.
