data_PCOD9140401
_publ_section_title
;
Structure prediction by ZEFSAII (Michael W. Deem and Ramdas Pophale) SiO2 
 PCOD9140401
Probable space group: C C
;
_chemical_formula_sum "Si O2"
_cell_formula_units_Z 32
_cell_length_a 5.182100
_cell_length_b 22.262863
_cell_length_c 11.495594
_cell_angle_alpha 90.000000
_cell_angle_beta 99.799323
_cell_angle_gamma 90.000000
_cell_volume 1306.878296
_symmetry_space_group_name_H-M "C C"
_symmetry_group_IT_number 9
_symmetry_cell_setting 'monoclinic'
loop_
_space_group_symop_operation_xyz
x,y,z
x,-y,1/2+z
1/2+x,1/2+y,z
1/2+x,1/2-y,1/2+z
loop_
_atom_site_type_symbol
_atom_site_label
_atom_site_fract_x
_atom_site_fract_y
_atom_site_fract_z
Si Si1 0.733250 0.003854 0.805430
Si Si2 0.435537 0.078412 0.102961
Si Si3 0.178030 0.148953 0.521615
Si Si4 0.167298 0.709115 0.439542
Si Si5 0.649320 0.689045 0.097954
Si Si6 0.269975 0.020641 0.447251
Si Si7 0.225300 0.366565 0.400739
Si Si8 0.341224 0.224155 0.743060
O O1 0.611288 0.968114 0.687892
O O2 0.540668 0.986529 0.898201
O O3 0.027211 0.980248 0.841470
O O4 0.745353 0.076875 0.813405
O O5 0.316855 0.134633 0.163487
O O6 0.577492 0.108989 0.004254
O O7 0.220256 0.035346 0.028646
O O8 0.390041 0.186555 0.463570
O O9 0.264247 0.080758 0.520203
O O10 0.203606 0.174744 0.652619
O O11 0.886213 0.157670 0.450701
O O12 0.290154 0.756218 0.542657
O O13 0.150059 0.743504 0.317755
O O14 0.465907 0.722582 0.175584
O O15 0.488591 0.659270 0.978269
O O16 0.064221 0.312617 0.329575
#
# Coordination Sequence:
#
# PCOD9140401 Si02
#       8
#     4   4   4   4   4   4   4   4
#     4  11  26  44  77 106 140 201 238 304 385 422
#     4  11  25  47  75 108 149 191 252 305 371 447
#     4  11  26  46  69 105 146 189 250 308 360 453
#     4  11  25  46  67 107 146 190 250 306 364 445
#     4  11  25  46  73 106 149 193 250 309 366 452
#     4  11  25  49  70 109 144 187 248 310 361 444
#     4  11  24  50  70 108 155 190 248 313 361 454
#     4  11  24  44  73 103 145 207 238 301 394 423
#
# _framework density 24.485828999999999
#
# number of rings (size 3 to 8) (size 9 to 14) (size 15 to 20)
#    0.000    1.000    2.500    3.000    3.500    5.000 
#    2.250    6.250    0.000    0.000    0.000    0.000 
#    0.000    0.000    0.000    0.000    0.000    0.000 
#
# Total GULP energy -89589.842591 kJ/mol
# GULP energy per Si atom -5599.365162 kJ/mol
# Density = 2.443010 g / cm^3
# Si number density = 24.485829 Si / 1000 Ang^3
#
#
#
# Elastic Constant Matrix: (Units=GPa)
#
#
# Indices 1 2 3 4 5 6 
#
# 1 45.1326 13.0427 -0.1414 0.0000 1.6843 0.0000
# 2 13.0427 125.5998 23.0287 0.0000 -0.5120 0.0000
# 3 -0.1414 23.0287 57.7839 0.0000 3.9454 0.0000
# 4 0.0000 0.0000 0.0000 41.2264 0.0000 9.0964
# 5 1.6843 -0.5120 3.9454 0.0000 36.4350 0.0000
# 6 0.0000 0.0000 0.0000 9.0964 0.0000 31.5382
#
#
#
# Elastic Compliance Matrix: (Units=1/GPa)
#
#
# Indices 1 2 3 4 5 6 
#
# 1 0.022959 -0.002605 0.001178 0.000000 -0.001226 0.000000
# 2 -0.002605 0.008894 -0.003594 0.000000 0.000635 0.000000
# 3 0.001178 -0.003594 0.018888 0.000000 -0.002150 0.000000
# 4 0.000000 0.000000 0.000000 0.025905 0.000000 -0.007472
# 5 -0.001226 0.000635 -0.002150 0.000000 0.027745 0.000000
# 6 0.000000 0.000000 0.000000 -0.007472 0.000000 0.033863
#
#
# Mechanical properties :
#
#
# Convention : Reuss Voigt Hill
#
# Bulk Modulus (GPa) = 24.57091 33.37515 28.97303
# Shear Modulus (GPa) = 30.89054 34.67900 32.78477
#
# Velocity S-wave (km/s) = 3.55571 3.76744 3.66311
# Velocity P-wave (km/s) = 5.18787 5.70831 5.45430
#
# Compressibility (1/GPa) = 0.04069854
#
# Stress axis : x y z
#
# Youngs Moduli (GPa) = 43.55549 112.43650 52.94375
#
# Poissons Ratio (x) = 0.29292 -0.06237
# Poissons Ratio (y) = 0.11347 0.19029
# Poissons Ratio (z) = -0.05131 0.40412
#
# Static dielectric constant tensor:
#      x y z
#    x 1.932030 0.000000 0.014240 
#    y 0.000000 1.950410 0.000000 
#    z 0.014240 0.000000 1.979610 
# 
# From -- ./inp_files/13551.got.cif
#   From: 2010.05.17/outbox.cif.g08.bks.cpg/sg9_7_cif.got.tgz:13551.got - 2010.06.03 20:04:27.
