data_PCOD9140299
_publ_section_title
;
Structure prediction by ZEFSAII (Michael W. Deem and Ramdas Pophale) SiO2 
 PCOD9140299
Probable space group: C C
;
_chemical_formula_sum "Si O2"
_cell_formula_units_Z 32
_cell_length_a 8.711734
_cell_length_b 12.347677
_cell_length_c 16.560524
_cell_angle_alpha 90.000000
_cell_angle_beta 62.347529
_cell_angle_gamma 90.000000
_cell_volume 1577.935636
_symmetry_space_group_name_H-M "C C"
_symmetry_group_IT_number 9
_symmetry_cell_setting 'monoclinic'
loop_
_space_group_symop_operation_xyz
x,y,z
x,-y,1/2+z
1/2+x,1/2+y,z
1/2+x,1/2-y,1/2+z
loop_
_atom_site_type_symbol
_atom_site_label
_atom_site_fract_x
_atom_site_fract_y
_atom_site_fract_z
Si Si1 0.139200 0.939739 0.921220
Si Si2 0.143691 0.670213 0.482985
Si Si3 0.496739 0.010051 0.906863
Si Si4 0.065867 0.298700 0.503145
Si Si5 0.502896 0.638360 0.298301
Si Si6 0.308060 0.483442 0.713440
Si Si7 0.388650 0.627124 0.029771
Si Si8 0.234853 0.703898 0.645561
O O1 0.304736 0.996189 0.920230
O O2 0.142848 0.910236 0.826042
O O3 0.109914 0.824801 0.970972
O O4 0.978831 0.019744 0.973378
O O5 0.329661 0.668924 0.391720
O O6 0.174429 0.665152 0.571526
O O7 0.036896 0.570007 0.471899
O O8 0.030267 0.777196 0.493487
O O9 0.625529 0.976004 0.803821
O O10 0.540223 0.128886 0.929662
O O11 0.222214 0.344429 0.517520
O O12 0.883345 0.293318 0.593980
O O13 0.448508 0.547695 0.246545
O O14 0.580030 0.740867 0.232603
O O15 0.331577 0.399569 0.634797
O O16 0.314698 0.603468 0.675027
#
# Coordination Sequence:
#
# PCOD9140299 Si02
#       8
#     4   4   4   4   4   4   4   4
#     4  12  25  46  70 102 138 188 231 285 358 414
#     4  11  23  48  74 104 142 189 232 292 358 415
#     4  11  26  46  73 101 143 188 234 288 357 418
#     4  12  25  46  73 101 140 185 236 286 353 422
#     4  11  25  44  67 104 142 183 238 289 347 425
#     4  11  24  44  68 104 143 178 236 295 344 416
#     4  12  24  46  73 103 143 185 235 296 350 419
#     4  12  24  44  74 101 141 184 234 291 355 415
#
# _framework density 20.279661999999998
#
# number of rings (size 3 to 8) (size 9 to 14) (size 15 to 20)
#    0.000    0.500    5.000    3.750    3.500    0.000 
#    0.000    0.000    2.750    0.000    0.000    0.000 
#    0.000    0.000    0.000    0.000    0.000    0.000 
#
# Total GULP energy -89494.225717 kJ/mol
# GULP energy per Si atom -5593.389107 kJ/mol
# Density = 2.023350 g / cm^3
# Si number density = 20.279662 Si / 1000 Ang^3
#
#
#
# Elastic Constant Matrix: (Units=GPa)
#
#
# Indices 1 2 3 4 5 6 
#
# 1 108.1103 20.5731 39.5451 0.0000 18.5380 0.0000
# 2 20.5731 74.2948 26.5250 0.0000 6.3744 0.0000
# 3 39.5451 26.5250 100.8367 0.0000 21.5767 0.0000
# 4 0.0000 0.0000 0.0000 25.4278 0.0000 -1.9431
# 5 18.5380 6.3744 21.5767 0.0000 23.5189 0.0000
# 6 0.0000 0.0000 0.0000 -1.9431 0.0000 38.7245
#
#
#
# Elastic Compliance Matrix: (Units=1/GPa)
#
#
# Indices 1 2 3 4 5 6 
#
# 1 0.011655 -0.001697 -0.002808 0.000000 -0.006150 0.000000
# 2 -0.001697 0.015108 -0.003383 0.000000 0.000346 0.000000
# 3 -0.002808 -0.003383 0.013983 0.000000 -0.009698 0.000000
# 4 0.000000 0.000000 0.000000 0.039478 0.000000 0.001981
# 5 -0.006150 0.000346 -0.009698 0.000000 0.056170 0.000000
# 6 0.000000 0.000000 0.000000 0.001981 0.000000 0.025923
#
#
# Mechanical properties :
#
#
# Convention : Reuss Voigt Hill
#
# Bulk Modulus (GPa) = 40.04819 50.72536 45.38678
# Shear Modulus (GPa) = 26.82170 30.64080 28.73125
#
# Velocity S-wave (km/s) = 3.64069 3.89126 3.76806
# Velocity P-wave (km/s) = 6.12076 6.72729 6.43118
#
# Compressibility (1/GPa) = 0.02496992
#
# Stress axis : x y z
#
# Youngs Moduli (GPa) = 85.80368 66.19099 71.51363
#
# Poissons Ratio (x) = 0.11233 0.20082
# Poissons Ratio (y) = 0.14561 0.24191
# Poissons Ratio (z) = 0.24095 0.22390
#
# Static dielectric constant tensor:
#      x y z
#    x 1.702910 0.000000 -0.000990 
#    y 0.000000 1.716910 0.000000 
#    z -0.000990 0.000000 1.724470 
# 
# From -- ./inp_files/22703.got.cif
#   From: 2010.05.17/outbox.cif.g08.bks.cpg/sg9_12_cif.got.tgz:22703.got - 2010.06.03 20:04:27.
