data_PCOD9140037
_publ_section_title
;
Structure prediction by ZEFSAII (Michael W. Deem and Ramdas Pophale) SiO2 
 PCOD9140037
Probable space group: C C
;
_chemical_formula_sum "Si O2"
_cell_formula_units_Z 32
_cell_length_a 16.365386
_cell_length_b 13.960001
_cell_length_c 11.186756
_cell_angle_alpha 90.000000
_cell_angle_beta 31.453899
_cell_angle_gamma 90.000000
_cell_volume 1333.614231
_symmetry_space_group_name_H-M "C C"
_symmetry_group_IT_number 9
_symmetry_cell_setting 'monoclinic'
loop_
_space_group_symop_operation_xyz
x,y,z
x,-y,1/2+z
1/2+x,1/2+y,z
1/2+x,1/2-y,1/2+z
loop_
_atom_site_type_symbol
_atom_site_label
_atom_site_fract_x
_atom_site_fract_y
_atom_site_fract_z
Si Si1 0.062890 0.294185 0.766820
Si Si2 0.255734 0.866677 0.049308
Si Si3 0.812505 0.693085 0.926693
Si Si4 0.765326 0.105750 0.820839
Si Si5 0.055356 0.556886 0.480523
Si Si6 0.455485 0.364804 0.842329
Si Si7 0.062994 0.055790 0.590871
Si Si8 0.828986 0.453719 0.596348
O O1 0.099305 0.191350 0.780493
O O2 0.148292 0.323062 0.535441
O O3 0.113520 0.374343 0.800580
O O4 0.884019 0.298470 0.948881
O O5 0.199416 0.883062 0.983776
O O6 0.333414 0.968069 0.985144
O O7 0.627748 0.682660 0.136686
O O8 0.835538 0.650248 0.031610
O O9 0.865713 0.802485 0.855368
O O10 0.925701 0.625120 0.706449
O O11 0.842638 0.134705 0.598174
O O12 0.912993 0.105410 0.725283
O O13 0.679694 0.001871 0.905982
O O14 0.962561 0.474360 0.524227
O O15 0.499787 0.473263 0.755271
O O16 0.160376 0.015350 0.358401
#
# Coordination Sequence:
#
# PCOD9140037 Si02
#       8
#     4   4   4   4   4   4   4   4
#     4  11  26  42  75 107 141 195 248 317 356 457
#     4  11  24  45  69 106 143 187 253 302 383 429
#     4  12  27  48  71 112 145 199 239 310 369 443
#     4  12  26  46  72 110 144 199 248 302 369 444
#     4  11  25  47  74 104 148 193 246 297 380 435
#     4  12  29  46  71 111 148 192 248 303 374 438
#     4  12  23  46  72  99 147 192 239 303 369 441
#     4  11  22  46  74  95 148 193 233 298 378 437
#
# _framework density 23.994945999999999
#
# number of rings (size 3 to 8) (size 9 to 14) (size 15 to 20)
#    0.000    0.500    3.750    3.750    7.000    2.000 
#    0.000    0.000    0.000    0.000    0.000    0.000 
#    0.000    0.000    0.000    0.000    0.000    0.000 
#
# Total GULP energy -89172.798814 kJ/mol
# GULP energy per Si atom -5573.299926 kJ/mol
# Density = 2.394033 g / cm^3
# Si number density = 23.994946 Si / 1000 Ang^3
#
#
#
# Elastic Constant Matrix: (Units=GPa)
#
#
# Indices 1 2 3 4 5 6 
#
# 1 57.2112 0.2984 -9.2414 0.0000 -9.4897 0.0000
# 2 0.2984 65.9067 1.2975 0.0000 5.3008 0.0000
# 3 -9.2414 1.2975 70.2931 0.0000 16.3064 0.0000
# 4 0.0000 0.0000 0.0000 25.8128 0.0000 -7.1313
# 5 -9.4897 5.3008 16.3064 0.0000 29.4704 0.0000
# 6 0.0000 0.0000 0.0000 -7.1313 0.0000 19.6182
#
#
#
# Elastic Compliance Matrix: (Units=1/GPa)
#
#
# Indices 1 2 3 4 5 6 
#
# 1 0.018574 -0.000543 0.001195 0.000000 0.005417 0.000000
# 2 -0.000543 0.015422 0.000376 0.000000 -0.003157 0.000000
# 3 0.001195 0.000376 0.016409 0.000000 -0.008762 0.000000
# 4 0.000000 0.000000 0.000000 0.043065 0.000000 0.015655
# 5 0.005417 -0.003157 -0.008762 0.000000 0.041093 0.000000
# 6 0.000000 0.000000 0.000000 0.015655 0.000000 0.056663
#
#
# Mechanical properties :
#
#
# Convention : Reuss Voigt Hill
#
# Bulk Modulus (GPa) = 19.06186 19.79110 19.42648
# Shear Modulus (GPa) = 24.19472 28.38406 26.28939
#
# Velocity S-wave (km/s) = 3.17886 3.44309 3.31361
# Velocity P-wave (km/s) = 4.62978 4.90637 4.77008
#
# Compressibility (1/GPa) = 0.05246077
#
# Stress axis : x y z
#
# Youngs Moduli (GPa) = 53.83996 64.84265 60.94239
#
# Poissons Ratio (x) = 0.03523 -0.07284
# Poissons Ratio (y) = 0.02925 -0.02293
# Poissons Ratio (z) = -0.06435 -0.02440
#
# Static dielectric constant tensor:
#      x y z
#    x 1.939990 0.000000 0.077140 
#    y 0.000000 2.311150 0.000000 
#    z 0.077140 0.000000 2.038100 
# 
# From -- ./inp_files/7645.got.cif
#   From: 2010.05.17/outbox.cif.g08.bks.cpg/sg9_4_cif.got.tgz:7645.got - 2010.06.03 20:04:27.
