data_PCOD9140122
_publ_section_title
;
Structure prediction by ZEFSAII (Michael W. Deem and Ramdas Pophale) SiO2 
 PCOD9140122
Probable space group: C C
;
_chemical_formula_sum "Si O2"
_cell_formula_units_Z 24
_cell_length_a 9.121958
_cell_length_b 5.217712
_cell_length_c 27.718437
_cell_angle_alpha 90.000000
_cell_angle_beta 138.742758
_cell_angle_gamma 90.000000
_cell_volume 869.986973
_symmetry_space_group_name_H-M "C C"
_symmetry_group_IT_number 9
_symmetry_cell_setting 'monoclinic'
loop_
_space_group_symop_operation_xyz
x,y,z
x,-y,1/2+z
1/2+x,1/2+y,z
1/2+x,1/2-y,1/2+z
loop_
_atom_site_type_symbol
_atom_site_label
_atom_site_fract_x
_atom_site_fract_y
_atom_site_fract_z
Si Si1 0.716760 0.109469 0.382950
Si Si2 0.861366 0.711204 0.018150
Si Si3 0.940378 0.786614 0.852956
Si Si4 0.310395 0.371826 0.240107
Si Si5 0.651776 0.286016 0.572465
Si Si6 0.127558 0.119950 0.704179
O O1 0.941923 0.179156 0.410145
O O2 0.542447 0.219172 0.300400
O O3 0.712734 0.247200 0.433441
O O4 0.667221 0.813332 0.383968
O O5 0.986869 0.443576 0.044140
O O6 0.728140 0.727867 0.035168
O O7 0.038217 0.944985 0.057008
O O8 0.777814 0.571930 0.788872
O O9 0.821426 0.025859 0.798310
O O10 0.254538 0.655619 0.205181
O O11 0.124535 0.163355 0.181290
O O12 0.887343 0.229428 0.656979
#
# Coordination Sequence:
#
# PCOD9140122 Si02
#       6
#     4   4   4   4   4   4
#     4  11  23  43  66 100 135 174 230 280 347 413
#     4  12  29  45  76  98 148 187 241 280 353 412
#     4   9  23  39  69  96 131 171 218 289 345 394
#     4   9  21  41  66 101 125 177 210 298 334 404
#     4  12  27  49  70 106 138 197 230 293 338 429
#     4   9  21  43  67  99 135 172 233 276 353 402
#
# _framework density 27.586618999999999
#
# number of rings (size 3 to 8) (size 9 to 14) (size 15 to 20)
#    1.000    0.667    0.000    3.000    4.667    6.667 
#    0.000    0.000    0.000    0.000    0.000    0.000 
#    0.000    0.000    0.000    0.000    0.000    0.000 
#
# Total GULP energy -66955.840034 kJ/mol
# GULP energy per Si atom -5579.653336 kJ/mol
# Density = 2.752383 g / cm^3
# Si number density = 27.586619 Si / 1000 Ang^3
#
#
#
# Elastic Constant Matrix: (Units=GPa)
#
#
# Indices 1 2 3 4 5 6 
#
# 1 145.2420 55.0841 19.9046 0.0000 -33.3717 0.0000
# 2 55.0841 213.0669 19.3999 0.0000 5.4246 0.0001
# 3 19.9046 19.3999 89.7442 0.0002 7.8725 0.0000
# 4 0.0000 0.0000 0.0002 37.6175 0.0000 14.1531
# 5 -33.3717 5.4246 7.8725 0.0000 44.8552 0.0000
# 6 0.0000 0.0001 0.0000 14.1531 0.0000 40.2589
#
#
#
# Elastic Compliance Matrix: (Units=1/GPa)
#
#
# Indices 1 2 3 4 5 6 
#
# 1 0.010095 -0.002601 -0.002400 0.000000 0.008247 0.000000
# 2 -0.002601 0.005465 -0.000383 0.000000 -0.002529 0.000000
# 3 -0.002400 -0.000383 0.012097 0.000000 -0.003862 0.000000
# 4 0.000000 0.000000 0.000000 0.030635 0.000000 -0.010770
# 5 0.008247 -0.002529 -0.003862 0.000000 0.029413 0.000000
# 6 0.000000 0.000000 0.000000 -0.010770 0.000000 0.028625
#
#
# Mechanical properties :
#
#
# Convention : Reuss Voigt Hill
#
# Bulk Modulus (GPa) = 59.21028 70.75892 64.98460
# Shear Modulus (GPa) = 37.67077 48.12397 42.89737
#
# Velocity S-wave (km/s) = 3.69934 4.18121 3.94763
# Velocity P-wave (km/s) = 6.30530 7.00111 6.66229
#
# Compressibility (1/GPa) = 0.01688896
#
# Stress axis : x y z
#
# Youngs Moduli (GPa) = 99.05521 182.97869 82.66763
#
# Poissons Ratio (x) = 0.47600 0.19841
# Poissons Ratio (y) = 0.25768 0.03163
# Poissons Ratio (z) = 0.23775 0.07000
#
# Static dielectric constant tensor:
#      x y z
#    x 2.356970 0.000000 0.021000 
#    y 0.000000 2.317320 0.000000 
#    z 0.021000 0.000000 2.275210 
# 
# From -- ./inp_files/32257.got.cif
#   From: 2010.05.17/outbox.cif.g08.bks.cpg/sg9_17_cif.got.tgz:32257.got - 2010.06.03 20:04:27.
