data_PCOD9140679
_publ_section_title
;
Structure prediction by ZEFSAII (Michael W. Deem and Ramdas Pophale) SiO2 
 PCOD9140679
Probable space group: C C
;
_chemical_formula_sum "Si O2"
_cell_formula_units_Z 32
_cell_length_a 5.919629
_cell_length_b 29.757713
_cell_length_c 9.444303
_cell_angle_alpha 90.000000
_cell_angle_beta 56.310982
_cell_angle_gamma 90.000000
_cell_volume 1384.263711
_symmetry_space_group_name_H-M "C C"
_symmetry_group_IT_number 9
_symmetry_cell_setting 'monoclinic'
loop_
_space_group_symop_operation_xyz
x,y,z
x,-y,1/2+z
1/2+x,1/2+y,z
1/2+x,1/2-y,1/2+z
loop_
_atom_site_type_symbol
_atom_site_label
_atom_site_fract_x
_atom_site_fract_y
_atom_site_fract_z
Si Si1 0.597930 0.200975 0.242960
Si Si2 0.305413 0.394083 0.283901
Si Si3 0.346443 0.138658 0.562916
Si Si4 0.616034 0.419997 0.688386
Si Si5 0.235756 0.452536 0.555975
Si Si6 0.646456 0.704374 0.875775
Si Si7 0.675992 0.058895 0.558570
Si Si8 0.365576 0.171867 0.054798
O O1 0.534971 0.167131 0.393217
O O2 0.611691 0.251020 0.297686
O O3 0.364214 0.192745 0.209527
O O4 0.864002 0.193705 0.053729
O O5 0.542759 0.369756 0.115196
O O6 0.404029 0.427811 0.372714
O O7 0.141481 0.424068 0.230524
O O8 0.132575 0.355360 0.416098
O O9 0.284837 0.166040 0.730066
O O10 0.464438 0.088923 0.544608
O O11 0.418808 0.443285 0.635133
O O12 0.647287 0.368531 0.628924
O O13 0.927470 0.433998 0.626567
O O14 0.455979 0.426861 0.888557
O O15 0.185547 0.505383 0.555362
O O16 0.834326 0.709807 0.947801
#
# Coordination Sequence:
#
# PCOD9140679 Si02
#       8
#     4   4   4   4   4   4   4   4
#     4  12  27  49  77 113 154 205 264 343 405 493
#     4  11  25  46  75 106 155 207 264 330 399 485
#     4  12  26  47  78 111 153 210 265 325 413 480
#     4  11  27  49  76 113 155 209 266 328 398 482
#     4  11  28  47  76 112 161 211 265 336 399 465
#     4  12  25  50  74 109 158 195 269 333 403 486
#     4  12  27  44  75 112 155 207 268 328 397 486
#     4  11  25  48  77 108 153 210 259 335 408 479
#
# _framework density 23.116985
#
# number of rings (size 3 to 8) (size 9 to 14) (size 15 to 20)
#    0.000    0.500    3.750    3.000   12.250    1.000 
#    2.250    0.000    0.000    0.000    0.000    0.000 
#    0.000    0.000    0.000    0.000    0.000    0.000 
#
# Total GULP energy -89188.929382 kJ/mol
# GULP energy per Si atom -5574.308086 kJ/mol
# Density = 2.306437 g / cm^3
# Si number density = 23.116985 Si / 1000 Ang^3
#
#
#
# Elastic Constant Matrix: (Units=GPa)
#
#
# Indices 1 2 3 4 5 6 
#
# 1 79.6456 61.1015 44.8810 0.0000 2.2887 0.0000
# 2 61.1015 121.6364 40.5323 0.0000 6.5043 0.0000
# 3 44.8810 40.5323 121.2263 0.0000 0.2636 0.0000
# 4 0.0000 0.0000 0.0000 6.2842 0.0000 1.7775
# 5 2.2887 6.5043 0.2636 0.0000 40.9206 0.0000
# 6 0.0000 0.0000 0.0000 1.7775 0.0000 20.3704
#
#
#
# Elastic Compliance Matrix: (Units=1/GPa)
#
#
# Indices 1 2 3 4 5 6 
#
# 1 0.023061 -0.009853 -0.005244 0.000000 0.000310 0.000000
# 2 -0.009853 0.013549 -0.000879 0.000000 -0.001597 0.000000
# 3 -0.005244 -0.000879 0.010483 0.000000 0.000365 0.000000
# 4 0.000000 0.000000 0.000000 0.163157 0.000000 -0.014237
# 5 0.000310 -0.001597 0.000365 0.000000 0.024672 0.000000
# 6 0.000000 0.000000 0.000000 -0.014237 0.000000 0.050333
#
#
# Mechanical properties :
#
#
# Convention : Reuss Voigt Hill
#
# Bulk Modulus (GPa) = 66.04386 68.39308 67.21847
# Shear Modulus (GPa) = 15.51571 25.24795 20.38183
#
# Velocity S-wave (km/s) = 2.59353 3.30840 2.97253
# Velocity P-wave (km/s) = 6.13188 6.65161 6.39703
#
# Compressibility (1/GPa) = 0.01514145
#
# Stress axis : x y z
#
# Youngs Moduli (GPa) = 43.36369 73.80606 95.38831
#
# Poissons Ratio (x) = 0.72723 0.50020
# Poissons Ratio (y) = 0.42727 0.08382
# Poissons Ratio (z) = 0.22739 0.06486
#
# Static dielectric constant tensor:
#      x y z
#    x 2.052230 0.000000 -0.032510 
#    y 0.000000 1.924410 0.000000 
#    z -0.032510 0.000000 1.918490 
# 
# From -- ./inp_files/4472.got.cif
#   From: 2010.05.17/outbox.cif.g08.bks.cpg/sg9_3_cif.got.tgz:4472.got - 2010.06.03 20:04:27.
