data_PCOD9140726
_publ_section_title
;
Structure prediction by ZEFSAII (Michael W. Deem and Ramdas Pophale) SiO2 
 PCOD9140726
Probable space group: C C
;
_chemical_formula_sum "Si O2"
_cell_formula_units_Z 20
_cell_length_a 11.676720
_cell_length_b 10.174774
_cell_length_c 9.012408
_cell_angle_alpha 90.000000
_cell_angle_beta 44.077077
_cell_angle_gamma 90.000000
_cell_volume 744.838185
_symmetry_space_group_name_H-M "C C"
_symmetry_group_IT_number 9
_symmetry_cell_setting 'monoclinic'
loop_
_space_group_symop_operation_xyz
x,y,z
x,-y,1/2+z
1/2+x,1/2+y,z
1/2+x,1/2-y,1/2+z
loop_
_atom_site_type_symbol
_atom_site_label
_atom_site_fract_x
_atom_site_fract_y
_atom_site_fract_z
Si Si1 0.062580 0.281088 0.988530
Si Si2 0.319847 0.961437 0.062057
Si Si3 0.119117 0.646323 0.743080
Si Si4 0.872068 0.036966 0.111125
Si Si5 0.627669 0.357245 0.965810
O O1 0.214374 0.374274 0.800921
O O2 0.095612 0.253202 0.130000
O O3 0.899851 0.366720 0.110175
O O4 0.014125 0.146041 0.951187
O O5 0.212820 0.068464 0.248068
O O6 0.240782 0.877593 0.002771
O O7 0.474629 0.042056 0.854201
O O8 0.291596 0.568638 0.573753
O O9 0.101839 0.712748 0.921489
O O10 0.957903 0.936468 0.147204
#
# Coordination Sequence:
#
# PCOD9140726 Si02
#       5
#     4   4   4   4   4
#     4  11  25  49  76 111 157 206 255 323 383 464
#     4  11  25  48  74 111 156 201 259 319 384 463
#     4  11  26  48  76 111 154 203 255 319 387 461
#     4  11  27  46  77 112 154 203 264 312 391 454
#     4  12  25  47  79 111 155 205 255 321 389 458
#
# _framework density 26.851469000000002
#
# number of rings (size 3 to 8) (size 9 to 14) (size 15 to 20)
#    0.000    0.800    2.000    3.600    8.400    3.200 
#   10.800    0.000    0.000    0.000    0.000    0.000 
#    0.000    0.000    0.000    0.000    0.000    0.000 
#
# Total GULP energy -55917.669986 kJ/mol
# GULP energy per Si atom -5591.766999 kJ/mol
# Density = 2.679035 g / cm^3
# Si number density = 26.851469 Si / 1000 Ang^3
#
#
#
# Elastic Constant Matrix: (Units=GPa)
#
#
# Indices 1 2 3 4 5 6 
#
# 1 221.5735 81.9994 59.6535 0.0000 11.6048 0.0000
# 2 81.9994 104.0283 22.6370 0.0000 4.9755 0.0000
# 3 59.6535 22.6370 54.6856 0.0000 6.7965 0.0000
# 4 0.0000 0.0000 0.0000 41.3735 0.0000 -2.6549
# 5 11.6048 4.9755 6.7965 0.0000 38.0289 0.0000
# 6 0.0000 0.0000 0.0000 -2.6549 0.0000 56.9623
#
#
#
# Elastic Compliance Matrix: (Units=1/GPa)
#
#
# Indices 1 2 3 4 5 6 
#
# 1 0.008225 -0.004965 -0.006837 0.000000 -0.000638 0.000000
# 2 -0.004965 0.013575 -0.000175 0.000000 -0.000230 0.000000
# 3 -0.006837 -0.000175 0.026136 0.000000 -0.002562 0.000000
# 4 0.000000 0.000000 0.000000 0.024243 0.000000 0.001130
# 5 -0.000638 -0.000230 -0.002562 0.000000 0.026978 0.000000
# 6 0.000000 0.000000 0.000000 0.001130 0.000000 0.017608
#
#
# Mechanical properties :
#
#
# Convention : Reuss Voigt Hill
#
# Bulk Modulus (GPa) = 41.69942 78.76301 60.23121
# Shear Modulus (GPa) = 33.62171 41.67279 37.64725
#
# Velocity S-wave (km/s) = 3.54239 3.94378 3.74847
# Velocity P-wave (km/s) = 5.68285 7.08057 6.41986
#
# Compressibility (1/GPa) = 0.02398115
#
# Stress axis : x y z
#
# Youngs Moduli (GPa) = 121.58414 73.66338 38.26163
#
# Poissons Ratio (x) = 0.36572 0.26161
# Poissons Ratio (y) = 0.60363 0.00670
# Poissons Ratio (z) = 0.83133 0.01291
#
# Static dielectric constant tensor:
#      x y z
#    x 2.061400 0.000000 -0.060220 
#    y 0.000000 2.143990 0.000000 
#    z -0.060220 0.000000 2.126960 
# 
# From -- ./inp_files/4744.got.cif
#   From: 2010.05.17/outbox.cif.g08.bks.cpg/sg9_3_cif.got.tgz:4744.got - 2010.06.03 20:04:27.
