data_PCOD9140048
_publ_section_title
;
Structure prediction by ZEFSAII (Michael W. Deem and Ramdas Pophale) SiO2 
 PCOD9140048
Probable space group: C C
;
_chemical_formula_sum "Si O2"
_cell_formula_units_Z 24
_cell_length_a 5.944909
_cell_length_b 17.663448
_cell_length_c 10.865149
_cell_angle_alpha 90.000000
_cell_angle_beta 55.276418
_cell_angle_gamma 90.000000
_cell_volume 937.735742
_symmetry_space_group_name_H-M "C C"
_symmetry_group_IT_number 9
_symmetry_cell_setting 'monoclinic'
loop_
_space_group_symop_operation_xyz
x,y,z
x,-y,1/2+z
1/2+x,1/2+y,z
1/2+x,1/2-y,1/2+z
loop_
_atom_site_type_symbol
_atom_site_label
_atom_site_fract_x
_atom_site_fract_y
_atom_site_fract_z
Si Si1 0.605580 0.208068 0.193060
Si Si2 0.564044 0.367067 0.855912
Si Si3 0.200396 0.218828 0.923010
Si Si4 0.586340 0.632634 0.626131
Si Si5 0.040231 0.435593 0.327675
Si Si6 0.571990 0.958915 0.034346
O O1 0.572687 0.244620 0.338658
O O2 0.532892 0.279268 0.132352
O O3 0.381218 0.146389 0.224328
O O4 0.930040 0.194809 0.083843
O O5 0.406190 0.286125 0.900006
O O6 0.583828 0.395331 0.989097
O O7 0.350200 0.430526 0.877636
O O8 0.367865 0.141045 0.860308
O O9 0.877907 0.614964 0.591389
O O10 0.342589 0.592629 0.772231
O O11 0.069918 0.476196 0.182726
O O12 0.942979 0.481888 0.477897
#
# Coordination Sequence:
#
# PCOD9140048 Si02
#       6
#     4   4   4   4   4   4
#     4  12  22  42  76 112 148 195 256 325 391 452
#     4  11  23  44  76 107 154 196 251 325 390 453
#     4  12  24  45  75 113 152 197 261 324 386 463
#     4  11  22  47  72 104 157 193 254 326 382 451
#     4  11  26  49  80 109 157 208 260 317 391 471
#     4  11  25  51  77 111 158 209 256 321 390 472
#
# _framework density 25.593564000000001
#
# number of rings (size 3 to 8) (size 9 to 14) (size 15 to 20)
#    0.000    0.667    6.667    1.000    0.000    2.667 
#    9.000    1.667    0.000    0.000    0.000    0.000 
#    0.000    0.000    0.000    0.000    0.000    0.000 
#
# Total GULP energy -66915.055164 kJ/mol
# GULP energy per Si atom -5576.254597 kJ/mol
# Density = 2.553531 g / cm^3
# Si number density = 25.593564 Si / 1000 Ang^3
#
#
#
# Elastic Constant Matrix: (Units=GPa)
#
#
# Indices 1 2 3 4 5 6 
#
# 1 86.3089 40.9972 32.3678 0.0000 -8.1329 0.0000
# 2 40.9972 106.6464 34.0119 0.0000 -4.0675 0.0000
# 3 32.3678 34.0119 95.6929 0.0000 -9.6691 0.0000
# 4 0.0000 0.0000 0.0000 31.4582 0.0000 -4.6235
# 5 -8.1329 -4.0675 -9.6691 0.0000 47.5604 0.0000
# 6 0.0000 0.0000 0.0000 -4.6235 0.0000 31.5158
#
#
#
# Elastic Compliance Matrix: (Units=1/GPa)
#
#
# Indices 1 2 3 4 5 6 
#
# 1 0.015222 -0.004738 -0.003311 0.000000 0.001525 0.000000
# 2 -0.004738 0.012051 -0.002714 0.000000 -0.000331 0.000000
# 3 -0.003311 -0.002714 0.012715 0.000000 0.001787 0.000000
# 4 0.000000 0.000000 0.000000 0.032489 0.000000 0.004766
# 5 0.001525 -0.000331 0.001787 0.000000 0.021622 0.000000
# 6 0.000000 0.000000 0.000000 0.004766 0.000000 0.032429
#
#
# Mechanical properties :
#
#
# Convention : Reuss Voigt Hill
#
# Bulk Modulus (GPa) = 54.16292 55.93355 55.04823
# Shear Modulus (GPa) = 32.42382 34.19162 33.30772
#
# Velocity S-wave (km/s) = 3.56318 3.65902 3.61142
# Velocity P-wave (km/s) = 6.17551 6.30502 6.24060
#
# Compressibility (1/GPa) = 0.01846282
#
# Stress axis : x y z
#
# Youngs Moduli (GPa) = 65.69439 82.98048 78.64572
#
# Poissons Ratio (x) = 0.39313 0.26038
# Poissons Ratio (y) = 0.31123 0.21347
# Poissons Ratio (z) = 0.21750 0.22523
#
# Static dielectric constant tensor:
#      x y z
#    x 2.131270 0.000000 -0.033750 
#    y 0.000000 1.982460 0.000000 
#    z -0.033750 0.000000 2.161160 
# 
# From -- ./inp_files/3678.got.cif
#   From: 2010.05.17/outbox.cif.g08.bks.cpg/sg9_2_cif.got.tgz:3678.got - 2010.06.03 20:04:27.
