data_PCOD9140775
_publ_section_title
;
Structure prediction by ZEFSAII (Michael W. Deem and Ramdas Pophale) SiO2 
 PCOD9140775
Probable space group: C C
;
_chemical_formula_sum "Si O2"
_cell_formula_units_Z 28
_cell_length_a 9.409841
_cell_length_b 14.004226
_cell_length_c 14.719174
_cell_angle_alpha 90.000000
_cell_angle_beta 142.937290
_cell_angle_gamma 90.000000
_cell_volume 1169.009207
_symmetry_space_group_name_H-M "C C"
_symmetry_group_IT_number 9
_symmetry_cell_setting 'monoclinic'
loop_
_space_group_symop_operation_xyz
x,y,z
x,-y,1/2+z
1/2+x,1/2+y,z
1/2+x,1/2-y,1/2+z
loop_
_atom_site_type_symbol
_atom_site_label
_atom_site_fract_x
_atom_site_fract_y
_atom_site_fract_z
Si Si1 0.023600 0.615136 0.165420
Si Si2 0.783736 0.272340 0.869872
Si Si3 0.977036 0.451450 0.438650
Si Si4 0.028639 0.873072 0.896928
Si Si5 0.967930 0.043111 0.741059
Si Si6 0.993068 0.405249 0.239686
Si Si7 0.796234 0.751203 0.181452
O O1 0.283694 0.658047 0.315187
O O2 0.013178 0.510616 0.206559
O O3 0.836424 0.682538 0.117318
O O4 0.996582 0.606915 0.043201
O O5 0.585360 0.320178 0.830981
O O6 0.708229 0.162333 0.821005
O O7 0.831667 0.306730 0.792484
O O8 0.025905 0.283739 0.046049
O O9 0.214457 0.516228 0.567446
O O10 0.704293 0.486695 0.306639
O O11 0.993336 0.404601 0.348702
O O12 0.248376 0.864311 0.075476
O O13 0.991954 0.982795 0.846242
O O14 0.956506 0.155725 0.752071
#
# Coordination Sequence:
#
# PCOD9140775 Si02
#       7
#     4   4   4   4   4   4   4
#     4  11  28  48  78 114 150 200 253 316 389 449
#     4  12  27  50  77 111 152 203 255 314 381 460
#     4  11  26  46  80 109 154 201 253 322 379 457
#     4  11  26  50  77 110 155 198 257 313 386 457
#     4  11  25  51  74 112 160 196 258 313 385 454
#     4  12  28  49  78 110 153 200 255 319 382 457
#     4  12  28  48  80 112 156 196 257 317 382 456
#
# _framework density 23.951906999999999
#
# number of rings (size 3 to 8) (size 9 to 14) (size 15 to 20)
#    0.000    0.571    2.857    3.429   14.000    0.000 
#    0.000    0.000    0.000    0.000    0.000    0.000 
#    0.000    0.000    0.000    0.000    0.000    0.000 
#
# Total GULP energy -78298.973800 kJ/mol
# GULP energy per Si atom -5592.783843 kJ/mol
# Density = 2.389739 g / cm^3
# Si number density = 23.951907 Si / 1000 Ang^3
#
#
#
# Elastic Constant Matrix: (Units=GPa)
#
#
# Indices 1 2 3 4 5 6 
#
# 1 120.4329 16.6723 46.7217 0.0000 -4.2857 0.0000
# 2 16.6723 62.1194 20.2215 0.0000 -5.1601 0.0000
# 3 46.7217 20.2215 110.4310 0.0000 -0.4625 0.0000
# 4 0.0000 0.0000 0.0000 17.9362 0.0000 3.8076
# 5 -4.2857 -5.1601 -0.4625 0.0000 65.2913 0.0000
# 6 0.0000 0.0000 0.0000 3.8076 0.0000 31.8656
#
#
#
# Elastic Compliance Matrix: (Units=1/GPa)
#
#
# Indices 1 2 3 4 5 6 
#
# 1 0.010064 -0.001353 -0.004008 0.000000 0.000525 0.000000
# 2 -0.001353 0.017417 -0.002612 0.000000 0.001269 0.000000
# 3 -0.004008 -0.002612 0.011228 0.000000 -0.000390 0.000000
# 4 0.000000 0.000000 0.000000 0.057204 0.000000 -0.006835
# 5 0.000525 0.001269 -0.000390 0.000000 0.015448 0.000000
# 6 0.000000 0.000000 0.000000 -0.006835 0.000000 0.032198
#
#
# Mechanical properties :
#
#
# Convention : Reuss Voigt Hill
#
# Bulk Modulus (GPa) = 43.92946 51.13489 47.53218
# Shear Modulus (GPa) = 29.92358 36.97649 33.45003
#
# Velocity S-wave (km/s) = 3.53841 3.93336 3.74110
# Velocity P-wave (km/s) = 5.92235 6.48257 6.20878
#
# Compressibility (1/GPa) = 0.02276377
#
# Stress axis : x y z
#
# Youngs Moduli (GPa) = 99.36117 57.41629 89.06468
#
# Poissons Ratio (x) = 0.07767 0.35698
# Poissons Ratio (y) = 0.13441 0.23260
# Poissons Ratio (z) = 0.39825 0.14995
#
# Static dielectric constant tensor:
#      x y z
#    x 1.897380 0.000000 0.011860 
#    y 0.000000 1.939910 0.000000 
#    z 0.011860 0.000000 1.890660 
# 
# From -- ./inp_files/23315.got.cif
#   From: 2010.05.17/outbox.cif.g08.bks.cpg/sg9_12_cif.got.tgz:23315.got - 2010.06.03 20:04:27.
