data_PCOD9140797
_publ_section_title
;
Structure prediction by ZEFSAII (Michael W. Deem and Ramdas Pophale) SiO2 
 PCOD9140797
Probable space group: C C
;
_chemical_formula_sum "Si O2"
_cell_formula_units_Z 20
_cell_length_a 7.572635
_cell_length_b 22.360088
_cell_length_c 7.181159
_cell_angle_alpha 90.000000
_cell_angle_beta 140.291341
_cell_angle_gamma 90.000000
_cell_volume 776.849959
_symmetry_space_group_name_H-M "C C"
_symmetry_group_IT_number 9
_symmetry_cell_setting 'monoclinic'
loop_
_space_group_symop_operation_xyz
x,y,z
x,-y,1/2+z
1/2+x,1/2+y,z
1/2+x,1/2-y,1/2+z
loop_
_atom_site_type_symbol
_atom_site_label
_atom_site_fract_x
_atom_site_fract_y
_atom_site_fract_z
Si Si1 0.803550 0.914594 0.153330
Si Si2 0.274693 0.456097 0.542670
Si Si3 0.700392 0.215084 0.543671
Si Si4 0.921896 0.781691 0.798647
Si Si5 0.198349 0.098819 0.637896
O O1 0.858426 0.931829 0.409843
O O2 0.625122 0.853962 0.010903
O O3 0.067077 0.899177 0.237563
O O4 0.677459 0.974859 0.961391
O O5 0.536940 0.452111 0.891256
O O6 0.020455 0.415370 0.405826
O O7 0.460416 0.263038 0.372685
O O8 0.797746 0.220059 0.407590
O O9 0.646311 0.771063 0.456923
O O10 0.098444 0.842269 0.945402
#
# Coordination Sequence:
#
# PCOD9140797 Si02
#       5
#     4   4   4   4   4
#     4  11  26  47  73 101 144 179 230 288 340 411
#     4  12  27  43  70 105 137 184 229 278 352 406
#     4   9  20  39  66  96 129 178 224 274 339 399
#     4   9  17  36  65  93 129 178 224 273 337 398
#     4  11  26  45  68 103 141 179 229 287 340 410
#
# _framework density 25.744997000000001
#
# number of rings (size 3 to 8) (size 9 to 14) (size 15 to 20)
#    0.000    1.600    2.000    1.200    2.800    9.600 
#    0.000    6.000    0.000    0.000    0.000    0.000 
#    0.000    0.000    0.000    0.000    0.000    0.000 
#
# Total GULP energy -55959.138766 kJ/mol
# GULP energy per Si atom -5595.913877 kJ/mol
# Density = 2.568640 g / cm^3
# Si number density = 25.744997 Si / 1000 Ang^3
#
#
#
# Elastic Constant Matrix: (Units=GPa)
#
#
# Indices 1 2 3 4 5 6 
#
# 1 119.3561 3.3667 -1.0568 0.0000 -19.8095 0.0000
# 2 3.3667 140.7953 6.7176 0.0000 12.8222 0.0000
# 3 -1.0568 6.7176 80.7071 0.0000 14.9969 0.0000
# 4 0.0000 0.0000 0.0000 30.6330 0.0000 -1.1419
# 5 -19.8095 12.8222 14.9969 0.0000 19.7288 0.0000
# 6 0.0000 0.0000 0.0000 -1.1419 0.0000 17.5202
#
#
#
# Elastic Compliance Matrix: (Units=1/GPa)
#
#
# Indices 1 2 3 4 5 6 
#
# 1 0.010583 -0.001348 -0.002197 0.000000 0.013172 0.000000
# 2 -0.001348 0.007729 0.000610 0.000000 -0.006840 0.000000
# 3 -0.002197 0.000610 0.014899 0.000000 -0.013928 0.000000
# 4 0.000000 0.000000 0.000000 0.032724 0.000000 0.002133
# 5 0.013172 -0.006840 -0.013928 0.000000 0.078946 0.000000
# 6 0.000000 0.000000 0.000000 0.002133 0.000000 0.057216
#
#
# Mechanical properties :
#
#
# Convention : Reuss Voigt Hill
#
# Bulk Modulus (GPa) = 36.57472 39.87928 38.22700
# Shear Modulus (GPa) = 23.03297 35.69847 29.36572
#
# Velocity S-wave (km/s) = 2.99433 3.72777 3.38100
# Velocity P-wave (km/s) = 5.11782 5.83542 5.48836
#
# Compressibility (1/GPa) = 0.02734129
#
# Stress axis : x y z
#
# Youngs Moduli (GPa) = 94.49064 129.39036 67.11865
#
# Poissons Ratio (x) = 0.17440 0.14745
# Poissons Ratio (y) = 0.12736 -0.04095
# Poissons Ratio (z) = 0.20759 -0.07894
#
# Static dielectric constant tensor:
#      x y z
#    x 2.025250 0.000000 -0.032850 
#    y 0.000000 2.106100 0.000000 
#    z -0.032850 0.000000 1.929110 
# 
# From -- ./inp_files/580.got.cif
#   From: 2010.05.17/outbox.cif.g08.bks.cpg/sg9_1_cif.got.tgz:580.got - 2010.06.03 20:04:27.
