data_PCOD9140448
_publ_section_title
;
Structure prediction by ZEFSAII (Michael W. Deem and Ramdas Pophale) SiO2 
 PCOD9140448
Probable space group: C C
;
_chemical_formula_sum "Si O2"
_cell_formula_units_Z 24
_cell_length_a 6.061818
_cell_length_b 18.059338
_cell_length_c 11.400555
_cell_angle_alpha 90.000000
_cell_angle_beta 123.813194
_cell_angle_gamma 90.000000
_cell_volume 1036.947225
_symmetry_space_group_name_H-M "C C"
_symmetry_group_IT_number 9
_symmetry_cell_setting 'monoclinic'
loop_
_space_group_symop_operation_xyz
x,y,z
x,-y,1/2+z
1/2+x,1/2+y,z
1/2+x,1/2-y,1/2+z
loop_
_atom_site_type_symbol
_atom_site_label
_atom_site_fract_x
_atom_site_fract_y
_atom_site_fract_z
Si Si1 0.628600 0.193493 0.840890
Si Si2 0.363996 0.964483 0.643060
Si Si3 0.861118 0.224088 0.449428
Si Si4 0.590100 0.603570 0.652736
Si Si5 0.406590 0.443422 0.338543
Si Si6 0.322937 0.206222 0.184638
O O1 0.350717 0.153401 0.732112
O O2 0.815212 0.120845 0.901609
O O3 0.689377 0.253093 0.756336
O O4 0.603079 0.233498 0.959104
O O5 0.329936 0.882375 0.682926
O O6 0.203121 0.967444 0.469534
O O7 0.182438 0.020539 0.662130
O O8 0.667370 0.996906 0.744450
O O9 0.631293 0.226855 0.287380
O O10 0.751381 0.261713 0.535724
O O11 0.921422 0.139647 0.499734
O O12 0.432516 0.602930 0.726483
#
# Coordination Sequence:
#
# PCOD9140448 Si02
#       6
#     4   4   4   4   4   4
#     4  11  24  45  75 105 151 196 256 318 375 449
#     4  11  27  44  75 107 152 204 247 318 382 453
#     4  12  25  44  72 109 145 201 259 314 377 459
#     4  11  25  47  69 108 147 199 254 309 380 454
#     4  11  25  50  72 110 157 201 251 318 380 459
#     4  12  26  44  73 109 148 197 263 311 384 446
#
# _framework density 23.144860000000001
#
# number of rings (size 3 to 8) (size 9 to 14) (size 15 to 20)
#    0.000    0.667    3.333    3.000    4.667    8.000 
#    0.000    0.000    0.000    0.000    0.000    0.000 
#    0.000    0.000    0.000    0.000    0.000    0.000 
#
# Total GULP energy -66949.969210 kJ/mol
# GULP energy per Si atom -5579.164101 kJ/mol
# Density = 2.309218 g / cm^3
# Si number density = 23.144860 Si / 1000 Ang^3
#
#
#
# Elastic Constant Matrix: (Units=GPa)
#
#
# Indices 1 2 3 4 5 6 
#
# 1 62.5557 42.8930 9.3844 0.0000 -5.1106 0.0000
# 2 42.8930 164.2506 28.8408 0.0000 2.1748 0.0000
# 3 9.3844 28.8408 85.7754 0.0000 15.6796 0.0000
# 4 0.0000 0.0000 0.0000 37.7927 0.0000 -0.4168
# 5 -5.1106 2.1748 15.6796 0.0000 40.8767 0.0000
# 6 0.0000 0.0000 0.0000 -0.4168 0.0000 40.2747
#
#
#
# Elastic Compliance Matrix: (Units=1/GPa)
#
#
# Indices 1 2 3 4 5 6 
#
# 1 0.019859 -0.005043 -0.001054 0.000000 0.003156 0.000000
# 2 -0.005043 0.007761 -0.002008 0.000000 -0.000273 0.000000
# 3 -0.001054 -0.002008 0.013392 0.000000 -0.005162 0.000000
# 4 0.000000 0.000000 0.000000 0.026463 0.000000 0.000274
# 5 0.003156 -0.000273 -0.005162 0.000000 0.026853 0.000000
# 6 0.000000 0.000000 0.000000 0.000274 0.000000 0.024832
#
#
# Mechanical properties :
#
#
# Convention : Reuss Voigt Hill
#
# Bulk Modulus (GPa) = 40.31680 52.75757 46.53718
# Shear Modulus (GPa) = 34.80942 39.21971 37.01457
#
# Velocity S-wave (km/s) = 3.88233 4.12094 4.00341
# Velocity P-wave (km/s) = 6.12811 6.74439 6.44362
#
# Compressibility (1/GPa) = 0.02480356
#
# Stress axis : x y z
#
# Youngs Moduli (GPa) = 50.35384 128.84317 74.66903
#
# Poissons Ratio (x) = 0.64974 0.07870
# Poissons Ratio (y) = 0.25393 0.14993
# Poissons Ratio (z) = 0.05307 0.25872
#
# Static dielectric constant tensor:
#      x y z
#    x 1.885200 0.000000 0.042180 
#    y 0.000000 1.867170 0.000000 
#    z 0.042180 0.000000 1.930310 
# 
# From -- ./inp_files/3679.got.cif
#   From: 2010.05.17/outbox.cif.g08.bks.cpg/sg9_2_cif.got.tgz:3679.got - 2010.06.03 20:04:27.
