data_PCOD9140093
_publ_section_title
;
Structure prediction by ZEFSAII (Michael W. Deem and Ramdas Pophale) SiO2 
 PCOD9140093
Probable space group: C C
;
_chemical_formula_sum "Si O2"
_cell_formula_units_Z 20
_cell_length_a 9.497594
_cell_length_b 22.811527
_cell_length_c 8.373980
_cell_angle_alpha 90.000000
_cell_angle_beta 30.471971
_cell_angle_gamma 90.000000
_cell_volume 920.042462
_symmetry_space_group_name_H-M "C C"
_symmetry_group_IT_number 9
_symmetry_cell_setting 'monoclinic'
loop_
_space_group_symop_operation_xyz
x,y,z
x,-y,1/2+z
1/2+x,1/2+y,z
1/2+x,1/2-y,1/2+z
loop_
_atom_site_type_symbol
_atom_site_label
_atom_site_fract_x
_atom_site_fract_y
_atom_site_fract_z
Si Si1 0.872680 0.886814 0.738470
Si Si2 0.879423 0.416991 0.029388
Si Si3 0.601671 0.048298 0.801430
Si Si4 0.560509 0.710710 0.294663
Si Si5 0.597347 0.605330 0.470001
O O1 0.137059 0.916924 0.398337
O O2 0.972087 0.828277 0.729916
O O3 0.632440 0.876892 0.842771
O O4 0.733117 0.928021 0.009301
O O5 0.736049 0.397433 0.006176
O O6 0.010908 0.481312 0.881275
O O7 0.835968 0.062117 0.705235
O O8 0.329709 0.084668 0.115835
O O9 0.377275 0.769142 0.478813
O O10 0.507512 0.669609 0.499862
#
# Coordination Sequence:
#
# PCOD9140093 Si02
#       5
#     4   4   4   4   4
#     4  11  24  42  66  97 129 170 219 261 315 386
#     4  12  24  41  65 100 137 164 206 273 319 370
#     4  11  23  42  64  93 136 180 206 244 319 403
#     4  11  23  45  69  89 122 174 221 266 320 384
#     4  11  24  42  66  97 128 170 220 260 315 387
#
# _framework density 21.738126000000001
#
# number of rings (size 3 to 8) (size 9 to 14) (size 15 to 20)
#    0.000    0.800    0.000    9.600    0.000    4.800 
#    0.000   10.000    0.000    0.000    0.000    0.000 
#    0.000    0.000    0.000    0.000    0.000    0.000 
#
# Total GULP energy -56016.202796 kJ/mol
# GULP energy per Si atom -5601.620280 kJ/mol
# Density = 2.168865 g / cm^3
# Si number density = 21.738126 Si / 1000 Ang^3
#
#
#
# Elastic Constant Matrix: (Units=GPa)
#
#
# Indices 1 2 3 4 5 6 
#
# 1 139.8258 43.0773 8.0429 0.0000 -25.8986 0.0000
# 2 43.0773 80.1101 14.2557 0.0000 2.8248 0.0000
# 3 8.0429 14.2557 105.5553 0.0000 -7.3832 0.0000
# 4 0.0000 0.0000 0.0000 33.0062 0.0000 -18.1583
# 5 -25.8986 2.8248 -7.3832 0.0000 42.5308 0.0000
# 6 0.0000 0.0000 0.0000 -18.1583 0.0000 25.6129
#
#
#
# Elastic Compliance Matrix: (Units=1/GPa)
#
#
# Indices 1 2 3 4 5 6 
#
# 1 0.010129 -0.005764 0.000471 0.000000 0.006632 0.000000
# 2 -0.005764 0.016128 -0.002085 0.000000 -0.004943 0.000000
# 3 0.000471 -0.002085 0.009869 0.000000 0.002138 0.000000
# 4 0.000000 0.000000 0.000000 0.049670 0.000000 0.035214
# 5 0.006632 -0.004943 0.002138 0.000000 0.028251 0.000000
# 6 0.000000 0.000000 0.000000 0.035214 0.000000 0.064008
#
#
# Mechanical properties :
#
#
# Convention : Reuss Voigt Hill
#
# Bulk Modulus (GPa) = 46.79666 50.69367 48.74516
# Shear Modulus (GPa) = 25.00828 37.57100 31.28964
#
# Velocity S-wave (km/s) = 3.39548 4.16185 3.79805
# Velocity P-wave (km/s) = 6.07837 6.81656 6.45802
#
# Compressibility (1/GPa) = 0.02136905
#
# Stress axis : x y z
#
# Youngs Moduli (GPa) = 98.72655 62.00526 101.32789
#
# Poissons Ratio (x) = 0.35741 -0.04769
# Poissons Ratio (y) = 0.56908 0.21123
# Poissons Ratio (z) = -0.04646 0.12926
#
# Static dielectric constant tensor:
#      x y z
#    x 1.834090 0.000000 -0.003050 
#    y 0.000000 1.765380 0.000000 
#    z -0.003050 0.000000 1.778740 
# 
# From -- ./inp_files/5864.got.cif
#   From: 2010.05.17/outbox.cif.g08.bks.cpg/sg9_3_cif.got.tgz:5864.got - 2010.06.03 20:04:27.
