data_PCOD9140006
_publ_section_title
;
Structure prediction by ZEFSAII (Michael W. Deem and Ramdas Pophale) SiO2 
 PCOD9140006
Probable space group: C C
;
_chemical_formula_sum "Si O2"
_cell_formula_units_Z 16
_cell_length_a 13.493942
_cell_length_b 7.106852
_cell_length_c 8.609836
_cell_angle_alpha 90.000000
_cell_angle_beta 48.341282
_cell_angle_gamma 90.000000
_cell_volume 616.878704
_symmetry_space_group_name_H-M "C C"
_symmetry_group_IT_number 9
_symmetry_cell_setting 'monoclinic'
loop_
_space_group_symop_operation_xyz
x,y,z
x,-y,1/2+z
1/2+x,1/2+y,z
1/2+x,1/2-y,1/2+z
loop_
_atom_site_type_symbol
_atom_site_label
_atom_site_fract_x
_atom_site_fract_y
_atom_site_fract_z
Si Si1 0.979770 0.090662 0.456490
Si Si2 0.187776 0.652322 0.745799
Si Si3 0.346966 0.855480 0.830070
Si Si4 0.471458 0.166639 0.521164
O O1 0.833539 0.098757 0.529986
O O2 0.955353 0.221351 0.633112
O O3 0.098202 0.197727 0.245031
O O4 0.010877 0.882713 0.478754
O O5 0.222819 0.767089 0.868994
O O6 0.099583 0.465668 0.856922
O O7 0.364825 0.845215 0.992442
O O8 0.390750 0.066425 0.741883
#
# Coordination Sequence:
#
# PCOD9140006 Si02
#       4
#     4   4   4   4
#     4   9  22  41  66  97 140 175 229 285 340 415
#     4   9  22  44  64 107 129 184 239 277 347 424
#     4   9  24  44  63 104 133 182 235 282 344 417
#     4  11  22  45  69  96 144 183 225 292 349 410
#
# _framework density 25.937028000000002
#
# number of rings (size 3 to 8) (size 9 to 14) (size 15 to 20)
#    1.500    1.000    0.000    0.000    3.500    8.000 
#    4.500    0.000    0.000    0.000    0.000    0.000 
#    0.000    0.000    0.000    0.000    0.000    0.000 
#
# Total GULP energy -44632.129937 kJ/mol
# GULP energy per Si atom -5579.016242 kJ/mol
# Density = 2.587799 g / cm^3
# Si number density = 25.937028 Si / 1000 Ang^3
#
#
#
# Elastic Constant Matrix: (Units=GPa)
#
#
# Indices 1 2 3 4 5 6 
#
# 1 100.0534 37.8704 40.4731 -0.0001 -46.8380 0.0000
# 2 37.8704 237.6372 45.5465 -0.0003 -35.3386 0.0003
# 3 40.4731 45.5465 44.0423 0.0000 -36.9826 0.0000
# 4 -0.0001 -0.0003 0.0000 20.6911 0.0000 -10.9368
# 5 -46.8380 -35.3386 -36.9826 0.0000 62.5121 0.0000
# 6 0.0000 0.0003 0.0000 -10.9368 0.0000 48.9721
#
#
#
# Elastic Compliance Matrix: (Units=1/GPa)
#
#
# Indices 1 2 3 4 5 6 
#
# 1 0.017371 0.000255 -0.010287 0.000000 0.007074 0.000000
# 2 0.000255 0.005260 -0.005994 0.000000 -0.000382 0.000000
# 3 -0.010287 -0.005994 0.057709 0.000000 0.023044 0.000000
# 4 0.000000 0.000000 0.000000 0.054799 0.000000 0.012238
# 5 0.007074 -0.000382 0.023044 0.000000 0.034714 0.000000
# 6 0.000000 0.000000 0.000000 0.012238 0.000000 0.023153
#
#
# Mechanical properties :
#
#
# Convention : Reuss Voigt Hill
#
# Bulk Modulus (GPa) = 20.70989 69.94588 45.32789
# Shear Modulus (GPa) = 20.73373 43.62459 32.17916
#
# Velocity S-wave (km/s) = 2.83041 4.10560 3.52613
# Velocity P-wave (km/s) = 4.32246 7.03567 5.83885
#
# Compressibility (1/GPa) = 0.04828611
#
# Stress axis : x y z
#
# Youngs Moduli (GPa) = 57.56803 190.13063 17.32841
#
# Poissons Ratio (x) = -0.04856 0.17826
# Poissons Ratio (y) = -0.01470 0.10387
# Poissons Ratio (z) = 0.59223 1.13972
#
# Static dielectric constant tensor:
#      x y z
#    x 2.042020 0.000000 -0.072510 
#    y 0.000000 2.007560 0.000000 
#    z -0.072510 0.000000 2.164640 
# 
# From -- ./inp_files/8643.got.cif
#   From: 2010.05.17/outbox.cif.g08.bks.cpg/sg9_5_cif.got.tgz:8643.got - 2010.06.03 20:04:27.
