data_PCOD9140820
_publ_section_title
;
Structure prediction by ZEFSAII (Michael W. Deem and Ramdas Pophale) SiO2 
 PCOD9140820
Probable space group: C C
;
_chemical_formula_sum "Si O2"
_cell_formula_units_Z 32
_cell_length_a 11.508077
_cell_length_b 19.144114
_cell_length_c 8.620587
_cell_angle_alpha 90.000000
_cell_angle_beta 34.168145
_cell_angle_gamma 90.000000
_cell_volume 1066.645504
_symmetry_space_group_name_H-M "C C"
_symmetry_group_IT_number 9
_symmetry_cell_setting 'monoclinic'
loop_
_space_group_symop_operation_xyz
x,y,z
x,-y,1/2+z
1/2+x,1/2+y,z
1/2+x,1/2-y,1/2+z
loop_
_atom_site_type_symbol
_atom_site_label
_atom_site_fract_x
_atom_site_fract_y
_atom_site_fract_z
Si Si1 0.261340 0.739655 0.721710
Si Si2 0.219052 0.431862 0.767358
Si Si3 0.440283 0.490672 0.832087
Si Si4 0.559984 0.677104 0.933898
Si Si5 0.820362 0.594094 0.878550
Si Si6 0.213052 0.417830 0.392346
Si Si7 0.746587 0.382384 0.930599
Si Si8 0.042657 0.727294 0.696121
O O1 0.518201 0.752784 0.417863
O O2 0.263992 0.663113 0.802499
O O3 0.228799 0.811142 0.856462
O O4 0.336699 0.447705 0.806739
O O5 0.348866 0.357943 0.610233
O O6 0.302076 0.530780 0.651086
O O7 0.977751 0.435464 0.076730
O O8 0.666238 0.457499 0.636745
O O9 0.233699 0.555406 0.054455
O O10 0.567119 0.559919 0.608614
O O11 0.650790 0.646529 0.994145
O O12 0.722143 0.648259 0.630729
O O13 0.552913 0.756535 0.997287
O O14 0.974545 0.645869 0.794869
O O15 0.964754 0.417229 0.654983
O O16 0.295566 0.732214 0.476231
#
# Coordination Sequence:
#
# PCOD9140820 Si02
#       8
#     4   4   4   4   4   4   4   4
#     4  12  26  49  76 116 159 213 269 336 408 486
#     4  11  26  47  74 115 154 212 269 335 407 489
#     4  11  26  47  76 112 160 212 272 339 406 486
#     4  11  26  50  78 114 161 210 274 338 405 487
#     4  12  25  49  79 116 163 212 268 340 412 490
#     4  12  25  48  76 113 160 211 273 332 404 493
#     4  11  26  51  76 115 160 215 271 338 409 483
#     4  12  26  49  79 119 157 213 272 332 413 488
#
# _framework density 30.000596000000002
#
# number of rings (size 3 to 8) (size 9 to 14) (size 15 to 20)
#    0.000    0.500    5.000    2.250    1.750    4.000 
#    4.500    0.000    0.000    0.000    0.000    0.000 
#    0.000    0.000    0.000    0.000    0.000    0.000 
#
# Total GULP energy -89077.286364 kJ/mol
# GULP energy per Si atom -5567.330398 kJ/mol
# Density = 2.993231 g / cm^3
# Si number density = 30.000596 Si / 1000 Ang^3
#
#
#
# Elastic Constant Matrix: (Units=GPa)
#
#
# Indices 1 2 3 4 5 6 
#
# 1 155.8898 155.9650 82.4916 0.0001 -9.5252 -0.0001
# 2 155.9650 166.8266 80.1012 0.0002 13.8980 0.0000
# 3 82.4916 80.1012 266.0536 -0.0030 4.1207 0.0000
# 4 0.0001 0.0002 -0.0030 53.1391 0.0002 11.5400
# 5 -9.5252 13.8980 4.1207 0.0002 42.8995 0.0004
# 6 -0.0001 0.0000 0.0000 11.5400 0.0004 23.0420
#
#
#
# Elastic Compliance Matrix: (Units=1/GPa)
#
#
# Indices 1 2 3 4 5 6 
#
# 1 -0.446578 0.431638 0.012230 0.000000 -0.240167 0.000003
# 2 0.431638 -0.410002 -0.013954 0.000000 0.230006 -0.000003
# 3 0.012230 -0.013954 0.004062 0.000000 0.006846 0.000000
# 4 0.000000 0.000000 0.000000 0.021115 0.000000 -0.010575
# 5 -0.240167 0.230006 0.006846 0.000000 -0.105187 0.000001
# 6 0.000003 -0.000003 0.000000 -0.010575 0.000001 0.048695
#
#
# Mechanical properties :
#
#
# Convention : Reuss Voigt Hill
#
# Bulk Modulus (GPa) = 136.81529 136.20953 136.51241
# Shear Modulus (GPa) = -2.86486 41.83027 19.48271
#
# Velocity S-wave (km/s) = -0.97827 3.73810 2.55112
# Velocity P-wave (km/s) = 6.66537 8.00825 7.36747
#
# Compressibility (1/GPa) = 0.00730912
#
# Stress axis : x y z
#
# Youngs Moduli (GPa) = -2.23925 -2.43901 246.19145
#
# Poissons Ratio (x) = 1.05277 -3.01095
# Poissons Ratio (y) = 0.96655 3.43548
# Poissons Ratio (z) = 0.02739 -0.03404
#
# Static dielectric constant tensor:
#      x y z
#    x 2.452120 0.000000 0.023380 
#    y 0.000000 2.575850 0.000000 
#    z 0.023380 0.000000 2.425720 
# 
# From -- ./inp_files/26953.got.cif
#   From: 2010.05.17/outbox.cif.g08.bks.cpg/sg9_14_cif.got.tgz:26953.got - 2010.06.03 20:04:27.
