data_PCOD9140514
_publ_section_title
;
Structure prediction by ZEFSAII (Michael W. Deem and Ramdas Pophale) SiO2 
 PCOD9140514
Probable space group: C C
;
_chemical_formula_sum "Si O2"
_cell_formula_units_Z 32
_cell_length_a 10.288963
_cell_length_b 11.881919
_cell_length_c 18.367822
_cell_angle_alpha 90.000000
_cell_angle_beta 145.477867
_cell_angle_gamma 90.000000
_cell_volume 1272.588167
_symmetry_space_group_name_H-M "C C"
_symmetry_group_IT_number 9
_symmetry_cell_setting 'monoclinic'
loop_
_space_group_symop_operation_xyz
x,y,z
x,-y,1/2+z
1/2+x,1/2+y,z
1/2+x,1/2-y,1/2+z
loop_
_atom_site_type_symbol
_atom_site_label
_atom_site_fract_x
_atom_site_fract_y
_atom_site_fract_z
Si Si1 0.964120 0.444536 0.093600
Si Si2 0.012497 0.869591 0.190793
Si Si3 0.662344 0.012994 0.942693
Si Si4 0.314117 0.526437 0.863121
Si Si5 0.356649 0.730919 0.427457
Si Si6 0.212170 0.822771 0.511370
Si Si7 0.749958 0.578506 0.343484
Si Si8 0.330824 0.277520 0.615796
O O1 0.859280 0.340355 0.088747
O O2 0.221142 0.457992 0.239353
O O3 0.853724 0.563609 0.062837
O O4 0.916023 0.419931 0.988398
O O5 0.253147 0.802922 0.311912
O O6 0.069838 0.975518 0.268071
O O7 0.836222 0.767574 0.120088
O O8 0.887671 0.933705 0.064942
O O9 0.633282 0.041753 0.844809
O O10 0.428635 0.953357 0.861895
O O11 0.735986 0.125286 0.018661
O O12 0.373163 0.396082 0.905225
O O13 0.496054 0.625974 0.953020
O O14 0.197687 0.764267 0.424087
O O15 0.614604 0.765813 0.570316
O O16 0.581998 0.683656 0.257429
#
# Coordination Sequence:
#
# PCOD9140514 Si02
#       8
#     4   4   4   4   4   4   4   4
#     4  12  27  46  78 120 160 214 284 353 408 523
#     4  11  24  46  79 110 157 220 269 336 429 495
#     4  11  26  51  76 115 161 218 277 346 428 510
#     4  12  29  48  78 125 165 217 283 343 426 508
#     4  12  24  51  78 116 167 217 271 351 420 504
#     4  12  26  47  77 120 158 220 276 343 417 503
#     4  11  27  51  81 116 159 226 276 347 444 500
#     4  11  27  48  77 112 161 214 278 351 416 513
#
# _framework density 25.145606999999998
#
# number of rings (size 3 to 8) (size 9 to 14) (size 15 to 20)
#    0.000    0.500    6.250    0.000    5.250    5.000 
#    0.000    0.000    0.000    0.000    0.000    0.000 
#    0.000    0.000    0.000    0.000    0.000    0.000 
#
# Total GULP energy -89250.930274 kJ/mol
# GULP energy per Si atom -5578.183142 kJ/mol
# Density = 2.508837 g / cm^3
# Si number density = 25.145607 Si / 1000 Ang^3
#
#
#
# Elastic Constant Matrix: (Units=GPa)
#
#
# Indices 1 2 3 4 5 6 
#
# 1 108.1084 30.5534 31.4551 0.0001 12.9451 0.0000
# 2 30.5534 149.6211 36.5135 0.0001 6.9424 0.0000
# 3 31.4551 36.5135 77.6345 0.0005 3.0406 0.0003
# 4 0.0001 0.0001 0.0005 45.2782 0.0001 7.6622
# 5 12.9451 6.9424 3.0406 0.0001 19.7069 0.0001
# 6 0.0000 0.0000 0.0003 7.6622 0.0001 24.8826
#
#
#
# Elastic Compliance Matrix: (Units=1/GPa)
#
#
# Indices 1 2 3 4 5 6 
#
# 1 0.011471 -0.001092 -0.003878 0.000000 -0.006552 0.000000
# 2 -0.001092 0.007744 -0.003140 0.000000 -0.001526 0.000000
# 3 -0.003878 -0.003140 0.015882 0.000000 0.001203 0.000000
# 4 0.000000 0.000000 0.000000 0.023300 0.000000 -0.007175
# 5 -0.006552 -0.001526 0.001203 0.000000 0.055400 0.000000
# 6 0.000000 0.000000 0.000000 -0.007175 0.000000 0.042398
#
#
# Mechanical properties :
#
#
# Convention : Reuss Voigt Hill
#
# Bulk Modulus (GPa) = 52.97283 59.15645 56.06464
# Shear Modulus (GPa) = 27.97894 33.76301 30.87097
#
# Velocity S-wave (km/s) = 3.33930 3.66826 3.50764
# Velocity P-wave (km/s) = 5.99834 6.44346 6.22488
#
# Compressibility (1/GPa) = 0.01887760
#
# Stress axis : x y z
#
# Youngs Moduli (GPa) = 87.17278 129.13863 62.96622
#
# Poissons Ratio (x) = 0.14105 0.24416
# Poissons Ratio (y) = 0.09521 0.19770
# Poissons Ratio (z) = 0.33802 0.40546
#
# Static dielectric constant tensor:
#      x y z
#    x 2.029940 0.000000 0.030650 
#    y 0.000000 2.001690 0.000000 
#    z 0.030650 0.000000 2.014550 
# 
# From -- ./inp_files/33360.got.cif
#   From: 2010.05.17/outbox.cif.g08.bks.cpg/sg9_17_cif.got.tgz:33360.got - 2010.06.03 20:04:27.
