data_PCOD9140539
_publ_section_title
;
Structure prediction by ZEFSAII (Michael W. Deem and Ramdas Pophale) SiO2 
 PCOD9140539
Probable space group: C C
;
_chemical_formula_sum "Si O2"
_cell_formula_units_Z 32
_cell_length_a 26.768320
_cell_length_b 6.062527
_cell_length_c 13.290551
_cell_angle_alpha 90.000000
_cell_angle_beta 38.599019
_cell_angle_gamma 90.000000
_cell_volume 1345.579170
_symmetry_space_group_name_H-M "C C"
_symmetry_group_IT_number 9
_symmetry_cell_setting 'monoclinic'
loop_
_space_group_symop_operation_xyz
x,y,z
x,-y,1/2+z
1/2+x,1/2+y,z
1/2+x,1/2-y,1/2+z
loop_
_atom_site_type_symbol
_atom_site_label
_atom_site_fract_x
_atom_site_fract_y
_atom_site_fract_z
Si Si1 0.350720 0.090761 0.358880
Si Si2 0.644668 0.029059 0.443962
Si Si3 0.048411 0.189756 0.456523
Si Si4 0.313473 0.553865 0.775107
Si Si5 0.917578 0.865563 0.763372
Si Si6 0.174438 0.167559 0.708493
Si Si7 0.924165 0.864617 0.429653
Si Si8 0.560128 0.976914 0.770477
O O1 0.342486 0.204581 0.262594
O O2 0.258658 0.069862 0.539466
O O3 0.384730 0.227710 0.400333
O O4 0.413159 0.891814 0.250063
O O5 0.669568 0.221181 0.327090
O O6 0.588983 0.099683 0.624478
O O7 0.594255 0.837453 0.467399
O O8 0.726899 0.940769 0.362412
O O9 0.022343 0.359051 0.411183
O O10 0.113221 0.032187 0.304484
O O11 0.981591 0.023570 0.606543
O O12 0.329513 0.435536 0.858101
O O13 0.368879 0.418642 0.611085
O O14 0.933273 0.904991 0.856005
O O15 0.139141 0.362203 0.694372
O O16 0.000790 0.725241 0.340492
#
# Coordination Sequence:
#
# PCOD9140539 Si02
#       8
#     4   4   4   4   4   4   4   4
#     4  11  26  44  74 111 157 199 253 321 385 461
#     4  11  24  47  75 110 152 198 257 314 387 464
#     4  11  27  47  75 109 153 197 258 320 385 467
#     4  11  25  46  72 107 149 197 259 309 384 463
#     4  11  27  46  70 110 157 194 255 315 387 468
#     4  11  25  44  74 115 149 200 252 318 385 463
#     4  11  25  48  75 106 149 204 255 312 389 466
#     4  11  25  48  79 106 154 203 255 317 388 464
#
# _framework density 23.781579000000001
#
# number of rings (size 3 to 8) (size 9 to 14) (size 15 to 20)
#    0.000    1.000    3.750    0.750    5.250    8.000 
#    0.000    0.000    0.000    0.000    0.000    0.000 
#    0.000    0.000    0.000    0.000    0.000    0.000 
#
# Total GULP energy -89380.565620 kJ/mol
# GULP energy per Si atom -5586.285351 kJ/mol
# Density = 2.372745 g / cm^3
# Si number density = 23.781579 Si / 1000 Ang^3
#
#
#
# Elastic Constant Matrix: (Units=GPa)
#
#
# Indices 1 2 3 4 5 6 
#
# 1 145.0234 44.5373 48.3421 0.0001 0.0932 -0.0004
# 2 44.5373 82.4085 38.5887 -0.0040 5.6250 -0.0019
# 3 48.3421 38.5887 125.8853 -0.0003 -4.1238 -0.0002
# 4 0.0001 -0.0040 -0.0003 35.7211 0.0002 0.4490
# 5 0.0932 5.6250 -4.1238 0.0002 35.0606 0.0009
# 6 -0.0004 -0.0019 -0.0002 0.4490 0.0009 39.5457
#
#
#
# Elastic Compliance Matrix: (Units=1/GPa)
#
#
# Indices 1 2 3 4 5 6 
#
# 1 0.008779 -0.003727 -0.002219 0.000000 0.000314 0.000000
# 2 -0.003727 0.016029 -0.003580 0.000002 -0.002983 0.000001
# 3 -0.002219 -0.003580 0.009950 0.000000 0.001751 0.000000
# 4 0.000000 0.000002 0.000000 0.027999 0.000000 -0.000318
# 5 0.000314 -0.002983 0.001751 0.000000 0.029206 -0.000001
# 6 0.000000 0.000001 0.000000 -0.000318 -0.000001 0.025291
#
#
# Mechanical properties :
#
#
# Convention : Reuss Voigt Hill
#
# Bulk Modulus (GPa) = 63.66477 68.47261 66.06869
# Shear Modulus (GPa) = 35.32533 36.85541 36.09037
#
# Velocity S-wave (km/s) = 3.85828 3.94095 3.89984
# Velocity P-wave (km/s) = 6.83207 7.04009 6.93686
#
# Compressibility (1/GPa) = 0.01570727
#
# Stress axis : x y z
#
# Youngs Moduli (GPa) = 113.90206 62.38692 100.49809
#
# Poissons Ratio (x) = 0.23254 0.22297
# Poissons Ratio (y) = 0.42455 0.35977
# Poissons Ratio (z) = 0.25270 0.22334
#
# Static dielectric constant tensor:
#      x y z
#    x 1.903900 0.000000 0.005550 
#    y 0.000000 2.014400 0.000000 
#    z 0.005550 0.000000 1.936710 
# 
# From -- ./inp_files/27882.got.cif
#   From: 2010.05.17/outbox.cif.g08.bks.cpg/sg9_14_cif.got.tgz:27882.got - 2010.06.03 20:04:27.
