data_PCOD9140873
_publ_section_title
;
Structure prediction by ZEFSAII (Michael W. Deem and Ramdas Pophale) SiO2 
 PCOD9140873
Probable space group: C C
;
_chemical_formula_sum "Si O2"
_cell_formula_units_Z 28
_cell_length_a 22.360993
_cell_length_b 8.599585
_cell_length_c 7.499409
_cell_angle_alpha 90.000000
_cell_angle_beta 47.901585
_cell_angle_gamma 90.000000
_cell_volume 1070.030702
_symmetry_space_group_name_H-M "C C"
_symmetry_group_IT_number 9
_symmetry_cell_setting 'monoclinic'
loop_
_space_group_symop_operation_xyz
x,y,z
x,-y,1/2+z
1/2+x,1/2+y,z
1/2+x,1/2-y,1/2+z
loop_
_atom_site_type_symbol
_atom_site_label
_atom_site_fract_x
_atom_site_fract_y
_atom_site_fract_z
Si Si1 0.431130 0.652702 0.389880
Si Si2 0.273764 0.243541 0.057977
Si Si3 0.641783 0.930049 0.122405
Si Si4 0.521994 0.347298 0.349952
Si Si5 0.476562 0.873122 0.619916
Si Si6 0.311341 0.930049 0.117428
Si Si7 0.179359 0.256460 0.681856
O O1 0.339056 0.637500 0.508522
O O2 0.476562 0.500000 0.369916
O O3 0.437693 0.768699 0.542074
O O4 0.476562 0.705988 0.119916
O O5 0.309743 0.160249 0.807146
O O6 0.192385 0.320751 0.153501
O O7 0.267410 0.096691 0.202610
O O8 0.551261 0.955481 0.373849
O O9 0.685714 0.096691 0.037223
O O10 0.643381 0.839751 0.932687
O O11 0.515431 0.231301 0.197758
O O12 0.614068 0.362500 0.231310
O O13 0.401863 0.955480 0.865984
O O14 0.260739 0.820752 0.086332
#
# Coordination Sequence:
#
# PCOD9140873 Si02
#       7
#     4   4   4   4   4   4   4
#     4  12  26  45  75 111 154 200 259 312 380 452
#     4  11  27  48  76 112 157 206 256 317 383 461
#     4  11  27  48  79 113 158 201 259 316 388 457
#     4  12  26  45  75 111 154 200 259 312 380 452
#     4  12  26  46  78 114 152 204 248 324 378 456
#     4  11  27  48  79 113 158 201 259 316 388 457
#     4  11  27  48  76 112 157 206 256 317 383 461
#
# _framework density 26.167473000000001
#
# number of rings (size 3 to 8) (size 9 to 14) (size 15 to 20)
#    0.000    0.571    4.286    1.714    6.000    6.857 
#    0.000    0.000    0.000    0.000    0.000    0.000 
#    0.000    0.000    0.000    0.000    0.000    0.000 
#
# Total GULP energy -78516.435213 kJ/mol
# GULP energy per Si atom -5608.316801 kJ/mol
# Density = 2.610792 g / cm^3
# Si number density = 26.167473 Si / 1000 Ang^3
#
#
#
# Elastic Constant Matrix: (Units=GPa)
#
#
# Indices 1 2 3 4 5 6 
#
# 1 204.2776 52.5189 49.7272 0.0000 4.6878 0.0000
# 2 52.5189 94.8429 0.2346 0.0000 -7.8073 0.0000
# 3 49.7272 0.2346 131.5315 0.0000 6.4768 0.0000
# 4 0.0000 0.0000 0.0000 21.1855 0.0000 2.1759
# 5 4.6878 -7.8073 6.4768 0.0000 66.4014 0.0000
# 6 0.0000 0.0000 0.0000 2.1759 0.0000 67.9012
#
#
#
# Elastic Compliance Matrix: (Units=1/GPa)
#
#
# Indices 1 2 3 4 5 6 
#
# 1 0.006417 -0.003600 -0.002388 0.000000 -0.000643 0.000000
# 2 -0.003600 0.012668 0.001259 0.000000 0.001621 0.000000
# 3 -0.002388 0.001259 0.008529 0.000000 -0.000515 0.000000
# 4 0.000000 0.000000 0.000000 0.047358 0.000000 -0.001518
# 5 -0.000643 0.001621 -0.000515 0.000000 0.015346 0.000000
# 6 0.000000 0.000000 0.000000 -0.001518 0.000000 0.014776
#
#
# Mechanical properties :
#
#
# Convention : Reuss Voigt Hill
#
# Bulk Modulus (GPa) = 55.08341 70.62370 62.85356
# Shear Modulus (GPa) = 41.45795 52.97571 47.21683
#
# Velocity S-wave (km/s) = 3.98468 4.50431 4.25244
# Velocity P-wave (km/s) = 6.50125 7.35523 6.94139
#
# Compressibility (1/GPa) = 0.01815429
#
# Stress axis : x y z
#
# Youngs Moduli (GPa) = 155.83561 78.94028 117.25175
#
# Poissons Ratio (x) = 0.28422 0.27999
# Poissons Ratio (y) = 0.56108 -0.14760
# Poissons Ratio (z) = 0.37212 -0.09937
#
# Static dielectric constant tensor:
#      x y z
#    x 1.980900 0.000000 0.026500 
#    y 0.000000 2.052670 0.000000 
#    z 0.026500 0.000000 2.093780 
# 
# From -- ./inp_files/10376.got.cif
#   From: 2010.05.17/outbox.cif.g08.bks.cpg/sg9_6_cif.got.tgz:10376.got - 2010.06.03 20:04:27.
