data_PCOD9140706
_publ_section_title
;
Structure prediction by ZEFSAII (Michael W. Deem and Ramdas Pophale) SiO2 
 PCOD9140706
Probable space group: C C
;
_chemical_formula_sum "Si O2"
_cell_formula_units_Z 20
_cell_length_a 5.026361
_cell_length_b 15.492519
_cell_length_c 11.026489
_cell_angle_alpha 90.000000
_cell_angle_beta 81.893643
_cell_angle_gamma 90.000000
_cell_volume 850.064100
_symmetry_space_group_name_H-M "C C"
_symmetry_group_IT_number 9
_symmetry_cell_setting 'monoclinic'
loop_
_space_group_symop_operation_xyz
x,y,z
x,-y,1/2+z
1/2+x,1/2+y,z
1/2+x,1/2-y,1/2+z
loop_
_atom_site_type_symbol
_atom_site_label
_atom_site_fract_x
_atom_site_fract_y
_atom_site_fract_z
Si Si1 0.253080 0.814499 0.868970
Si Si2 0.877208 0.138582 0.769734
Si Si3 0.217209 0.354626 0.009073
Si Si4 0.198329 0.546511 0.016533
Si Si5 0.143663 0.963517 0.683103
O O1 0.422887 0.739311 0.792177
O O2 0.223390 0.895078 0.780576
O O3 0.427885 0.835100 0.975369
O O4 0.951539 0.795331 0.937054
O O5 0.717051 0.142319 0.653871
O O6 0.729234 0.109560 0.902036
O O7 0.090035 0.061059 0.734268
O O8 0.291641 0.452164 0.966242
O O9 0.382689 0.566362 0.122205
O O10 0.892825 0.536731 0.075800
#
# Coordination Sequence:
#
# PCOD9140706 Si02
#       5
#     4   4   4   4   4
#     4  12  27  46  76 105 157 189 262 311 371 451
#     4  11  28  48  79 109 154 203 249 316 385 446
#     4  11  26  49  69 114 145 196 254 312 369 463
#     4  11  25  47  78 101 151 199 250 304 392 437
#     4  11  26  48  74 109 145 203 253 311 375 455
#
# _framework density 23.527636000000001
#
# number of rings (size 3 to 8) (size 9 to 14) (size 15 to 20)
#    0.000    0.800    2.000    3.600    8.400    6.400 
#    0.000    0.000    0.000    0.000    0.000    0.000 
#    0.000    0.000    0.000    0.000    0.000    0.000 
#
# Total GULP energy -55887.635226 kJ/mol
# GULP energy per Si atom -5588.763523 kJ/mol
# Density = 2.347409 g / cm^3
# Si number density = 23.527636 Si / 1000 Ang^3
#
#
#
# Elastic Constant Matrix: (Units=GPa)
#
#
# Indices 1 2 3 4 5 6 
#
# 1 99.3599 19.4725 30.3728 0.0000 4.6121 0.0000
# 2 19.4725 100.9353 46.0596 0.0000 13.2128 0.0000
# 3 30.3728 46.0596 51.1850 0.0000 0.3657 0.0000
# 4 0.0000 0.0000 0.0000 151.4975 0.0000 25.4033
# 5 4.6121 13.2128 0.3657 0.0000 35.6584 0.0000
# 6 0.0000 0.0000 0.0000 25.4033 0.0000 27.1105
#
#
#
# Elastic Compliance Matrix: (Units=1/GPa)
#
#
# Indices 1 2 3 4 5 6 
#
# 1 0.012631 0.002176 -0.009437 0.000000 -0.002343 0.000000
# 2 0.002176 0.018612 -0.017990 0.000000 -0.006994 0.000000
# 3 -0.009437 -0.017990 0.041272 0.000000 0.007463 0.000000
# 4 0.000000 0.000000 0.000000 0.007831 0.000000 -0.007338
# 5 -0.002343 -0.006994 0.007463 0.000000 0.030862 0.000000
# 6 0.000000 0.000000 0.000000 -0.007338 0.000000 0.043762
#
#
# Mechanical properties :
#
#
# Convention : Reuss Voigt Hill
#
# Bulk Modulus (GPa) = 45.42490 49.25445 47.33967
# Shear Modulus (GPa) = 23.49511 53.22497 38.36004
#
# Velocity S-wave (km/s) = 3.16352 4.76145 4.04223
# Velocity P-wave (km/s) = 5.71776 7.15603 6.47694
#
# Compressibility (1/GPa) = 0.02201436
#
# Stress axis : x y z
#
# Youngs Moduli (GPa) = 79.16751 53.72799 24.22949
#
# Poissons Ratio (x) = -0.11693 0.22865
# Poissons Ratio (y) = -0.17229 0.43589
# Poissons Ratio (z) = 0.74710 0.96656
#
# Static dielectric constant tensor:
#      x y z
#    x 1.891400 0.000000 -0.032220 
#    y 0.000000 1.852050 0.000000 
#    z -0.032220 0.000000 1.907190 
# 
# From -- ./inp_files/12877.got.cif
#   From: 2010.05.17/outbox.cif.g08.bks.cpg/sg9_7_cif.got.tgz:12877.got - 2010.06.03 20:04:27.
