data_PCOD9140004
_publ_section_title
;
Structure prediction by ZEFSAII (Michael W. Deem and Ramdas Pophale) SiO2 
 PCOD9140004
Probable space group: C C
;
_chemical_formula_sum "Si O2"
_cell_formula_units_Z 32
_cell_length_a 9.217100
_cell_length_b 12.277016
_cell_length_c 14.426473
_cell_angle_alpha 90.000000
_cell_angle_beta 106.690306
_cell_angle_gamma 90.000000
_cell_volume 1563.703322
_symmetry_space_group_name_H-M "C C"
_symmetry_group_IT_number 9
_symmetry_cell_setting 'monoclinic'
loop_
_space_group_symop_operation_xyz
x,y,z
x,-y,1/2+z
1/2+x,1/2+y,z
1/2+x,1/2-y,1/2+z
loop_
_atom_site_type_symbol
_atom_site_label
_atom_site_fract_x
_atom_site_fract_y
_atom_site_fract_z
Si Si1 0.558240 0.825429 0.592580
Si Si2 0.340802 0.588665 0.033916
Si Si3 0.230972 0.497161 0.835287
Si Si4 0.195691 0.851279 0.247424
Si Si5 0.774088 0.233512 0.440145
Si Si6 0.941829 0.463783 0.175722
Si Si7 0.358481 0.589885 0.682942
Si Si8 0.087897 0.730918 0.589377
O O1 0.679394 0.868027 0.540792
O O2 0.659449 0.758338 0.683577
O O3 0.433314 0.748639 0.522071
O O4 0.466033 0.921977 0.627378
O O5 0.353141 0.470100 0.083369
O O6 0.483266 0.663817 0.089038
O O7 0.322326 0.576733 0.920373
O O8 0.247309 0.379597 0.882771
O O9 0.295611 0.503083 0.744129
O O10 0.059439 0.534213 0.783857
O O11 0.273938 0.824003 0.358971
O O12 0.284276 0.932086 0.194671
O O13 0.028983 0.890862 0.240441
O O14 0.639882 0.240617 0.491882
O O15 0.988063 0.371088 0.108773
O O16 0.249972 0.696543 0.666244
#
# Coordination Sequence:
#
# PCOD9140004 Si02
#       8
#     4   4   4   4   4   4   4   4
#     4  12  23  44  70  98 140 179 228 295 346 418
#     4  12  22  43  69  97 137 182 230 285 352 421
#     4  11  22  45  68  97 139 181 226 287 357 418
#     4  12  24  43  68 105 137 178 239 288 346 427
#     4  12  24  44  70 101 137 179 229 290 352 420
#     4  11  24  44  71  98 139 188 228 288 359 413
#     4  11  24  44  67  98 142 181 225 295 351 408
#     4  11  23  41  69  98 133 182 227 276 357 407
#
# _framework density 20.46424
#
# number of rings (size 3 to 8) (size 9 to 14) (size 15 to 20)
#    0.000    0.500    7.500    1.500    1.750    0.000 
#    2.250    1.250    0.000    0.000    0.000    0.000 
#    0.000    0.000    0.000    0.000    0.000    0.000 
#
# Total GULP energy -89209.756188 kJ/mol
# GULP energy per Si atom -5575.609762 kJ/mol
# Density = 2.041766 g / cm^3
# Si number density = 20.464240 Si / 1000 Ang^3
#
#
#
# Elastic Constant Matrix: (Units=GPa)
#
#
# Indices 1 2 3 4 5 6 
#
# 1 115.6380 43.0206 19.5412 0.0000 -1.2386 0.0000
# 2 43.0206 72.3238 16.5986 0.0000 3.4816 0.0000
# 3 19.5412 16.5986 91.1200 0.0000 -1.9644 0.0000
# 4 0.0000 0.0000 0.0000 36.0699 0.0000 0.8986
# 5 -1.2386 3.4816 -1.9644 0.0000 26.9602 0.0000
# 6 0.0000 0.0000 0.0000 0.8986 0.0000 29.7757
#
#
#
# Elastic Compliance Matrix: (Units=1/GPa)
#
#
# Indices 1 2 3 4 5 6 
#
# 1 0.011282 -0.006494 -0.001209 0.000000 0.001269 0.000000
# 2 -0.006494 0.018283 -0.001998 0.000000 -0.002805 0.000000
# 3 -0.001209 -0.001998 0.011620 0.000000 0.001049 0.000000
# 4 0.000000 0.000000 0.000000 0.027745 0.000000 -0.000837
# 5 0.001269 -0.002805 0.001049 0.000000 0.037589 0.000000
# 6 0.000000 0.000000 0.000000 -0.000837 0.000000 0.033610
#
#
# Mechanical properties :
#
#
# Convention : Reuss Voigt Hill
#
# Bulk Modulus (GPa) = 45.90892 48.60027 47.25459
# Shear Modulus (GPa) = 29.97733 31.88924 30.93329
#
# Velocity S-wave (km/s) = 3.83151 3.95180 3.89212
# Velocity P-wave (km/s) = 6.48509 6.68003 6.58328
#
# Compressibility (1/GPa) = 0.02178226
#
# Stress axis : x y z
#
# Youngs Moduli (GPa) = 88.63957 54.69448 86.05518
#
# Poissons Ratio (x) = 0.35520 0.10404
# Poissons Ratio (y) = 0.57565 0.17196
# Poissons Ratio (z) = 0.10717 0.10929
#
# Static dielectric constant tensor:
#      x y z
#    x 1.764010 0.000000 -0.004550 
#    y 0.000000 1.758550 0.000000 
#    z -0.004550 0.000000 1.724660 
# 
# From -- ./inp_files/22694.got.cif
#   From: 2010.05.17/outbox.cif.g08.bks.cpg/sg9_12_cif.got.tgz:22694.got - 2010.06.03 20:04:27.
