data_PCOD9140954
_publ_section_title
;
Structure prediction by ZEFSAII (Michael W. Deem and Ramdas Pophale) SiO2 
 PCOD9140954
Probable space group: C C
;
_chemical_formula_sum "Si O2"
_cell_formula_units_Z 32
_cell_length_a 11.585830
_cell_length_b 14.586490
_cell_length_c 9.369234
_cell_angle_alpha 90.000000
_cell_angle_beta 69.171802
_cell_angle_gamma 90.000000
_cell_volume 1479.896753
_symmetry_space_group_name_H-M "C C"
_symmetry_group_IT_number 9
_symmetry_cell_setting 'monoclinic'
loop_
_space_group_symop_operation_xyz
x,y,z
x,-y,1/2+z
1/2+x,1/2+y,z
1/2+x,1/2-y,1/2+z
loop_
_atom_site_type_symbol
_atom_site_label
_atom_site_fract_x
_atom_site_fract_y
_atom_site_fract_z
Si Si1 0.878800 0.270531 0.976220
Si Si2 0.216332 0.574660 0.724140
Si Si3 0.618691 0.795846 0.038459
Si Si4 0.199734 0.630604 0.204096
Si Si5 0.197169 0.069543 0.452917
Si Si6 0.472054 0.323623 0.153878
Si Si7 0.022214 0.631860 0.043684
Si Si8 0.735009 0.608118 0.110631
O O1 0.807383 0.361368 0.953879
O O2 0.955067 0.222180 0.815713
O O3 0.974561 0.285763 0.062694
O O4 0.776298 0.197484 0.069337
O O5 0.140451 0.615334 0.625671
O O6 0.257150 0.469609 0.695508
O O7 0.338285 0.636548 0.678545
O O8 0.124060 0.587195 0.897446
O O9 0.684263 0.818817 0.860168
O O10 0.677645 0.705621 0.086267
O O11 0.069460 0.611163 0.182693
O O12 0.180039 0.080755 0.290114
O O13 0.076394 0.101266 0.592758
O O14 0.217000 0.965921 0.493931
O O15 0.518014 0.242160 0.030292
O O16 0.882092 0.606585 0.074578
#
# Coordination Sequence:
#
# PCOD9140954 Si02
#       8
#     4   4   4   4   4   4   4   4
#     4  12  25  48  74 108 151 199 247 311 377 441
#     4  12  28  46  75 111 147 201 250 315 375 442
#     4  12  27  47  70 115 147 190 256 307 375 442
#     4  12  27  46  75 108 148 199 250 311 372 449
#     4  12  28  49  79 108 152 200 251 309 375 450
#     4  12  23  50  76 102 154 197 247 304 381 442
#     4  12  24  50  72 101 152 195 250 302 374 445
#     4  12  30  48  75 113 147 203 249 311 377 445
#
# _framework density 21.623128999999999
#
# number of rings (size 3 to 8) (size 9 to 14) (size 15 to 20)
#    0.000    0.000    6.250    1.500   12.250    1.000 
#    0.000    0.000    0.000    0.000    0.000    0.000 
#    0.000    0.000    0.000    0.000    0.000    0.000 
#
# Total GULP energy -89468.576348 kJ/mol
# GULP energy per Si atom -5591.786022 kJ/mol
# Density = 2.157391 g / cm^3
# Si number density = 21.623129 Si / 1000 Ang^3
#
#
#
# Elastic Constant Matrix: (Units=GPa)
#
#
# Indices 1 2 3 4 5 6 
#
# 1 80.3155 -3.0623 19.9814 0.0000 5.4429 0.0000
# 2 -3.0623 100.9175 32.6076 0.0000 8.5394 0.0000
# 3 19.9814 32.6076 100.4321 0.0000 10.4769 0.0000
# 4 0.0000 0.0000 0.0000 24.2526 0.0000 9.4552
# 5 5.4429 8.5394 10.4769 0.0000 27.2768 0.0000
# 6 0.0000 0.0000 0.0000 9.4552 0.0000 27.4733
#
#
#
# Elastic Compliance Matrix: (Units=1/GPa)
#
#
# Indices 1 2 3 4 5 6 
#
# 1 0.013379 0.001529 -0.002948 0.000000 -0.002016 0.000000
# 2 0.001529 0.011370 -0.003743 0.000000 -0.002427 0.000000
# 3 -0.002948 -0.003743 0.012058 0.000000 -0.002872 0.000000
# 4 0.000000 0.000000 0.000000 0.047623 0.000000 -0.016390
# 5 -0.002016 -0.002427 -0.002872 0.000000 0.038926 0.000000
# 6 0.000000 0.000000 0.000000 -0.016390 0.000000 0.042040
#
#
# Mechanical properties :
#
#
# Convention : Reuss Voigt Hill
#
# Bulk Modulus (GPa) = 37.75780 42.30204 40.02992
# Shear Modulus (GPa) = 27.09333 31.27645 29.18489
#
# Velocity S-wave (km/s) = 3.54358 3.80733 3.67782
# Velocity P-wave (km/s) = 5.85169 6.23967 6.04879
#
# Compressibility (1/GPa) = 0.02648460
#
# Stress axis : x y z
#
# Youngs Moduli (GPa) = 74.74263 87.94966 82.93138
#
# Poissons Ratio (x) = -0.13449 0.24448
# Poissons Ratio (y) = -0.11429 0.31038
# Poissons Ratio (z) = 0.22034 0.32916
#
# Static dielectric constant tensor:
#      x y z
#    x 1.816870 0.000000 0.013350 
#    y 0.000000 1.792240 0.000000 
#    z 0.013350 0.000000 1.816630 
# 
# From -- ./inp_files/7480.got.cif
#   From: 2010.05.17/outbox.cif.g08.bks.cpg/sg9_4_cif.got.tgz:7480.got - 2010.06.03 20:04:27.
