data_PCOD9140326
_publ_section_title
;
Structure prediction by ZEFSAII (Michael W. Deem and Ramdas Pophale) SiO2 
 PCOD9140326
Probable space group: C C
;
_chemical_formula_sum "Si O2"
_cell_formula_units_Z 28
_cell_length_a 19.482688
_cell_length_b 7.350171
_cell_length_c 17.915671
_cell_angle_alpha 90.000000
_cell_angle_beta 157.955510
_cell_angle_gamma 90.000000
_cell_volume 962.916330
_symmetry_space_group_name_H-M "C C"
_symmetry_group_IT_number 9
_symmetry_cell_setting 'monoclinic'
loop_
_space_group_symop_operation_xyz
x,y,z
x,-y,1/2+z
1/2+x,1/2+y,z
1/2+x,1/2-y,1/2+z
loop_
_atom_site_type_symbol
_atom_site_label
_atom_site_fract_x
_atom_site_fract_y
_atom_site_fract_z
Si Si1 0.193750 0.945679 0.589760
Si Si2 0.114593 0.464091 0.995304
Si Si3 0.388233 0.382420 0.880903
Si Si4 0.650914 0.830751 0.216989
Si Si5 0.860989 0.473344 0.458472
Si Si6 0.124758 0.985477 0.851837
Si Si7 0.208451 0.563421 0.927251
O O1 0.106777 0.954070 0.419684
O O2 0.075576 0.056059 0.530597
O O3 0.401521 0.004948 0.787798
O O4 0.467254 0.896859 0.996830
O O5 0.242466 0.610694 0.165400
O O6 0.176611 0.268886 0.090873
O O7 0.150566 0.462772 0.942793
O O8 0.315258 0.548813 0.857114
O O9 0.695619 0.632423 0.288094
O O10 0.385610 0.213417 0.934737
O O11 0.765590 0.399971 0.443057
O O12 0.072751 0.549303 0.716927
O O13 0.914851 0.979381 0.613350
O O14 0.199631 0.778188 0.935768
#
# Coordination Sequence:
#
# PCOD9140326 Si02
#       7
#     4   4   4   4   4   4   4
#     4  12  26  53  85 123 179 232 310 374 454 535
#     4  12  26  53  85 123 178 240 302 382 451 540
#     4  12  30  56  81 131 177 242 294 369 456 543
#     4  11  27  52  83 122 178 230 293 373 442 538
#     4  11  27  54  86 125 180 234 298 368 457 534
#     4  11  23  49  83 124 169 228 301 375 440 545
#     4  11  23  49  83 124 167 234 304 367 450 531
#
# _framework density 29.078332
#
# number of rings (size 3 to 8) (size 9 to 14) (size 15 to 20)
#    0.000    0.571    2.857    5.143    4.000    3.429 
#   18.000    0.000    0.000    0.000    0.000    0.000 
#    0.000    0.000    0.000    0.000    0.000    0.000 
#
# Total GULP energy -78282.969688 kJ/mol
# GULP energy per Si atom -5591.640692 kJ/mol
# Density = 2.901215 g / cm^3
# Si number density = 29.078332 Si / 1000 Ang^3
#
#
#
# Elastic Constant Matrix: (Units=GPa)
#
#
# Indices 1 2 3 4 5 6 
#
# 1 235.8380 67.5829 81.0518 0.0001 33.5444 0.0000
# 2 67.5829 185.4214 33.8645 0.0002 7.4413 0.0001
# 3 81.0518 33.8645 157.9604 0.0005 28.8007 0.0004
# 4 0.0001 0.0002 0.0005 36.7973 0.0003 -9.6860
# 5 33.5444 7.4413 28.8007 0.0003 78.4088 0.0001
# 6 0.0000 0.0001 0.0004 -9.6860 0.0001 55.6624
#
#
#
# Elastic Compliance Matrix: (Units=1/GPa)
#
#
# Indices 1 2 3 4 5 6 
#
# 1 0.005699 -0.001596 -0.002321 0.000000 -0.001434 0.000000
# 2 -0.001596 0.006060 -0.000536 0.000000 0.000304 0.000000
# 3 -0.002321 -0.000536 0.007981 0.000000 -0.001888 0.000000
# 4 0.000000 0.000000 0.000000 0.028480 0.000000 0.004956
# 5 -0.001434 0.000304 -0.001888 0.000000 0.014032 0.000000
# 6 0.000000 0.000000 0.000000 0.004956 0.000000 0.018828
#
#
# Mechanical properties :
#
#
# Convention : Reuss Voigt Hill
#
# Bulk Modulus (GPa) = 92.29146 104.91314 98.60230
# Shear Modulus (GPa) = 53.42075 60.62176 57.02125
#
# Velocity S-wave (km/s) = 4.29083 4.57089 4.43307
# Velocity P-wave (km/s) = 7.50707 8.00095 7.75794
#
# Compressibility (1/GPa) = 0.01083524
#
# Stress axis : x y z
#
# Youngs Moduli (GPa) = 175.46772 165.00468 125.30485
#
# Poissons Ratio (x) = 0.26332 0.29079
# Poissons Ratio (y) = 0.28001 0.06716
# Poissons Ratio (z) = 0.40720 0.08843
#
# Static dielectric constant tensor:
#      x y z
#    x 2.727820 0.000000 -0.018180 
#    y 0.000000 2.279080 0.000000 
#    z -0.018180 0.000000 2.344800 
# 
# From -- ./inp_files/26071.got.cif
#   From: 2010.05.17/outbox.cif.g08.bks.cpg/sg9_14_cif.got.tgz:26071.got - 2010.06.03 20:04:27.
