data_PCOD9140641
_publ_section_title
;
Structure prediction by ZEFSAII (Michael W. Deem and Ramdas Pophale) SiO2 
 PCOD9140641
Probable space group: C C
;
_chemical_formula_sum "Si O2"
_cell_formula_units_Z 32
_cell_length_a 7.537899
_cell_length_b 26.116977
_cell_length_c 8.199357
_cell_angle_alpha 90.000000
_cell_angle_beta 123.580303
_cell_angle_gamma 90.000000
_cell_volume 1344.795082
_symmetry_space_group_name_H-M "C C"
_symmetry_group_IT_number 9
_symmetry_cell_setting 'monoclinic'
loop_
_space_group_symop_operation_xyz
x,y,z
x,-y,1/2+z
1/2+x,1/2+y,z
1/2+x,1/2-y,1/2+z
loop_
_atom_site_type_symbol
_atom_site_label
_atom_site_fract_x
_atom_site_fract_y
_atom_site_fract_z
Si Si1 0.038660 0.697679 0.012160
Si Si2 0.238622 0.914613 0.990378
Si Si3 0.536734 0.696003 0.326561
Si Si4 0.020867 0.064478 0.704560
Si Si5 0.624498 0.881548 0.327279
Si Si6 0.962749 0.040231 0.060407
Si Si7 0.345255 0.674418 0.681235
Si Si8 0.926200 0.716208 0.291198
O O1 0.289302 0.687699 0.164881
O O2 0.915554 0.687257 0.115384
O O3 0.968950 0.655360 0.847459
O O4 0.026390 0.755766 0.943923
O O5 0.131778 0.858577 0.924726
O O6 0.139118 0.945919 0.788373
O O7 0.492349 0.907112 0.113476
O O8 0.204344 0.936892 0.156679
O O9 0.704099 0.714555 0.273547
O O10 0.038610 0.051598 0.909984
O O11 0.933297 0.122400 0.648963
O O12 0.887457 0.017476 0.560191
O O13 0.759952 0.923521 0.488042
O O14 0.793591 0.842777 0.337058
O O15 0.482196 0.725640 0.767924
O O16 0.122720 0.692683 0.489255
#
# Coordination Sequence:
#
# PCOD9140641 Si02
#       8
#     4   4   4   4   4   4   4   4
#     4  12  24  41  69 105 145 202 251 310 383 461
#     4  12  24  48  73 107 149 196 250 320 384 458
#     4  12  24  42  68 102 159 192 250 325 375 458
#     4  11  25  49  79 108 147 199 259 314 392 458
#     4  11  25  47  71 107 148 192 255 315 387 458
#     4  11  25  50  78 105 150 199 246 334 387 451
#     4  11  25  45  69 105 149 192 249 312 372 468
#     4  12  24  42  71 107 145 204 248 304 392 460
#
# _framework density 23.795445999999998
#
# number of rings (size 3 to 8) (size 9 to 14) (size 15 to 20)
#    0.000    0.500    5.000    3.750    0.000    2.000 
#    4.500    0.000    0.000    0.000    0.000    0.000 
#    0.000    0.000    0.000    0.000    0.000    0.000 
#
# Total GULP energy -89285.036564 kJ/mol
# GULP energy per Si atom -5580.314785 kJ/mol
# Density = 2.374129 g / cm^3
# Si number density = 23.795446 Si / 1000 Ang^3
#
#
#
# Elastic Constant Matrix: (Units=GPa)
#
#
# Indices 1 2 3 4 5 6 
#
# 1 74.0962 8.1840 33.0327 0.0000 -28.1830 0.0000
# 2 8.1840 114.4685 10.2820 0.0000 -15.2629 0.0000
# 3 33.0327 10.2820 58.3699 0.0000 -2.4945 0.0000
# 4 0.0000 0.0000 0.0000 42.0649 0.0000 -4.6661
# 5 -28.1830 -15.2629 -2.4945 0.0000 45.9907 0.0000
# 6 0.0000 0.0000 0.0000 -4.6661 0.0000 31.2914
#
#
#
# Elastic Compliance Matrix: (Units=1/GPa)
#
#
# Indices 1 2 3 4 5 6 
#
# 1 0.025370 0.001478 -0.013965 0.000000 0.015280 0.000000
# 2 0.001478 0.009357 -0.002319 0.000000 0.003885 0.000000
# 3 -0.013965 -0.002319 0.025103 0.000000 -0.007965 0.000000
# 4 0.000000 0.000000 0.000000 0.024173 0.000000 0.003605
# 5 0.015280 0.003885 -0.007965 0.000000 0.031964 0.000000
# 6 0.000000 0.000000 0.000000 0.003605 0.000000 0.032495
#
#
# Mechanical properties :
#
#
# Convention : Reuss Voigt Hill
#
# Bulk Modulus (GPa) = 33.09178 38.88133 35.98655
# Shear Modulus (GPa) = 26.57515 36.89846 31.73680
#
# Velocity S-wave (km/s) = 3.34551 3.94210 3.65599
# Velocity P-wave (km/s) = 5.37217 6.09061 5.74263
#
# Compressibility (1/GPa) = 0.03021898
#
# Stress axis : x y z
#
# Youngs Moduli (GPa) = 39.41647 106.87594 39.83577
#
# Poissons Ratio (x) = -0.15795 0.55630
# Poissons Ratio (y) = -0.05825 0.09236
# Poissons Ratio (z) = 0.55044 0.24779
#
# Static dielectric constant tensor:
#      x y z
#    x 1.970050 0.000000 -0.032160 
#    y 0.000000 1.962740 0.000000 
#    z -0.032160 0.000000 1.962170 
# 
# From -- ./inp_files/6391.got.cif
#   From: 2010.05.17/outbox.cif.g08.bks.cpg/sg9_4_cif.got.tgz:6391.got - 2010.06.03 20:04:27.
