data_PCOD9140179
_publ_section_title
;
Structure prediction by ZEFSAII (Michael W. Deem and Ramdas Pophale) SiO2 
 PCOD9140179
Probable space group: C C
;
_chemical_formula_sum "Si O2"
_cell_formula_units_Z 32
_cell_length_a 8.548140
_cell_length_b 14.056384
_cell_length_c 11.200767
_cell_angle_alpha 90.000000
_cell_angle_beta 98.249188
_cell_angle_gamma 90.000000
_cell_volume 1331.913842
_symmetry_space_group_name_H-M "C C"
_symmetry_group_IT_number 9
_symmetry_cell_setting 'monoclinic'
loop_
_space_group_symop_operation_xyz
x,y,z
x,-y,1/2+z
1/2+x,1/2+y,z
1/2+x,1/2-y,1/2+z
loop_
_atom_site_type_symbol
_atom_site_label
_atom_site_fract_x
_atom_site_fract_y
_atom_site_fract_z
Si Si1 0.858480 0.433578 0.215710
Si Si2 0.860932 0.105200 0.445466
Si Si3 0.426209 0.303913 0.192833
Si Si4 0.022808 0.252429 0.336791
Si Si5 0.608711 0.688652 0.108922
Si Si6 0.031410 0.613307 0.285216
Si Si7 0.085429 0.061463 0.886579
Si Si8 0.832583 0.318856 0.979992
O O1 0.722039 0.447189 0.300804
O O2 0.978566 0.354462 0.282010
O O3 0.961368 0.527209 0.200678
O O4 0.793655 0.388109 0.086056
O O5 0.906522 0.115804 0.588976
O O6 0.687071 0.083116 0.376379
O O7 0.885490 0.214257 0.406038
O O8 0.986984 0.032680 0.404436
O O9 0.262440 0.248249 0.160653
O O10 0.547720 0.213044 0.213879
O O11 0.464292 0.362141 0.315732
O O12 0.031357 0.174900 0.230166
O O13 0.182400 0.244051 0.429178
O O14 0.642184 0.604529 0.020274
O O15 0.482169 0.756924 0.033658
O O16 0.895305 0.628713 0.369673
#
# Coordination Sequence:
#
# PCOD9140179 Si02
#       8
#     4   4   4   4   4   4   4   4
#     4  11  28  46  78 114 149 202 254 313 380 456
#     4  12  29  45  77 112 149 201 254 308 384 454
#     4  12  24  48  77 104 153 197 244 319 375 443
#     4  11  24  47  72 110 151 195 255 304 385 443
#     4  11  23  44  77 104 148 201 241 314 370 448
#     4  12  26  48  76 113 149 200 256 310 383 453
#     4  12  27  48  75 111 155 199 258 310 379 454
#     4  11  23  48  74 108 150 197 250 312 376 453
#
# _framework density 24.025577999999999
#
# number of rings (size 3 to 8) (size 9 to 14) (size 15 to 20)
#    0.000    0.500    3.750    3.000    7.000    4.000 
#    0.000    0.000    0.000    0.000    0.000    0.000 
#    0.000    0.000    0.000    0.000    0.000    0.000 
#
# Total GULP energy -89406.805028 kJ/mol
# GULP energy per Si atom -5587.925314 kJ/mol
# Density = 2.397089 g / cm^3
# Si number density = 24.025578 Si / 1000 Ang^3
#
#
#
# Elastic Constant Matrix: (Units=GPa)
#
#
# Indices 1 2 3 4 5 6 
#
# 1 81.0608 24.5740 32.2417 0.0000 19.2637 0.0000
# 2 24.5740 111.9706 40.1733 0.0000 16.1451 0.0000
# 3 32.2417 40.1733 111.8059 0.0000 22.0984 0.0000
# 4 0.0000 0.0000 0.0000 23.0673 0.0000 8.5272
# 5 19.2637 16.1451 22.0984 0.0000 44.5729 0.0000
# 6 0.0000 0.0000 0.0000 8.5272 0.0000 39.5236
#
#
#
# Elastic Compliance Matrix: (Units=1/GPa)
#
#
# Indices 1 2 3 4 5 6 
#
# 1 0.015035 -0.001625 -0.002865 0.000000 -0.004489 0.000000
# 2 -0.001625 0.010607 -0.003018 0.000000 -0.001644 0.000000
# 3 -0.002865 -0.003018 0.011523 0.000000 -0.003382 0.000000
# 4 0.000000 0.000000 0.000000 0.047109 0.000000 -0.010164
# 5 -0.004489 -0.001644 -0.003382 0.000000 0.026647 0.000000
# 6 0.000000 0.000000 0.000000 -0.010164 0.000000 0.027494
#
#
# Mechanical properties :
#
#
# Convention : Reuss Voigt Hill
#
# Bulk Modulus (GPa) = 45.14491 55.42392 50.28441
# Shear Modulus (GPa) = 31.09189 35.28930 33.19060
#
# Velocity S-wave (km/s) = 3.60129 3.83668 3.72084
# Velocity P-wave (km/s) = 6.01028 6.53801 6.27969
#
# Compressibility (1/GPa) = 0.02215089
#
# Stress axis : x y z
#
# Youngs Moduli (GPa) = 66.51057 94.27495 86.78349
#
# Poissons Ratio (x) = 0.15316 0.24861
# Poissons Ratio (y) = 0.10806 0.26191
# Poissons Ratio (z) = 0.19053 0.28452
#
# Static dielectric constant tensor:
#      x y z
#    x 1.938180 0.000000 -0.036070 
#    y 0.000000 1.923000 0.000000 
#    z -0.036070 0.000000 1.960650 
# 
# From -- ./inp_files/14786.got.cif
#   From: 2010.05.17/outbox.cif.g08.bks.cpg/sg9_8_cif.got.tgz:14786.got - 2010.06.03 20:04:27.
