data_PCOD9140658
_publ_section_title
;
Structure prediction by ZEFSAII (Michael W. Deem and Ramdas Pophale) SiO2 
 PCOD9140658
Probable space group: C C
;
_chemical_formula_sum "Si O2"
_cell_formula_units_Z 28
_cell_length_a 9.272052
_cell_length_b 12.441445
_cell_length_c 12.658791
_cell_angle_alpha 90.000000
_cell_angle_beta 50.474334
_cell_angle_gamma 90.000000
_cell_volume 1126.378946
_symmetry_space_group_name_H-M "C C"
_symmetry_group_IT_number 9
_symmetry_cell_setting 'monoclinic'
loop_
_space_group_symop_operation_xyz
x,y,z
x,-y,1/2+z
1/2+x,1/2+y,z
1/2+x,1/2-y,1/2+z
loop_
_atom_site_type_symbol
_atom_site_label
_atom_site_fract_x
_atom_site_fract_y
_atom_site_fract_z
Si Si1 0.829910 0.886747 0.808620
Si Si2 0.450922 0.741714 0.589266
Si Si3 0.761984 0.636654 0.577838
Si Si4 0.035268 0.216787 0.014636
Si Si5 0.822940 0.568808 0.789220
Si Si6 0.135379 0.130104 0.319118
Si Si7 0.516464 0.057627 0.901866
O O1 0.917817 0.819663 0.671165
O O2 0.009093 0.926510 0.790236
O O3 0.697297 0.983017 0.833518
O O4 0.704924 0.804639 0.938900
O O5 0.568464 0.689662 0.631747
O O6 0.241824 0.766771 0.723149
O O7 0.496547 0.655678 0.478208
O O8 0.507475 0.851712 0.497468
O O9 0.812947 0.619673 0.677585
O O10 0.906370 0.732897 0.483248
O O11 0.838146 0.524658 0.496328
O O12 0.133765 0.109374 0.930524
O O13 0.805492 0.442437 0.779366
O O14 0.986347 0.595740 0.794940
#
# Coordination Sequence:
#
# PCOD9140658 Si02
#       7
#     4   4   4   4   4   4   4
#     4  11  25  47  75 114 149 213 264 330 414 472
#     4  12  28  49  80 112 164 208 272 331 412 478
#     4  11  26  47  78 116 152 218 261 334 411 471
#     4  11  25  45  76 104 157 197 273 322 401 478
#     4  12  25  48  75 112 160 204 272 336 388 489
#     4  12  27  46  78 114 159 209 267 338 397 486
#     4  11  26  50  76 114 161 207 271 333 399 488
#
# _framework density 24.858421
#
# number of rings (size 3 to 8) (size 9 to 14) (size 15 to 20)
#    0.000    0.571    4.286    2.571    6.000    1.143 
#    2.571    0.000    0.000    0.000    0.000    0.000 
#    0.000    0.000    0.000    0.000    0.000    0.000 
#
# Total GULP energy -78127.370392 kJ/mol
# GULP energy per Si atom -5580.526457 kJ/mol
# Density = 2.480184 g / cm^3
# Si number density = 24.858421 Si / 1000 Ang^3
#
#
#
# Elastic Constant Matrix: (Units=GPa)
#
#
# Indices 1 2 3 4 5 6 
#
# 1 96.3440 33.5601 41.2653 0.0000 9.8117 0.0000
# 2 33.5601 86.2698 15.3199 0.0000 14.4877 0.0000
# 3 41.2653 15.3199 91.2294 0.0000 11.7820 0.0000
# 4 0.0000 0.0000 0.0000 36.6769 0.0000 -5.5121
# 5 9.8117 14.4877 11.7820 0.0000 33.2221 0.0000
# 6 0.0000 0.0000 0.0000 -5.5121 0.0000 47.9341
#
#
#
# Elastic Compliance Matrix: (Units=1/GPa)
#
#
# Indices 1 2 3 4 5 6 
#
# 1 0.014451 -0.004562 -0.005739 0.000000 -0.000243 0.000000
# 2 -0.004562 0.014137 0.000327 0.000000 -0.004933 0.000000
# 3 -0.005739 0.000327 0.013941 0.000000 -0.003391 0.000000
# 4 0.000000 0.000000 0.000000 0.027745 0.000000 0.003190
# 5 -0.000243 -0.004933 -0.003391 0.000000 0.033526 0.000000
# 6 0.000000 0.000000 0.000000 0.003190 0.000000 0.021229
#
#
# Mechanical properties :
#
#
# Convention : Reuss Voigt Hill
#
# Bulk Modulus (GPa) = 44.28748 50.45929 47.37339
# Shear Modulus (GPa) = 32.78601 35.81313 34.29957
#
# Velocity S-wave (km/s) = 3.63562 3.79975 3.71859
# Velocity P-wave (km/s) = 5.95636 6.29234 6.12665
#
# Compressibility (1/GPa) = 0.02257974
#
# Stress axis : x y z
#
# Youngs Moduli (GPa) = 69.19704 70.73828 71.73322
#
# Poissons Ratio (x) = 0.32269 0.41170
# Poissons Ratio (y) = 0.31566 -0.02343
# Poissons Ratio (z) = 0.39714 -0.02310
#
# Static dielectric constant tensor:
#      x y z
#    x 2.055630 0.000000 0.009720 
#    y 0.000000 2.022850 0.000000 
#    z 0.009720 0.000000 2.050970 
# 
# From -- ./inp_files/14535.got.cif
#   From: 2010.05.17/outbox.cif.g08.bks.cpg/sg9_8_cif.got.tgz:14535.got - 2010.06.03 20:04:27.
