data_PCOD9140227
_publ_section_title
;
Structure prediction by ZEFSAII (Michael W. Deem and Ramdas Pophale) SiO2 
 PCOD9140227
Probable space group: C C
;
_chemical_formula_sum "Si O2"
_cell_formula_units_Z 28
_cell_length_a 14.225757
_cell_length_b 12.420309
_cell_length_c 13.443394
_cell_angle_alpha 90.000000
_cell_angle_beta 32.312326
_cell_angle_gamma 90.000000
_cell_volume 1269.673901
_symmetry_space_group_name_H-M "C C"
_symmetry_group_IT_number 9
_symmetry_cell_setting 'monoclinic'
loop_
_space_group_symop_operation_xyz
x,y,z
x,-y,1/2+z
1/2+x,1/2+y,z
1/2+x,1/2-y,1/2+z
loop_
_atom_site_type_symbol
_atom_site_label
_atom_site_fract_x
_atom_site_fract_y
_atom_site_fract_z
Si Si1 0.858940 0.878576 0.034450
Si Si2 0.215883 0.132540 0.877438
Si Si3 0.639599 0.591774 0.527668
Si Si4 0.700503 0.522766 0.686616
Si Si5 0.263154 0.431870 0.329571
Si Si6 0.898627 0.657639 0.119434
Si Si7 0.123454 0.357968 0.056278
O O1 0.788243 0.948289 0.189387
O O2 0.902197 0.765221 0.050083
O O3 0.709896 0.852367 0.087583
O O4 0.026253 0.944722 0.842087
O O5 0.416807 0.118942 0.734345
O O6 0.194637 0.111467 0.779275
O O7 0.151830 0.246498 0.973386
O O8 0.115646 0.032634 0.015532
O O9 0.723016 0.581990 0.561636
O O10 0.437019 0.628562 0.714048
O O11 0.754300 0.644344 0.336907
O O12 0.852463 0.440464 0.585308
O O13 0.225385 0.544243 0.414620
O O14 0.087320 0.362722 0.498700
#
# Coordination Sequence:
#
# PCOD9140227 Si02
#       7
#     4   4   4   4   4   4   4
#     4  12  26  44  77 108 137 188 241 294 357 426
#     4  11  25  44  69 102 140 180 238 293 345 428
#     4  11  23  46  68 103 147 183 233 295 354 422
#     4  11  23  46  70 102 147 187 229 299 358 418
#     4  12  24  44  70 103 145 177 235 295 359 419
#     4  11  25  44  70 108 143 184 240 296 350 431
#     4  12  26  44  72 104 135 187 236 294 357 422
#
# _framework density 22.052904999999999
#
# number of rings (size 3 to 8) (size 9 to 14) (size 15 to 20)
#    0.000    0.571    7.143    2.571    6.000    0.000 
#    0.000    2.857    0.000    0.000    0.000    0.000 
#    0.000    0.000    0.000    0.000    0.000    0.000 
#
# Total GULP energy -78280.310423 kJ/mol
# GULP energy per Si atom -5591.450745 kJ/mol
# Density = 2.200271 g / cm^3
# Si number density = 22.052905 Si / 1000 Ang^3
#
#
#
# Elastic Constant Matrix: (Units=GPa)
#
#
# Indices 1 2 3 4 5 6 
#
# 1 145.4138 35.2767 22.9615 0.0000 5.9536 0.0000
# 2 35.2767 80.5694 19.7484 0.0002 1.1643 -0.0001
# 3 22.9615 19.7484 90.7856 0.0002 -30.3616 -0.0001
# 4 0.0000 0.0002 0.0002 21.2672 -0.0001 -8.6197
# 5 5.9536 1.1643 -30.3616 -0.0001 39.8947 0.0000
# 6 0.0000 -0.0001 -0.0001 -8.6197 0.0000 19.9985
#
#
#
# Elastic Compliance Matrix: (Units=1/GPa)
#
#
# Indices 1 2 3 4 5 6 
#
# 1 0.008081 -0.002909 -0.002396 0.000000 -0.002945 0.000000
# 2 -0.002909 0.014516 -0.003244 0.000000 -0.002459 0.000000
# 3 -0.002396 -0.003244 0.016738 0.000000 0.013191 0.000000
# 4 0.000000 0.000000 0.000000 0.056974 0.000000 0.024557
# 5 -0.002945 -0.002459 0.013191 0.000000 0.035616 0.000000
# 6 0.000000 0.000000 0.000000 0.024557 0.000000 0.060588
#
#
# Mechanical properties :
#
#
# Convention : Reuss Voigt Hill
#
# Bulk Modulus (GPa) = 44.96856 52.52688 48.74772
# Shear Modulus (GPa) = 23.03903 32.15090 27.59497
#
# Velocity S-wave (km/s) = 3.23571 3.82239 3.54122
# Velocity P-wave (km/s) = 5.86475 6.58416 6.23484
#
# Compressibility (1/GPa) = 0.02223776
#
# Stress axis : x y z
#
# Youngs Moduli (GPa) = 123.74050 68.89016 59.74420
#
# Poissons Ratio (x) = 0.20037 0.14315
# Poissons Ratio (y) = 0.35990 0.19382
# Poissons Ratio (z) = 0.29649 0.22349
#
# Static dielectric constant tensor:
#      x y z
#    x 1.828450 0.000000 -0.030830 
#    y 0.000000 1.816500 0.000000 
#    z -0.030830 0.000000 1.845910 
# 
# From -- ./inp_files/25898.got.cif
#   From: 2010.05.17/outbox.cif.g08.bks.cpg/sg9_13_cif.got.tgz:25898.got - 2010.06.03 20:04:27.
