data_PCOD9140035
_publ_section_title
;
Structure prediction by ZEFSAII (Michael W. Deem and Ramdas Pophale) SiO2 
 PCOD9140035
Probable space group: C C
;
_chemical_formula_sum "Si O2"
_cell_formula_units_Z 32
_cell_length_a 7.918502
_cell_length_b 12.623124
_cell_length_c 13.697695
_cell_angle_alpha 90.000000
_cell_angle_beta 106.765052
_cell_angle_gamma 90.000000
_cell_volume 1310.974262
_symmetry_space_group_name_H-M "C C"
_symmetry_group_IT_number 9
_symmetry_cell_setting 'monoclinic'
loop_
_space_group_symop_operation_xyz
x,y,z
x,-y,1/2+z
1/2+x,1/2+y,z
1/2+x,1/2-y,1/2+z
loop_
_atom_site_type_symbol
_atom_site_label
_atom_site_fract_x
_atom_site_fract_y
_atom_site_fract_z
Si Si1 0.006010 0.663142 0.250000
Si Si2 0.473787 0.902049 0.527825
Si Si3 0.332010 0.453290 0.461044
Si Si4 0.279076 0.371251 0.233628
Si Si5 0.876064 0.195082 0.414884
Si Si6 0.286618 0.999008 0.828173
Si Si7 0.937164 0.922090 0.669776
Si Si8 0.422347 0.796008 0.242736
O O1 0.191564 0.701288 0.325398
O O2 0.001708 0.595903 0.148610
O O3 0.886451 0.767294 0.222257
O O4 0.934094 0.582970 0.319122
O O5 0.648780 0.929524 0.490714
O O6 0.408271 0.781211 0.501887
O O7 0.322578 0.970623 0.446710
O O8 0.324947 0.401208 0.353754
O O9 0.377134 0.576125 0.450689
O O10 0.479414 0.416155 0.562475
O O11 0.325772 0.472577 0.176108
O O12 0.073334 0.343668 0.199876
O O13 0.007179 0.239061 0.352731
O O14 0.311229 0.106182 0.767198
O O15 0.106111 0.945159 0.764908
O O16 0.848846 0.807855 0.676095
#
# Coordination Sequence:
#
# PCOD9140035 Si02
#       8
#     4   4   4   4   4   4   4   4
#     4  12  25  47  78 108 153 197 252 323 375 450
#     4  11  25  45  77 110 145 207 253 298 394 454
#     4  12  25  44  76 111 144 202 253 304 389 454
#     4  12  24  48  75 106 150 197 250 310 381 446
#     4  11  22  46  74 101 151 193 243 315 370 447
#     4  11  25  50  72 106 150 197 247 312 378 449
#     4  12  27  46  75 109 149 193 255 315 372 452
#     4  11  23  46  71  99 146 194 239 311 365 438
#
# _framework density 24.409326
#
# number of rings (size 3 to 8) (size 9 to 14) (size 15 to 20)
#    0.000    0.500    6.250    3.000    1.750    3.000 
#    4.500    0.000    0.000    0.000    0.000    0.000 
#    0.000    0.000    0.000    0.000    0.000    0.000 
#
# Total GULP energy -89328.789578 kJ/mol
# GULP energy per Si atom -5583.049349 kJ/mol
# Density = 2.435377 g / cm^3
# Si number density = 24.409326 Si / 1000 Ang^3
#
#
#
# Elastic Constant Matrix: (Units=GPa)
#
#
# Indices 1 2 3 4 5 6 
#
# 1 43.2626 26.3126 4.9661 0.0000 -2.1456 0.0000
# 2 26.3126 156.4834 19.7854 0.0000 -6.1023 0.0000
# 3 4.9661 19.7854 82.3262 0.0000 -11.2893 0.0000
# 4 0.0000 0.0000 0.0000 17.1431 0.0000 3.0107
# 5 -2.1456 -6.1023 -11.2893 0.0000 25.9886 0.0000
# 6 0.0000 0.0000 0.0000 3.0107 0.0000 42.4542
#
#
#
# Elastic Compliance Matrix: (Units=1/GPa)
#
#
# Indices 1 2 3 4 5 6 
#
# 1 0.025793 -0.004249 -0.000404 0.000000 0.000956 0.000000
# 2 -0.004249 0.007311 -0.001397 0.000000 0.000759 0.000000
# 3 -0.000404 -0.001397 0.013246 0.000000 0.005393 0.000000
# 4 0.000000 0.000000 0.000000 0.059068 0.000000 -0.004189
# 5 0.000956 0.000759 0.005393 0.000000 0.041078 0.000000
# 6 0.000000 0.000000 0.000000 -0.004189 0.000000 0.023852
#
#
# Mechanical properties :
#
#
# Convention : Reuss Voigt Hill
#
# Bulk Modulus (GPa) = 29.19542 42.68895 35.94218
# Shear Modulus (GPa) = 25.79134 32.51771 29.15453
#
# Velocity S-wave (km/s) = 3.25409 3.65387 3.45976
# Velocity P-wave (km/s) = 5.10936 5.94372 5.54226
#
# Compressibility (1/GPa) = 0.03425195
#
# Stress axis : x y z
#
# Youngs Moduli (GPa) = 38.77096 136.77906 75.49267
#
# Poissons Ratio (x) = 0.58113 0.03047
# Poissons Ratio (y) = 0.16472 0.10544
# Poissons Ratio (z) = 0.01565 0.19103
#
# Static dielectric constant tensor:
#      x y z
#    x 2.113510 0.000000 0.013380 
#    y 0.000000 1.929340 0.000000 
#    z 0.013380 0.000000 2.011610 
# 
# From -- ./inp_files/22812.got.cif
#   From: 2010.05.17/outbox.cif.g08.bks.cpg/sg9_12_cif.got.tgz:22812.got - 2010.06.03 20:04:27.
