data_PCOD9140528
_publ_section_title
;
Structure prediction by ZEFSAII (Michael W. Deem and Ramdas Pophale) SiO2 
 PCOD9140528
Probable space group: C C
;
_chemical_formula_sum "Si O2"
_cell_formula_units_Z 32
_cell_length_a 14.553146
_cell_length_b 11.920237
_cell_length_c 9.162670
_cell_angle_alpha 90.000000
_cell_angle_beta 113.133346
_cell_angle_gamma 90.000000
_cell_volume 1461.704149
_symmetry_space_group_name_H-M "C C"
_symmetry_group_IT_number 9
_symmetry_cell_setting 'monoclinic'
loop_
_space_group_symop_operation_xyz
x,y,z
x,-y,1/2+z
1/2+x,1/2+y,z
1/2+x,1/2-y,1/2+z
loop_
_atom_site_type_symbol
_atom_site_label
_atom_site_fract_x
_atom_site_fract_y
_atom_site_fract_z
Si Si1 0.303660 0.916343 0.562510
Si Si2 0.915598 0.796800 0.055343
Si Si3 0.050659 0.276846 0.076856
Si Si4 0.329621 0.138607 0.410592
Si Si5 0.240722 0.426744 0.117227
Si Si6 0.583979 0.401612 0.361746
Si Si7 0.486557 0.360339 0.783181
Si Si8 0.793700 0.885646 0.467314
O O1 0.391839 0.833669 0.567856
O O2 0.289885 0.900360 0.727882
O O3 0.201670 0.884115 0.414972
O O4 0.322741 0.043233 0.527401
O O5 0.819046 0.859065 0.065031
O O6 0.013047 0.840953 0.201157
O O7 0.933800 0.823655 0.898737
O O8 0.142053 0.355217 0.088268
O O9 0.042176 0.243658 0.240919
O O10 0.060357 0.159177 0.998987
O O11 0.946159 0.331088 0.964115
O O12 0.277966 0.253761 0.430147
O O13 0.293661 0.440181 0.307064
O O14 0.219921 0.543822 0.023758
O O15 0.557307 0.532729 0.350217
O O16 0.399268 0.395404 0.615711
#
# Coordination Sequence:
#
# PCOD9140528 Si02
#       8
#     4   4   4   4   4   4   4   4
#     4  12  28  48  76 107 153 198 252 316 389 453
#     4  12  24  47  72 111 148 197 255 315 378 452
#     4  11  25  50  72 106 158 203 249 317 388 457
#     4  11  27  51  72 110 154 198 246 320 385 450
#     4  12  24  47  77 110 151 200 253 317 381 453
#     4  12  24  46  78 107 147 201 255 318 377 462
#     4  11  26  42  74 110 149 199 255 311 378 448
#     4  11  24  47  73 107 150 196 247 314 374 447
#
# _framework density 21.892254999999999
#
# number of rings (size 3 to 8) (size 9 to 14) (size 15 to 20)
#    0.000    0.500    5.000    2.250   10.500    1.000 
#    2.250    0.000    0.000    0.000    0.000    0.000 
#    0.000    0.000    0.000    0.000    0.000    0.000 
#
# Total GULP energy -89528.186745 kJ/mol
# GULP energy per Si atom -5595.511672 kJ/mol
# Density = 2.184243 g / cm^3
# Si number density = 21.892255 Si / 1000 Ang^3
#
#
#
# Elastic Constant Matrix: (Units=GPa)
#
#
# Indices 1 2 3 4 5 6 
#
# 1 102.7258 41.9806 57.2303 0.0000 1.7864 0.0000
# 2 41.9806 148.3204 62.2824 0.0000 -19.3950 0.0000
# 3 57.2303 62.2824 121.4668 0.0000 -23.5341 0.0000
# 4 0.0000 0.0000 0.0000 35.3723 0.0000 -8.0466
# 5 1.7864 -19.3950 -23.5341 0.0000 34.3206 0.0000
# 6 0.0000 0.0000 0.0000 -8.0466 0.0000 41.8670
#
#
#
# Elastic Compliance Matrix: (Units=1/GPa)
#
#
# Indices 1 2 3 4 5 6 
#
# 1 0.014703 -0.002028 -0.007217 0.000000 -0.006860 0.000000
# 2 -0.002028 0.009007 -0.003063 0.000000 0.003095 0.000000
# 3 -0.007217 -0.003063 0.014924 0.000000 0.008878 0.000000
# 4 0.000000 0.000000 0.000000 0.029563 0.000000 0.005682
# 5 -0.006860 0.003095 0.008878 0.000000 0.037331 0.000000
# 6 0.000000 0.000000 0.000000 0.005682 0.000000 0.024977
#
#
# Mechanical properties :
#
#
# Convention : Reuss Voigt Hill
#
# Bulk Modulus (GPa) = 71.33718 77.27773 74.30745
# Shear Modulus (GPa) = 31.29007 36.37996 33.83502
#
# Velocity S-wave (km/s) = 3.78468 4.08091 3.93558
# Velocity P-wave (km/s) = 7.19407 7.58820 7.39377
#
# Compressibility (1/GPa) = 0.01401794
#
# Stress axis : x y z
#
# Youngs Moduli (GPa) = 68.01114 111.02152 67.00728
#
# Poissons Ratio (x) = 0.22518 0.48358
# Poissons Ratio (y) = 0.13794 0.20525
# Poissons Ratio (z) = 0.49083 0.34008
#
# Static dielectric constant tensor:
#      x y z
#    x 1.811520 0.000000 0.012070 
#    y 0.000000 1.829210 0.000000 
#    z 0.012070 0.000000 1.796470 
# 
# From -- ./inp_files/9183.got.cif
#   From: 2010.05.17/outbox.cif.g08.bks.cpg/sg9_5_cif.got.tgz:9183.got - 2010.06.03 20:04:27.
