data_PCOD9140049
_publ_section_title
;
Structure prediction by ZEFSAII (Michael W. Deem and Ramdas Pophale) SiO2 
 PCOD9140049
Probable space group: C C
;
_chemical_formula_sum "Si O2"
_cell_formula_units_Z 32
_cell_length_a 11.986140
_cell_length_b 9.528507
_cell_length_c 14.061951
_cell_angle_alpha 90.000000
_cell_angle_beta 118.210784
_cell_angle_gamma 90.000000
_cell_volume 1415.244304
_symmetry_space_group_name_H-M "C C"
_symmetry_group_IT_number 9
_symmetry_cell_setting 'monoclinic'
loop_
_space_group_symop_operation_xyz
x,y,z
x,-y,1/2+z
1/2+x,1/2+y,z
1/2+x,1/2-y,1/2+z
loop_
_atom_site_type_symbol
_atom_site_label
_atom_site_fract_x
_atom_site_fract_y
_atom_site_fract_z
Si Si1 0.821830 0.775967 0.927450
Si Si2 0.620661 0.410345 0.267271
Si Si3 0.926942 0.505370 0.072277
Si Si4 0.281722 0.274030 0.459552
Si Si5 0.852250 0.035724 0.604388
Si Si6 0.556811 0.592442 0.426772
Si Si7 0.201675 0.617807 0.718304
Si Si8 0.219114 0.924812 0.640548
O O1 0.692893 0.727255 0.827072
O O2 0.916793 0.861979 0.898974
O O3 0.899236 0.637937 0.993029
O O4 0.778554 0.866482 0.000710
O O5 0.489252 0.391599 0.160846
O O6 0.580865 0.508197 0.339292
O O7 0.716021 0.490396 0.236859
O O8 0.846767 0.546421 0.133964
O O9 0.068177 0.462890 0.159474
O O10 0.863422 0.369187 0.995773
O O11 0.351758 0.383600 0.556713
O O12 0.147797 0.227992 0.452411
O O13 0.253417 0.342365 0.344546
O O14 0.796371 0.034612 0.686994
O O15 0.611392 0.489746 0.529516
O O16 0.191203 0.766687 0.659113
#
# Coordination Sequence:
#
# PCOD9140049 Si02
#       8
#     4   4   4   4   4   4   4   4
#     4  12  25  47  72 110 142 198 247 304 364 447
#     4  12  25  46  74 104 148 204 231 308 387 425
#     4  11  25  47  76 106 148 192 249 305 366 442
#     4  11  26  47  71 109 143 196 244 305 371 442
#     4  12  28  46  70 110 153 186 253 306 365 448
#     4  11  24  45  74 107 151 190 253 299 371 447
#     4  12  25  47  77 104 152 197 246 305 376 439
#     4  11  22  47  72 108 149 193 237 312 374 434
#
# _framework density 22.610937
#
# number of rings (size 3 to 8) (size 9 to 14) (size 15 to 20)
#    0.000    0.500    6.250    1.500    3.500    3.000 
#    2.250    0.000    0.000    0.000    0.000    0.000 
#    0.000    0.000    0.000    0.000    0.000    0.000 
#
# Total GULP energy -89495.202907 kJ/mol
# GULP energy per Si atom -5593.450182 kJ/mol
# Density = 2.255947 g / cm^3
# Si number density = 22.610937 Si / 1000 Ang^3
#
#
#
# Elastic Constant Matrix: (Units=GPa)
#
#
# Indices 1 2 3 4 5 6 
#
# 1 117.0898 19.4250 39.2989 0.0000 -0.9283 0.0000
# 2 19.4250 95.2719 43.4816 0.0000 -3.7256 0.0000
# 3 39.2989 43.4816 92.0721 0.0000 -17.4997 0.0000
# 4 0.0000 0.0000 0.0000 46.9699 0.0000 -5.3551
# 5 -0.9283 -3.7256 -17.4997 0.0000 35.3365 0.0000
# 6 0.0000 0.0000 0.0000 -5.3551 0.0000 24.8887
#
#
#
# Elastic Compliance Matrix: (Units=1/GPa)
#
#
# Indices 1 2 3 4 5 6 
#
# 1 0.010103 0.000008 -0.004709 0.000000 -0.002066 0.000000
# 2 0.000008 0.013496 -0.006741 0.000000 -0.001915 0.000000
# 3 -0.004709 -0.006741 0.017548 0.000000 0.007856 0.000000
# 4 0.000000 0.000000 0.000000 0.021826 0.000000 0.004696
# 5 -0.002066 -0.001915 0.007856 0.000000 0.031933 0.000000
# 6 0.000000 0.000000 0.000000 0.004696 0.000000 0.041189
#
#
# Mechanical properties :
#
#
# Convention : Reuss Voigt Hill
#
# Bulk Modulus (GPa) = 54.75406 56.53833 55.64620
# Shear Modulus (GPa) = 30.29068 34.92090 32.60579
#
# Velocity S-wave (km/s) = 3.66409 3.93418 3.80153
# Velocity P-wave (km/s) = 6.49377 6.75990 6.62817
#
# Compressibility (1/GPa) = 0.01826348
#
# Stress axis : x y z
#
# Youngs Moduli (GPa) = 98.97923 74.09384 56.98755
#
# Poissons Ratio (x) = -0.00062 0.26835
# Poissons Ratio (y) = -0.00083 0.38418
# Poissons Ratio (z) = 0.46608 0.49950
#
# Static dielectric constant tensor:
#      x y z
#    x 1.831060 0.000000 0.009130 
#    y 0.000000 1.889090 0.000000 
#    z 0.009130 0.000000 1.873160 
# 
# From -- ./inp_files/24336.got.cif
#   From: 2010.05.17/outbox.cif.g08.bks.cpg/sg9_13_cif.got.tgz:24336.got - 2010.06.03 20:04:27.
