data_PCOD9140028
_publ_section_title
;
Structure prediction by ZEFSAII (Michael W. Deem and Ramdas Pophale) SiO2 
 PCOD9140028
Probable space group: C C
;
_chemical_formula_sum "Si O2"
_cell_formula_units_Z 20
_cell_length_a 4.812731
_cell_length_b 13.115417
_cell_length_c 12.639947
_cell_angle_alpha 90.000000
_cell_angle_beta 80.150055
_cell_angle_gamma 90.000000
_cell_volume 786.084842
_symmetry_space_group_name_H-M "C C"
_symmetry_group_IT_number 9
_symmetry_cell_setting 'monoclinic'
loop_
_space_group_symop_operation_xyz
x,y,z
x,-y,1/2+z
1/2+x,1/2+y,z
1/2+x,1/2-y,1/2+z
loop_
_atom_site_type_symbol
_atom_site_label
_atom_site_fract_x
_atom_site_fract_y
_atom_site_fract_z
Si Si1 0.759830 0.248536 0.939790
Si Si2 0.675216 0.395824 0.127009
Si Si3 0.605822 0.544003 0.945172
Si Si4 0.133738 0.545195 0.755326
Si Si5 0.820993 0.859157 0.839096
O O1 0.898722 0.140196 0.956720
O O2 0.550264 0.271114 0.853249
O O3 0.031422 0.317877 0.901747
O O4 0.630244 0.298711 0.054462
O O5 0.433950 0.397977 0.232005
O O6 0.971758 0.407147 0.165845
O O7 0.654796 0.497645 0.057525
O O8 0.906087 0.556144 0.865163
O O9 0.447203 0.452743 0.896200
O O10 0.219452 0.424101 0.742563
#
# Coordination Sequence:
#
# PCOD9140028 Si02
#       5
#     4   4   4   4   4
#     4  11  25  44  76 103 143 195 244 301 365 430
#     4  11  24  44  72 107 149 188 255 299 364 443
#     4  11  26  48  76 102 153 194 241 304 375 427
#     4  12  23  46  75 105 150 198 234 315 367 430
#     4  11  22  46  71 101 145 191 236 303 361 434
#
# _framework density 25.442547000000001
#
# number of rings (size 3 to 8) (size 9 to 14) (size 15 to 20)
#    0.000    0.800    6.000    2.400    2.800    0.000 
#    3.600    4.000    0.000    0.000    0.000    0.000 
#    0.000    0.000    0.000    0.000    0.000    0.000 
#
# Total GULP energy -55822.516086 kJ/mol
# GULP energy per Si atom -5582.251609 kJ/mol
# Density = 2.538464 g / cm^3
# Si number density = 25.442547 Si / 1000 Ang^3
#
#
#
# Elastic Constant Matrix: (Units=GPa)
#
#
# Indices 1 2 3 4 5 6 
#
# 1 147.7813 24.5568 17.3584 0.0000 -1.8671 0.0000
# 2 24.5568 139.1693 22.0299 0.0000 -5.5235 0.0000
# 3 17.3584 22.0299 77.6756 0.0000 -7.3321 0.0000
# 4 0.0000 0.0000 0.0000 26.0555 0.0000 2.3907
# 5 -1.8671 -5.5235 -7.3321 0.0000 42.1940 0.0000
# 6 0.0000 0.0000 0.0000 2.3907 0.0000 58.4523
#
#
#
# Elastic Compliance Matrix: (Units=1/GPa)
#
#
# Indices 1 2 3 4 5 6 
#
# 1 0.007092 -0.001049 -0.001292 0.000000 -0.000048 0.000000
# 2 -0.001049 0.007695 -0.001888 0.000000 0.000633 0.000000
# 3 -0.001292 -0.001888 0.013898 0.000000 0.002111 0.000000
# 4 0.000000 0.000000 0.000000 0.038524 0.000000 -0.001576
# 5 -0.000048 0.000633 0.002111 0.000000 0.024148 0.000000
# 6 0.000000 0.000000 0.000000 -0.001576 0.000000 0.017172
#
#
# Mechanical properties :
#
#
# Convention : Reuss Voigt Hill
#
# Bulk Modulus (GPa) = 49.44054 54.72404 52.08229
# Shear Modulus (GPa) = 40.41105 45.38575 42.89840
#
# Velocity S-wave (km/s) = 3.98970 4.22815 4.11066
# Velocity P-wave (km/s) = 6.37950 6.73735 6.56087
#
# Compressibility (1/GPa) = 0.02022632
#
# Stress axis : x y z
#
# Youngs Moduli (GPa) = 141.00014 129.96188 71.95525
#
# Poissons Ratio (x) = 0.13631 0.09297
# Poissons Ratio (y) = 0.14788 0.13586
# Poissons Ratio (z) = 0.18217 0.24539
#
# Static dielectric constant tensor:
#      x y z
#    x 1.989380 0.000000 0.065060 
#    y 0.000000 2.108280 0.000000 
#    z 0.065060 0.000000 2.057150 
# 
# From -- ./inp_files/12821.got.cif
#   From: 2010.05.17/outbox.cif.g08.bks.cpg/sg9_7_cif.got.tgz:12821.got - 2010.06.03 20:04:27.
