data_PCOD9140472
_publ_section_title
;
Structure prediction by ZEFSAII (Michael W. Deem and Ramdas Pophale) SiO2 
 PCOD9140472
Probable space group: C C
;
_chemical_formula_sum "Si O2"
_cell_formula_units_Z 32
_cell_length_a 8.901275
_cell_length_b 16.829507
_cell_length_c 11.305321
_cell_angle_alpha 90.000000
_cell_angle_beta 51.931964
_cell_angle_gamma 90.000000
_cell_volume 1333.322627
_symmetry_space_group_name_H-M "C C"
_symmetry_group_IT_number 9
_symmetry_cell_setting 'monoclinic'
loop_
_space_group_symop_operation_xyz
x,y,z
x,-y,1/2+z
1/2+x,1/2+y,z
1/2+x,1/2-y,1/2+z
loop_
_atom_site_type_symbol
_atom_site_label
_atom_site_fract_x
_atom_site_fract_y
_atom_site_fract_z
Si Si1 0.117240 0.175446 0.416480
Si Si2 0.018200 0.910283 0.382120
Si Si3 0.155063 0.371816 0.815955
Si Si4 0.487343 0.266847 0.230776
Si Si5 0.782855 0.458413 0.691485
Si Si6 0.182196 0.674396 0.562607
Si Si7 0.099096 0.146852 0.091522
Si Si8 0.144566 0.497240 0.150732
O O1 0.287406 0.230218 0.285442
O O2 0.188590 0.087206 0.350396
O O3 0.096682 0.198351 0.564234
O O4 0.911709 0.185219 0.456038
O O5 0.942101 0.837773 0.342336
O O6 0.848238 0.967018 0.510703
O O7 0.130578 0.871676 0.438253
O O8 0.162244 0.961991 0.235114
O O9 0.096996 0.348988 0.975621
O O10 0.382952 0.381359 0.716674
O O11 0.084509 0.454816 0.796974
O O12 0.099062 0.302637 0.748963
O O13 0.746101 0.401062 0.599908
O O14 0.996714 0.477492 0.621426
O O15 0.100451 0.760969 0.623877
O O16 0.146595 0.597569 0.661466
#
# Coordination Sequence:
#
# PCOD9140472 Si02
#       8
#     4   4   4   4   4   4   4   4
#     4  12  26  49  76 111 149 196 255 315 374 459
#     4  11  26  48  72 110 148 203 252 319 388 454
#     4  11  24  46  70 106 151 191 250 314 378 456
#     4  12  27  47  81 109 151 201 254 312 390 455
#     4  12  26  48  72 110 156 198 256 319 381 457
#     4  12  26  46  74 108 146 198 256 316 383 452
#     4  11  25  46  74 106 151 194 258 318 378 454
#     4  11  26  46  73 106 152 199 251 319 386 447
#
# _framework density 24.000194
#
# number of rings (size 3 to 8) (size 9 to 14) (size 15 to 20)
#    0.000    0.500    5.000    2.250    5.250    2.000 
#    0.000    1.250    0.000    0.000    0.000    0.000 
#    0.000    0.000    0.000    0.000    0.000    0.000 
#
# Total GULP energy -89571.494071 kJ/mol
# GULP energy per Si atom -5598.218379 kJ/mol
# Density = 2.394557 g / cm^3
# Si number density = 24.000194 Si / 1000 Ang^3
#
#
#
# Elastic Constant Matrix: (Units=GPa)
#
#
# Indices 1 2 3 4 5 6 
#
# 1 119.5505 41.1609 5.8791 0.0000 5.2203 0.0000
# 2 41.1609 126.5896 0.8890 0.0000 8.5428 0.0000
# 3 5.8791 0.8890 30.9597 0.0000 14.0879 0.0000
# 4 0.0000 0.0000 0.0000 31.2132 0.0000 2.1968
# 5 5.2203 8.5428 14.0879 0.0000 30.1434 0.0000
# 6 0.0000 0.0000 0.0000 2.1968 0.0000 41.2270
#
#
#
# Elastic Compliance Matrix: (Units=1/GPa)
#
#
# Indices 1 2 3 4 5 6 
#
# 1 0.009510 -0.003082 -0.001734 0.000000 0.000037 0.000000
# 2 -0.003082 0.009078 0.001591 0.000000 -0.002783 0.000000
# 3 -0.001734 0.001591 0.041472 0.000000 -0.019533 0.000000
# 4 0.000000 0.000000 0.000000 0.032158 0.000000 -0.001714
# 5 0.000037 -0.002783 -0.019533 0.000000 0.043086 0.000000
# 6 0.000000 0.000000 0.000000 -0.001714 0.000000 0.024347
#
#
# Mechanical properties :
#
#
# Convention : Reuss Voigt Hill
#
# Bulk Modulus (GPa) = 18.65384 41.43976 30.04680
# Shear Modulus (GPa) = 27.17798 35.79478 31.48638
#
# Velocity S-wave (km/s) = 3.36878 3.86610 3.62598
# Velocity P-wave (km/s) = 4.78756 6.10188 5.48424
#
# Compressibility (1/GPa) = 0.05360828
#
# Stress axis : x y z
#
# Youngs Moduli (GPa) = 105.15711 110.15169 24.11267
#
# Poissons Ratio (x) = 0.33953 0.04182
# Poissons Ratio (y) = 0.32414 -0.03836
# Poissons Ratio (z) = 0.18237 -0.17523
#
# Static dielectric constant tensor:
#      x y z
#    x 1.877070 0.000000 0.023780 
#    y 0.000000 1.898500 0.000000 
#    z 0.023780 0.000000 1.974650 
# 
# From -- ./inp_files/14706.got.cif
#   From: 2010.05.17/outbox.cif.g08.bks.cpg/sg9_8_cif.got.tgz:14706.got - 2010.06.03 20:04:27.
