data_PCOD9140251
_publ_section_title
;
Structure prediction by ZEFSAII (Michael W. Deem and Ramdas Pophale) SiO2 
 PCOD9140251
Probable space group: C C
;
_chemical_formula_sum "Si O2"
_cell_formula_units_Z 28
_cell_length_a 12.979022
_cell_length_b 8.327245
_cell_length_c 18.217470
_cell_angle_alpha 90.000000
_cell_angle_beta 146.165889
_cell_angle_gamma 90.000000
_cell_volume 1096.283784
_symmetry_space_group_name_H-M "C C"
_symmetry_group_IT_number 9
_symmetry_cell_setting 'monoclinic'
loop_
_space_group_symop_operation_xyz
x,y,z
x,-y,1/2+z
1/2+x,1/2+y,z
1/2+x,1/2-y,1/2+z
loop_
_atom_site_type_symbol
_atom_site_label
_atom_site_fract_x
_atom_site_fract_y
_atom_site_fract_z
Si Si1 0.486020 0.104704 0.338740
Si Si2 0.202192 0.846847 0.203699
Si Si3 0.277386 0.347291 0.120868
Si Si4 0.480663 0.393186 0.941214
Si Si5 0.813481 0.460453 0.543099
Si Si6 0.603259 0.450926 0.784800
Si Si7 0.176412 0.579861 0.825747
O O1 0.360231 0.257713 0.241581
O O2 0.570408 0.117362 0.470382
O O3 0.352664 0.954314 0.251500
O O4 0.642086 0.048125 0.372006
O O5 0.315532 0.703782 0.306332
O O6 0.123630 0.972956 0.216554
O O7 0.059216 0.796235 0.057145
O O8 0.393401 0.509615 0.183215
O O9 0.332082 0.212984 0.092008
O O10 0.379756 0.548744 0.914799
O O11 0.648594 0.443556 0.987725
O O12 0.738946 0.448356 0.417371
O O13 0.010179 0.544122 0.670014
O O14 0.653200 0.267179 0.828394
#
# Coordination Sequence:
#
# PCOD9140251 Si02
#       7
#     4   4   4   4   4   4   4
#     4  11  24  48  74 107 153 195 253 309 385 452
#     4  12  28  46  77 115 149 208 250 319 378 463
#     4  11  23  46  74 103 147 195 247 311 382 443
#     4  12  28  52  79 109 159 199 264 309 393 455
#     4  11  26  50  74 109 150 205 249 319 384 460
#     4  12  28  44  79 108 152 199 261 312 394 445
#     4  11  27  48  75 109 154 195 258 319 374 468
#
# _framework density 25.540835000000001
#
# number of rings (size 3 to 8) (size 9 to 14) (size 15 to 20)
#    0.000    0.571    4.286    3.429   12.000    0.000 
#    0.000    0.000    0.000    0.000    0.000    0.000 
#    0.000    0.000    0.000    0.000    0.000    0.000 
#
# Total GULP energy -78345.752877 kJ/mol
# GULP energy per Si atom -5596.125205 kJ/mol
# Density = 2.548270 g / cm^3
# Si number density = 25.540835 Si / 1000 Ang^3
#
#
#
# Elastic Constant Matrix: (Units=GPa)
#
#
# Indices 1 2 3 4 5 6 
#
# 1 56.7109 4.0508 32.9588 0.0000 -6.2494 0.0000
# 2 4.0508 88.0288 32.7166 0.0000 -2.9724 0.0000
# 3 32.9588 32.7166 159.1095 0.0001 -9.2396 0.0001
# 4 0.0000 0.0000 0.0001 37.9464 0.0000 7.7595
# 5 -6.2494 -2.9724 -9.2396 0.0000 28.9076 0.0000
# 6 0.0000 0.0000 0.0001 7.7595 0.0000 27.9067
#
#
#
# Elastic Compliance Matrix: (Units=1/GPa)
#
#
# Indices 1 2 3 4 5 6 
#
# 1 0.020359 0.000724 -0.004184 0.000000 0.003138 0.000000
# 2 0.000724 0.012332 -0.002652 0.000000 0.000577 0.000000
# 3 -0.004184 -0.002652 0.007773 0.000000 0.001307 0.000000
# 4 0.000000 0.000000 0.000000 0.027942 0.000000 -0.007769
# 5 0.003138 0.000577 0.001307 0.000000 0.035749 0.000000
# 6 0.000000 0.000000 0.000000 -0.007769 0.000000 0.037994
#
#
# Mechanical properties :
#
#
# Convention : Reuss Voigt Hill
#
# Bulk Modulus (GPa) = 35.41115 49.25575 42.33345
# Shear Modulus (GPa) = 30.52778 34.56031 32.54405
#
# Velocity S-wave (km/s) = 3.46100 3.68250 3.57346
# Velocity P-wave (km/s) = 5.46497 6.11621 5.79974
#
# Compressibility (1/GPa) = 0.02823969
#
# Stress axis : x y z
#
# Youngs Moduli (GPa) = 49.11827 81.09125 128.65168
#
# Poissons Ratio (x) = -0.05872 0.53827
# Poissons Ratio (y) = -0.03557 0.34121
# Poissons Ratio (z) = 0.20551 0.21507
#
# Static dielectric constant tensor:
#      x y z
#    x 2.096540 0.000000 -0.008650 
#    y 0.000000 2.014020 0.000000 
#    z -0.008650 0.000000 2.132760 
# 
# From -- ./inp_files/19995.got.cif
#   From: 2010.05.17/outbox.cif.g08.bks.cpg/sg9_10_cif.got.tgz:19995.got - 2010.06.03 20:04:27.
