data_PCOD9140397
_publ_section_title
;
Structure prediction by ZEFSAII (Michael W. Deem and Ramdas Pophale) SiO2 
 PCOD9140397
Probable space group: C C
;
_chemical_formula_sum "Si O2"
_cell_formula_units_Z 28
_cell_length_a 6.737851
_cell_length_b 13.139090
_cell_length_c 15.560315
_cell_angle_alpha 90.000000
_cell_angle_beta 115.659025
_cell_angle_gamma 90.000000
_cell_volume 1241.698988
_symmetry_space_group_name_H-M "C C"
_symmetry_group_IT_number 9
_symmetry_cell_setting 'monoclinic'
loop_
_space_group_symop_operation_xyz
x,y,z
x,-y,1/2+z
1/2+x,1/2+y,z
1/2+x,1/2-y,1/2+z
loop_
_atom_site_type_symbol
_atom_site_label
_atom_site_fract_x
_atom_site_fract_y
_atom_site_fract_z
Si Si1 0.276370 0.453935 0.211660
Si Si2 0.400575 0.250000 0.856129
Si Si3 0.565307 0.046066 0.500598
Si Si4 0.402180 0.779941 0.715855
Si Si5 0.758247 0.921138 0.394594
Si Si6 0.681318 0.578863 0.317664
Si Si7 0.182726 0.779942 0.496403
O O1 0.300064 0.331842 0.215229
O O2 0.226215 0.482123 0.300191
O O3 0.511294 0.505667 0.237325
O O4 0.105304 0.484065 0.106129
O O5 0.552126 0.155071 0.859662
O O6 0.545062 0.344928 0.852597
O O7 0.163754 0.262350 0.766492
O O8 0.343025 0.237649 0.945765
O O9 0.338091 0.017877 0.412067
O O10 0.581861 0.168158 0.497029
O O11 0.748901 0.994335 0.474933
O O12 0.321916 0.856379 0.775287
O O13 0.311724 0.812453 0.606129
O O14 0.983600 0.856380 0.436972
#
# Coordination Sequence:
#
# PCOD9140397 Si02
#       7
#     4   4   4   4   4   4   4
#     4  11  24  44  71 102 139 187 238 291 357 428
#     4  12  22  44  70 100 140 190 228 306 354 418
#     4  11  24  44  71 102 139 187 238 291 357 428
#     4  11  24  45  69 102 142 189 240 294 365 428
#     4  12  24  47  71 101 151 182 240 302 356 426
#     4  12  24  47  71 101 151 182 240 302 356 426
#     4  11  24  45  69 102 142 189 240 294 365 428
#
# _framework density 22.549747
#
# number of rings (size 3 to 8) (size 9 to 14) (size 15 to 20)
#    0.000    0.571    5.714    2.571    0.000    3.429 
#    0.000    1.429    0.000    0.000    0.000    0.000 
#    0.000    0.000    0.000    0.000    0.000    0.000 
#
# Total GULP energy -78343.129550 kJ/mol
# GULP energy per Si atom -5595.937825 kJ/mol
# Density = 2.249842 g / cm^3
# Si number density = 22.549747 Si / 1000 Ang^3
#
#
#
# Elastic Constant Matrix: (Units=GPa)
#
#
# Indices 1 2 3 4 5 6 
#
# 1 99.5781 26.5899 54.9952 0.0000 -0.0060 0.0000
# 2 26.5899 78.3801 27.7287 0.0000 -0.1231 0.0000
# 3 54.9952 27.7287 191.7616 0.0000 -9.9552 0.0000
# 4 0.0000 0.0000 0.0000 21.0155 0.0000 2.9362
# 5 -0.0060 -0.1231 -9.9552 0.0000 23.3977 0.0000
# 6 0.0000 0.0000 0.0000 2.9362 0.0000 48.1825
#
#
#
# Elastic Compliance Matrix: (Units=1/GPa)
#
#
# Indices 1 2 3 4 5 6 
#
# 1 0.012681 -0.003153 -0.003253 0.000000 -0.001398 0.000000
# 2 -0.003153 0.014244 -0.001178 0.000000 -0.000427 0.000000
# 3 -0.003253 -0.001178 0.006460 0.000000 0.002742 0.000000
# 4 0.000000 0.000000 0.000000 0.047993 0.000000 -0.002925
# 5 -0.001398 -0.000427 0.002742 0.000000 0.043903 0.000000
# 6 0.000000 0.000000 0.000000 -0.002925 0.000000 0.020933
#
#
# Mechanical properties :
#
#
# Convention : Reuss Voigt Hill
#
# Bulk Modulus (GPa) = 54.89314 65.37193 60.13253
# Shear Modulus (GPa) = 29.85885 35.87955 32.86920
#
# Velocity S-wave (km/s) = 3.64281 3.99322 3.82203
# Velocity P-wave (km/s) = 6.48763 7.09325 6.79719
#
# Compressibility (1/GPa) = 0.01821721
#
# Stress axis : x y z
#
# Youngs Moduli (GPa) = 78.85783 70.20532 154.78795
#
# Poissons Ratio (x) = 0.22137 0.50359
# Poissons Ratio (y) = 0.24865 0.18227
# Poissons Ratio (z) = 0.25656 0.08267
#
# Static dielectric constant tensor:
#      x y z
#    x 1.843820 0.000000 0.002100 
#    y 0.000000 1.865400 0.000000 
#    z 0.002100 0.000000 1.824380 
# 
# From -- ./inp_files/21722.got.cif
#   From: 2010.05.17/outbox.cif.g08.bks.cpg/sg9_11_cif.got.tgz:21722.got - 2010.06.03 20:04:27.
