data_PCOD9140628
_publ_section_title
;
Structure prediction by ZEFSAII (Michael W. Deem and Ramdas Pophale) SiO2 
 PCOD9140628
Probable space group: C C
;
_chemical_formula_sum "Si O2"
_cell_formula_units_Z 32
_cell_length_a 12.521062
_cell_length_b 11.326152
_cell_length_c 21.037572
_cell_angle_alpha 90.000000
_cell_angle_beta 151.916621
_cell_angle_gamma 90.000000
_cell_volume 1404.478185
_symmetry_space_group_name_H-M "C C"
_symmetry_group_IT_number 9
_symmetry_cell_setting 'monoclinic'
loop_
_space_group_symop_operation_xyz
x,y,z
x,-y,1/2+z
1/2+x,1/2+y,z
1/2+x,1/2-y,1/2+z
loop_
_atom_site_type_symbol
_atom_site_label
_atom_site_fract_x
_atom_site_fract_y
_atom_site_fract_z
Si Si1 0.292170 0.577895 0.267380
Si Si2 0.977566 0.713958 0.786026
Si Si3 0.670068 0.576576 0.307604
Si Si4 0.551548 0.828496 0.918568
Si Si5 0.447304 0.813053 0.680532
Si Si6 0.136696 0.982890 0.057988
Si Si7 0.818469 0.969470 0.509234
Si Si8 0.497188 0.617022 0.803917
O O1 0.334921 0.705387 0.259211
O O2 0.508124 0.543571 0.424554
O O3 0.292764 0.477651 0.212450
O O4 0.087084 0.600035 0.208486
O O5 0.816669 0.617202 0.669847
O O6 0.069265 0.803323 0.781989
O O7 0.193068 0.654884 0.933547
O O8 0.672928 0.481445 0.367080
O O9 0.904720 0.614543 0.397797
O O10 0.492877 0.532289 0.160151
O O11 0.448863 0.707547 0.837429
O O12 0.609532 0.939935 0.905729
O O13 0.802003 0.781770 0.065559
O O14 0.564999 0.724910 0.791408
O O15 0.263042 0.892821 0.618939
O O16 0.955874 0.994499 0.019111
#
# Coordination Sequence:
#
# PCOD9140628 Si02
#       8
#     4   4   4   4   4   4   4   4
#     4  11  26  46  72 104 145 187 241 298 363 433
#     4  11  25  44  70 104 141 187 236 300 358 433
#     4  11  26  46  72 104 145 187 241 298 363 433
#     4  12  25  45  75 102 144 189 239 302 356 433
#     4  12  25  45  75 102 144 189 239 302 356 433
#     4  12  24  46  70 104 140 190 237 298 368 427
#     4  12  24  46  70 104 140 190 237 298 368 427
#     4  11  25  48  70 112 141 191 244 298 368 421
#
# _framework density 22.784261999999998
#
# number of rings (size 3 to 8) (size 9 to 14) (size 15 to 20)
#    0.000    0.500    2.500    6.000    3.500    1.000 
#    4.500    0.000    0.000    0.000    0.000    0.000 
#    0.000    0.000    0.000    0.000    0.000    0.000 
#
# Total GULP energy -89127.385986 kJ/mol
# GULP energy per Si atom -5570.461624 kJ/mol
# Density = 2.273240 g / cm^3
# Si number density = 22.784262 Si / 1000 Ang^3
#
#
#
# Elastic Constant Matrix: (Units=GPa)
#
#
# Indices 1 2 3 4 5 6 
#
# 1 109.5384 32.8917 -2.6680 0.0000 24.1665 0.0000
# 2 32.8917 124.8134 7.3404 0.0001 1.5187 0.0001
# 3 -2.6680 7.3404 37.3052 0.0004 -3.9225 -0.0001
# 4 0.0000 0.0001 0.0004 23.2973 0.0001 -3.6802
# 5 24.1665 1.5187 -3.9225 0.0001 28.0744 0.0000
# 6 0.0000 0.0001 -0.0001 -3.6802 0.0000 38.2482
#
#
#
# Elastic Compliance Matrix: (Units=1/GPa)
#
#
# Indices 1 2 3 4 5 6 
#
# 1 0.012392 -0.003163 0.000411 0.000000 -0.010438 0.000000
# 2 -0.003163 0.008925 -0.001773 0.000000 0.001992 0.000000
# 3 0.000411 -0.001773 0.027562 0.000000 0.003593 0.000000
# 4 0.000000 0.000000 0.000000 0.043586 0.000000 0.004194
# 5 -0.010438 0.001992 0.003593 0.000000 0.044999 0.000000
# 6 0.000000 0.000000 0.000000 0.004194 0.000000 0.026549
#
#
# Mechanical properties :
#
#
# Convention : Reuss Voigt Hill
#
# Bulk Modulus (GPa) = 25.10680 38.53167 31.81923
# Shear Modulus (GPa) = 26.83278 33.53015 30.18147
#
# Velocity S-wave (km/s) = 3.43547 3.84035 3.64354
# Velocity P-wave (km/s) = 5.17493 6.05084 5.62994
#
# Compressibility (1/GPa) = 0.03982985
#
# Stress axis : x y z
#
# Youngs Moduli (GPa) = 80.69802 112.03899 36.28195
#
# Poissons Ratio (x) = 0.35435 -0.01491
# Poissons Ratio (y) = 0.25523 0.06433
# Poissons Ratio (z) = -0.03317 0.19864
#
# Static dielectric constant tensor:
#      x y z
#    x 1.969590 0.000000 -0.113250 
#    y 0.000000 1.787440 0.000000 
#    z -0.113250 0.000000 1.952440 
# 
# From -- ./inp_files/20306.got.cif
#   From: 2010.05.17/outbox.cif.g08.bks.cpg/sg9_11_cif.got.tgz:20306.got - 2010.06.03 20:04:27.
