data_PCOD9140769
_publ_section_title
;
Structure prediction by ZEFSAII (Michael W. Deem and Ramdas Pophale) SiO2 
 PCOD9140769
Probable space group: C C
;
_chemical_formula_sum "Si O2"
_cell_formula_units_Z 16
_cell_length_a 6.704604
_cell_length_b 13.697070
_cell_length_c 7.019508
_cell_angle_alpha 90.000000
_cell_angle_beta 61.965738
_cell_angle_gamma 90.000000
_cell_volume 568.989461
_symmetry_space_group_name_H-M "C C"
_symmetry_group_IT_number 9
_symmetry_cell_setting 'monoclinic'
loop_
_space_group_symop_operation_xyz
x,y,z
x,-y,1/2+z
1/2+x,1/2+y,z
1/2+x,1/2-y,1/2+z
loop_
_atom_site_type_symbol
_atom_site_label
_atom_site_fract_x
_atom_site_fract_y
_atom_site_fract_z
Si Si1 0.800780 0.347878 0.609460
Si Si2 0.198405 0.054926 0.554484
Si Si3 0.612122 0.179210 0.438726
Si Si4 0.824879 0.141160 0.965141
O O1 0.741415 0.440987 0.504946
O O2 0.720030 0.244228 0.558581
O O3 0.919740 0.400361 0.063144
O O4 0.071831 0.349778 0.502710
O O5 0.195731 0.115834 0.358392
O O6 0.968368 0.067218 0.775219
O O7 0.786349 0.132979 0.210855
O O8 0.477967 0.262536 0.380677
#
# Coordination Sequence:
#
# PCOD9140769 Si02
#       4
#     4   4   4   4
#     4  11  28  51  84 118 166 218 271 350 412 495
#     4  11  26  52  82 123 162 217 279 337 422 501
#     4  11  25  50  79 117 163 214 274 338 412 497
#     4  11  25  51  77 120 161 207 278 331 412 497
#
# _framework density 28.120027
#
# number of rings (size 3 to 8) (size 9 to 14) (size 15 to 20)
#    0.000    1.000    2.500    1.500    0.000   14.000 
#    0.000    2.500    0.000    0.000    0.000    0.000 
#    0.000    0.000    0.000    0.000    0.000    0.000 
#
# Total GULP energy -44828.718140 kJ/mol
# GULP energy per Si atom -5603.589768 kJ/mol
# Density = 2.805602 g / cm^3
# Si number density = 28.120027 Si / 1000 Ang^3
#
#
#
# Elastic Constant Matrix: (Units=GPa)
#
#
# Indices 1 2 3 4 5 6 
#
# 1 163.9441 50.1077 94.9379 0.0000 -13.6517 0.0000
# 2 50.1077 109.2896 81.9252 0.0000 3.5028 0.0000
# 3 94.9379 81.9252 280.2165 0.0000 -9.6829 0.0000
# 4 0.0000 0.0000 0.0000 17.3984 0.0000 -10.2897
# 5 -13.6517 3.5028 -9.6829 0.0000 49.1574 0.0000
# 6 0.0000 0.0000 0.0000 -10.2897 0.0000 67.2351
#
#
#
# Elastic Compliance Matrix: (Units=1/GPa)
#
#
# Indices 1 2 3 4 5 6 
#
# 1 0.008135 -0.002281 -0.002019 0.000000 0.002024 0.000000
# 2 -0.002281 0.012472 -0.002946 0.000000 -0.002102 0.000000
# 3 -0.002019 -0.002946 0.005137 0.000000 0.000661 0.000000
# 4 0.000000 0.000000 0.000000 0.063196 0.000000 0.009672
# 5 0.002024 -0.002102 0.000661 0.000000 0.021185 0.000000
# 6 0.000000 0.000000 0.000000 0.009672 0.000000 0.016353
#
#
# Mechanical properties :
#
#
# Convention : Reuss Voigt Hill
#
# Bulk Modulus (GPa) = 88.88293 111.93241 100.40767
# Shear Modulus (GPa) = 34.54936 48.52347 41.53642
#
# Velocity S-wave (km/s) = 3.50900 4.15852 3.84749
# Velocity P-wave (km/s) = 6.93502 7.93406 7.45130
#
# Compressibility (1/GPa) = 0.01125075
#
# Stress axis : x y z
#
# Youngs Moduli (GPa) = 122.93174 80.18235 194.66659
#
# Poissons Ratio (x) = 0.18288 0.39308
# Poissons Ratio (y) = 0.28038 0.57352
# Poissons Ratio (z) = 0.24823 0.23623
#
# Static dielectric constant tensor:
#      x y z
#    x 2.297020 0.000000 0.100210 
#    y 0.000000 2.146500 0.000000 
#    z 0.100210 0.000000 2.211480 
# 
# From -- ./inp_files/3565.got.cif
#   From: 2010.05.17/outbox.cif.g08.bks.cpg/sg9_2_cif.got.tgz:3565.got - 2010.06.03 20:04:27.
