data_PCOD9140911
_publ_section_title
;
Structure prediction by ZEFSAII (Michael W. Deem and Ramdas Pophale) SiO2 
 PCOD9140911
Probable space group: C C
;
_chemical_formula_sum "Si O2"
_cell_formula_units_Z 28
_cell_length_a 23.811156
_cell_length_b 10.849329
_cell_length_c 9.155589
_cell_angle_alpha 90.000000
_cell_angle_beta 28.823865
_cell_angle_gamma 90.000000
_cell_volume 1140.311661
_symmetry_space_group_name_H-M "C C"
_symmetry_group_IT_number 9
_symmetry_cell_setting 'monoclinic'
loop_
_space_group_symop_operation_xyz
x,y,z
x,-y,1/2+z
1/2+x,1/2+y,z
1/2+x,1/2-y,1/2+z
loop_
_atom_site_type_symbol
_atom_site_label
_atom_site_fract_x
_atom_site_fract_y
_atom_site_fract_z
Si Si1 0.315940 0.422653 0.715570
Si Si2 0.473878 0.856431 0.205651
Si Si3 0.574379 0.339048 0.110335
Si Si4 0.664599 0.445957 0.598450
Si Si5 0.696300 0.258516 0.274084
Si Si6 0.772679 0.155706 0.637001
Si Si7 0.389197 0.063585 0.196254
O O1 0.436444 0.346671 0.433894
O O2 0.238251 0.357371 0.771181
O O3 0.320248 0.563754 0.652829
O O4 0.273113 0.409363 0.978321
O O5 0.362290 0.770614 0.426482
O O6 0.469203 0.881136 0.389226
O O7 0.458358 0.984749 0.157085
O O8 0.593758 0.786368 0.902294
O O9 0.618016 0.426452 0.141278
O O10 0.608564 0.401419 0.876650
O O11 0.644533 0.211576 0.955205
O O12 0.645658 0.351491 0.510793
O O13 0.800679 0.467830 0.319318
O O14 0.804004 0.331374 0.955672
#
# Coordination Sequence:
#
# PCOD9140911 Si02
#       7
#     4   4   4   4   4   4   4
#     4  12  30  47  74 111 159 198 253 312 390 448
#     4  12  28  49  81 110 151 199 263 309 387 452
#     4  12  25  47  83 106 151 199 251 319 379 457
#     4  12  21  48  75 109 141 195 258 305 381 447
#     4  12  27  45  74 111 154 200 251 309 383 460
#     4  12  27  51  74 115 150 199 256 314 377 465
#     4  12  24  51  79 110 150 204 254 322 379 453
#
# _framework density 24.554689
#
# number of rings (size 3 to 8) (size 9 to 14) (size 15 to 20)
#    0.000    0.000    7.143    1.714    6.000    2.286 
#    0.000    0.000    0.000    0.000    0.000    0.000 
#    0.000    0.000    0.000    0.000    0.000    0.000 
#
# Total GULP energy -78509.421683 kJ/mol
# GULP energy per Si atom -5607.815835 kJ/mol
# Density = 2.449880 g / cm^3
# Si number density = 24.554689 Si / 1000 Ang^3
#
#
#
# Elastic Constant Matrix: (Units=GPa)
#
#
# Indices 1 2 3 4 5 6 
#
# 1 86.1809 24.1690 58.9321 0.0000 10.7240 0.0000
# 2 24.1690 60.3373 48.0030 0.0000 14.5276 0.0000
# 3 58.9321 48.0030 106.2208 0.0000 9.3764 0.0000
# 4 0.0000 0.0000 0.0000 32.1261 0.0000 -6.9282
# 5 10.7240 14.5276 9.3764 0.0000 51.8913 0.0000
# 6 0.0000 0.0000 0.0000 -6.9282 0.0000 39.5763
#
#
#
# Elastic Compliance Matrix: (Units=1/GPa)
#
#
# Indices 1 2 3 4 5 6 
#
# 1 0.019034 0.001861 -0.011186 0.000000 -0.002433 0.000000
# 2 0.001861 0.027527 -0.012965 0.000000 -0.005748 0.000000
# 3 -0.011186 -0.012965 0.021295 0.000000 0.002094 0.000000
# 4 0.000000 0.000000 0.000000 0.032349 0.000000 0.005663
# 5 -0.002433 -0.005748 0.002094 0.000000 0.021005 0.000000
# 6 0.000000 0.000000 0.000000 0.005663 0.000000 0.026259
#
#
# Mechanical properties :
#
#
# Convention : Reuss Voigt Hill
#
# Bulk Modulus (GPa) = 42.96434 57.21637 50.09035
# Shear Modulus (GPa) = 25.02419 32.82772 28.92595
#
# Velocity S-wave (km/s) = 3.19583 3.66036 3.43596
# Velocity P-wave (km/s) = 5.58150 6.42001 6.01538
#
# Compressibility (1/GPa) = 0.02327512
#
# Stress axis : x y z
#
# Youngs Moduli (GPa) = 52.53812 36.32842 46.95946
#
# Poissons Ratio (x) = -0.06762 0.52531
# Poissons Ratio (y) = -0.09779 0.60883
# Poissons Ratio (z) = 0.58771 0.47100
#
# Static dielectric constant tensor:
#      x y z
#    x 1.961960 0.000000 -0.010380 
#    y 0.000000 1.990850 0.000000 
#    z -0.010380 0.000000 1.924260 
# 
# From -- ./inp_files/12182.got.cif
#   From: 2010.05.17/outbox.cif.g08.bks.cpg/sg9_7_cif.got.tgz:12182.got - 2010.06.03 20:04:27.
