data_PCOD9140347
_publ_section_title
;
Structure prediction by ZEFSAII (Michael W. Deem and Ramdas Pophale) SiO2 
 PCOD9140347
Probable space group: C C
;
_chemical_formula_sum "Si O2"
_cell_formula_units_Z 24
_cell_length_a 8.061285
_cell_length_b 14.495639
_cell_length_c 7.798512
_cell_angle_alpha 90.000000
_cell_angle_beta 80.356483
_cell_angle_gamma 90.000000
_cell_volume 898.405982
_symmetry_space_group_name_H-M "C C"
_symmetry_group_IT_number 9
_symmetry_cell_setting 'monoclinic'
loop_
_space_group_symop_operation_xyz
x,y,z
x,-y,1/2+z
1/2+x,1/2+y,z
1/2+x,1/2-y,1/2+z
loop_
_atom_site_type_symbol
_atom_site_label
_atom_site_fract_x
_atom_site_fract_y
_atom_site_fract_z
Si Si1 0.521700 0.043310 0.279100
Si Si2 0.019755 0.127369 0.484359
Si Si3 0.711472 0.797362 0.574429
Si Si4 0.131611 0.628795 0.616469
Si Si5 0.094290 0.802501 0.434860
Si Si6 0.171412 0.037995 0.146546
O O1 0.650126 0.101053 0.137940
O O2 0.538311 0.087513 0.463356
O O3 0.341828 0.054283 0.221196
O O4 0.562761 0.935119 0.277760
O O5 0.829694 0.115282 0.573575
O O6 0.085736 0.232015 0.487779
O O7 0.032126 0.081582 0.295499
O O8 0.131432 0.064896 0.593801
O O9 0.891415 0.802645 0.448376
O O10 0.698244 0.744514 0.762688
O O11 0.110508 0.736997 0.598700
O O12 0.164107 0.901170 0.475498
#
# Coordination Sequence:
#
# PCOD9140347 Si02
#       6
#     4   4   4   4   4   4
#     4  11  24  42  63  93 129 169 214 267 324 385
#     4  12  24  42  67  97 130 173 221 272 327 391
#     4  11  24  44  67  98 133 172 218 271 328 390
#     4  11  24  42  63  93 129 169 214 267 324 385
#     4  11  24  44  67  98 133 172 218 271 328 390
#     4  12  24  42  67  97 130 173 221 272 327 391
#
# _framework density 26.713981
#
# number of rings (size 3 to 8) (size 9 to 14) (size 15 to 20)
#    0.000    0.667    0.000   10.000    0.000    4.000 
#    0.000    0.000    0.000    0.000    0.000    0.000 
#    0.000    0.000    0.000    0.000    0.000    0.000 
#
# Total GULP energy -67286.411375 kJ/mol
# GULP energy per Si atom -5607.200948 kJ/mol
# Density = 2.665318 g / cm^3
# Si number density = 26.713981 Si / 1000 Ang^3
#
#
#
# Elastic Constant Matrix: (Units=GPa)
#
#
# Indices 1 2 3 4 5 6 
#
# 1 143.0753 -2.7267 9.2766 0.0000 -5.7357 0.0000
# 2 -2.7267 107.7429 -3.9794 0.0000 7.1437 0.0000
# 3 9.2766 -3.9794 108.7615 0.0000 16.0284 0.0000
# 4 0.0000 0.0000 0.0000 42.7063 0.0000 4.5643
# 5 -5.7357 7.1437 16.0284 0.0000 37.6132 0.0000
# 6 0.0000 0.0000 0.0000 4.5643 0.0000 28.8140
#
#
#
# Elastic Compliance Matrix: (Units=1/GPa)
#
#
# Indices 1 2 3 4 5 6 
#
# 1 0.007100 0.000056 -0.000813 0.000000 0.001418 0.000000
# 2 0.000056 0.009443 0.000644 0.000000 -0.002060 0.000000
# 3 -0.000813 0.000644 0.009948 0.000000 -0.004486 0.000000
# 4 0.000000 0.000000 0.000000 0.023819 0.000000 -0.003773
# 5 0.001418 -0.002060 -0.004486 0.000000 0.029105 0.000000
# 6 0.000000 0.000000 0.000000 -0.003773 0.000000 0.035303
#
#
# Mechanical properties :
#
#
# Convention : Reuss Voigt Hill
#
# Bulk Modulus (GPa) = 38.07189 40.52452 39.29821
# Shear Modulus (GPa) = 40.42053 45.62731 43.02392
#
# Velocity S-wave (km/s) = 3.89406 4.13727 4.01751
# Velocity P-wave (km/s) = 5.87374 6.16647 6.02189
#
# Compressibility (1/GPa) = 0.02626610
#
# Stress axis : x y z
#
# Youngs Moduli (GPa) = 140.84636 105.89731 100.51895
#
# Poissons Ratio (x) = -0.00589 0.08168
# Poissons Ratio (y) = -0.00783 -0.06476
# Poissons Ratio (z) = 0.11445 -0.06823
#
# Static dielectric constant tensor:
#      x y z
#    x 2.045500 0.000000 0.008180 
#    y 0.000000 2.034440 0.000000 
#    z 0.008180 0.000000 2.163330 
# 
# From -- ./inp_files/4957.got.cif
#   From: 2010.05.17/outbox.cif.g08.bks.cpg/sg9_3_cif.got.tgz:4957.got - 2010.06.03 20:04:27.
