data_PCOD9140286
_publ_section_title
;
Structure prediction by ZEFSAII (Michael W. Deem and Ramdas Pophale) SiO2 
 PCOD9140286
Probable space group: C C
;
_chemical_formula_sum "Si O2"
_cell_formula_units_Z 24
_cell_length_a 9.406724
_cell_length_b 11.114930
_cell_length_c 12.672183
_cell_angle_alpha 90.000000
_cell_angle_beta 134.403775
_cell_angle_gamma 90.000000
_cell_volume 946.573133
_symmetry_space_group_name_H-M "C C"
_symmetry_group_IT_number 9
_symmetry_cell_setting 'monoclinic'
loop_
_space_group_symop_operation_xyz
x,y,z
x,-y,1/2+z
1/2+x,1/2+y,z
1/2+x,1/2-y,1/2+z
loop_
_atom_site_type_symbol
_atom_site_label
_atom_site_fract_x
_atom_site_fract_y
_atom_site_fract_z
Si Si1 0.596270 0.579268 0.794320
Si Si2 0.573954 0.747657 0.071664
Si Si3 0.816230 0.480279 0.719181
Si Si4 0.994003 0.890940 0.902277
Si Si5 0.267307 0.308497 0.977833
Si Si6 0.633780 0.837853 0.335654
O O1 0.730952 0.495588 0.792190
O O2 0.464903 0.497624 0.803249
O O3 0.459226 0.655317 0.645067
O O4 0.735258 0.670264 0.928904
O O5 0.758905 0.655399 0.161452
O O6 0.584227 0.816493 0.187112
O O7 0.593166 0.825967 0.975279
O O8 0.371761 0.670306 0.968459
O O9 0.680891 0.564532 0.570367
O O10 0.031641 0.539771 0.820630
O O11 0.046501 0.770448 0.863490
O O12 0.811989 0.868533 0.887156
#
# Coordination Sequence:
#
# PCOD9140286 Si02
#       6
#     4   4   4   4   4   4
#     4  11  23  47  77 114 155 208 272 331 394 481
#     4  12  26  48  75 116 160 205 273 327 406 478
#     4  11  24  47  78 114 155 206 269 329 401 479
#     4  11  23  47  78 112 158 206 264 329 398 471
#     4  11  25  47  76 111 160 206 262 330 391 479
#     4  12  25  48  78 115 160 209 264 344 388 474
#
# _framework density 25.354616
#
# number of rings (size 3 to 8) (size 9 to 14) (size 15 to 20)
#    0.000    0.667    6.667    1.000    0.000    0.000 
#   12.000    1.667    0.000    0.000    0.000    0.000 
#    0.000    0.000    0.000    0.000    0.000    0.000 
#
# Total GULP energy -67182.080486 kJ/mol
# GULP energy per Si atom -5598.506707 kJ/mol
# Density = 2.529691 g / cm^3
# Si number density = 25.354616 Si / 1000 Ang^3
#
#
#
# Elastic Constant Matrix: (Units=GPa)
#
#
# Indices 1 2 3 4 5 6 
#
# 1 162.5485 81.0765 57.7959 0.0000 -34.5700 0.0000
# 2 81.0765 129.5378 28.3501 0.0000 -17.8138 0.0000
# 3 57.7959 28.3501 83.3115 0.0000 -17.1213 0.0000
# 4 0.0000 0.0000 0.0000 28.1460 0.0000 0.6076
# 5 -34.5700 -17.8138 -17.1213 0.0000 56.6487 0.0000
# 6 0.0000 0.0000 0.0000 0.6076 0.0000 71.7052
#
#
#
# Elastic Compliance Matrix: (Units=1/GPa)
#
#
# Indices 1 2 3 4 5 6 
#
# 1 0.011665 -0.005603 -0.005422 0.000000 0.003718 0.000000
# 2 -0.005603 0.011225 0.000096 0.000000 0.000139 0.000000
# 3 -0.005422 0.000096 0.016055 0.000000 0.001574 0.000000
# 4 0.000000 0.000000 0.000000 0.035536 0.000000 -0.000301
# 5 0.003718 0.000139 0.001574 0.000000 0.020441 0.000000
# 6 0.000000 0.000000 0.000000 -0.000301 0.000000 0.013949
#
#
# Mechanical properties :
#
#
# Convention : Reuss Voigt Hill
#
# Bulk Modulus (GPa) = 58.52222 78.87142 68.69682
# Shear Modulus (GPa) = 36.65023 45.17834 40.91429
#
# Velocity S-wave (km/s) = 3.80610 4.22579 4.02142
# Velocity P-wave (km/s) = 6.51512 7.41516 6.97966
#
# Compressibility (1/GPa) = 0.01708753
#
# Stress axis : x y z
#
# Youngs Moduli (GPa) = 85.72352 89.08704 62.28515
#
# Poissons Ratio (x) = 0.49919 0.33770
# Poissons Ratio (y) = 0.48034 -0.00599
# Poissons Ratio (z) = 0.46478 -0.00856
#
# Static dielectric constant tensor:
#      x y z
#    x 1.989760 0.000000 0.025620 
#    y 0.000000 1.980850 0.000000 
#    z 0.025620 0.000000 2.053570 
# 
# From -- ./inp_files/14275.got.cif
#   From: 2010.05.17/outbox.cif.g08.bks.cpg/sg9_8_cif.got.tgz:14275.got - 2010.06.03 20:04:27.
