data_PCOD9140772
_publ_section_title
;
Structure prediction by ZEFSAII (Michael W. Deem and Ramdas Pophale) SiO2 
 PCOD9140772
Probable space group: C C
;
_chemical_formula_sum "Si O2"
_cell_formula_units_Z 16
_cell_length_a 23.955745
_cell_length_b 5.182242
_cell_length_c 8.779255
_cell_angle_alpha 90.000000
_cell_angle_beta 148.929278
_cell_angle_gamma 90.000000
_cell_volume 562.490620
_symmetry_space_group_name_H-M "C C"
_symmetry_group_IT_number 9
_symmetry_cell_setting 'monoclinic'
loop_
_space_group_symop_operation_xyz
x,y,z
x,-y,1/2+z
1/2+x,1/2+y,z
1/2+x,1/2-y,1/2+z
loop_
_atom_site_type_symbol
_atom_site_label
_atom_site_fract_x
_atom_site_fract_y
_atom_site_fract_z
Si Si1 0.641000 0.522071 0.710800
Si Si2 0.972669 0.317216 0.131433
Si Si3 0.851331 0.236617 0.541757
Si Si4 0.681268 0.863024 0.083249
O O1 0.525698 0.613735 0.374002
O O2 0.664785 0.229185 0.719413
O O3 0.739660 0.658154 0.852982
O O4 0.657836 0.620571 0.919453
O O5 0.904351 0.546757 0.055474
O O6 0.080175 0.455922 0.318152
O O7 0.921231 0.202162 0.857950
O O8 0.800451 0.982732 0.342043
#
# Coordination Sequence:
#
# PCOD9140772 Si02
#       4
#     4   4   4   4
#     4  11  26  48  77 120 163 214 273 342 406 499
#     4  11  25  50  83 118 159 219 277 340 412 492
#     4  11  26  49  81 119 161 217 272 342 419 487
#     4  11  27  49  81 121 167 212 276 344 409 498
#
# _framework density 28.444918000000001
#
# number of rings (size 3 to 8) (size 9 to 14) (size 15 to 20)
#    0.000    1.000    2.500    1.500    3.500   12.000 
#    0.000    2.500    0.000    0.000    0.000    0.000 
#    0.000    0.000    0.000    0.000    0.000    0.000 
#
# Total GULP energy -44850.485701 kJ/mol
# GULP energy per Si atom -5606.310713 kJ/mol
# Density = 2.838018 g / cm^3
# Si number density = 28.444918 Si / 1000 Ang^3
#
#
#
# Elastic Constant Matrix: (Units=GPa)
#
#
# Indices 1 2 3 4 5 6 
#
# 1 161.9175 60.4933 70.8890 0.0000 -14.7065 0.0000
# 2 60.4933 119.2997 78.9282 0.0000 -16.3916 0.0000
# 3 70.8890 78.9282 259.7571 0.0000 -0.7907 0.0000
# 4 0.0000 0.0000 0.0000 51.7760 0.0000 1.2025
# 5 -14.7065 -16.3916 -0.7907 0.0000 57.0237 0.0000
# 6 0.0000 0.0000 0.0000 1.2025 0.0000 68.1651
#
#
#
# Elastic Compliance Matrix: (Units=1/GPa)
#
#
# Indices 1 2 3 4 5 6 
#
# 1 0.007968 -0.003060 -0.001241 0.000000 0.001158 0.000000
# 2 -0.003060 0.012195 -0.002862 0.000000 0.002677 0.000000
# 3 -0.001241 -0.002862 0.005055 0.000000 -0.001073 0.000000
# 4 0.000000 0.000000 0.000000 0.019322 0.000000 -0.000341
# 5 0.001158 0.002677 -0.001073 0.000000 0.018590 0.000000
# 6 0.000000 0.000000 0.000000 -0.000341 0.000000 0.014676
#
#
# Mechanical properties :
#
#
# Convention : Reuss Voigt Hill
#
# Bulk Modulus (GPa) = 91.81783 106.84391 99.33087
# Shear Modulus (GPa) = 52.21198 57.43720 54.82459
#
# Velocity S-wave (km/s) = 4.28898 4.49847 4.39497
# Velocity P-wave (km/s) = 7.54164 8.03896 7.79427
#
# Compressibility (1/GPa) = 0.01089113
#
# Stress axis : x y z
#
# Youngs Moduli (GPa) = 125.50556 81.99815 197.82606
#
# Poissons Ratio (x) = 0.25091 0.24553
# Poissons Ratio (y) = 0.38404 0.56626
# Poissons Ratio (z) = 0.15577 0.23471
#
# Static dielectric constant tensor:
#      x y z
#    x 2.171700 0.000000 0.046880 
#    y 0.000000 2.601940 0.000000 
#    z 0.046880 0.000000 2.136490 
# 
# From -- ./inp_files/6587.got.cif
#   From: 2010.05.17/outbox.cif.g08.bks.cpg/sg9_4_cif.got.tgz:6587.got - 2010.06.03 20:04:27.
