data_PCOD9140282
_publ_section_title
;
Structure prediction by ZEFSAII (Michael W. Deem and Ramdas Pophale) SiO2 
 PCOD9140282
Probable space group: C C
;
_chemical_formula_sum "Si O2"
_cell_formula_units_Z 24
_cell_length_a 10.546975
_cell_length_b 12.834701
_cell_length_c 13.679675
_cell_angle_alpha 90.000000
_cell_angle_beta 34.723190
_cell_angle_gamma 90.000000
_cell_volume 1054.796693
_symmetry_space_group_name_H-M "C C"
_symmetry_group_IT_number 9
_symmetry_cell_setting 'monoclinic'
loop_
_space_group_symop_operation_xyz
x,y,z
x,-y,1/2+z
1/2+x,1/2+y,z
1/2+x,1/2-y,1/2+z
loop_
_atom_site_type_symbol
_atom_site_label
_atom_site_fract_x
_atom_site_fract_y
_atom_site_fract_z
Si Si1 0.426560 0.628247 0.100560
Si Si2 0.658254 0.006124 0.058438
Si Si3 0.997389 0.849546 0.321865
Si Si4 0.836344 0.705270 0.262019
Si Si5 0.401275 0.401983 0.078690
Si Si6 0.517003 0.164960 0.502258
O O1 0.487932 0.508055 0.076674
O O2 0.570248 0.730882 0.033115
O O3 0.190745 0.648145 0.303836
O O4 0.444066 0.645706 0.971562
O O5 0.710657 0.948509 0.128021
O O6 0.536935 0.929013 0.063943
O O7 0.517231 0.112705 0.148295
O O8 0.892591 0.039405 0.860244
O O9 0.867963 0.758366 0.348016
O O10 0.257386 0.837521 0.136829
O O11 0.605735 0.646340 0.389562
O O12 0.844438 0.806057 0.185938
#
# Coordination Sequence:
#
# PCOD9140282 Si02
#       6
#     4   4   4   4   4   4
#     4  11  25  44  76 109 147 193 255 312 377 462
#     4  11  25  46  75 108 154 200 252 319 385 458
#     4  11  23  47  74 109 143 198 256 312 379 458
#     4  12  25  48  79 106 151 202 255 321 382 457
#     4  11  27  48  73 114 146 198 260 308 390 457
#     4  12  25  45  75 110 149 199 256 310 391 458
#
# _framework density 22.7532
#
# number of rings (size 3 to 8) (size 9 to 14) (size 15 to 20)
#    0.000    0.667    3.333    5.000    0.000    1.333 
#    0.000    5.000    0.000    0.000    0.000    0.000 
#    0.000    0.000    0.000    0.000    0.000    0.000 
#
# Total GULP energy -66857.176280 kJ/mol
# GULP energy per Si atom -5571.431357 kJ/mol
# Density = 2.270141 g / cm^3
# Si number density = 22.753200 Si / 1000 Ang^3
#
#
#
# Elastic Constant Matrix: (Units=GPa)
#
#
# Indices 1 2 3 4 5 6 
#
# 1 52.6682 44.3398 21.8349 -0.0001 14.5270 -0.0002
# 2 44.3398 217.1609 62.8578 -0.0001 4.9607 0.0000
# 3 21.8349 62.8578 92.6775 -0.0010 14.8373 0.0002
# 4 -0.0001 -0.0001 -0.0010 42.3286 0.0007 1.4686
# 5 14.5270 4.9607 14.8373 0.0007 25.8041 0.0000
# 6 -0.0002 0.0000 0.0002 1.4686 0.0000 46.6325
#
#
#
# Elastic Compliance Matrix: (Units=1/GPa)
#
#
# Indices 1 2 3 4 5 6 
#
# 1 0.027435 -0.005052 -0.000793 0.000000 -0.014018 0.000000
# 2 -0.005052 0.006697 -0.003966 0.000000 0.003837 0.000000
# 3 -0.000793 -0.003966 0.014839 0.000000 -0.007324 0.000000
# 4 0.000000 0.000000 0.000000 0.023651 -0.000001 -0.000745
# 5 -0.014018 0.003837 -0.007324 -0.000001 0.050119 0.000000
# 6 0.000000 0.000000 0.000000 -0.000745 0.000000 0.021468
#
#
# Mechanical properties :
#
#
# Convention : Reuss Voigt Hill
#
# Bulk Modulus (GPa) = 34.07261 68.95240 51.51251
# Shear Modulus (GPa) = 28.79961 38.51797 33.65879
#
# Velocity S-wave (km/s) = 3.56158 4.11890 3.85034
# Velocity P-wave (km/s) = 5.64983 7.27947 6.51580
#
# Compressibility (1/GPa) = 0.02934909
#
# Stress axis : x y z
#
# Youngs Moduli (GPa) = 36.44964 149.32689 67.38815
#
# Poissons Ratio (x) = 0.75439 0.05344
# Poissons Ratio (y) = 0.18414 0.26727
# Poissons Ratio (z) = 0.02891 0.59224
#
# Static dielectric constant tensor:
#      x y z
#    x 1.925880 0.000000 -0.006940 
#    y 0.000000 2.028870 0.000000 
#    z -0.006940 0.000000 1.884550 
# 
# From -- ./inp_files/24711.got.cif
#   From: 2010.05.17/outbox.cif.g08.bks.cpg/sg9_13_cif.got.tgz:24711.got - 2010.06.03 20:04:27.
