data_PCOD9140709
_publ_section_title
;
Structure prediction by ZEFSAII (Michael W. Deem and Ramdas Pophale) SiO2 
 PCOD9140709
Probable space group: C C
;
_chemical_formula_sum "Si O2"
_cell_formula_units_Z 32
_cell_length_a 23.109826
_cell_length_b 5.287335
_cell_length_c 24.359506
_cell_angle_alpha 90.000000
_cell_angle_beta 157.468071
_cell_angle_gamma 90.000000
_cell_volume 1140.579241
_symmetry_space_group_name_H-M "C C"
_symmetry_group_IT_number 9
_symmetry_cell_setting 'monoclinic'
loop_
_space_group_symop_operation_xyz
x,y,z
x,-y,1/2+z
1/2+x,1/2+y,z
1/2+x,1/2-y,1/2+z
loop_
_atom_site_type_symbol
_atom_site_label
_atom_site_fract_x
_atom_site_fract_y
_atom_site_fract_z
Si Si1 0.418470 0.912071 0.977430
Si Si2 0.455938 0.613365 0.908924
Si Si3 0.070644 0.787200 0.362031
Si Si4 0.304160 0.934751 0.680508
Si Si5 0.117540 0.328274 0.781027
Si Si6 0.715633 0.227446 0.252687
Si Si7 0.440376 0.321666 0.614111
Si Si8 0.727247 0.802144 0.532270
O O1 0.486003 0.703808 0.997095
O O2 0.267913 0.988265 0.811701
O O3 0.388272 0.812729 0.011940
O O4 0.548112 0.130310 0.091822
O O5 0.381103 0.818709 0.802370
O O6 0.333053 0.390360 0.811847
O O7 0.624763 0.566772 0.035642
O O8 0.890808 0.733825 0.208717
O O9 0.143931 0.763247 0.365854
O O10 0.126338 0.549254 0.446594
O O11 0.124049 0.058004 0.428471
O O12 0.316102 0.216387 0.664861
O O13 0.234287 0.359091 0.833431
O O14 0.058716 0.610863 0.737595
O O15 0.005692 0.102952 0.662391
O O16 0.330220 0.334089 0.569027
#
# Coordination Sequence:
#
# PCOD9140709 Si02
#       8
#     4   4   4   4   4   4   4   4
#     4  11  28  48  83 120 168 222 285 364 438 522
#     4  12  28  56  81 117 172 231 305 359 442 514
#     4  12  27  50  84 126 169 226 284 363 441 520
#     4  12  28  55  80 123 170 234 302 363 436 526
#     4  11  25  47  83 125 171 217 278 355 442 528
#     4  11  28  49  82 123 167 224 289 363 441 521
#     4  11  25  47  84 125 170 218 279 352 440 526
#     4  12  27  50  85 123 171 224 288 355 438 521
#
# _framework density 28.055923
#
# number of rings (size 3 to 8) (size 9 to 14) (size 15 to 20)
#    0.000    0.500    3.750    2.250   10.500    1.000 
#    4.500    0.000    0.000    0.000    0.000    0.000 
#    0.000    0.000    0.000    0.000    0.000    0.000 
#
# Total GULP energy -89448.844927 kJ/mol
# GULP energy per Si atom -5590.552808 kJ/mol
# Density = 2.799207 g / cm^3
# Si number density = 28.055923 Si / 1000 Ang^3
#
#
#
# Elastic Constant Matrix: (Units=GPa)
#
#
# Indices 1 2 3 4 5 6 
#
# 1 202.4106 26.5220 41.0903 -0.0007 17.6372 -0.0003
# 2 26.5220 116.9365 50.4152 -0.0006 7.9177 0.0038
# 3 41.0903 50.4152 125.8593 -0.0006 16.5650 -0.0002
# 4 -0.0007 -0.0006 -0.0006 52.8577 -0.0002 -8.9794
# 5 17.6372 7.9177 16.5650 -0.0002 60.3647 -0.0001
# 6 -0.0003 0.0038 -0.0002 -8.9794 -0.0001 53.7338
#
#
#
# Elastic Compliance Matrix: (Units=1/GPa)
#
#
# Indices 1 2 3 4 5 6 
#
# 1 0.005393 -0.000546 -0.001394 0.000000 -0.001121 0.000000
# 2 -0.000546 0.010395 -0.003971 0.000000 -0.000114 -0.000001
# 3 -0.001394 -0.003971 0.010239 0.000000 -0.001881 0.000000
# 4 0.000000 0.000000 0.000000 0.019471 0.000000 0.003254
# 5 -0.001121 -0.000114 -0.001881 0.000000 0.017425 0.000000
# 6 0.000000 -0.000001 0.000000 0.003254 0.000000 0.019154
#
#
# Mechanical properties :
#
#
# Convention : Reuss Voigt Hill
#
# Bulk Modulus (GPa) = 70.39954 75.69572 73.04763
# Shear Modulus (GPa) = 50.69256 55.20318 52.94787
#
# Velocity S-wave (km/s) = 4.25531 4.44059 4.34893
# Velocity P-wave (km/s) = 7.02072 7.30278 7.16314
#
# Compressibility (1/GPa) = 0.01420464
#
# Stress axis : x y z
#
# Youngs Moduli (GPa) = 185.43365 96.19917 97.66854
#
# Poissons Ratio (x) = 0.05253 0.13618
# Poissons Ratio (y) = 0.10126 0.38780
# Poissons Ratio (z) = 0.25855 0.38197
#
# Static dielectric constant tensor:
#      x y z
#    x 2.153130 0.000000 0.017240 
#    y 0.000000 2.196150 0.000000 
#    z 0.017240 0.000000 2.373210 
# 
# From -- ./inp_files/37748.got.cif
#   From: 2010.05.17/outbox.cif.g08.bks.cpg/sg9_19_cif.got.tgz:37748.got - 2010.06.03 20:04:27.
