data_PCOD9140067
_publ_section_title
;
Structure prediction by ZEFSAII (Michael W. Deem and Ramdas Pophale) SiO2 
 PCOD9140067
Probable space group: C C
;
_chemical_formula_sum "Si O2"
_cell_formula_units_Z 32
_cell_length_a 12.020197
_cell_length_b 29.018484
_cell_length_c 5.000563
_cell_angle_alpha 90.000000
_cell_angle_beta 57.170701
_cell_angle_gamma 90.000000
_cell_volume 1465.663042
_symmetry_space_group_name_H-M "C C"
_symmetry_group_IT_number 9
_symmetry_cell_setting 'monoclinic'
loop_
_space_group_symop_operation_xyz
x,y,z
x,-y,1/2+z
1/2+x,1/2+y,z
1/2+x,1/2-y,1/2+z
loop_
_atom_site_type_symbol
_atom_site_label
_atom_site_fract_x
_atom_site_fract_y
_atom_site_fract_z
Si Si1 0.711260 0.111601 0.395430
Si Si2 0.511267 0.969576 0.197431
Si Si3 0.870197 0.864185 0.167500
Si Si4 0.666932 0.738467 0.616405
Si Si5 0.302812 0.107791 0.858255
Si Si6 0.646386 0.633145 0.590351
Si Si7 0.501225 0.182911 0.624672
Si Si8 0.931367 0.760457 0.070716
O O1 0.634521 0.063760 0.474883
O O2 0.826840 0.108419 0.462468
O O3 0.605658 0.149801 0.640026
O O4 0.761181 0.129519 0.042898
O O5 0.382403 0.938679 0.309228
O O6 0.513775 0.987023 0.497010
O O7 0.890928 0.811561 0.038063
O O8 0.005563 0.877045 0.140109
O O9 0.642961 0.685168 0.717786
O O10 0.821040 0.750538 0.440835
O O11 0.587429 0.739295 0.435490
O O12 0.587284 0.779543 0.857556
O O13 0.190678 0.102294 0.781440
O O14 0.407038 0.145731 0.605256
O O15 0.247738 0.127117 0.211062
O O16 0.409848 0.216317 0.917011
#
# Coordination Sequence:
#
# PCOD9140067 Si02
#       8
#     4   4   4   4   4   4   4   4
#     4  11  24  43  67  96 132 168 218 276 332 388
#     4  11  24  46  78 104 122 156 208 278 346 401
#     4  11  24  40  62  93 135 184 217 259 317 388
#     4  11  23  37  57  86 134 185 235 274 312 374
#     4  11  24  43  67  96 132 168 218 276 332 388
#     4  11  24  40  62  93 135 184 217 259 317 388
#     4  11  24  36  62  90 134 180 232 278 320 361
#     4  11  23  37  57  86 134 185 235 274 312 374
#
# _framework density 21.833120000000001
#
# number of rings (size 3 to 8) (size 9 to 14) (size 15 to 20)
#    0.000    1.000    2.500    3.750    7.000    4.000 
#    0.000    0.000    0.000   15.000    0.000    0.000 
#    0.000    0.000    0.000    0.000    0.000    0.000 
#
# Total GULP energy -89298.592459 kJ/mol
# GULP energy per Si atom -5581.162029 kJ/mol
# Density = 2.178343 g / cm^3
# Si number density = 21.833120 Si / 1000 Ang^3
#
#
#
# Elastic Constant Matrix: (Units=GPa)
#
#
# Indices 1 2 3 4 5 6 
#
# 1 90.9997 24.2374 -7.6750 0.0000 -1.5403 0.0000
# 2 24.2374 66.5520 11.6954 0.0000 -7.5119 0.0000
# 3 -7.6750 11.6954 59.9825 0.0000 -4.9939 0.0000
# 4 0.0000 0.0000 0.0000 23.2387 0.0000 1.3068
# 5 -1.5403 -7.5119 -4.9939 0.0000 29.5569 0.0000
# 6 0.0000 0.0000 0.0000 1.3068 0.0000 24.7341
#
#
#
# Elastic Compliance Matrix: (Units=1/GPa)
#
#
# Indices 1 2 3 4 5 6 
#
# 1 0.012546 -0.005043 0.002572 0.000000 -0.000193 0.000000
# 2 -0.005043 0.017949 -0.003841 0.000000 0.003650 0.000000
# 3 0.002572 -0.003841 0.017932 0.000000 0.002188 0.000000
# 4 0.000000 0.000000 0.000000 0.043160 0.000000 -0.002280
# 5 -0.000193 0.003650 0.002188 0.000000 0.035120 0.000000
# 6 0.000000 0.000000 0.000000 -0.002280 0.000000 0.040551
#
#
# Mechanical properties :
#
#
# Convention : Reuss Voigt Hill
#
# Bulk Modulus (GPa) = 27.92994 30.44998 29.18996
# Shear Modulus (GPa) = 26.06670 28.12436 27.09553
#
# Velocity S-wave (km/s) = 3.45904 3.59298 3.52665
# Velocity P-wave (km/s) = 5.36410 5.58477 5.47554
#
# Compressibility (1/GPa) = 0.03580387
#
# Stress axis : x y z
#
# Youngs Moduli (GPa) = 79.70715 55.71205 55.76695
#
# Poissons Ratio (x) = 0.28095 -0.14346
# Poissons Ratio (y) = 0.40196 0.21421
# Poissons Ratio (z) = -0.20505 0.21400
#
# Static dielectric constant tensor:
#      x y z
#    x 1.871800 0.000000 0.012590 
#    y 0.000000 1.753380 0.000000 
#    z 0.012590 0.000000 1.887350 
# 
# From -- ./inp_files/2187.got.cif
#   From: 2010.05.17/outbox.cif.g08.bks.cpg/sg9_2_cif.got.tgz:2187.got - 2010.06.03 20:04:27.
