data_PCOD9140770
_publ_section_title
;
Structure prediction by ZEFSAII (Michael W. Deem and Ramdas Pophale) SiO2 
 PCOD9140770
Probable space group: C C
;
_chemical_formula_sum "Si O2"
_cell_formula_units_Z 24
_cell_length_a 8.541270
_cell_length_b 14.023841
_cell_length_c 7.149060
_cell_angle_alpha 90.000000
_cell_angle_beta 85.890801
_cell_angle_gamma 90.000000
_cell_volume 854.123143
_symmetry_space_group_name_H-M "C C"
_symmetry_group_IT_number 9
_symmetry_cell_setting 'monoclinic'
loop_
_space_group_symop_operation_xyz
x,y,z
x,-y,1/2+z
1/2+x,1/2+y,z
1/2+x,1/2-y,1/2+z
loop_
_atom_site_type_symbol
_atom_site_label
_atom_site_fract_x
_atom_site_fract_y
_atom_site_fract_z
Si Si1 0.152790 0.455096 0.973130
Si Si2 0.931495 0.365288 0.484004
Si Si3 0.870396 0.812916 0.736925
Si Si4 0.476747 0.501870 0.094082
Si Si5 0.622876 0.616645 0.797198
Si Si6 0.432731 0.195266 0.403516
O O1 0.232889 0.383470 0.814495
O O2 0.006499 0.386449 0.029882
O O3 0.298208 0.462384 0.100778
O O4 0.074177 0.558986 0.949757
O O5 0.936226 0.260397 0.385061
O O6 0.779738 0.405925 0.390694
O O7 0.892295 0.349544 0.707015
O O8 0.000274 0.888614 0.660024
O O9 0.821519 0.753154 0.556176
O O10 0.611533 0.420533 0.087690
O O11 0.491018 0.535912 0.863591
O O12 0.557255 0.720662 0.838505
#
# Coordination Sequence:
#
# PCOD9140770 Si02
#       6
#     4   4   4   4   4   4
#     4  12  26  53  88 126 166 235 299 362 442 533
#     4  12  29  52  84 127 171 221 308 357 446 529
#     4  11  26  54  82 123 171 227 288 366 443 523
#     4  11  25  50  80 112 168 227 288 354 449 519
#     4  11  26  48  78 115 169 224 284 369 437 516
#     4  11  28  51  80 129 171 226 293 372 441 528
#
# _framework density 28.098994999999999
#
# number of rings (size 3 to 8) (size 9 to 14) (size 15 to 20)
#    0.000    0.667    3.333    2.000    7.000    0.000 
#   15.000    0.000    0.000    0.000    0.000    0.000 
#    0.000    0.000    0.000    0.000    0.000    0.000 
#
# Total GULP energy -66945.739711 kJ/mol
# GULP energy per Si atom -5578.811643 kJ/mol
# Density = 2.803504 g / cm^3
# Si number density = 28.098995 Si / 1000 Ang^3
#
#
#
# Elastic Constant Matrix: (Units=GPa)
#
#
# Indices 1 2 3 4 5 6 
#
# 1 143.8716 59.0597 75.0824 0.0000 37.8012 0.0000
# 2 59.0597 193.0350 78.5509 0.0000 19.6079 0.0000
# 3 75.0824 78.5509 133.4820 0.0000 22.4314 0.0000
# 4 0.0000 0.0000 0.0000 71.1352 0.0000 1.9318
# 5 37.8012 19.6079 22.4314 0.0000 66.1567 0.0000
# 6 0.0000 0.0000 0.0000 1.9318 0.0000 57.6350
#
#
#
# Elastic Compliance Matrix: (Units=1/GPa)
#
#
# Indices 1 2 3 4 5 6 
#
# 1 0.011057 -0.000930 -0.004938 0.000000 -0.004368 0.000000
# 2 -0.000930 0.006920 -0.003493 0.000000 -0.000335 0.000000
# 3 -0.004938 -0.003493 0.012382 0.000000 -0.000341 0.000000
# 4 0.000000 0.000000 0.000000 0.014071 0.000000 -0.000472
# 5 -0.004368 -0.000335 -0.000341 0.000000 0.017827 0.000000
# 6 0.000000 0.000000 0.000000 -0.000472 0.000000 0.017366
#
#
# Mechanical properties :
#
#
# Convention : Reuss Voigt Hill
#
# Bulk Modulus (GPa) = 85.92949 99.53050 92.72999
# Shear Modulus (GPa) = 48.91163 56.16508 52.53835
#
# Velocity S-wave (km/s) = 4.17668 4.47568 4.32876
# Velocity P-wave (km/s) = 7.34214 7.88715 7.61952
#
# Compressibility (1/GPa) = 0.01163745
#
# Stress axis : x y z
#
# Youngs Moduli (GPa) = 90.43922 144.50067 80.75951
#
# Poissons Ratio (x) = 0.13435 0.39882
# Poissons Ratio (y) = 0.08408 0.28210
# Poissons Ratio (z) = 0.44663 0.50476
#
# Static dielectric constant tensor:
#      x y z
#    x 2.224390 0.000000 -0.260200 
#    y 0.000000 2.338330 0.000000 
#    z -0.260200 0.000000 2.985360 
# 
# From -- ./inp_files/5003.got.cif
#   From: 2010.05.17/outbox.cif.g08.bks.cpg/sg9_3_cif.got.tgz:5003.got - 2010.06.03 20:04:27.
