data_PCOD9140538
_publ_section_title
;
Structure prediction by ZEFSAII (Michael W. Deem and Ramdas Pophale) SiO2 
 PCOD9140538
Probable space group: C C
;
_chemical_formula_sum "Si O2"
_cell_formula_units_Z 32
_cell_length_a 13.410531
_cell_length_b 8.882128
_cell_length_c 11.353705
_cell_angle_alpha 90.000000
_cell_angle_beta 75.743617
_cell_angle_gamma 90.000000
_cell_volume 1310.737043
_symmetry_space_group_name_H-M "C C"
_symmetry_group_IT_number 9
_symmetry_cell_setting 'monoclinic'
loop_
_space_group_symop_operation_xyz
x,y,z
x,-y,1/2+z
1/2+x,1/2+y,z
1/2+x,1/2-y,1/2+z
loop_
_atom_site_type_symbol
_atom_site_label
_atom_site_fract_x
_atom_site_fract_y
_atom_site_fract_z
Si Si1 0.114900 0.280698 0.964250
Si Si2 0.443359 0.906333 0.835196
Si Si3 0.415957 0.481593 0.887631
Si Si4 0.287948 0.720752 0.779400
Si Si5 0.745101 0.004662 0.586075
Si Si6 0.956297 0.711899 0.711159
Si Si7 0.656897 0.509783 0.810305
Si Si8 0.276437 0.154399 0.582870
O O1 0.184988 0.147810 0.889936
O O2 0.036112 0.333450 0.883710
O O3 0.181640 0.417015 0.999051
O O4 0.046015 0.232916 0.097350
O O5 0.392426 0.824551 0.734181
O O6 0.483003 0.067038 0.781068
O O7 0.343751 0.904139 0.952256
O O8 0.342043 0.609887 0.857203
O O9 0.411196 0.337932 0.807949
O O10 0.534964 0.515187 0.856095
O O11 0.367119 0.465372 0.029307
O O12 0.233121 0.607103 0.704760
O O13 0.200543 0.846114 0.830319
O O14 0.728853 0.824677 0.593837
O O15 0.864856 0.663629 0.653824
O O16 0.693187 0.545734 0.666707
#
# Coordination Sequence:
#
# PCOD9140538 Si02
#       8
#     4   4   4   4   4   4   4   4
#     4  11  27  47  80 115 159 209 264 338 407 486
#     4  11  25  50  77 118 154 209 269 330 408 488
#     4  12  26  50  75 112 158 206 262 330 397 490
#     4  12  26  47  79 114 157 209 265 323 408 480
#     4  12  27  47  77 115 153 208 258 329 409 483
#     4  11  24  48  78 109 157 201 263 328 398 480
#     4  12  27  48  77 116 154 209 267 334 398 486
#     4  11  24  47  75 109 158 199 256 328 393 475
#
# _framework density 24.413746
#
# number of rings (size 3 to 8) (size 9 to 14) (size 15 to 20)
#    0.000    0.500    5.000    2.250    3.500    2.000 
#    0.000    0.000    0.000    0.000    0.000    0.000 
#    0.000    0.000    0.000    0.000    0.000    0.000 
#
# Total GULP energy -89275.925268 kJ/mol
# GULP energy per Si atom -5579.745329 kJ/mol
# Density = 2.435818 g / cm^3
# Si number density = 24.413746 Si / 1000 Ang^3
#
#
#
# Elastic Constant Matrix: (Units=GPa)
#
#
# Indices 1 2 3 4 5 6 
#
# 1 112.7669 31.4959 7.0167 0.0000 3.1752 0.0000
# 2 31.4959 119.1016 34.7061 0.0000 3.6628 0.0000
# 3 7.0167 34.7061 36.8513 0.0000 -8.8552 0.0000
# 4 0.0000 0.0000 0.0000 21.0588 0.0000 -9.5047
# 5 3.1752 3.6628 -8.8552 0.0000 37.3514 0.0000
# 6 0.0000 0.0000 0.0000 -9.5047 0.0000 30.8447
#
#
#
# Elastic Compliance Matrix: (Units=1/GPa)
#
#
# Indices 1 2 3 4 5 6 
#
# 1 0.009597 -0.002708 0.000627 0.000000 -0.000402 0.000000
# 2 -0.002708 0.012911 -0.012611 0.000000 -0.004026 0.000000
# 3 0.000627 -0.012611 0.041545 0.000000 0.011033 0.000000
# 4 0.000000 0.000000 0.000000 0.055158 0.000000 0.016997
# 5 -0.000402 -0.004026 0.011033 0.000000 0.029817 0.000000
# 6 0.000000 0.000000 0.000000 0.016997 0.000000 0.037658
#
#
# Mechanical properties :
#
#
# Convention : Reuss Voigt Hill
#
# Bulk Modulus (GPa) = 28.84562 46.12856 37.48709
# Shear Modulus (GPa) = 21.96586 30.88437 26.42512
#
# Velocity S-wave (km/s) = 3.00281 3.56060 3.29353
# Velocity P-wave (km/s) = 4.88502 5.98660 5.46364
#
# Compressibility (1/GPa) = 0.03466730
#
# Stress axis : x y z
#
# Youngs Moduli (GPa) = 104.20449 77.45344 24.07038
#
# Poissons Ratio (x) = 0.20974 -0.01508
# Poissons Ratio (y) = 0.28218 0.30355
# Poissons Ratio (z) = -0.06529 0.97677
#
# Static dielectric constant tensor:
#      x y z
#    x 1.970330 0.000000 -0.007910 
#    y 0.000000 2.064290 0.000000 
#    z -0.007910 0.000000 2.042340 
# 
# From -- ./inp_files/17772.got.cif
#   From: 2010.05.17/outbox.cif.g08.bks.cpg/sg9_9_cif.got.tgz:17772.got - 2010.06.03 20:04:27.
