data_PCOD9140411
_publ_section_title
;
Structure prediction by ZEFSAII (Michael W. Deem and Ramdas Pophale) SiO2 
 PCOD9140411
Probable space group: C C
;
_chemical_formula_sum "Si O2"
_cell_formula_units_Z 24
_cell_length_a 18.612618
_cell_length_b 5.119169
_cell_length_c 12.320052
_cell_angle_alpha 90.000000
_cell_angle_beta 67.795804
_cell_angle_gamma 90.000000
_cell_volume 1086.817888
_symmetry_space_group_name_H-M "C C"
_symmetry_group_IT_number 9
_symmetry_cell_setting 'monoclinic'
loop_
_space_group_symop_operation_xyz
x,y,z
x,-y,1/2+z
1/2+x,1/2+y,z
1/2+x,1/2-y,1/2+z
loop_
_atom_site_type_symbol
_atom_site_label
_atom_site_fract_x
_atom_site_fract_y
_atom_site_fract_z
Si Si1 0.989600 0.487068 0.300540
Si Si2 0.251421 0.365538 0.865228
Si Si3 0.033830 0.150743 0.465243
Si Si4 0.194365 0.854948 0.007400
Si Si5 0.922200 0.016930 0.721695
Si Si6 0.628867 0.730653 0.758804
O O1 0.937354 0.728023 0.288757
O O2 0.000599 0.403929 0.420597
O O3 0.077780 0.562977 0.220972
O O4 0.961124 0.231754 0.256109
O O5 0.235049 0.577850 0.967268
O O6 0.332185 0.444662 0.765204
O O7 0.183435 0.368795 0.814566
O O8 0.244790 0.077909 0.920139
O O9 0.066249 0.951323 0.355346
O O10 0.110992 0.170715 0.494952
O O11 0.965318 0.058116 0.582943
O O12 0.179421 0.920148 0.141352
#
# Coordination Sequence:
#
# PCOD9140411 Si02
#       6
#     4   4   4   4   4   4
#     4  12  24  45  72 109 139 188 245 286 356 435
#     4  11  27  48  68 106 146 185 235 298 365 418
#     4  11  24  44  77 107 139 189 245 298 349 429
#     4  11  24  44  76 100 142 187 242 294 349 432
#     4  12  28  46  73 108 149 184 237 306 364 418
#     4  11  25  45  76 104 135 193 246 288 355 434
#
# _framework density 22.082816000000001
#
# number of rings (size 3 to 8) (size 9 to 14) (size 15 to 20)
#    0.000    0.667    5.000    1.000    9.333    1.333 
#    3.000    1.667    0.000    0.000    0.000    0.000 
#    0.000    0.000    0.000    0.000    0.000    0.000 
#
# Total GULP energy -67035.279825 kJ/mol
# GULP energy per Si atom -5586.273319 kJ/mol
# Density = 2.203255 g / cm^3
# Si number density = 22.082816 Si / 1000 Ang^3
#
#
#
# Elastic Constant Matrix: (Units=GPa)
#
#
# Indices 1 2 3 4 5 6 
#
# 1 78.4281 40.9028 32.3908 0.0000 -20.4365 0.0000
# 2 40.9028 124.2283 26.5126 0.0000 6.6717 0.0000
# 3 32.3908 26.5126 89.3970 0.0000 -17.6051 0.0000
# 4 0.0000 0.0000 0.0000 17.6973 0.0000 -7.1853
# 5 -20.4365 6.6717 -17.6051 0.0000 26.5292 0.0000
# 6 0.0000 0.0000 0.0000 -7.1853 0.0000 31.8022
#
#
#
# Elastic Compliance Matrix: (Units=1/GPa)
#
#
# Indices 1 2 3 4 5 6 
#
# 1 0.022399 -0.007833 -0.002309 0.000000 0.017693 0.000000
# 2 -0.007833 0.011811 -0.002804 0.000000 -0.010865 0.000000
# 3 -0.002309 -0.002804 0.014544 0.000000 0.008578 0.000000
# 4 0.000000 0.000000 0.000000 0.062213 0.000000 0.014056
# 5 0.017693 -0.010865 0.008578 0.000000 0.059749 0.000000
# 6 0.000000 0.000000 0.000000 0.014056 0.000000 0.034620
#
#
# Mechanical properties :
#
#
# Convention : Reuss Voigt Hill
#
# Bulk Modulus (GPa) = 43.74034 54.62953 49.18494
# Shear Modulus (GPa) = 20.93395 28.02223 24.47809
#
# Velocity S-wave (km/s) = 3.08226 3.56611 3.33298
# Velocity P-wave (km/s) = 5.70241 6.46130 6.09368
#
# Compressibility (1/GPa) = 0.02286219
#
# Stress axis : x y z
#
# Youngs Moduli (GPa) = 44.64442 84.66970 68.75902
#
# Poissons Ratio (x) = 0.66318 0.15874
# Poissons Ratio (y) = 0.34968 0.19283
# Poissons Ratio (z) = 0.10307 0.23745
#
# Static dielectric constant tensor:
#      x y z
#    x 1.800970 0.000000 0.008160 
#    y 0.000000 1.924340 0.000000 
#    z 0.008160 0.000000 1.837080 
# 
# From -- ./inp_files/18850.got.cif
#   From: 2010.05.17/outbox.cif.g08.bks.cpg/sg9_10_cif.got.tgz:18850.got - 2010.06.03 20:04:27.
