data_PCOD9140250
_publ_section_title
;
Structure prediction by ZEFSAII (Michael W. Deem and Ramdas Pophale) SiO2 
 PCOD9140250
Probable space group: C C
;
_chemical_formula_sum "Si O2"
_cell_formula_units_Z 28
_cell_length_a 17.211038
_cell_length_b 6.187741
_cell_length_c 13.193474
_cell_angle_alpha 90.000000
_cell_angle_beta 123.017325
_cell_angle_gamma 90.000000
_cell_volume 1178.160476
_symmetry_space_group_name_H-M "C C"
_symmetry_group_IT_number 9
_symmetry_cell_setting 'monoclinic'
loop_
_space_group_symop_operation_xyz
x,y,z
x,-y,1/2+z
1/2+x,1/2+y,z
1/2+x,1/2-y,1/2+z
loop_
_atom_site_type_symbol
_atom_site_label
_atom_site_fract_x
_atom_site_fract_y
_atom_site_fract_z
Si Si1 0.787420 0.357146 0.611690
Si Si2 0.646345 0.689688 0.458768
Si Si3 0.720317 0.998314 0.339133
Si Si4 0.125834 0.593286 0.565767
Si Si5 0.559999 0.691519 0.770677
Si Si6 0.401160 0.738113 0.498336
Si Si7 0.450061 0.902264 0.868594
O O1 0.727737 0.572520 0.578968
O O2 0.844126 0.360514 0.547702
O O3 0.855391 0.313743 0.753542
O O4 0.705866 0.182339 0.550112
O O5 0.696289 0.825108 0.407197
O O6 0.601904 0.855736 0.506406
O O7 0.577829 0.520009 0.353582
O O8 0.674792 0.902913 0.206520
O O9 0.659551 0.218219 0.308137
O O10 0.828893 0.052301 0.414478
O O11 0.026593 0.712234 0.495338
O O12 0.492503 0.662718 0.625972
O O13 0.512568 0.878750 0.808222
O O14 0.418497 0.893044 0.414402
#
# Coordination Sequence:
#
# PCOD9140250 Si02
#       7
#     4   4   4   4   4   4   4
#     4  11  25  45  71 105 146 187 240 303 374 444
#     4  12  23  46  75  96 149 196 235 300 376 435
#     4  12  25  47  72 105 147 191 246 307 372 441
#     4  12  25  48  71 103 148 191 242 309 369 442
#     4  11  24  48  71 106 148 190 245 307 376 439
#     4  11  23  48  72 106 146 184 248 309 359 453
#     4  11  23  46  74 103 146 187 242 311 366 438
#
# _framework density 23.765861000000001
#
# number of rings (size 3 to 8) (size 9 to 14) (size 15 to 20)
#    0.000    0.571    7.143    0.857    2.000    2.286 
#    7.714    0.000    0.000    0.000    0.000    0.000 
#    0.000    0.000    0.000    0.000    0.000    0.000 
#
# Total GULP energy -78007.838690 kJ/mol
# GULP energy per Si atom -5571.988478 kJ/mol
# Density = 2.371177 g / cm^3
# Si number density = 23.765861 Si / 1000 Ang^3
#
#
#
# Elastic Constant Matrix: (Units=GPa)
#
#
# Indices 1 2 3 4 5 6 
#
# 1 89.1921 30.7743 42.5128 0.0000 19.1450 0.0000
# 2 30.7743 49.5728 21.6620 0.0000 5.7281 0.0000
# 3 42.5128 21.6620 173.4520 0.0000 41.9567 0.0000
# 4 0.0000 0.0000 0.0000 35.3961 0.0000 -3.8607
# 5 19.1450 5.7281 41.9567 0.0000 48.5941 0.0000
# 6 0.0000 0.0000 0.0000 -3.8607 0.0000 29.6393
#
#
#
# Elastic Compliance Matrix: (Units=1/GPa)
#
#
# Indices 1 2 3 4 5 6 
#
# 1 0.015870 -0.008586 -0.001959 0.000000 -0.003549 0.000000
# 2 -0.008586 0.025984 -0.001540 0.000000 0.001649 0.000000
# 3 -0.001959 -0.001540 0.007846 0.000000 -0.005821 0.000000
# 4 0.000000 0.000000 0.000000 0.028659 0.000000 0.003733
# 5 -0.003549 0.001649 -0.005821 0.000000 0.026808 0.000000
# 6 0.000000 0.000000 0.000000 0.003733 0.000000 0.034225
#
#
# Mechanical properties :
#
#
# Convention : Reuss Voigt Hill
#
# Bulk Modulus (GPa) = 39.16762 55.79058 47.47910
# Shear Modulus (GPa) = 29.05780 37.21041 33.13411
#
# Velocity S-wave (km/s) = 3.50046 3.96120 3.73793
# Velocity P-wave (km/s) = 5.73185 6.66689 6.21697
#
# Compressibility (1/GPa) = 0.02553130
#
# Stress axis : x y z
#
# Youngs Moduli (GPa) = 63.01379 38.48453 127.45825
#
# Poissons Ratio (x) = 0.33041 0.24968
# Poissons Ratio (y) = 0.54101 0.19625
# Poissons Ratio (z) = 0.12344 0.05925
#
# Static dielectric constant tensor:
#      x y z
#    x 1.926740 0.000000 -0.023300 
#    y 0.000000 1.976710 0.000000 
#    z -0.023300 0.000000 1.944940 
# 
# From -- ./inp_files/27082.got.cif
#   From: 2010.05.17/outbox.cif.g08.bks.cpg/sg9_14_cif.got.tgz:27082.got - 2010.06.03 20:04:27.
