data_PCOD9140471
_publ_section_title
;
Structure prediction by ZEFSAII (Michael W. Deem and Ramdas Pophale) SiO2 
 PCOD9140471
Probable space group: C C
;
_chemical_formula_sum "Si O2"
_cell_formula_units_Z 28
_cell_length_a 20.912257
_cell_length_b 12.490742
_cell_length_c 11.717117
_cell_angle_alpha 90.000000
_cell_angle_beta 23.416368
_cell_angle_gamma 90.000000
_cell_volume 1216.322562
_symmetry_space_group_name_H-M "C C"
_symmetry_group_IT_number 9
_symmetry_cell_setting 'monoclinic'
loop_
_space_group_symop_operation_xyz
x,y,z
x,-y,1/2+z
1/2+x,1/2+y,z
1/2+x,1/2-y,1/2+z
loop_
_atom_site_type_symbol
_atom_site_label
_atom_site_fract_x
_atom_site_fract_y
_atom_site_fract_z
Si Si1 0.009830 0.426317 0.064610
Si Si2 0.905511 0.118329 0.717867
Si Si3 0.563977 0.572637 0.071471
Si Si4 0.782880 0.406865 0.826174
Si Si5 0.286181 0.579088 0.676492
Si Si6 0.264624 0.197994 0.130361
Si Si7 0.160288 0.234814 0.718961
O O1 0.917558 0.532885 0.176932
O O2 0.895896 0.361381 0.338198
O O3 0.180326 0.472605 0.831128
O O4 0.043921 0.338006 0.910915
O O5 0.781959 0.108221 0.816287
O O6 0.088762 0.151444 0.393595
O O7 0.834288 0.207585 0.920754
O O8 0.930756 0.999151 0.724907
O O9 0.476836 0.582300 0.335982
O O10 0.712853 0.498723 0.858931
O O11 0.620520 0.670514 0.900606
O O12 0.826072 0.320218 0.660001
O O13 0.659744 0.350389 0.116280
O O14 0.237560 0.674723 0.670293
#
# Coordination Sequence:
#
# PCOD9140471 Si02
#       7
#     4   4   4   4   4   4   4
#     4  12  27  46  72 109 136 186 244 294 351 431
#     4  11  25  47  69 103 142 190 235 292 358 425
#     4  11  24  46  70 104 141 185 239 295 354 431
#     4  11  25  46  72  99 143 185 230 298 357 421
#     4  12  24  45  71 103 145 183 239 297 354 425
#     4  11  25  45  72 100 146 186 234 296 361 415
#     4  12  24  47  72 104 141 187 241 286 359 418
#
# _framework density 23.020209000000001
#
# number of rings (size 3 to 8) (size 9 to 14) (size 15 to 20)
#    0.000    0.571    4.286    4.286    2.000    2.286 
#    2.571    0.000    0.000    0.000    0.000    0.000 
#    0.000    0.000    0.000    0.000    0.000    0.000 
#
# Total GULP energy -77988.175090 kJ/mol
# GULP energy per Si atom -5570.583935 kJ/mol
# Density = 2.296781 g / cm^3
# Si number density = 23.020209 Si / 1000 Ang^3
#
#
#
# Elastic Constant Matrix: (Units=GPa)
#
#
# Indices 1 2 3 4 5 6 
#
# 1 43.8199 32.0935 22.6013 0.0000 0.9738 0.0000
# 2 32.0935 122.5554 46.5661 0.0000 10.9341 0.0000
# 3 22.6013 46.5661 104.7249 0.0000 26.3279 0.0000
# 4 0.0000 0.0000 0.0000 46.4125 0.0000 18.9126
# 5 0.9738 10.9341 26.3279 0.0000 18.9839 0.0000
# 6 0.0000 0.0000 0.0000 18.9126 0.0000 21.9212
#
#
#
# Elastic Compliance Matrix: (Units=1/GPa)
#
#
# Indices 1 2 3 4 5 6 
#
# 1 0.030767 -0.006573 -0.006559 0.000000 0.011304 0.000000
# 2 -0.006573 0.011227 -0.003121 0.000000 -0.001801 0.000000
# 3 -0.006559 -0.003121 0.018140 0.000000 -0.023024 0.000000
# 4 0.000000 0.000000 0.000000 0.033227 0.000000 -0.028667
# 5 0.011304 -0.001801 -0.023024 0.000000 0.085064 0.000000
# 6 0.000000 0.000000 0.000000 -0.028667 0.000000 0.070351
#
#
# Mechanical properties :
#
#
# Convention : Reuss Voigt Hill
#
# Bulk Modulus (GPa) = 36.19484 52.62468 44.40976
# Shear Modulus (GPa) = 17.21216 28.78615 22.99916
#
# Velocity S-wave (km/s) = 2.73737 3.54004 3.16426
# Velocity P-wave (km/s) = 5.07426 6.29436 5.71696
#
# Compressibility (1/GPa) = 0.02762825
#
# Stress axis : x y z
#
# Youngs Moduli (GPa) = 32.50278 89.06784 55.12596
#
# Poissons Ratio (x) = 0.58546 0.36157
# Poissons Ratio (y) = 0.21365 0.17204
# Poissons Ratio (z) = 0.21318 0.27797
#
# Static dielectric constant tensor:
#      x y z
#    x 1.878780 0.000000 0.023190 
#    y 0.000000 2.094670 0.000000 
#    z 0.023190 0.000000 1.995960 
# 
# From -- ./inp_files/20356.got.cif
#   From: 2010.05.17/outbox.cif.g08.bks.cpg/sg9_11_cif.got.tgz:20356.got - 2010.06.03 20:04:27.
