data_PCOD9140504
_publ_section_title
;
Structure prediction by ZEFSAII (Michael W. Deem and Ramdas Pophale) SiO2 
 PCOD9140504
Probable space group: C C
;
_chemical_formula_sum "Si O2"
_cell_formula_units_Z 28
_cell_length_a 8.786003
_cell_length_b 14.993747
_cell_length_c 14.249640
_cell_angle_alpha 90.000000
_cell_angle_beta 38.791490
_cell_angle_gamma 90.000000
_cell_volume 1176.029485
_symmetry_space_group_name_H-M "C C"
_symmetry_group_IT_number 9
_symmetry_cell_setting 'monoclinic'
loop_
_space_group_symop_operation_xyz
x,y,z
x,-y,1/2+z
1/2+x,1/2+y,z
1/2+x,1/2-y,1/2+z
loop_
_atom_site_type_symbol
_atom_site_label
_atom_site_fract_x
_atom_site_fract_y
_atom_site_fract_z
Si Si1 0.762790 0.663258 0.192110
Si Si2 0.381151 0.942262 0.338495
Si Si3 0.829723 0.830097 0.463074
Si Si4 0.862977 0.055280 0.134814
Si Si5 0.719856 0.452519 0.202544
Si Si6 0.583807 0.840612 0.915293
Si Si7 0.835490 0.743680 0.965534
O O1 0.707033 0.559020 0.203836
O O2 0.584416 0.701263 0.356834
O O3 0.046171 0.674660 0.077930
O O4 0.717257 0.722900 0.121738
O O5 0.634521 0.991208 0.231015
O O6 0.340432 0.931615 0.246535
O O7 0.389230 0.850950 0.391855
O O8 0.130216 0.987350 0.497296
O O9 0.855226 0.874891 0.552965
O O10 0.966718 0.735575 0.405390
O O11 0.966611 0.898454 0.327295
O O12 0.801655 0.110058 0.257508
O O13 0.885926 0.412685 0.041664
O O14 0.673653 0.796387 0.968642
#
# Coordination Sequence:
#
# PCOD9140504 Si02
#       7
#     4   4   4   4   4   4   4
#     4  12  29  47  72 111 149 195 250 321 371 441
#     4  11  24  48  74 108 149 199 249 309 374 453
#     4  11  26  46  74 106 146 197 251 302 378 446
#     4  11  24  46  77 108 147 195 256 306 380 444
#     4  11  25  47  75 105 148 197 248 307 372 450
#     4  12  25  45  80 103 148 196 251 301 379 457
#     4  12  27  47  72 111 149 195 249 310 382 439
#
# _framework density 23.808926
#
# number of rings (size 3 to 8) (size 9 to 14) (size 15 to 20)
#    0.000    0.571    4.286    3.429    6.000    3.429 
#    2.571    0.000    0.000    0.000    0.000    0.000 
#    0.000    0.000    0.000    0.000    0.000    0.000 
#
# Total GULP energy -78433.395849 kJ/mol
# GULP energy per Si atom -5602.385418 kJ/mol
# Density = 2.375474 g / cm^3
# Si number density = 23.808926 Si / 1000 Ang^3
#
#
#
# Elastic Constant Matrix: (Units=GPa)
#
#
# Indices 1 2 3 4 5 6 
#
# 1 64.8549 3.5839 15.9342 -0.0077 -25.7211 -0.0054
# 2 3.5839 38.4112 37.8990 0.0021 -11.7528 -0.0044
# 3 15.9342 37.8990 138.5676 -0.0026 -16.5731 -0.0093
# 4 -0.0077 0.0021 -0.0026 39.1490 0.0043 -14.6822
# 5 -25.7211 -11.7528 -16.5731 0.0043 52.5911 0.0028
# 6 -0.0054 -0.0044 -0.0093 -14.6822 0.0028 32.1146
#
#
#
# Elastic Compliance Matrix: (Units=1/GPa)
#
#
# Indices 1 2 3 4 5 6 
#
# 1 0.019542 0.003018 -0.001921 0.000004 0.009627 0.000004
# 2 0.003018 0.037482 -0.009789 -0.000002 0.006767 0.000001
# 3 -0.001921 -0.009789 0.010122 0.000002 0.000063 0.000002
# 4 0.000004 -0.000002 0.000002 0.030829 -0.000001 0.014095
# 5 0.009627 0.006767 0.000063 -0.000001 0.025255 0.000000
# 6 0.000004 0.000001 0.000002 0.014095 0.000000 0.037582
#
#
# Mechanical properties :
#
#
# Convention : Reuss Voigt Hill
#
# Bulk Modulus (GPa) = 20.09598 39.62976 29.86287
# Shear Modulus (GPa) = 25.66934 37.06539 31.36737
#
# Velocity S-wave (km/s) = 3.28707 3.94989 3.63362
# Velocity P-wave (km/s) = 4.78176 6.12236 5.49311
#
# Compressibility (1/GPa) = 0.04976119
#
# Stress axis : x y z
#
# Youngs Moduli (GPa) = 51.17150 26.67970 98.79003
#
# Poissons Ratio (x) = -0.08051 0.18979
# Poissons Ratio (y) = -0.15442 0.96706
# Poissons Ratio (z) = 0.09831 0.26117
#
# Static dielectric constant tensor:
#      x y z
#    x 1.941390 -0.000010 -0.023160 
#    y -0.000010 1.874860 0.000000 
#    z -0.023160 0.000000 1.894230 
# 
# From -- ./inp_files/5000.got.cif
#   From: 2010.05.17/outbox.cif.g08.bks.cpg/sg9_3_cif.got.tgz:5000.got - 2010.06.03 20:04:27.
