data_PCOD9140721
_publ_section_title
;
Structure prediction by ZEFSAII (Michael W. Deem and Ramdas Pophale) SiO2 
 PCOD9140721
Probable space group: C C
;
_chemical_formula_sum "Si O2"
_cell_formula_units_Z 32
_cell_length_a 13.234980
_cell_length_b 12.079292
_cell_length_c 8.007053
_cell_angle_alpha 90.000000
_cell_angle_beta 92.380933
_cell_angle_gamma 90.000000
_cell_volume 1278.975981
_symmetry_space_group_name_H-M "C C"
_symmetry_group_IT_number 9
_symmetry_cell_setting 'monoclinic'
loop_
_space_group_symop_operation_xyz
x,y,z
x,-y,1/2+z
1/2+x,1/2+y,z
1/2+x,1/2-y,1/2+z
loop_
_atom_site_type_symbol
_atom_site_label
_atom_site_fract_x
_atom_site_fract_y
_atom_site_fract_z
Si Si1 0.739220 0.655371 0.652790
Si Si2 0.821886 0.870794 0.735073
Si Si3 0.028599 0.133299 0.718162
Si Si4 0.234060 0.595587 0.872794
Si Si5 0.521039 0.127058 0.044121
Si Si6 0.013609 0.896202 0.599930
Si Si7 0.903925 0.494648 0.261493
Si Si8 0.725692 0.674645 0.265707
O O1 0.759041 0.761810 0.768991
O O2 0.647066 0.597855 0.738689
O O3 0.844057 0.592201 0.642950
O O4 0.700264 0.671187 0.462019
O O5 0.804065 0.879313 0.535442
O O6 0.941621 0.848230 0.742686
O O7 0.772153 0.978174 0.810095
O O8 0.016204 0.249120 0.619662
O O9 0.986520 0.027184 0.616788
O O10 0.995280 0.141337 0.908072
O O11 0.246796 0.694536 0.739179
O O12 0.122177 0.604289 0.945588
O O13 0.508139 0.044795 0.200555
O O14 0.429669 0.080507 0.923593
O O15 0.128757 0.864354 0.654609
O O16 0.823931 0.596428 0.259638
#
# Coordination Sequence:
#
# PCOD9140721 Si02
#       8
#     4   4   4   4   4   4   4   4
#     4  11  25  48  72 108 160 198 261 320 398 469
#     4  11  26  49  73 109 151 206 252 326 397 476
#     4  12  27  49  74 115 159 210 265 329 399 473
#     4  11  26  52  72 108 161 200 265 324 396 477
#     4  12  28  47  80 113 158 208 269 330 400 470
#     4  12  28  46  82 114 158 208 267 327 396 474
#     4  12  27  47  79 113 151 208 266 327 389 473
#     4  11  25  50  74 114 152 208 261 333 391 464
#
# _framework density 25.020015000000001
#
# number of rings (size 3 to 8) (size 9 to 14) (size 15 to 20)
#    0.000    0.500    5.000    2.250    8.750    2.000 
#    0.000    0.000    0.000    0.000    0.000    0.000 
#    0.000    0.000    0.000    0.000    0.000    0.000 
#
# Total GULP energy -89329.928635 kJ/mol
# GULP energy per Si atom -5583.120540 kJ/mol
# Density = 2.496307 g / cm^3
# Si number density = 25.020015 Si / 1000 Ang^3
#
#
#
# Elastic Constant Matrix: (Units=GPa)
#
#
# Indices 1 2 3 4 5 6 
#
# 1 100.3843 24.9742 28.1306 0.0000 -5.0714 0.0000
# 2 24.9742 116.7550 28.9547 0.0000 0.1748 0.0000
# 3 28.1306 28.9547 78.4583 0.0000 2.1876 0.0000
# 4 0.0000 0.0000 0.0000 39.9543 0.0000 -1.1953
# 5 -5.0714 0.1748 2.1876 0.0000 23.1215 0.0000
# 6 0.0000 0.0000 0.0000 -1.1953 0.0000 33.0566
#
#
#
# Elastic Compliance Matrix: (Units=1/GPa)
#
#
# Indices 1 2 3 4 5 6 
#
# 1 0.011514 -0.001567 -0.003630 0.000000 0.002881 0.000000
# 2 -0.001567 0.009643 -0.002993 0.000000 -0.000133 0.000000
# 3 -0.003630 -0.002993 0.015214 0.000000 -0.002213 0.000000
# 4 0.000000 0.000000 0.000000 0.025056 0.000000 0.000906
# 5 0.002881 -0.000133 -0.002213 0.000000 0.044092 0.000000
# 6 0.000000 0.000000 0.000000 0.000906 0.000000 0.030284
#
#
# Mechanical properties :
#
#
# Convention : Reuss Voigt Hill
#
# Bulk Modulus (GPa) = 50.02569 51.07963 50.55266
# Shear Modulus (GPa) = 31.47692 33.46232 32.46962
#
# Velocity S-wave (km/s) = 3.55078 3.66105 3.60633
# Velocity P-wave (km/s) = 6.07028 6.19119 6.13104
#
# Compressibility (1/GPa) = 0.01998973
#
# Stress axis : x y z
#
# Youngs Moduli (GPa) = 86.84733 103.70674 65.73076
#
# Poissons Ratio (x) = 0.16250 0.23863
# Poissons Ratio (y) = 0.13608 0.19673
# Poissons Ratio (z) = 0.31530 0.31040
#
# Static dielectric constant tensor:
#      x y z
#    x 2.030610 0.000000 0.011860 
#    y 0.000000 2.112160 0.000000 
#    z 0.011860 0.000000 1.982840 
# 
# From -- ./inp_files/9147.got.cif
#   From: 2010.05.17/outbox.cif.g08.bks.cpg/sg9_5_cif.got.tgz:9147.got - 2010.06.03 20:04:27.
