data_PCOD9140258
_publ_section_title
;
Structure prediction by ZEFSAII (Michael W. Deem and Ramdas Pophale) SiO2 
 PCOD9140258
Probable space group: C C
;
_chemical_formula_sum "Si O2"
_cell_formula_units_Z 32
_cell_length_a 8.526413
_cell_length_b 14.457445
_cell_length_c 11.871319
_cell_angle_alpha 90.000000
_cell_angle_beta 106.844848
_cell_angle_gamma 90.000000
_cell_volume 1400.589975
_symmetry_space_group_name_H-M "C C"
_symmetry_group_IT_number 9
_symmetry_cell_setting 'monoclinic'
loop_
_space_group_symop_operation_xyz
x,y,z
x,-y,1/2+z
1/2+x,1/2+y,z
1/2+x,1/2-y,1/2+z
loop_
_atom_site_type_symbol
_atom_site_label
_atom_site_fract_x
_atom_site_fract_y
_atom_site_fract_z
Si Si1 0.796470 0.372068 0.426930
Si Si2 0.838768 0.724127 0.504832
Si Si3 0.469785 0.680493 0.437476
Si Si4 0.528966 0.637409 0.195947
Si Si5 0.422919 0.661152 0.807594
Si Si6 0.830227 0.962005 0.091112
Si Si7 0.989865 0.456782 0.916225
Si Si8 0.402657 0.146502 0.200485
O O1 0.860499 0.272371 0.401381
O O2 0.600428 0.373137 0.385138
O O3 0.865381 0.459051 0.374337
O O4 0.873321 0.381594 0.567310
O O5 0.655439 0.708129 0.509441
O O6 0.954164 0.771391 0.621563
O O7 0.833963 0.795164 0.397507
O O8 0.916285 0.628475 0.474407
O O9 0.486455 0.635020 0.318392
O O10 0.394264 0.612661 0.513990
O O11 0.449440 0.548960 0.120618
O O12 0.722944 0.637204 0.219161
O O13 0.329922 0.585511 0.714263
O O14 0.451415 0.747330 0.728380
O O15 0.651781 0.990632 0.012046
O O16 0.024374 0.414441 0.800249
#
# Coordination Sequence:
#
# PCOD9140258 Si02
#       8
#     4   4   4   4   4   4   4   4
#     4  12  26  47  74 107 143 192 246 299 361 433
#     4  11  25  44  73 102 145 187 243 296 362 430
#     4  12  27  45  71 110 143 186 247 297 362 433
#     4  12  26  45  73 107 147 187 241 301 365 432
#     4  11  23  46  75  99 141 194 237 294 367 424
#     4  12  28  45  73 106 147 191 240 303 360 434
#     4  11  26  47  70 105 143 193 242 292 367 427
#     4  11  23  47  73 102 143 192 236 296 364 429
#
# _framework density 22.847515000000001
#
# number of rings (size 3 to 8) (size 9 to 14) (size 15 to 20)
#    0.000    0.500    5.000    3.750    5.250    4.000 
#    0.000    0.000    0.000    0.000    0.000    0.000 
#    0.000    0.000    0.000    0.000    0.000    0.000 
#
# Total GULP energy -89617.865007 kJ/mol
# GULP energy per Si atom -5601.116563 kJ/mol
# Density = 2.279551 g / cm^3
# Si number density = 22.847515 Si / 1000 Ang^3
#
#
#
# Elastic Constant Matrix: (Units=GPa)
#
#
# Indices 1 2 3 4 5 6 
#
# 1 65.8916 11.5102 7.8461 0.0000 6.9220 0.0000
# 2 11.5102 96.0179 6.3928 0.0000 4.3722 0.0000
# 3 7.8461 6.3928 68.2528 0.0000 11.5513 0.0000
# 4 0.0000 0.0000 0.0000 14.4429 0.0000 12.4546
# 5 6.9220 4.3722 11.5513 0.0000 40.0085 0.0000
# 6 0.0000 0.0000 0.0000 12.4546 0.0000 33.1023
#
#
#
# Elastic Compliance Matrix: (Units=1/GPa)
#
#
# Indices 1 2 3 4 5 6 
#
# 1 0.015859 -0.001716 -0.001293 0.000000 -0.002183 0.000000
# 2 -0.001716 0.010697 -0.000691 0.000000 -0.000673 0.000000
# 3 -0.001293 -0.000691 0.015575 0.000000 -0.004198 0.000000
# 4 0.000000 0.000000 0.000000 0.102492 0.000000 -0.038562
# 5 -0.002183 -0.000673 -0.004198 0.000000 0.026658 0.000000
# 6 0.000000 0.000000 0.000000 -0.038562 0.000000 0.044718
#
#
# Mechanical properties :
#
#
# Convention : Reuss Voigt Hill
#
# Bulk Modulus (GPa) = 28.79135 31.29563 30.04349
# Shear Modulus (GPa) = 21.27877 31.13829 26.20853
#
# Velocity S-wave (km/s) = 3.05509 3.69572 3.39057
# Velocity P-wave (km/s) = 5.00736 5.65141 5.33911
#
# Compressibility (1/GPa) = 0.03473265
#
# Stress axis : x y z
#
# Youngs Moduli (GPa) = 63.05396 93.48399 64.20471
#
# Poissons Ratio (x) = 0.16039 0.08302
# Poissons Ratio (y) = 0.10818 0.04436
# Poissons Ratio (z) = 0.08153 0.06458
#
# Static dielectric constant tensor:
#      x y z
#    x 1.798230 0.000000 -0.009240 
#    y 0.000000 1.823510 0.000000 
#    z -0.009240 0.000000 1.845780 
# 
# From -- ./inp_files/14599.got.cif
#   From: 2010.05.17/outbox.cif.g08.bks.cpg/sg9_8_cif.got.tgz:14599.got - 2010.06.03 20:04:27.
