data_PCOD9140762
_publ_section_title
;
Structure prediction by ZEFSAII (Michael W. Deem and Ramdas Pophale) SiO2 
 PCOD9140762
Probable space group: C C
;
_chemical_formula_sum "Si O2"
_cell_formula_units_Z 28
_cell_length_a 20.230065
_cell_length_b 5.130722
_cell_length_c 10.602630
_cell_angle_alpha 90.000000
_cell_angle_beta 63.973339
_cell_angle_gamma 90.000000
_cell_volume 988.896711
_symmetry_space_group_name_H-M "C C"
_symmetry_group_IT_number 9
_symmetry_cell_setting 'monoclinic'
loop_
_space_group_symop_operation_xyz
x,y,z
x,-y,1/2+z
1/2+x,1/2+y,z
1/2+x,1/2-y,1/2+z
loop_
_atom_site_type_symbol
_atom_site_label
_atom_site_fract_x
_atom_site_fract_y
_atom_site_fract_z
Si Si1 0.409140 0.380955 0.230330
Si Si2 0.219146 0.257221 0.762923
Si Si3 0.593198 0.444631 0.742363
Si Si4 0.490034 0.756363 0.997907
Si Si5 0.848421 0.445358 0.571000
Si Si6 0.267135 0.576892 0.481115
Si Si7 0.057162 0.426224 0.624006
O O1 0.457097 0.632255 0.153124
O O2 0.369720 0.309550 0.131802
O O3 0.342552 0.427619 0.381189
O O4 0.471119 0.164816 0.204399
O O5 0.160659 0.032108 0.775758
O O6 0.228489 0.447844 0.634592
O O7 0.298323 0.117700 0.703385
O O8 0.215216 0.397710 0.902163
O O9 0.597680 0.656593 0.623729
O O10 0.582391 0.156564 0.696983
O O11 0.522074 0.532334 0.882759
O O12 0.424958 0.912508 0.987629
O O13 0.555710 0.948384 0.985836
O O14 0.797605 0.358977 0.498455
#
# Coordination Sequence:
#
# PCOD9140762 Si02
#       7
#     4   4   4   4   4   4   4
#     4  11  25  49  82 123 162 215 286 363 433 509
#     4  12  31  51  81 120 176 233 288 360 438 540
#     4  12  31  49  80 118 167 228 278 346 436 518
#     4  11  26  48  80 122 160 214 278 359 425 517
#     4  11  26  47  81 123 164 216 292 359 430 518
#     4  12  27  52  82 128 172 231 291 367 444 528
#     4  11  28  50  78 118 159 215 275 350 422 514
#
# _framework density 28.314382999999999
#
# number of rings (size 3 to 8) (size 9 to 14) (size 15 to 20)
#    0.000    0.571    4.286    0.000   16.000    0.000 
#    0.000    0.000    0.000    0.000    0.000    0.000 
#    0.000    0.000    0.000    0.000    0.000    0.000 
#
# Total GULP energy -78473.656120 kJ/mol
# GULP energy per Si atom -5605.261151 kJ/mol
# Density = 2.824994 g / cm^3
# Si number density = 28.314383 Si / 1000 Ang^3
#
#
#
# Elastic Constant Matrix: (Units=GPa)
#
#
# Indices 1 2 3 4 5 6 
#
# 1 149.2802 43.3509 41.1357 0.0000 7.9976 0.0000
# 2 43.3509 136.5633 34.8719 0.0000 8.2129 0.0000
# 3 41.1357 34.8719 113.4195 0.0000 26.4109 0.0000
# 4 0.0000 0.0000 0.0000 39.9195 0.0000 4.7649
# 5 7.9976 8.2129 26.4109 0.0000 43.3678 0.0000
# 6 0.0000 0.0000 0.0000 4.7649 0.0000 67.3044
#
#
#
# Elastic Compliance Matrix: (Units=1/GPa)
#
#
# Indices 1 2 3 4 5 6 
#
# 1 0.007886 -0.001924 -0.002348 0.000000 0.000340 0.000000
# 2 -0.001924 0.008416 -0.001866 0.000000 -0.000103 0.000000
# 3 -0.002348 -0.001866 0.011721 0.000000 -0.006352 0.000000
# 4 0.000000 0.000000 0.000000 0.025264 0.000000 -0.001789
# 5 0.000340 -0.000103 -0.006352 0.000000 0.026884 0.000000
# 6 0.000000 0.000000 0.000000 -0.001789 0.000000 0.014984
#
#
# Mechanical properties :
#
#
# Convention : Reuss Voigt Hill
#
# Bulk Modulus (GPa) = 63.50110 70.88666 67.19388
# Shear Modulus (GPa) = 44.37324 48.77866 46.57595
#
# Velocity S-wave (km/s) = 3.96304 4.15511 4.06021
# Velocity P-wave (km/s) = 6.58914 6.93612 6.76485
#
# Compressibility (1/GPa) = 0.01574776
#
# Stress axis : x y z
#
# Youngs Moduli (GPa) = 126.80065 118.81998 85.31660
#
# Poissons Ratio (x) = 0.22866 0.20030
# Poissons Ratio (y) = 0.24402 0.15918
# Poissons Ratio (z) = 0.29770 0.22169
#
# Static dielectric constant tensor:
#      x y z
#    x 2.227560 0.000000 0.056120 
#    y 0.000000 2.187160 0.000000 
#    z 0.056120 0.000000 2.253520 
# 
# From -- ./inp_files/19762.got.cif
#   From: 2010.05.17/outbox.cif.g08.bks.cpg/sg9_10_cif.got.tgz:19762.got - 2010.06.03 20:04:27.
