data_PCOD9140778
_publ_section_title
;
Structure prediction by ZEFSAII (Michael W. Deem and Ramdas Pophale) SiO2 
 PCOD9140778
Probable space group: C C
;
_chemical_formula_sum "Si O2"
_cell_formula_units_Z 20
_cell_length_a 4.752139
_cell_length_b 23.074606
_cell_length_c 7.566112
_cell_angle_alpha 90.000000
_cell_angle_beta 66.866968
_cell_angle_gamma 90.000000
_cell_volume 762.944365
_symmetry_space_group_name_H-M "C C"
_symmetry_group_IT_number 9
_symmetry_cell_setting 'monoclinic'
loop_
_space_group_symop_operation_xyz
x,y,z
x,-y,1/2+z
1/2+x,1/2+y,z
1/2+x,1/2-y,1/2+z
loop_
_atom_site_type_symbol
_atom_site_label
_atom_site_fract_x
_atom_site_fract_y
_atom_site_fract_z
Si Si1 0.321610 0.709563 0.960390
Si Si2 0.029256 0.405079 0.620078
Si Si3 0.986015 0.695068 0.700997
Si Si4 0.728125 0.926061 0.187385
Si Si5 0.434921 0.532259 0.294716
O O1 0.143799 0.727717 0.827068
O O2 0.637960 0.676508 0.834462
O O3 0.096307 0.663526 0.108786
O O4 0.430813 0.762498 0.051964
O O5 0.015708 0.420759 0.414436
O O6 0.302582 0.433495 0.661095
O O7 0.729304 0.431919 0.781308
O O8 0.206884 0.639867 0.622698
O O9 0.986875 0.966172 0.220221
O O10 0.694515 0.961730 0.014597
#
# Coordination Sequence:
#
# PCOD9140778 Si02
#       5
#     4   4   4   4   4
#     4  11  25  51  77 115 163 209 271 342 401 488
#     4  11  27  49  73 113 158 207 268 330 391 481
#     4  11  26  49  81 114 165 208 275 334 410 486
#     4  11  27  50  77 119 157 209 268 335 399 486
#     4  12  27  45  82 109 159 209 264 327 411 471
#
# _framework density 26.214229
#
# number of rings (size 3 to 8) (size 9 to 14) (size 15 to 20)
#    0.000    0.800    2.000    3.600    5.600    8.000 
#    0.000    0.000    0.000    0.000    0.000    0.000 
#    0.000    0.000    0.000    0.000    0.000    0.000 
#
# Total GULP energy -55796.305968 kJ/mol
# GULP energy per Si atom -5579.630597 kJ/mol
# Density = 2.615456 g / cm^3
# Si number density = 26.214229 Si / 1000 Ang^3
#
#
#
# Elastic Constant Matrix: (Units=GPa)
#
#
# Indices 1 2 3 4 5 6 
#
# 1 146.7416 46.8748 24.7574 0.0000 7.6853 0.0000
# 2 46.8748 160.8451 45.5094 0.0000 11.1064 0.0000
# 3 24.7574 45.5094 76.7911 0.0000 28.1613 0.0000
# 4 0.0000 0.0000 0.0000 38.8651 0.0000 4.6945
# 5 7.6853 11.1064 28.1613 0.0000 53.2163 0.0000
# 6 0.0000 0.0000 0.0000 4.6945 0.0000 37.9416
#
#
#
# Elastic Compliance Matrix: (Units=1/GPa)
#
#
# Indices 1 2 3 4 5 6 
#
# 1 0.007633 -0.001836 -0.001376 0.000000 0.000009 0.000000
# 2 -0.001836 0.007952 -0.004479 0.000000 0.000975 0.000000
# 3 -0.001376 -0.004479 0.019486 0.000000 -0.009178 0.000000
# 4 0.000000 0.000000 0.000000 0.026120 0.000000 -0.003232
# 5 0.000009 0.000975 -0.009178 0.000000 0.023443 0.000000
# 6 0.000000 0.000000 0.000000 -0.003232 0.000000 0.026756
#
#
# Mechanical properties :
#
#
# Convention : Reuss Voigt Hill
#
# Bulk Modulus (GPa) = 50.78735 68.74013 59.76374
# Shear Modulus (GPa) = 37.49949 43.82032 40.65991
#
# Velocity S-wave (km/s) = 3.78630 4.09298 3.94263
# Velocity P-wave (km/s) = 6.20732 6.97252 6.60102
#
# Compressibility (1/GPa) = 0.01968994
#
# Stress axis : x y z
#
# Youngs Moduli (GPa) = 131.01362 125.75585 51.31848
#
# Poissons Ratio (x) = 0.23084 0.07063
# Poissons Ratio (y) = 0.24049 0.22983
# Poissons Ratio (z) = 0.18031 0.56320
#
# Static dielectric constant tensor:
#      x y z
#    x 1.991900 0.000000 -0.063450 
#    y 0.000000 2.112340 0.000000 
#    z -0.063450 0.000000 2.105510 
# 
# From -- ./inp_files/3801.got.cif
#   From: 2010.05.17/outbox.cif.g08.bks.cpg/sg9_2_cif.got.tgz:3801.got - 2010.06.03 20:04:27.
