data_PCOD9140851
_publ_section_title
;
Structure prediction by ZEFSAII (Michael W. Deem and Ramdas Pophale) SiO2 
 PCOD9140851
Probable space group: C C
;
_chemical_formula_sum "Si O2"
_cell_formula_units_Z 32
_cell_length_a 5.013961
_cell_length_b 27.320673
_cell_length_c 9.137580
_cell_angle_alpha 90.000000
_cell_angle_beta 82.320511
_cell_angle_gamma 90.000000
_cell_volume 1240.483012
_symmetry_space_group_name_H-M "C C"
_symmetry_group_IT_number 9
_symmetry_cell_setting 'monoclinic'
loop_
_space_group_symop_operation_xyz
x,y,z
x,-y,1/2+z
1/2+x,1/2+y,z
1/2+x,1/2-y,1/2+z
loop_
_atom_site_type_symbol
_atom_site_label
_atom_site_fract_x
_atom_site_fract_y
_atom_site_fract_z
Si Si1 0.348740 0.909493 0.915170
Si Si2 0.885428 0.221547 0.922288
Si Si3 0.832600 0.074813 0.928251
Si Si4 0.743619 0.853388 0.666474
Si Si5 0.474602 0.520466 0.277645
Si Si6 0.377194 0.711414 0.425319
Si Si7 0.005669 0.853805 0.166693
Si Si8 0.010499 0.495028 0.568351
O O1 0.511354 0.879955 0.778081
O O2 0.081671 0.931146 0.854237
O O3 0.256235 0.876482 0.059487
O O4 0.517718 0.955467 0.969978
O O5 0.020963 0.191851 0.777800
O O6 0.709097 0.182955 0.030147
O O7 0.668530 0.263416 0.906328
O O8 0.142838 0.249163 0.969672
O O9 0.880123 0.104322 0.777507
O O10 0.910580 0.104805 0.067505
O O11 0.722227 0.012388 0.186733
O O12 0.527487 0.056341 0.976678
O O13 0.868248 0.816397 0.772626
O O14 0.452837 0.478739 0.402433
O O15 0.727675 0.503250 0.166126
O O16 0.336356 0.669555 0.548797
#
# Coordination Sequence:
#
# PCOD9140851 Si02
#       8
#     4   4   4   4   4   4   4   4
#     4  12  27  52  82 126 168 218 288 338 409 482
#     4  11  27  56  80 123 160 213 260 342 429 495
#     4  11  26  51  75 120 160 216 275 325 408 469
#     4  11  27  49  85 121 160 212 277 339 400 506
#     4  12  27  51  79 114 169 219 269 337 408 477
#     4  12  26  53  83 119 164 207 267 343 428 488
#     4  11  27  49  85 121 160 212 277 339 400 506
#     4  12  27  51  79 114 169 219 269 337 408 477
#
# _framework density 25.796403999999999
#
# number of rings (size 3 to 8) (size 9 to 14) (size 15 to 20)
#    0.000    0.500    2.500    3.750    3.500    2.000 
#    4.500    1.250    0.000    0.000    0.000    0.000 
#    0.000    0.000    0.000    0.000    0.000    0.000 
#
# Total GULP energy -89404.257263 kJ/mol
# GULP energy per Si atom -5587.766079 kJ/mol
# Density = 2.573769 g / cm^3
# Si number density = 25.796404 Si / 1000 Ang^3
#
#
#
# Elastic Constant Matrix: (Units=GPa)
#
#
# Indices 1 2 3 4 5 6 
#
# 1 113.9621 37.6826 32.3763 0.0000 1.4784 0.0000
# 2 37.6826 95.7344 56.2956 0.0000 -20.0858 0.0000
# 3 32.3763 56.2956 189.0507 0.0000 -21.9483 0.0000
# 4 0.0000 0.0000 0.0000 13.0556 0.0000 9.4585
# 5 1.4784 -20.0858 -21.9483 0.0000 23.9381 0.0000
# 6 0.0000 0.0000 0.0000 9.4585 0.0000 -12.2415
#
#
#
# Elastic Compliance Matrix: (Units=1/GPa)
#
#
# Indices 1 2 3 4 5 6 
#
# 1 0.010734 -0.004782 -0.001071 0.000000 -0.005658 0.000000
# 2 -0.004782 0.016338 -0.002709 0.000000 0.011520 0.000000
# 3 -0.001071 -0.002709 0.006741 0.000000 0.003974 0.000000
# 4 0.000000 0.000000 0.000000 0.049107 0.000000 0.037943
# 5 -0.005658 0.011520 0.003974 0.000000 0.055434 0.000000
# 6 0.000000 0.000000 0.000000 0.037943 0.000000 -0.052372
#
#
# Mechanical properties :
#
#
# Convention : Reuss Voigt Hill
#
# Bulk Modulus (GPa) = 59.92000 72.38402 66.15201
# Shear Modulus (GPa) = 46.01201 23.10996 34.56098
#
# Velocity S-wave (km/s) = 4.22792 2.99634 3.66424
# Velocity P-wave (km/s) = 6.86383 6.33178 6.60317
#
# Compressibility (1/GPa) = 0.01668892
#
# Stress axis : x y z
#
# Youngs Moduli (GPa) = 93.16376 61.20793 148.34708
#
# Poissons Ratio (x) = 0.29271 0.15888
# Poissons Ratio (y) = 0.44553 0.40181
# Poissons Ratio (z) = 0.09978 0.16579
#
# Static dielectric constant tensor:
#      x y z
#    x 2.135310 0.000000 -0.045540 
#    y 0.000000 2.089920 0.000000 
#    z -0.045540 0.000000 2.098560 
# 
# From -- ./inp_files/4482.got.cif
#   From: 2010.05.17/outbox.cif.g08.bks.cpg/sg9_3_cif.got.tgz:4482.got - 2010.06.03 20:04:27.
