data_PCOD9140345
_publ_section_title
;
Structure prediction by ZEFSAII (Michael W. Deem and Ramdas Pophale) SiO2 
 PCOD9140345
Probable space group: C C
;
_chemical_formula_sum "Si O2"
_cell_formula_units_Z 28
_cell_length_a 7.020113
_cell_length_b 18.993864
_cell_length_c 9.732068
_cell_angle_alpha 90.000000
_cell_angle_beta 64.083566
_cell_angle_gamma 90.000000
_cell_volume 1167.161938
_symmetry_space_group_name_H-M "C C"
_symmetry_group_IT_number 9
_symmetry_cell_setting 'monoclinic'
loop_
_space_group_symop_operation_xyz
x,y,z
x,-y,1/2+z
1/2+x,1/2+y,z
1/2+x,1/2-y,1/2+z
loop_
_atom_site_type_symbol
_atom_site_label
_atom_site_fract_x
_atom_site_fract_y
_atom_site_fract_z
Si Si1 0.787530 0.021076 0.331610
Si Si2 0.068640 0.548985 0.144835
Si Si3 0.322785 0.305528 0.565670
Si Si4 0.779036 0.314967 0.298597
Si Si5 0.568959 0.392156 0.133073
Si Si6 0.708332 0.777473 0.298942
Si Si7 0.149370 0.883272 0.786311
O O1 0.588574 0.022808 0.293308
O O2 0.925328 0.091955 0.297372
O O3 0.698509 0.002520 0.507625
O O4 0.943139 0.960256 0.226711
O O5 0.197757 0.621917 0.106211
O O6 0.834510 0.567113 0.171034
O O7 0.572024 0.317360 0.459569
O O8 0.280144 0.257388 0.710240
O O9 0.237297 0.269149 0.453124
O O10 0.749390 0.373679 0.188966
O O11 0.992557 0.315232 0.319097
O O12 0.400134 0.327541 0.192938
O O13 0.642739 0.396832 0.953050
O O14 0.703913 0.698110 0.243657
#
# Coordination Sequence:
#
# PCOD9140345 Si02
#       7
#     4   4   4   4   4   4   4
#     4  12  27  51  73 110 149 200 256 304 385 459
#     4  12  27  48  74 106 153 197 250 320 371 453
#     4  11  24  45  67 112 148 186 253 310 363 463
#     4  11  24  41  73 103 152 190 242 305 384 428
#     4  11  25  48  70 110 151 188 261 307 368 470
#     4  11  25  44  76 107 149 192 243 314 379 439
#     4  12  28  47  79 106 150 197 259 312 378 450
#
# _framework density 23.989815
#
# number of rings (size 3 to 8) (size 9 to 14) (size 15 to 20)
#    0.000    0.571    5.714    2.571    4.000    3.429 
#    0.000    0.000    0.000    0.000    0.000    0.000 
#    0.000    0.000    0.000    0.000    0.000    0.000 
#
# Total GULP energy -78437.808910 kJ/mol
# GULP energy per Si atom -5602.700636 kJ/mol
# Density = 2.393521 g / cm^3
# Si number density = 23.989815 Si / 1000 Ang^3
#
#
#
# Elastic Constant Matrix: (Units=GPa)
#
#
# Indices 1 2 3 4 5 6 
#
# 1 103.5878 -1.9821 2.8316 0.0000 -4.8945 0.0000
# 2 -1.9821 66.6813 -1.5508 0.0000 -3.2267 0.0000
# 3 2.8316 -1.5508 66.2193 0.0000 -5.2061 0.0000
# 4 0.0000 0.0000 0.0000 26.4169 0.0000 -8.1428
# 5 -4.8945 -3.2267 -5.2061 0.0000 29.5200 0.0000
# 6 0.0000 0.0000 0.0000 -8.1428 0.0000 32.8157
#
#
#
# Elastic Compliance Matrix: (Units=1/GPa)
#
#
# Indices 1 2 3 4 5 6 
#
# 1 0.009744 0.000361 -0.000282 0.000000 0.001605 0.000000
# 2 0.000361 0.015105 0.000479 0.000000 0.001795 0.000000
# 3 -0.000282 0.000479 0.015338 0.000000 0.002711 0.000000
# 4 0.000000 0.000000 0.000000 0.040990 0.000000 0.010171
# 5 0.001605 0.001795 0.002711 0.000000 0.034816 0.000000
# 6 0.000000 0.000000 0.000000 0.010171 0.000000 0.032997
#
#
# Mechanical properties :
#
#
# Convention : Reuss Voigt Hill
#
# Bulk Modulus (GPa) = 24.21086 26.12065 25.16576
# Shear Modulus (GPa) = 30.93271 33.56318 32.24795
#
# Velocity S-wave (km/s) = 3.59473 3.74446 3.67036
# Velocity P-wave (km/s) = 5.22910 5.44118 5.33620
#
# Compressibility (1/GPa) = 0.04130377
#
# Stress axis : x y z
#
# Youngs Moduli (GPa) = 102.62615 66.20125 65.19867
#
# Poissons Ratio (x) = -0.02388 0.01839
# Poissons Ratio (y) = -0.03702 -0.03126
# Poissons Ratio (z) = 0.02894 -0.03174
#
# Static dielectric constant tensor:
#      x y z
#    x 1.924630 0.000000 0.026050 
#    y 0.000000 1.914070 0.000000 
#    z 0.026050 0.000000 1.874520 
# 
# From -- ./inp_files/13269.got.cif
#   From: 2010.05.17/outbox.cif.g08.bks.cpg/sg9_7_cif.got.tgz:13269.got - 2010.06.03 20:04:27.
