data_PCOD9140550
_publ_section_title
;
Structure prediction by ZEFSAII (Michael W. Deem and Ramdas Pophale) SiO2 
 PCOD9140550
Probable space group: C C
;
_chemical_formula_sum "Si O2"
_cell_formula_units_Z 24
_cell_length_a 12.990062
_cell_length_b 4.689580
_cell_length_c 19.278314
_cell_angle_alpha 90.000000
_cell_angle_beta 135.807850
_cell_angle_gamma 90.000000
_cell_volume 818.631906
_symmetry_space_group_name_H-M "C C"
_symmetry_group_IT_number 9
_symmetry_cell_setting 'monoclinic'
loop_
_space_group_symop_operation_xyz
x,y,z
x,-y,1/2+z
1/2+x,1/2+y,z
1/2+x,1/2-y,1/2+z
loop_
_atom_site_type_symbol
_atom_site_label
_atom_site_fract_x
_atom_site_fract_y
_atom_site_fract_z
Si Si1 0.543950 0.559120 0.780620
Si Si2 0.764730 0.428704 0.710586
Si Si3 0.979337 0.145504 0.394577
Si Si4 0.870707 0.293619 0.951603
Si Si5 0.679241 0.924339 0.577077
Si Si6 0.514396 0.892126 0.168936
O O1 0.494107 0.584451 0.836788
O O2 0.709255 0.428481 0.866134
O O3 0.543662 0.818744 0.725641
O O4 0.446747 0.310443 0.696406
O O5 0.888027 0.608330 0.810801
O O6 0.649299 0.729932 0.494467
O O7 0.767994 0.209359 0.645317
O O8 0.672625 0.696153 0.635973
O O9 0.892365 0.002799 0.418544
O O10 0.667470 0.243432 0.716121
O O11 0.011711 0.454659 0.988944
O O12 0.415640 0.165825 0.553959
#
# Coordination Sequence:
#
# PCOD9140550 Si02
#       6
#     4   4   4   4   4   4
#     4  12  31  50  84 130 173 217 298 364 434 519
#     4  11  26  47  87 121 163 230 292 351 436 524
#     4  12  29  54  88 130 172 233 298 362 438 534
#     4  11  28  53  89 114 173 235 283 352 448 525
#     4  11  24  47  83 121 163 228 288 349 433 520
#     4  11  26  53  79 128 168 227 281 360 439 522
#
# _framework density 29.317205000000001
#
# number of rings (size 3 to 8) (size 9 to 14) (size 15 to 20)
#    0.000    0.667    3.333    3.000   14.000    2.667 
#    3.000    0.000    0.000    0.000    0.000    0.000 
#    0.000    0.000    0.000    0.000    0.000    0.000 
#
# Total GULP energy -66950.165711 kJ/mol
# GULP energy per Si atom -5579.180476 kJ/mol
# Density = 2.925048 g / cm^3
# Si number density = 29.317205 Si / 1000 Ang^3
#
#
#
# Elastic Constant Matrix: (Units=GPa)
#
#
# Indices 1 2 3 4 5 6 
#
# 1 111.6948 40.8623 38.5096 -0.0003 -44.8599 0.0004
# 2 40.8623 231.6208 123.0103 -0.0020 -12.5417 0.0041
# 3 38.5096 123.0103 301.6109 0.0001 -39.3523 0.0004
# 4 -0.0003 -0.0020 0.0001 56.1782 0.0000 -20.6166
# 5 -44.8599 -12.5417 -39.3523 0.0000 13.7937 -0.0004
# 6 0.0004 0.0041 0.0004 -20.6166 -0.0004 14.5455
#
#
#
# Elastic Compliance Matrix: (Units=1/GPa)
#
#
# Indices 1 2 3 4 5 6 
#
# 1 -0.011635 0.002669 -0.006727 -0.000001 -0.054605 -0.000004
# 2 0.002669 0.004942 -0.001016 0.000000 0.010275 -0.000002
# 3 -0.006727 -0.001016 0.002571 0.000000 -0.015469 0.000000
# 4 -0.000001 0.000000 0.000000 0.037097 -0.000004 0.052580
# 5 -0.054605 0.010275 -0.015469 -0.000004 -0.139878 -0.000011
# 6 -0.000004 -0.000002 0.000000 0.052580 -0.000011 0.143276
#
#
# Mechanical properties :
#
#
# Convention : Reuss Voigt Hill
#
# Bulk Modulus (GPa) = -70.07241 116.63232 23.27996
# Shear Modulus (GPa) = 119.71455 46.40643 83.06049
#
# Velocity S-wave (km/s) = 6.39710 3.98289 5.32852
# Velocity P-wave (km/s) = 5.53267 7.81156 6.76871
#
# Compressibility (1/GPa) = -0.01427095
#
# Stress axis : x y z
#
# Youngs Moduli (GPa) = -85.94950 202.32707 389.02285
#
# Poissons Ratio (x) = -0.53994 2.61709
# Poissons Ratio (y) = 0.22937 0.39523
# Poissons Ratio (z) = -0.57821 0.20555
#
# Static dielectric constant tensor:
#      x y z
#    x 2.602900 0.000000 -0.012290 
#    y 0.000000 2.786620 0.000000 
#    z -0.012290 0.000000 2.615250 
# 
# From -- ./inp_files/30330.got.cif
#   From: 2010.05.17/outbox.cif.g08.bks.cpg/sg9_16_cif.got.tgz:30330.got - 2010.06.03 20:04:27.
