data_PCOD9140172
_publ_section_title
;
Structure prediction by ZEFSAII (Michael W. Deem and Ramdas Pophale) SiO2 
 PCOD9140172
Probable space group: C C
;
_chemical_formula_sum "Si O2"
_cell_formula_units_Z 32
_cell_length_a 18.359202
_cell_length_b 13.339779
_cell_length_c 12.429825
_cell_angle_alpha 90.000000
_cell_angle_beta 153.080841
_cell_angle_gamma 90.000000
_cell_volume 1378.191273
_symmetry_space_group_name_H-M "C C"
_symmetry_group_IT_number 9
_symmetry_cell_setting 'monoclinic'
loop_
_space_group_symop_operation_xyz
x,y,z
x,-y,1/2+z
1/2+x,1/2+y,z
1/2+x,1/2-y,1/2+z
loop_
_atom_site_type_symbol
_atom_site_label
_atom_site_fract_x
_atom_site_fract_y
_atom_site_fract_z
Si Si1 0.452860 0.377399 0.160640
Si Si2 0.526959 0.102151 0.560526
Si Si3 0.768204 0.001266 0.747192
Si Si4 0.847810 0.746790 0.730924
Si Si5 0.540019 0.143779 0.823099
Si Si6 0.380108 0.099118 0.948429
Si Si7 0.515747 0.541644 0.413544
Si Si8 0.315065 0.185131 0.089662
O O1 0.496900 0.480438 0.279837
O O2 0.624042 0.332446 0.348193
O O3 0.331629 0.411952 0.907582
O O4 0.363708 0.297809 0.120216
O O5 0.525663 0.149550 0.676506
O O6 0.695513 0.092406 0.719637
O O7 0.489042 0.987336 0.542834
O O8 0.399680 0.149930 0.311167
O O9 0.627790 0.955580 0.485188
O O10 0.923826 0.025875 0.881330
O O11 0.663194 0.767129 0.512987
O O12 0.879800 0.667363 0.678210
O O13 0.920249 0.698425 0.933507
O O14 0.918611 0.853988 0.790369
O O15 0.382851 0.119984 0.078427
O O16 0.198670 0.063758 0.683249
#
# Coordination Sequence:
#
# PCOD9140172 Si02
#       8
#     4   4   4   4   4   4   4   4
#     4  12  28  48  74 109 154 192 249 306 376 438
#     4  12  27  47  71 108 152 191 239 303 377 434
#     4  11  23  45  75 105 140 193 244 300 357 436
#     4  11  23  44  75 104 137 181 247 298 358 423
#     4  11  24  43  70 104 139 187 240 293 355 435
#     4  12  24  46  78 103 145 190 251 297 359 444
#     4  11  24  46  71 109 141 188 242 307 355 433
#     4  12  29  47  72 112 150 200 242 308 373 443
#
# _framework density 23.218838999999999
#
# number of rings (size 3 to 8) (size 9 to 14) (size 15 to 20)
#    0.000    0.500    5.000    3.750    3.500    1.000 
#    2.250    0.000    0.000    0.000    0.000    0.000 
#    0.000    0.000    0.000    0.000    0.000    0.000 
#
# Total GULP energy -89488.566437 kJ/mol
# GULP energy per Si atom -5593.035402 kJ/mol
# Density = 2.316599 g / cm^3
# Si number density = 23.218839 Si / 1000 Ang^3
#
#
#
# Elastic Constant Matrix: (Units=GPa)
#
#
# Indices 1 2 3 4 5 6 
#
# 1 103.3889 15.1379 25.9612 0.0000 -14.1595 0.0000
# 2 15.1379 49.7196 28.4722 0.0000 -7.1590 0.0000
# 3 25.9612 28.4722 75.9240 0.0000 -26.1024 0.0000
# 4 0.0000 0.0000 0.0000 25.8742 0.0000 0.9281
# 5 -14.1595 -7.1590 -26.1024 0.0000 51.8890 0.0000
# 6 0.0000 0.0000 0.0000 0.9281 0.0000 32.3457
#
#
#
# Elastic Compliance Matrix: (Units=1/GPa)
#
#
# Indices 1 2 3 4 5 6 
#
# 1 0.010749 -0.001582 -0.002598 0.000000 0.001408 0.000000
# 2 -0.001582 0.025952 -0.009804 0.000000 -0.001783 0.000000
# 3 -0.002598 -0.009804 0.020588 0.000000 0.008295 0.000000
# 4 0.000000 0.000000 0.000000 0.038688 0.000000 -0.001110
# 5 0.001408 -0.001783 0.008295 0.000000 0.023583 0.000000
# 6 0.000000 0.000000 0.000000 -0.001110 0.000000 0.030948
#
#
# Mechanical properties :
#
#
# Convention : Reuss Voigt Hill
#
# Bulk Modulus (GPa) = 34.10645 40.90834 37.50740
# Shear Modulus (GPa) = 26.56026 32.65253 29.60640
#
# Velocity S-wave (km/s) = 3.38584 3.75413 3.57473
# Velocity P-wave (km/s) = 5.47780 6.03723 5.76430
#
# Compressibility (1/GPa) = 0.02931996
#
# Stress axis : x y z
#
# Youngs Moduli (GPa) = 93.03107 38.53222 48.57201
#
# Poissons Ratio (x) = 0.06096 0.12620
# Poissons Ratio (y) = 0.14719 0.47622
# Poissons Ratio (z) = 0.24171 0.37779
#
# Static dielectric constant tensor:
#      x y z
#    x 1.892860 0.000000 -0.001640 
#    y 0.000000 1.900620 0.000000 
#    z -0.001640 0.000000 1.844050 
# 
# From -- ./inp_files/19411.got.cif
#   From: 2010.05.17/outbox.cif.g08.bks.cpg/sg9_10_cif.got.tgz:19411.got - 2010.06.03 20:04:27.
