data_PCOD9140660
_publ_section_title
;
Structure prediction by ZEFSAII (Michael W. Deem and Ramdas Pophale) SiO2 
 PCOD9140660
Probable space group: C C
;
_chemical_formula_sum "Si O2"
_cell_formula_units_Z 32
_cell_length_a 10.058974
_cell_length_b 11.863924
_cell_length_c 16.840979
_cell_angle_alpha 90.000000
_cell_angle_beta 41.768329
_cell_angle_gamma 90.000000
_cell_volume 1338.757888
_symmetry_space_group_name_H-M "C C"
_symmetry_group_IT_number 9
_symmetry_cell_setting 'monoclinic'
loop_
_space_group_symop_operation_xyz
x,y,z
x,-y,1/2+z
1/2+x,1/2+y,z
1/2+x,1/2-y,1/2+z
loop_
_atom_site_type_symbol
_atom_site_label
_atom_site_fract_x
_atom_site_fract_y
_atom_site_fract_z
Si Si1 0.346270 0.760313 0.405870
Si Si2 0.624855 0.078203 0.691415
Si Si3 0.503134 0.884443 0.493805
Si Si4 0.367742 0.738698 0.130514
Si Si5 0.463197 0.544727 0.439268
Si Si6 0.612126 0.089147 0.340642
Si Si7 0.334501 0.010554 0.701078
Si Si8 0.305260 0.296528 0.486059
O O1 0.486099 0.815512 0.275523
O O2 0.415318 0.821561 0.456781
O O3 0.396753 0.631164 0.400814
O O4 0.105396 0.770586 0.503966
O O5 0.859333 0.086335 0.567067
O O6 0.552712 0.024542 0.641063
O O7 0.584437 0.993630 0.779455
O O8 0.649299 0.809602 0.483580
O O9 0.602448 0.002302 0.418473
O O10 0.331678 0.925619 0.629671
O O11 0.312992 0.655329 0.226991
O O12 0.301212 0.863519 0.184745
O O13 0.240841 0.710669 0.107679
O O14 0.701684 0.539034 0.330879
O O15 0.418758 0.415859 0.436160
O O16 0.443558 0.185733 0.417072
#
# Coordination Sequence:
#
# PCOD9140660 Si02
#       8
#     4   4   4   4   4   4   4   4
#     4  11  28  46  74 107 153 197 250 315 384 458
#     4  11  25  49  68 109 151 198 248 314 390 456
#     4  11  26  49  69 113 153 193 249 320 378 457
#     4  12  23  47  76 112 144 203 255 311 380 469
#     4  12  25  44  74 106 146 198 245 310 383 449
#     4  11  25  45  77 111 151 195 262 315 383 464
#     4  12  24  43  78 106 148 195 251 313 378 464
#     4  12  24  47  76 106 152 199 252 310 382 455
#
# _framework density 23.902754999999999
#
# number of rings (size 3 to 8) (size 9 to 14) (size 15 to 20)
#    0.000    0.500    6.250    0.750    3.500    1.000 
#    0.000    0.000    0.000    0.000    0.000    0.000 
#    0.000    0.000    0.000    0.000    0.000    0.000 
#
# Total GULP energy -89313.234949 kJ/mol
# GULP energy per Si atom -5582.077184 kJ/mol
# Density = 2.384835 g / cm^3
# Si number density = 23.902755 Si / 1000 Ang^3
#
#
#
# Elastic Constant Matrix: (Units=GPa)
#
#
# Indices 1 2 3 4 5 6 
#
# 1 97.5221 43.1924 35.3482 0.0000 16.8755 0.0000
# 2 43.1924 119.0299 51.1457 0.0000 -1.1066 0.0000
# 3 35.3482 51.1457 143.5494 0.0000 -3.2077 0.0000
# 4 0.0000 0.0000 0.0000 45.2389 0.0000 0.8196
# 5 16.8755 -1.1066 -3.2077 0.0000 26.0429 0.0000
# 6 0.0000 0.0000 0.0000 0.8196 0.0000 28.3592
#
#
#
# Elastic Compliance Matrix: (Units=1/GPa)
#
#
# Indices 1 2 3 4 5 6 
#
# 1 0.014808 -0.004491 -0.002271 0.000000 -0.010066 0.000000
# 2 -0.004491 0.011282 -0.002846 0.000000 0.003039 0.000000
# 3 -0.002271 -0.002846 0.008593 0.000000 0.002409 0.000000
# 4 0.000000 0.000000 0.000000 0.022116 0.000000 -0.000639
# 5 -0.010066 0.003039 0.002409 0.000000 0.045347 0.000000
# 6 0.000000 0.000000 0.000000 -0.000639 0.000000 0.035280
#
#
# Mechanical properties :
#
#
# Convention : Reuss Voigt Hill
#
# Bulk Modulus (GPa) = 64.65317 68.83047 66.74182
# Shear Modulus (GPa) = 30.90239 35.28919 33.09579
#
# Velocity S-wave (km/s) = 3.59951 3.84652 3.72506
# Velocity P-wave (km/s) = 6.66201 6.97038 6.81794
#
# Compressibility (1/GPa) = 0.01546715
#
# Stress axis : x y z
#
# Youngs Moduli (GPa) = 67.52954 88.63630 116.36940
#
# Poissons Ratio (x) = 0.39808 0.26430
# Poissons Ratio (y) = 0.30329 0.33117
# Poissons Ratio (z) = 0.15338 0.25225
#
# Static dielectric constant tensor:
#      x y z
#    x 1.884540 0.000000 -0.012060 
#    y 0.000000 1.925260 0.000000 
#    z -0.012060 0.000000 1.981950 
# 
# From -- ./inp_files/30061.got.cif
#   From: 2010.05.17/outbox.cif.g08.bks.cpg/sg9_16_cif.got.tgz:30061.got - 2010.06.03 20:04:27.
