data_PCOD9140836
_publ_section_title
;
Structure prediction by ZEFSAII (Michael W. Deem and Ramdas Pophale) SiO2 
 PCOD9140836
Probable space group: C C
;
_chemical_formula_sum "Si O2"
_cell_formula_units_Z 32
_cell_length_a 15.316755
_cell_length_b 7.521194
_cell_length_c 11.873479
_cell_angle_alpha 90.000000
_cell_angle_beta 92.942598
_cell_angle_gamma 90.000000
_cell_volume 1366.024647
_symmetry_space_group_name_H-M "C C"
_symmetry_group_IT_number 9
_symmetry_cell_setting 'monoclinic'
loop_
_space_group_symop_operation_xyz
x,y,z
x,-y,1/2+z
1/2+x,1/2+y,z
1/2+x,1/2-y,1/2+z
loop_
_atom_site_type_symbol
_atom_site_label
_atom_site_fract_x
_atom_site_fract_y
_atom_site_fract_z
Si Si1 0.253360 0.652662 0.369200
Si Si2 0.866024 0.198735 0.701628
Si Si3 0.125383 0.823639 0.990753
Si Si4 0.611681 0.280700 0.543946
Si Si5 0.783798 0.180913 0.126456
Si Si6 0.192558 0.268784 0.271223
Si Si7 0.429106 0.210553 0.974405
Si Si8 0.918839 0.308427 0.946223
O O1 0.185069 0.722090 0.457863
O O2 0.263930 0.753825 0.250419
O O3 0.220348 0.455868 0.330761
O O4 0.350709 0.662159 0.428145
O O5 0.775797 0.304727 0.709864
O O6 0.923796 0.286406 0.609828
O O7 0.905617 0.202957 0.828692
O O8 0.833239 0.005233 0.657419
O O9 0.166935 0.856578 0.871064
O O10 0.188486 0.686520 0.060533
O O11 0.028142 0.760509 0.955873
O O12 0.119541 0.006880 0.057058
O O13 0.623541 0.198702 0.668678
O O14 0.515868 0.233349 0.494432
O O15 0.848080 0.269693 0.039510
O O16 0.410846 0.017687 0.923160
#
# Coordination Sequence:
#
# PCOD9140836 Si02
#       8
#     4   4   4   4   4   4   4   4
#     4  11  27  48  78 106 155 196 251 307 383 443
#     4  11  26  48  79 103 155 199 250 308 383 438
#     4  12  28  47  78 114 151 197 256 313 382 446
#     4  12  29  47  77 115 153 198 259 307 378 456
#     4  11  27  48  78 106 155 196 251 307 383 443
#     4  11  26  48  79 103 155 199 250 308 383 438
#     4  12  28  47  78 114 151 197 256 313 382 446
#     4  12  29  47  77 115 153 198 259 307 378 456
#
# _framework density 23.425639
#
# number of rings (size 3 to 8) (size 9 to 14) (size 15 to 20)
#    0.000    0.500    2.500    3.000   17.500    0.000 
#    0.000    0.000    0.000    0.000    0.000    0.000 
#    0.000    0.000    0.000    0.000    0.000    0.000 
#
# Total GULP energy -89440.942962 kJ/mol
# GULP energy per Si atom -5590.058935 kJ/mol
# Density = 2.337232 g / cm^3
# Si number density = 23.425639 Si / 1000 Ang^3
#
#
#
# Elastic Constant Matrix: (Units=GPa)
#
#
# Indices 1 2 3 4 5 6 
#
# 1 84.0514 13.5280 28.7106 0.0000 26.6421 0.0000
# 2 13.5280 109.5981 24.9483 0.0000 13.7068 0.0000
# 3 28.7106 24.9483 149.1740 0.0000 24.6024 0.0000
# 4 0.0000 0.0000 0.0000 31.2279 0.0000 -5.4131
# 5 26.6421 13.7068 24.6024 0.0000 49.4903 0.0000
# 6 0.0000 0.0000 0.0000 -5.4131 0.0000 28.3489
#
#
#
# Elastic Compliance Matrix: (Units=1/GPa)
#
#
# Indices 1 2 3 4 5 6 
#
# 1 0.014749 -0.000585 -0.001588 0.000000 -0.006988 0.000000
# 2 -0.000585 0.009694 -0.001218 0.000000 -0.001765 0.000000
# 3 -0.001588 -0.001218 0.007643 0.000000 -0.002607 0.000000
# 4 0.000000 0.000000 0.000000 0.033119 0.000000 0.006324
# 5 -0.006988 -0.001765 -0.002607 0.000000 0.025753 0.000000
# 6 0.000000 0.000000 0.000000 0.006324 0.000000 0.036482
#
#
# Mechanical properties :
#
#
# Convention : Reuss Voigt Hill
#
# Bulk Modulus (GPa) = 39.51855 53.02193 46.27024
# Shear Modulus (GPa) = 35.04900 40.18918 37.61909
#
# Velocity S-wave (km/s) = 3.87225 4.14648 4.01171
# Velocity P-wave (km/s) = 6.07444 6.75335 6.42287
#
# Compressibility (1/GPa) = 0.02530457
#
# Stress axis : x y z
#
# Youngs Moduli (GPa) = 67.79972 103.15300 130.84036
#
# Poissons Ratio (x) = 0.06034 0.20782
# Poissons Ratio (y) = 0.03966 0.15932
# Poissons Ratio (z) = 0.10769 0.12561
#
# Static dielectric constant tensor:
#      x y z
#    x 1.866240 0.000000 0.026620 
#    y 0.000000 1.938970 0.000000 
#    z 0.026620 0.000000 1.922090 
# 
# From -- ./inp_files/17842.got.cif
#   From: 2010.05.17/outbox.cif.g08.bks.cpg/sg9_9_cif.got.tgz:17842.got - 2010.06.03 20:04:27.
