data_PCOD9140009
_publ_section_title
;
Structure prediction by ZEFSAII (Michael W. Deem and Ramdas Pophale) SiO2 
 PCOD9140009
Probable space group: C C
;
_chemical_formula_sum "Si O2"
_cell_formula_units_Z 28
_cell_length_a 10.293050
_cell_length_b 15.868146
_cell_length_c 13.792161
_cell_angle_alpha 90.000000
_cell_angle_beta 147.171192
_cell_angle_gamma 90.000000
_cell_volume 1221.255827
_symmetry_space_group_name_H-M "C C"
_symmetry_group_IT_number 9
_symmetry_cell_setting 'monoclinic'
loop_
_space_group_symop_operation_xyz
x,y,z
x,-y,1/2+z
1/2+x,1/2+y,z
1/2+x,1/2-y,1/2+z
loop_
_atom_site_type_symbol
_atom_site_label
_atom_site_fract_x
_atom_site_fract_y
_atom_site_fract_z
Si Si1 0.101580 0.071760 0.205390
Si Si2 0.015013 0.316297 0.990063
Si Si3 0.343487 0.937209 0.650012
Si Si4 0.899120 0.105052 0.558572
Si Si5 0.730980 0.209810 0.961215
Si Si6 0.240222 0.873022 0.091777
Si Si7 0.539611 0.687021 0.838438
O O1 0.358966 0.100727 0.402711
O O2 0.160215 0.073422 0.126481
O O3 0.917475 0.143586 0.123219
O O4 0.003252 0.981235 0.169845
O O5 0.876777 0.243105 0.959465
O O6 0.268613 0.339553 0.194051
O O7 0.049011 0.276167 0.902918
O O8 0.250233 0.869999 0.513048
O O9 0.297410 0.033486 0.587898
O O10 0.620204 0.920404 0.856833
O O11 0.011281 0.175740 0.704205
O O12 0.033970 0.120340 0.542508
O O13 0.675596 0.295679 0.982098
O O14 0.491965 0.158489 0.793258
#
# Coordination Sequence:
#
# PCOD9140009 Si02
#       7
#     4   4   4   4   4   4   4
#     4  11  22  45  72 102 145 182 244 298 345 425
#     4  12  23  42  78 109 131 189 255 300 341 430
#     4  11  24  48  72 108 143 192 242 305 357 435
#     4  11  27  48  69 108 154 189 231 304 372 438
#     4  12  22  44  70 105 140 188 240 295 350 431
#     4  11  27  45  69 104 153 187 236 299 368 434
#     4  12  25  44  74 112 138 187 244 307 361 415
#
# _framework density 22.927219999999998
#
# number of rings (size 3 to 8) (size 9 to 14) (size 15 to 20)
#    0.000    0.571    7.143    0.000    2.000    1.143 
#    2.571    0.000    0.000    0.000    0.000    0.000 
#    0.000    0.000    0.000    0.000    0.000    0.000 
#
# Total GULP energy -78001.703006 kJ/mol
# GULP energy per Si atom -5571.550215 kJ/mol
# Density = 2.287504 g / cm^3
# Si number density = 22.927220 Si / 1000 Ang^3
#
#
#
# Elastic Constant Matrix: (Units=GPa)
#
#
# Indices 1 2 3 4 5 6 
#
# 1 68.4324 30.6143 3.7199 -0.0030 -0.8677 -0.0012
# 2 30.6143 123.6675 28.8769 -0.0052 7.5652 -0.0021
# 3 3.7199 28.8769 104.0799 -0.0117 20.8640 -0.0048
# 4 -0.0030 -0.0052 -0.0117 44.3488 -0.0023 -1.0737
# 5 -0.8677 7.5652 20.8640 -0.0023 28.0403 -0.0005
# 6 -0.0012 -0.0021 -0.0048 -1.0737 -0.0005 32.7696
#
#
#
# Elastic Compliance Matrix: (Units=1/GPa)
#
#
# Indices 1 2 3 4 5 6 
#
# 1 0.016514 -0.004246 0.000301 0.000001 0.001433 0.000000
# 2 -0.004246 0.009748 -0.002350 0.000000 -0.001013 0.000000
# 3 0.000301 -0.002350 0.011894 0.000002 -0.008207 0.000002
# 4 0.000001 0.000000 0.000002 0.022566 0.000000 0.000739
# 5 0.001433 -0.001013 -0.008207 0.000000 0.042087 -0.000001
# 6 0.000000 0.000000 0.000002 0.000739 -0.000001 0.030540
#
#
# Mechanical properties :
#
#
# Convention : Reuss Voigt Hill
#
# Bulk Modulus (GPa) = 39.11405 46.95580 43.03493
# Shear Modulus (GPa) = 32.37022 36.56300 34.46661
#
# Velocity S-wave (km/s) = 3.76156 3.99775 3.88145
# Velocity P-wave (km/s) = 5.99691 6.46794 6.23687
#
# Compressibility (1/GPa) = 0.02556626
#
# Stress axis : x y z
#
# Youngs Moduli (GPa) = 60.55356 102.58561 84.07336
#
# Poissons Ratio (x) = 0.43558 -0.02527
# Poissons Ratio (y) = 0.25711 0.19755
# Poissons Ratio (z) = -0.01820 0.24105
#
# Static dielectric constant tensor:
#      x y z
#    x 1.942200 0.000000 -0.050410 
#    y 0.000000 1.884360 0.000000 
#    z -0.050410 0.000000 1.878060 
# 
# From -- ./inp_files/24942.got.cif
#   From: 2010.05.17/outbox.cif.g08.bks.cpg/sg9_13_cif.got.tgz:24942.got - 2010.06.03 20:04:27.
