data_PCOD9140306
_publ_section_title
;
Structure prediction by ZEFSAII (Michael W. Deem and Ramdas Pophale) SiO2 
 PCOD9140306
Probable space group: C C
;
_chemical_formula_sum "Si O2"
_cell_formula_units_Z 32
_cell_length_a 12.230599
_cell_length_b 13.991117
_cell_length_c 8.810844
_cell_angle_alpha 90.000000
_cell_angle_beta 57.522547
_cell_angle_gamma 90.000000
_cell_volume 1271.907856
_symmetry_space_group_name_H-M "C C"
_symmetry_group_IT_number 9
_symmetry_cell_setting 'monoclinic'
loop_
_space_group_symop_operation_xyz
x,y,z
x,-y,1/2+z
1/2+x,1/2+y,z
1/2+x,1/2-y,1/2+z
loop_
_atom_site_type_symbol
_atom_site_label
_atom_site_fract_x
_atom_site_fract_y
_atom_site_fract_z
Si Si1 0.807560 0.611484 0.072480
Si Si2 0.485325 0.398767 0.181498
Si Si3 0.031502 0.088250 0.291365
Si Si4 0.736429 0.224472 0.837430
Si Si5 0.035509 0.572703 0.092943
Si Si6 0.711788 0.718103 0.663801
Si Si7 0.108918 0.603894 0.365663
Si Si8 0.934349 0.288061 0.222485
O O1 0.675972 0.562413 0.119593
O O2 0.744340 0.711053 0.183013
O O3 0.890759 0.559670 0.138386
O O4 0.918317 0.640133 0.872876
O O5 0.454525 0.496771 0.290340
O O6 0.349769 0.350566 0.243922
O O7 0.575258 0.334380 0.228923
O O8 0.543647 0.408308 0.966333
O O9 0.966664 0.183485 0.267159
O O10 0.602286 0.171846 0.982944
O O11 0.775721 0.289903 0.951308
O O12 0.029084 0.571158 0.278432
O O13 0.124086 0.487757 0.959672
O O14 0.714835 0.832612 0.699876
O O15 0.801214 0.686116 0.733093
O O16 0.044084 0.682922 0.522127
#
# Coordination Sequence:
#
# PCOD9140306 Si02
#       8
#     4   4   4   4   4   4   4   4
#     4  12  24  47  74 106 149 198 254 310 379 448
#     4  12  28  49  74 112 151 200 248 317 378 456
#     4  12  30  46  76 112 153 195 255 311 383 452
#     4  11  23  48  76 101 150 197 253 301 389 445
#     4  11  26  44  75 109 144 201 250 322 363 465
#     4  11  25  47  76 102 150 200 243 308 383 451
#     4  11  26  45  71 109 147 190 262 303 387 442
#     4  12  26  46  74 107 148 199 245 314 376 457
#
# _framework density 25.159054000000001
#
# number of rings (size 3 to 8) (size 9 to 14) (size 15 to 20)
#    0.000    0.500    2.500    5.250    8.750    2.000 
#    0.000    0.000    0.000    0.000    0.000    0.000 
#    0.000    0.000    0.000    0.000    0.000    0.000 
#
# Total GULP energy -89301.345731 kJ/mol
# GULP energy per Si atom -5581.334108 kJ/mol
# Density = 2.510179 g / cm^3
# Si number density = 25.159054 Si / 1000 Ang^3
#
#
#
# Elastic Constant Matrix: (Units=GPa)
#
#
# Indices 1 2 3 4 5 6 
#
# 1 74.9218 4.7875 11.8831 0.0000 15.3082 0.0000
# 2 4.7875 82.7399 5.8864 0.0000 15.7955 0.0000
# 3 11.8831 5.8864 75.9539 0.0000 20.6721 0.0000
# 4 0.0000 0.0000 0.0000 34.3090 0.0000 -0.5551
# 5 15.3082 15.7955 20.6721 0.0000 40.2778 0.0000
# 6 0.0000 0.0000 0.0000 -0.5551 0.0000 21.4140
#
#
#
# Elastic Compliance Matrix: (Units=1/GPa)
#
#
# Indices 1 2 3 4 5 6 
#
# 1 0.014526 0.000205 -0.000888 0.000000 -0.005146 0.000000
# 2 0.000205 0.013080 0.000432 0.000000 -0.005429 0.000000
# 3 -0.000888 0.000432 0.015373 0.000000 -0.007722 0.000000
# 4 0.000000 0.000000 0.000000 0.029159 0.000000 0.000756
# 5 -0.005146 -0.005429 -0.007722 0.000000 0.032875 0.000000
# 6 0.000000 0.000000 0.000000 0.000756 0.000000 0.046718
#
#
# Mechanical properties :
#
#
# Convention : Reuss Voigt Hill
#
# Bulk Modulus (GPa) = 23.54236 30.96997 27.25616
# Shear Modulus (GPa) = 30.04929 33.27074 31.66001
#
# Velocity S-wave (km/s) = 3.45972 3.64045 3.55123
# Velocity P-wave (km/s) = 5.03361 5.47785 5.26043
#
# Compressibility (1/GPa) = 0.04247663
#
# Stress axis : x y z
#
# Youngs Moduli (GPa) = 68.84038 76.45319 65.04918
#
# Poissons Ratio (x) = -0.01567 0.05777
# Poissons Ratio (y) = -0.01411 -0.02809
# Poissons Ratio (z) = 0.06114 -0.03302
#
# Static dielectric constant tensor:
#      x y z
#    x 2.015590 0.000000 -0.021740 
#    y 0.000000 2.080960 0.000000 
#    z -0.021740 0.000000 2.010370 
# 
# From -- ./inp_files/7575.got.cif
#   From: 2010.05.17/outbox.cif.g08.bks.cpg/sg9_4_cif.got.tgz:7575.got - 2010.06.03 20:04:27.
