data_PCOD9140968
_publ_section_title
;
Structure prediction by ZEFSAII (Michael W. Deem and Ramdas Pophale) SiO2 
 PCOD9140968
Probable space group: C C
;
_chemical_formula_sum "Si O2"
_cell_formula_units_Z 20
_cell_length_a 7.003157
_cell_length_b 25.667667
_cell_length_c 4.977386
_cell_angle_alpha 90.000000
_cell_angle_beta 79.550927
_cell_angle_gamma 90.000000
_cell_volume 879.871136
_symmetry_space_group_name_H-M "C C"
_symmetry_group_IT_number 9
_symmetry_cell_setting 'monoclinic'
loop_
_space_group_symop_operation_xyz
x,y,z
x,-y,1/2+z
1/2+x,1/2+y,z
1/2+x,1/2-y,1/2+z
loop_
_atom_site_type_symbol
_atom_site_label
_atom_site_fract_x
_atom_site_fract_y
_atom_site_fract_z
Si Si1 0.611180 0.694331 0.100140
Si Si2 0.951262 0.967703 0.804080
Si Si3 0.842926 0.406674 0.657600
Si Si4 0.596283 0.900629 0.120185
Si Si5 0.331971 0.301268 0.164603
O O1 0.749944 0.644646 0.044545
O O2 0.468821 0.684054 0.383137
O O3 0.731904 0.746284 0.129600
O O4 0.472539 0.702002 0.882267
O O5 0.163967 0.943232 0.784640
O O6 0.933928 0.981199 0.494830
O O7 0.781708 0.930875 0.955825
O O8 0.983366 0.429766 0.390666
O O9 0.958210 0.392317 0.898272
O O10 0.672700 0.846525 0.227010
#
# Coordination Sequence:
#
# PCOD9140968 Si02
#       5
#     4   4   4   4   4
#     4  12  24  43  70 105 148 187 234 290 350 425
#     4  12  28  48  74 104 144 186 242 302 356 416
#     4  12  26  46  74 105 145 187 240 294 357 424
#     4  12  26  46  74 105 145 187 240 294 357 424
#     4  12  24  43  70 105 148 187 234 290 350 425
#
# _framework density 22.730602000000001
#
# number of rings (size 3 to 8) (size 9 to 14) (size 15 to 20)
#    0.000    0.000    2.000    8.400    2.800    4.800 
#    0.000    0.000    0.000    0.000    0.000    0.000 
#    0.000    0.000    0.000    0.000    0.000    0.000 
#
# Total GULP energy -56044.588491 kJ/mol
# GULP energy per Si atom -5604.458849 kJ/mol
# Density = 2.267887 g / cm^3
# Si number density = 22.730602 Si / 1000 Ang^3
#
#
#
# Elastic Constant Matrix: (Units=GPa)
#
#
# Indices 1 2 3 4 5 6 
#
# 1 136.9835 32.4594 72.8193 0.0000 8.9449 0.0000
# 2 32.4594 55.5998 3.1308 0.0000 -3.4553 0.0000
# 3 72.8193 3.1308 139.4894 0.0000 8.0230 0.0000
# 4 0.0000 0.0000 0.0000 32.7603 0.0000 -4.8964
# 5 8.9449 -3.4553 8.0230 0.0000 71.8548 0.0000
# 6 0.0000 0.0000 0.0000 -4.8964 0.0000 33.5402
#
#
#
# Elastic Compliance Matrix: (Units=1/GPa)
#
#
# Indices 1 2 3 4 5 6 
#
# 1 0.012313 -0.006912 -0.006206 0.000000 -0.001172 0.000000
# 2 -0.006912 0.021949 0.003025 0.000000 0.001578 0.000000
# 3 -0.006206 0.003025 0.010354 0.000000 -0.000238 0.000000
# 4 0.000000 0.000000 0.000000 0.031206 0.000000 0.004556
# 5 -0.001172 0.001578 -0.000238 0.000000 0.014165 0.000000
# 6 0.000000 0.000000 0.000000 0.004556 0.000000 0.030480
#
#
# Mechanical properties :
#
#
# Convention : Reuss Voigt Hill
#
# Bulk Modulus (GPa) = 40.93119 60.98796 50.95957
# Shear Modulus (GPa) = 33.60295 42.54192 38.07244
#
# Velocity S-wave (km/s) = 3.84906 4.33086 4.09705
# Velocity P-wave (km/s) = 6.14816 7.20399 6.69691
#
# Compressibility (1/GPa) = 0.02443125
#
# Stress axis : x y z
#
# Youngs Moduli (GPa) = 81.21246 45.56078 96.57766
#
# Poissons Ratio (x) = 0.31492 0.59932
# Poissons Ratio (y) = 0.56134 -0.29214
# Poissons Ratio (z) = 0.50397 -0.13782
#
# Static dielectric constant tensor:
#      x y z
#    x 1.826260 0.000000 -0.043310 
#    y 0.000000 1.883740 0.000000 
#    z -0.043310 0.000000 1.815900 
# 
# From -- ./inp_files/180.got.cif
#   From: 2010.05.17/outbox.cif.g08.bks.cpg/sg9_1_cif.got.tgz:180.got - 2010.06.03 20:04:27.
