data_PCOD9140813
_publ_section_title
;
Structure prediction by ZEFSAII (Michael W. Deem and Ramdas Pophale) SiO2 
 PCOD9140813
Probable space group: C C
;
_chemical_formula_sum "Si O2"
_cell_formula_units_Z 20
_cell_length_a 5.291128
_cell_length_b 20.149929
_cell_length_c 8.848222
_cell_angle_alpha 90.000000
_cell_angle_beta 122.743742
_cell_angle_gamma 90.000000
_cell_volume 793.458922
_symmetry_space_group_name_H-M "C C"
_symmetry_group_IT_number 9
_symmetry_cell_setting 'monoclinic'
loop_
_space_group_symop_operation_xyz
x,y,z
x,-y,1/2+z
1/2+x,1/2+y,z
1/2+x,1/2-y,1/2+z
loop_
_atom_site_type_symbol
_atom_site_label
_atom_site_fract_x
_atom_site_fract_y
_atom_site_fract_z
Si Si1 0.070130 0.156684 0.680480
Si Si2 0.370984 0.563836 0.858853
Si Si3 0.557639 0.199576 0.065459
Si Si4 0.667304 0.636214 0.203948
Si Si5 0.278513 0.946687 0.017087
O O1 0.074715 0.096258 0.565058
O O2 0.973038 0.223907 0.568056
O O3 0.417211 0.309710 0.672023
O O4 0.889707 0.131358 0.767897
O O5 0.448938 0.581575 0.055214
O O6 0.626590 0.511464 0.900110
O O7 0.895823 0.672764 0.861455
O O8 0.058948 0.532764 0.709914
O O9 0.403871 0.160773 0.155823
O O10 0.836143 0.603841 0.398783
#
# Coordination Sequence:
#
# PCOD9140813 Si02
#       5
#     4   4   4   4   4
#     4  11  26  46  76 109 153 194 254 308 386 442
#     4  11  28  47  74 110 151 201 257 312 374 451
#     4  11  26  48  76 115 149 198 244 320 375 461
#     4  11  27  48  78 112 154 191 258 308 387 443
#     4  12  27  47  78 106 153 204 255 312 376 445
#
# _framework density 25.206094
#
# number of rings (size 3 to 8) (size 9 to 14) (size 15 to 20)
#    0.000    0.800    2.000    2.400   14.000    4.800 
#    0.000    0.000    0.000    0.000    0.000    0.000 
#    0.000    0.000    0.000    0.000    0.000    0.000 
#
# Total GULP energy -55975.626018 kJ/mol
# GULP energy per Si atom -5597.562602 kJ/mol
# Density = 2.514872 g / cm^3
# Si number density = 25.206094 Si / 1000 Ang^3
#
#
#
# Elastic Constant Matrix: (Units=GPa)
#
#
# Indices 1 2 3 4 5 6 
#
# 1 68.4443 3.7103 19.3683 0.0000 -4.0681 0.0000
# 2 3.7103 73.9792 12.1676 0.0000 0.9781 0.0000
# 3 19.3683 12.1676 108.3556 0.0000 2.6403 0.0000
# 4 0.0000 0.0000 0.0000 39.5174 0.0000 -11.9010
# 5 -4.0681 0.9781 2.6403 0.0000 44.2907 0.0000
# 6 0.0000 0.0000 0.0000 -11.9010 0.0000 27.4065
#
#
#
# Elastic Compliance Matrix: (Units=1/GPa)
#
#
# Indices 1 2 3 4 5 6 
#
# 1 0.015509 -0.000343 -0.002773 0.000000 0.001597 0.000000
# 2 -0.000343 0.013781 -0.001480 0.000000 -0.000248 0.000000
# 3 -0.002773 -0.001480 0.009910 0.000000 -0.000813 0.000000
# 4 0.000000 0.000000 0.000000 0.029113 0.000000 0.012642
# 5 0.001597 -0.000248 -0.000813 0.000000 0.022779 0.000000
# 6 0.000000 0.000000 0.000000 0.012642 0.000000 0.041977
#
#
# Mechanical properties :
#
#
# Convention : Reuss Voigt Hill
#
# Bulk Modulus (GPa) = 33.32342 35.69683 34.51013
# Shear Modulus (GPa) = 32.83789 36.61178 34.72484
#
# Velocity S-wave (km/s) = 3.61331 3.81530 3.71568
# Velocity P-wave (km/s) = 5.53689 5.79667 5.66827
#
# Compressibility (1/GPa) = 0.03000892
#
# Stress axis : x y z
#
# Youngs Moduli (GPa) = 64.48070 72.56244 100.90333
#
# Poissons Ratio (x) = 0.02488 0.27976
# Poissons Ratio (y) = 0.02211 0.14936
# Poissons Ratio (z) = 0.17877 0.10741
#
# Static dielectric constant tensor:
#      x y z
#    x 2.028460 0.000000 0.031590 
#    y 0.000000 1.982190 0.000000 
#    z 0.031590 0.000000 1.963300 
# 
# From -- ./inp_files/3723.got.cif
#   From: 2010.05.17/outbox.cif.g08.bks.cpg/sg9_2_cif.got.tgz:3723.got - 2010.06.03 20:04:27.
