data_PCOD9140839
_publ_section_title
;
Structure prediction by ZEFSAII (Michael W. Deem and Ramdas Pophale) SiO2 
 PCOD9140839
Probable space group: C C
;
_chemical_formula_sum "Si O2"
_cell_formula_units_Z 20
_cell_length_a 14.000383
_cell_length_b 5.036594
_cell_length_c 20.455491
_cell_angle_alpha 90.000000
_cell_angle_beta 29.723057
_cell_angle_gamma 90.000000
_cell_volume 715.155461
_symmetry_space_group_name_H-M "C C"
_symmetry_group_IT_number 9
_symmetry_cell_setting 'monoclinic'
loop_
_space_group_symop_operation_xyz
x,y,z
x,-y,1/2+z
1/2+x,1/2+y,z
1/2+x,1/2-y,1/2+z
loop_
_atom_site_type_symbol
_atom_site_label
_atom_site_fract_x
_atom_site_fract_y
_atom_site_fract_z
Si Si1 0.932970 0.969710 0.408950
Si Si2 0.721338 0.487957 0.572324
Si Si3 0.361232 0.668011 0.219049
Si Si4 0.280943 0.771672 0.671439
Si Si5 0.663858 0.005583 0.958923
O O1 0.835669 0.761479 0.516318
O O2 0.857665 0.272758 0.455984
O O3 0.839601 0.869746 0.395610
O O4 0.161423 0.003630 0.283950
O O5 0.525777 0.543265 0.650157
O O6 0.677036 0.326319 0.664813
O O7 0.260046 0.496905 0.222802
O O8 0.237150 0.693084 0.359088
O O9 0.515319 0.875772 0.099145
O O10 0.507191 0.799100 0.519669
#
# Coordination Sequence:
#
# PCOD9140839 Si02
#       5
#     4   4   4   4   4
#     4  11  26  49  73 114 159 214 264 342 405 489
#     4  11  26  49  75 110 163 205 276 330 412 486
#     4  11  26  51  76 122 160 223 273 343 415 499
#     4  12  26  46  80 111 159 219 270 340 414 489
#     4  11  26  49  78 115 169 213 277 345 412 497
#
# _framework density 27.965951
#
# number of rings (size 3 to 8) (size 9 to 14) (size 15 to 20)
#    0.000    0.800    4.000    1.200    8.400    1.600 
#    3.600    0.000    0.000    0.000    0.000    0.000 
#    0.000    0.000    0.000    0.000    0.000    0.000 
#
# Total GULP energy -55808.231482 kJ/mol
# GULP energy per Si atom -5580.823148 kJ/mol
# Density = 2.790230 g / cm^3
# Si number density = 27.965951 Si / 1000 Ang^3
#
#
#
# Elastic Constant Matrix: (Units=GPa)
#
#
# Indices 1 2 3 4 5 6 
#
# 1 53.2726 -16.5595 1.6382 -0.0052 4.9059 0.0096
# 2 -16.5595 115.5535 7.1232 -0.0130 3.5993 0.0206
# 3 1.6382 7.1232 96.0353 -0.0055 -3.5150 0.0052
# 4 -0.0052 -0.0130 -0.0055 37.6069 0.0011 8.7600
# 5 4.9059 3.5993 -3.5150 0.0011 56.5391 -0.0055
# 6 0.0096 0.0206 0.0052 8.7600 -0.0055 16.6138
#
#
#
# Elastic Compliance Matrix: (Units=1/GPa)
#
#
# Indices 1 2 3 4 5 6 
#
# 1 0.019887 0.002950 -0.000629 0.000008 -0.001953 -0.000020
# 2 0.002950 0.009151 -0.000762 0.000007 -0.000886 -0.000017
# 3 -0.000629 -0.000762 0.010508 0.000002 0.000756 -0.000003
# 4 0.000008 0.000007 0.000002 0.030314 -0.000003 -0.015984
# 5 -0.001953 -0.000886 0.000756 -0.000003 0.017960 0.000010
# 6 -0.000020 -0.000017 -0.000003 -0.015984 0.000010 0.068619
#
#
# Mechanical properties :
#
#
# Convention : Reuss Voigt Hill
#
# Bulk Modulus (GPa) = 23.43917 27.69613 25.56765
# Shear Modulus (GPa) = 29.84311 40.32927 35.08619
#
# Velocity S-wave (km/s) = 3.27023 3.80160 3.54588
# Velocity P-wave (km/s) = 4.76012 5.40320 5.09182
#
# Compressibility (1/GPa) = 0.04266362
#
# Stress axis : x y z
#
# Youngs Moduli (GPa) = 50.28307 109.27485 95.16793
#
# Poissons Ratio (x) = -0.32232 0.05991
# Poissons Ratio (y) = -0.14832 0.07247
# Poissons Ratio (z) = 0.03165 0.08321
#
# Static dielectric constant tensor:
#      x y z
#    x 2.350520 -0.000010 0.007870 
#    y -0.000010 2.394760 -0.000010 
#    z 0.007870 -0.000010 2.352670 
# 
# From -- ./inp_files/8649.got.cif
#   From: 2010.05.17/outbox.cif.g08.bks.cpg/sg9_5_cif.got.tgz:8649.got - 2010.06.03 20:04:27.
