data_PCOD9140958
_publ_section_title
;
Structure prediction by ZEFSAII (Michael W. Deem and Ramdas Pophale) SiO2 
 PCOD9140958
Probable space group: C C
;
_chemical_formula_sum "Si O2"
_cell_formula_units_Z 24
_cell_length_a 23.913950
_cell_length_b 5.580232
_cell_length_c 14.471787
_cell_angle_alpha 90.000000
_cell_angle_beta 151.921841
_cell_angle_gamma 90.000000
_cell_volume 908.965506
_symmetry_space_group_name_H-M "C C"
_symmetry_group_IT_number 9
_symmetry_cell_setting 'monoclinic'
loop_
_space_group_symop_operation_xyz
x,y,z
x,-y,1/2+z
1/2+x,1/2+y,z
1/2+x,1/2-y,1/2+z
loop_
_atom_site_type_symbol
_atom_site_label
_atom_site_fract_x
_atom_site_fract_y
_atom_site_fract_z
Si Si1 0.969740 0.751339 0.300020
Si Si2 0.627460 0.773696 0.402349
Si Si3 0.598673 0.667652 0.559267
Si Si4 0.383963 0.869380 0.021412
Si Si5 0.236537 0.482937 0.897970
Si Si6 0.878727 0.587190 0.814092
O O1 0.938058 0.558882 0.173688
O O2 0.948561 0.624276 0.366014
O O3 0.084939 0.917135 0.483281
O O4 0.860827 0.929167 0.125784
O O5 0.623157 0.838700 0.505366
O O6 0.496506 0.681502 0.181689
O O7 0.647576 0.972942 0.352819
O O8 0.751103 0.625537 0.579178
O O9 0.691700 0.764149 0.769725
O O10 0.472794 0.701628 0.429615
O O11 0.268480 0.722583 0.886326
O O12 0.362537 0.009907 0.895612
#
# Coordination Sequence:
#
# PCOD9140958 Si02
#       6
#     4   4   4   4   4   4
#     4  12  25  51  75 115 163 203 275 339 412 495
#     4  12  23  52  76 110 166 206 265 347 402 488
#     4  12  27  49  77 118 160 211 273 338 420 488
#     4  12  27  52  78 117 163 216 277 331 416 501
#     4  12  27  50  78 119 160 214 277 331 415 496
#     4  12  27  48  78 119 154 216 275 330 413 502
#
# _framework density 26.403642000000001
#
# number of rings (size 3 to 8) (size 9 to 14) (size 15 to 20)
#    0.000    0.000    8.333    1.000    2.333    6.667 
#    0.000    0.000    0.000    0.000    0.000    0.000 
#    0.000    0.000    0.000    0.000    0.000    0.000 
#
# Total GULP energy -66962.321244 kJ/mol
# GULP energy per Si atom -5580.193437 kJ/mol
# Density = 2.634355 g / cm^3
# Si number density = 26.403642 Si / 1000 Ang^3
#
#
#
# Elastic Constant Matrix: (Units=GPa)
#
#
# Indices 1 2 3 4 5 6 
#
# 1 113.0903 24.2419 15.9518 0.0001 -5.1025 0.0000
# 2 24.2419 92.9334 35.2372 0.0003 -17.8362 0.0002
# 3 15.9518 35.2372 150.9443 0.0000 -7.4075 0.0001
# 4 0.0001 0.0003 0.0000 52.1353 0.0000 -5.6283
# 5 -5.1025 -17.8362 -7.4075 0.0000 50.3924 0.0000
# 6 0.0000 0.0002 0.0001 -5.6283 0.0000 22.4703
#
#
#
# Elastic Compliance Matrix: (Units=1/GPa)
#
#
# Indices 1 2 3 4 5 6 
#
# 1 0.009396 -0.002260 -0.000461 0.000000 0.000084 0.000000
# 2 -0.002260 0.013119 -0.002626 0.000000 0.004028 0.000000
# 3 -0.000461 -0.002626 0.007291 0.000000 0.000096 0.000000
# 4 0.000000 0.000000 0.000000 0.019714 0.000000 0.004938
# 5 0.000084 0.004028 0.000096 0.000000 0.021293 0.000000
# 6 0.000000 0.000000 0.000000 0.004938 0.000000 0.045740
#
#
# Mechanical properties :
#
#
# Convention : Reuss Voigt Hill
#
# Bulk Modulus (GPa) = 52.32436 56.42552 54.37494
# Shear Modulus (GPa) = 37.42024 43.76874 40.59449
#
# Velocity S-wave (km/s) = 3.76871 4.07588 3.92530
# Velocity P-wave (km/s) = 6.22878 6.60054 6.41735
#
# Compressibility (1/GPa) = 0.01911156
#
# Stress axis : x y z
#
# Youngs Moduli (GPa) = 106.43093 76.22669 137.14739
#
# Poissons Ratio (x) = 0.17227 0.06326
# Poissons Ratio (y) = 0.24053 0.36015
# Poissons Ratio (z) = 0.04909 0.20017
#
# Static dielectric constant tensor:
#      x y z
#    x 2.081190 0.000000 0.108780 
#    y 0.000000 2.356940 0.000000 
#    z 0.108780 0.000000 2.103570 
# 
# From -- ./inp_files/27625.got.cif
#   From: 2010.05.17/outbox.cif.g08.bks.cpg/sg9_14_cif.got.tgz:27625.got - 2010.06.03 20:04:27.
