data_PCOD9140021
_publ_section_title
;
Structure prediction by ZEFSAII (Michael W. Deem and Ramdas Pophale) SiO2 
 PCOD9140021
Probable space group: C C
;
_chemical_formula_sum "Si O2"
_cell_formula_units_Z 28
_cell_length_a 9.438430
_cell_length_b 14.458972
_cell_length_c 10.440153
_cell_angle_alpha 90.000000
_cell_angle_beta 123.255700
_cell_angle_gamma 90.000000
_cell_volume 1191.435722
_symmetry_space_group_name_H-M "C C"
_symmetry_group_IT_number 9
_symmetry_cell_setting 'monoclinic'
loop_
_space_group_symop_operation_xyz
x,y,z
x,-y,1/2+z
1/2+x,1/2+y,z
1/2+x,1/2-y,1/2+z
loop_
_atom_site_type_symbol
_atom_site_label
_atom_site_fract_x
_atom_site_fract_y
_atom_site_fract_z
Si Si1 0.185120 0.083626 0.057180
Si Si2 0.289491 0.584581 0.573878
Si Si3 0.499479 0.823833 0.820302
Si Si4 0.673325 0.957728 0.283955
Si Si5 0.867337 0.794207 0.456969
Si Si6 0.810683 0.391208 0.094451
Si Si7 0.652743 0.672536 0.766156
O O1 0.357233 0.100635 0.223015
O O2 0.169846 0.974171 0.017240
O O3 0.206982 0.136371 0.932809
O O4 0.029551 0.135467 0.054568
O O5 0.225122 0.531422 0.415560
O O6 0.279012 0.533432 0.705001
O O7 0.476048 0.622212 0.644825
O O8 0.136648 0.658809 0.499467
O O9 0.391639 0.739071 0.823075
O O10 0.604295 0.781012 0.754260
O O11 0.709340 0.861631 0.374520
O O12 0.479177 0.949561 0.149126
O O13 0.825753 0.702025 0.516663
O O14 0.788231 0.353217 0.227067
#
# Coordination Sequence:
#
# PCOD9140021 Si02
#       7
#     4   4   4   4   4   4   4
#     4  11  24  47  75 107 153 201 248 321 388 470
#     4  12  25  48  75 107 153 203 250 319 397 464
#     4  11  22  45  75  96 150 197 243 310 395 460
#     4  12  26  47  73 110 151 202 257 314 391 473
#     4  11  24  47  74 105 154 200 250 311 397 455
#     4  12  27  45  74 114 143 197 261 319 385 478
#     4  11  26  43  72 113 144 194 259 316 393 462
#
# _framework density 23.501055999999998
#
# number of rings (size 3 to 8) (size 9 to 14) (size 15 to 20)
#    0.000    0.571    5.714    3.429    4.000    3.429 
#    2.571    0.000    0.000    0.000    0.000    0.000 
#    0.000    0.000    0.000    0.000    0.000    0.000 
#
# Total GULP energy -78034.604357 kJ/mol
# GULP energy per Si atom -5573.900311 kJ/mol
# Density = 2.344757 g / cm^3
# Si number density = 23.501056 Si / 1000 Ang^3
#
#
#
# Elastic Constant Matrix: (Units=GPa)
#
#
# Indices 1 2 3 4 5 6 
#
# 1 78.3670 14.1579 14.7657 0.0000 -9.0269 0.0000
# 2 14.1579 89.7920 3.1546 0.0000 -8.3852 0.0000
# 3 14.7657 3.1546 77.1257 0.0000 5.5941 0.0000
# 4 0.0000 0.0000 0.0000 41.5118 0.0000 -6.0596
# 5 -9.0269 -8.3852 5.5941 0.0000 38.5786 0.0000
# 6 0.0000 0.0000 0.0000 -6.0596 0.0000 28.7997
#
#
#
# Elastic Compliance Matrix: (Units=1/GPa)
#
#
# Indices 1 2 3 4 5 6 
#
# 1 0.014002 -0.001800 -0.002846 0.000000 0.003298 0.000000
# 2 -0.001800 0.011631 -0.000287 0.000000 0.002149 0.000000
# 3 -0.002846 -0.000287 0.013720 0.000000 -0.002718 0.000000
# 4 0.000000 0.000000 0.000000 0.024853 0.000000 0.005229
# 5 0.003298 0.002149 -0.002718 0.000000 0.027554 0.000000
# 6 0.000000 0.000000 0.000000 0.005229 0.000000 0.035823
#
#
# Mechanical properties :
#
#
# Convention : Reuss Voigt Hill
#
# Bulk Modulus (GPa) = 33.91355 34.38234 34.14794
# Shear Modulus (GPa) = 33.94959 35.99180 34.97069
#
# Velocity S-wave (km/s) = 3.80491 3.91768 3.86171
# Velocity P-wave (km/s) = 5.81078 5.92673 5.86904
#
# Compressibility (1/GPa) = 0.02948674
#
# Stress axis : x y z
#
# Youngs Moduli (GPa) = 71.41960 85.97450 72.88829
#
# Poissons Ratio (x) = 0.15473 0.20746
# Poissons Ratio (y) = 0.12854 0.02092
# Poissons Ratio (z) = 0.20328 0.02468
#
# Static dielectric constant tensor:
#      x y z
#    x 1.898880 0.000000 0.016000 
#    y 0.000000 2.055130 0.000000 
#    z 0.016000 0.000000 1.890250 
# 
# From -- ./inp_files/14790.got.cif
#   From: 2010.05.17/outbox.cif.g08.bks.cpg/sg9_8_cif.got.tgz:14790.got - 2010.06.03 20:04:27.
