data_PCOD9140166
_publ_section_title
;
Structure prediction by ZEFSAII (Michael W. Deem and Ramdas Pophale) SiO2 
 PCOD9140166
Probable space group: C C
;
_chemical_formula_sum "Si O2"
_cell_formula_units_Z 32
_cell_length_a 12.410366
_cell_length_b 18.862268
_cell_length_c 7.866516
_cell_angle_alpha 90.000000
_cell_angle_beta 39.852482
_cell_angle_gamma 90.000000
_cell_volume 1180.028122
_symmetry_space_group_name_H-M "C C"
_symmetry_group_IT_number 9
_symmetry_cell_setting 'monoclinic'
loop_
_space_group_symop_operation_xyz
x,y,z
x,-y,1/2+z
1/2+x,1/2+y,z
1/2+x,1/2-y,1/2+z
loop_
_atom_site_type_symbol
_atom_site_label
_atom_site_fract_x
_atom_site_fract_y
_atom_site_fract_z
Si Si1 0.505770 0.282733 0.991430
Si Si2 0.188278 0.658243 0.718455
Si Si3 0.192091 0.494276 0.060006
Si Si4 0.195654 0.899252 0.583020
Si Si5 0.128605 0.165871 0.702776
Si Si6 0.536866 0.904645 0.962315
Si Si7 0.769685 0.215898 0.247230
Si Si8 0.570376 0.466476 0.083550
O O1 0.511787 0.197730 0.968070
O O2 0.607991 0.324140 0.719412
O O3 0.323237 0.317165 0.194951
O O4 0.602098 0.301239 0.047277
O O5 0.189886 0.574884 0.687048
O O6 0.242224 0.697683 0.478512
O O7 0.165230 0.453885 0.915027
O O8 0.039610 0.548585 0.287934
O O9 0.367435 0.537125 0.838755
O O10 0.380621 0.896693 0.279730
O O11 0.099655 0.950579 0.571191
O O12 0.160068 0.938295 0.805387
O O13 0.256935 0.207004 0.671432
O O14 0.148088 0.082995 0.637373
O O15 0.947491 0.180713 0.000046
O O16 0.623024 0.829235 0.833089
#
# Coordination Sequence:
#
# PCOD9140166 Si02
#       8
#     4   4   4   4   4   4   4   4
#     4  11  25  44  70 101 142 187 241 298 359 430
#     4  11  25  43  73 102 140 190 243 297 362 424
#     4  11  23  44  73 102 138 189 240 290 356 429
#     4  11  25  43  68 105 142 183 235 295 358 423
#     4  11  25  46  71 102 142 189 241 300 361 426
#     4  11  25  44  69 105 143 183 234 298 358 421
#     4  11  25  46  68 104 141 187 242 296 361 428
#     4  11  23  46  72 101 140 186 240 290 357 431
#
# _framework density 27.117996000000002
#
# number of rings (size 3 to 8) (size 9 to 14) (size 15 to 20)
#    0.000    1.000    2.500    3.000    8.750    2.000 
#    4.500    0.000    0.000    0.000    0.000    0.000 
#    0.000    0.000    0.000    0.000    0.000    0.000 
#
# Total GULP energy -89522.194108 kJ/mol
# GULP energy per Si atom -5595.137132 kJ/mol
# Density = 2.705627 g / cm^3
# Si number density = 27.117996 Si / 1000 Ang^3
#
#
#
# Elastic Constant Matrix: (Units=GPa)
#
#
# Indices 1 2 3 4 5 6 
#
# 1 85.4962 32.7173 15.1294 0.0000 6.9370 0.0000
# 2 32.7173 149.1036 39.8891 0.0000 2.1084 0.0000
# 3 15.1294 39.8891 79.6371 0.0000 4.5528 0.0000
# 4 0.0000 0.0000 0.0000 35.8077 0.0000 6.6652
# 5 6.9370 2.1084 4.5528 0.0000 35.0274 0.0000
# 6 0.0000 0.0000 0.0000 6.6652 0.0000 49.0034
#
#
#
# Elastic Compliance Matrix: (Units=1/GPa)
#
#
# Indices 1 2 3 4 5 6 
#
# 1 0.013045 -0.002543 -0.001074 0.000000 -0.002291 0.000000
# 2 -0.002543 0.008240 -0.003672 0.000000 0.000485 0.000000
# 3 -0.001074 -0.003672 0.014685 0.000000 -0.001475 0.000000
# 4 0.000000 0.000000 0.000000 0.028652 0.000000 -0.003897
# 5 -0.002291 0.000485 -0.001475 0.000000 0.029165 0.000000
# 6 0.000000 0.000000 0.000000 -0.003897 0.000000 0.020937
#
#
# Mechanical properties :
#
#
# Convention : Reuss Voigt Hill
#
# Bulk Modulus (GPa) = 46.74435 54.41206 50.57820
# Shear Modulus (GPa) = 36.64804 39.06776 37.85790
#
# Velocity S-wave (km/s) = 3.68017 3.79972 3.74042
# Velocity P-wave (km/s) = 5.94415 6.27367 6.11113
#
# Compressibility (1/GPa) = 0.02139296
#
# Stress axis : x y z
#
# Youngs Moduli (GPa) = 76.65529 121.35573 68.09876
#
# Poissons Ratio (x) = 0.30859 0.07312
# Poissons Ratio (y) = 0.19493 0.25006
# Poissons Ratio (z) = 0.08230 0.44562
#
# Static dielectric constant tensor:
#      x y z
#    x 2.175140 0.000000 0.062160 
#    y 0.000000 2.083570 0.000000 
#    z 0.062160 0.000000 2.181640 
# 
# From -- ./inp_files/9931.got.cif
#   From: 2010.05.17/outbox.cif.g08.bks.cpg/sg9_5_cif.got.tgz:9931.got - 2010.06.03 20:04:27.
