data_PCOD9140611
_publ_section_title
;
Structure prediction by ZEFSAII (Michael W. Deem and Ramdas Pophale) SiO2 
 PCOD9140611
Probable space group: C C
;
_chemical_formula_sum "Si O2"
_cell_formula_units_Z 20
_cell_length_a 5.174610
_cell_length_b 19.049617
_cell_length_c 9.106125
_cell_angle_alpha 90.000000
_cell_angle_beta 119.942052
_cell_angle_gamma 90.000000
_cell_volume 777.824126
_symmetry_space_group_name_H-M "C C"
_symmetry_group_IT_number 9
_symmetry_cell_setting 'monoclinic'
loop_
_space_group_symop_operation_xyz
x,y,z
x,-y,1/2+z
1/2+x,1/2+y,z
1/2+x,1/2-y,1/2+z
loop_
_atom_site_type_symbol
_atom_site_label
_atom_site_fract_x
_atom_site_fract_y
_atom_site_fract_z
Si Si1 0.382650 0.967123 0.895900
Si Si2 0.874476 0.872783 0.605536
Si Si3 0.850763 0.714016 0.521618
Si Si4 0.189754 0.651713 0.343677
Si Si5 0.019956 0.417957 0.251720
O O1 0.668644 0.927639 0.901973
O O2 0.111697 0.917588 0.766092
O O3 0.311170 0.043207 0.811226
O O4 0.465194 0.963015 0.089693
O O5 0.937649 0.793218 0.577773
O O6 0.608187 0.859482 0.649640
O O7 0.808479 0.913932 0.437179
O O8 0.500495 0.694340 0.426330
O O9 0.971645 0.660880 0.681245
O O10 0.995175 0.693627 0.406782
#
# Coordination Sequence:
#
# PCOD9140611 Si02
#       5
#     4   4   4   4   4
#     4  11  27  50  76 121 159 216 269 336 395 493
#     4  12  26  50  82 116 163 215 270 331 407 477
#     4  11  27  50  80 119 160 212 265 336 399 484
#     4  11  24  51  76 112 162 199 273 322 397 475
#     4  11  26  49  80 116 162 210 271 329 408 471
#
# _framework density 25.712755000000001
#
# number of rings (size 3 to 8) (size 9 to 14) (size 15 to 20)
#    0.000    0.800    4.000    2.400    5.600    3.200 
#   14.400    0.000    0.000    0.000    0.000    0.000 
#    0.000    0.000    0.000    0.000    0.000    0.000 
#
# Total GULP energy -55753.302413 kJ/mol
# GULP energy per Si atom -5575.330241 kJ/mol
# Density = 2.565423 g / cm^3
# Si number density = 25.712755 Si / 1000 Ang^3
#
#
#
# Elastic Constant Matrix: (Units=GPa)
#
#
# Indices 1 2 3 4 5 6 
#
# 1 127.3003 35.4028 65.8278 0.0000 -9.5703 0.0000
# 2 35.4028 116.4425 50.9378 0.0000 -20.8252 0.0000
# 3 65.8278 50.9378 219.4758 0.0000 -32.7138 0.0000
# 4 0.0000 0.0000 0.0000 42.8061 0.0000 -8.1735
# 5 -9.5703 -20.8252 -32.7138 0.0000 33.9369 0.0000
# 6 0.0000 0.0000 0.0000 -8.1735 0.0000 31.8001
#
#
#
# Elastic Compliance Matrix: (Units=1/GPa)
#
#
# Indices 1 2 3 4 5 6 
#
# 1 0.009671 -0.001985 -0.002587 0.000000 -0.000984 0.000000
# 2 -0.001985 0.010550 -0.001135 0.000000 0.004820 0.000000
# 3 -0.002587 -0.001135 0.006286 0.000000 0.004634 0.000000
# 4 0.000000 0.000000 0.000000 0.024567 0.000000 0.006314
# 5 -0.000984 0.004820 0.004634 0.000000 0.036614 0.000000
# 6 0.000000 0.000000 0.000000 0.006314 0.000000 0.033069
#
#
# Mechanical properties :
#
#
# Convention : Reuss Voigt Hill
#
# Bulk Modulus (GPa) = 66.24861 85.28394 75.76628
# Shear Modulus (GPa) = 36.44287 42.44531 39.44409
#
# Velocity S-wave (km/s) = 3.76880 4.06735 3.92092
# Velocity P-wave (km/s) = 6.69024 7.43624 7.07308
#
# Compressibility (1/GPa) = 0.01509466
#
# Stress axis : x y z
#
# Youngs Moduli (GPa) = 103.40154 94.78807 159.07883
#
# Poissons Ratio (x) = 0.18814 0.41149
# Poissons Ratio (y) = 0.20523 0.18051
# Poissons Ratio (z) = 0.26747 0.10756
#
# Static dielectric constant tensor:
#      x y z
#    x 2.182080 0.000000 0.080920 
#    y 0.000000 2.068350 0.000000 
#    z 0.080920 0.000000 2.051750 
# 
# From -- ./inp_files/3781.got.cif
#   From: 2010.05.17/outbox.cif.g08.bks.cpg/sg9_2_cif.got.tgz:3781.got - 2010.06.03 20:04:27.
