data_PCOD9140690
_publ_section_title
;
Structure prediction by ZEFSAII (Michael W. Deem and Ramdas Pophale) SiO2 
 PCOD9140690
Probable space group: C C
;
_chemical_formula_sum "Si O2"
_cell_formula_units_Z 20
_cell_length_a 8.613069
_cell_length_b 9.938283
_cell_length_c 14.237277
_cell_angle_alpha 90.000000
_cell_angle_beta 137.647091
_cell_angle_gamma 90.000000
_cell_volume 821.031259
_symmetry_space_group_name_H-M "C C"
_symmetry_group_IT_number 9
_symmetry_cell_setting 'monoclinic'
loop_
_space_group_symop_operation_xyz
x,y,z
x,-y,1/2+z
1/2+x,1/2+y,z
1/2+x,1/2-y,1/2+z
loop_
_atom_site_type_symbol
_atom_site_label
_atom_site_fract_x
_atom_site_fract_y
_atom_site_fract_z
Si Si1 0.311410 0.020153 0.425720
Si Si2 0.575332 0.780274 0.626153
Si Si3 0.618856 0.499325 0.638980
Si Si4 0.887215 0.001945 0.859089
Si Si5 0.237751 0.709857 0.635427
O O1 0.141441 0.018010 0.260930
O O2 0.491244 0.142139 0.503840
O O3 0.148977 0.027207 0.443666
O O4 0.453055 0.879058 0.496994
O O5 0.712954 0.648190 0.654890
O O6 0.730701 0.878501 0.757220
O O7 0.386007 0.706028 0.606510
O O8 0.388499 0.482982 0.471856
O O9 0.750164 0.366741 0.663840
O O10 0.821473 0.128458 0.764672
#
# Coordination Sequence:
#
# PCOD9140690 Si02
#       5
#     4   4   4   4   4
#     4  11  25  47  70 108 145 186 245 291 359 430
#     4  11  25  50  70 102 150 190 236 297 358 426
#     4  12  24  42  76 102 138 196 232 298 358 416
#     4  11  25  47  70 108 145 186 245 291 359 430
#     4  11  25  50  70 102 150 190 236 297 358 426
#
# _framework density 24.35961
#
# number of rings (size 3 to 8) (size 9 to 14) (size 15 to 20)
#    0.000    0.800    4.000    2.400    0.000    1.600 
#    7.200    0.000    0.000    0.000    0.000    0.000 
#    0.000    0.000    0.000    0.000    0.000    0.000 
#
# Total GULP energy -55818.389462 kJ/mol
# GULP energy per Si atom -5581.838946 kJ/mol
# Density = 2.430417 g / cm^3
# Si number density = 24.359610 Si / 1000 Ang^3
#
#
#
# Elastic Constant Matrix: (Units=GPa)
#
#
# Indices 1 2 3 4 5 6 
#
# 1 41.8515 44.6945 43.3265 0.0000 -15.4372 0.0000
# 2 44.6945 142.5542 51.4155 0.0000 -2.7765 0.0000
# 3 43.3265 51.4155 128.0990 0.0000 -40.6538 0.0000
# 4 0.0000 0.0000 0.0000 44.1090 0.0000 -2.3350
# 5 -15.4372 -2.7765 -40.6538 0.0000 47.8724 0.0000
# 6 0.0000 0.0000 0.0000 -2.3350 0.0000 21.9420
#
#
#
# Elastic Compliance Matrix: (Units=1/GPa)
#
#
# Indices 1 2 3 4 5 6 
#
# 1 0.048979 -0.011737 -0.009663 0.000000 0.006907 0.000000
# 2 -0.011737 0.011383 -0.002178 0.000000 -0.004974 0.000000
# 3 -0.009663 -0.002178 0.014949 0.000000 0.009452 0.000000
# 4 0.000000 0.000000 0.000000 0.022800 0.000000 0.002426
# 5 0.006907 -0.004974 0.009452 0.000000 0.030855 0.000000
# 6 0.000000 0.000000 0.000000 0.002426 0.000000 0.045833
#
#
# Mechanical properties :
#
#
# Convention : Reuss Voigt Hill
#
# Bulk Modulus (GPa) = 35.51632 65.70863 50.61248
# Shear Modulus (GPa) = 21.61328 34.32256 27.96792
#
# Velocity S-wave (km/s) = 2.98192 3.75773 3.39208
# Velocity P-wave (km/s) = 5.14465 6.77203 6.01364
#
# Compressibility (1/GPa) = 0.02815607
#
# Stress axis : x y z
#
# Youngs Moduli (GPa) = 20.41673 87.84880 66.89517
#
# Poissons Ratio (x) = 1.03104 0.64643
# Poissons Ratio (y) = 0.23962 0.14568
# Poissons Ratio (z) = 0.19729 0.19132
#
# Static dielectric constant tensor:
#      x y z
#    x 1.957010 0.000000 -0.017620 
#    y 0.000000 1.969170 0.000000 
#    z -0.017620 0.000000 1.973140 
# 
# From -- ./inp_files/6657.got.cif
#   From: 2010.05.17/outbox.cif.g08.bks.cpg/sg9_4_cif.got.tgz:6657.got - 2010.06.03 20:04:27.
