data_PCOD9140796
_publ_section_title
;
Structure prediction by ZEFSAII (Michael W. Deem and Ramdas Pophale) SiO2 
 PCOD9140796
Probable space group: C C
;
_chemical_formula_sum "Si O2"
_cell_formula_units_Z 28
_cell_length_a 13.714153
_cell_length_b 12.314695
_cell_length_c 9.469458
_cell_angle_alpha 90.000000
_cell_angle_beta 135.489154
_cell_angle_gamma 90.000000
_cell_volume 1121.148695
_symmetry_space_group_name_H-M "C C"
_symmetry_group_IT_number 9
_symmetry_cell_setting 'monoclinic'
loop_
_space_group_symop_operation_xyz
x,y,z
x,-y,1/2+z
1/2+x,1/2+y,z
1/2+x,1/2-y,1/2+z
loop_
_atom_site_type_symbol
_atom_site_label
_atom_site_fract_x
_atom_site_fract_y
_atom_site_fract_z
Si Si1 0.497350 0.836131 0.659480
Si Si2 0.325620 0.272447 0.511473
Si Si3 0.790831 0.182811 0.303446
Si Si4 0.196463 0.068869 0.042363
Si Si5 0.129562 0.713296 0.563931
Si Si6 0.498996 0.484183 0.593422
Si Si7 0.453240 0.058084 0.501558
O O1 0.640817 0.822111 0.721158
O O2 0.373587 0.785132 0.446506
O O3 0.473805 0.963865 0.634215
O O4 0.505740 0.781477 0.821671
O O5 0.285914 0.295215 0.631277
O O6 0.185488 0.256750 0.275928
O O7 0.413470 0.379053 0.557148
O O8 0.409731 0.166214 0.544253
O O9 0.889280 0.081121 0.450588
O O10 0.220608 0.199155 0.069654
O O11 0.332926 0.025725 0.264938
O O12 0.069812 0.049584 0.020473
O O13 0.127476 0.021104 0.828733
O O14 0.097832 0.585712 0.568116
#
# Coordination Sequence:
#
# PCOD9140796 Si02
#       7
#     4   4   4   4   4   4   4
#     4  12  31  49  80 114 160 202 261 322 388 462
#     4  11  27  49  80 110 154 201 259 320 392 461
#     4  12  30  49  79 114 160 203 262 322 392 457
#     4  11  26  44  77 110 150 203 252 314 383 467
#     4  11  26  48  75 107 150 200 258 308 389 457
#     4  12  24  48  76 110 151 203 256 316 391 457
#     4  11  28  47  79 113 157 200 260 320 389 459
#
# _framework density 24.974385999999999
#
# number of rings (size 3 to 8) (size 9 to 14) (size 15 to 20)
#    0.000    0.571    4.286    0.857   14.000    3.429 
#    0.000    0.000    0.000    0.000    0.000    0.000 
#    0.000    0.000    0.000    0.000    0.000    0.000 
#
# Total GULP energy -77956.482992 kJ/mol
# GULP energy per Si atom -5568.320214 kJ/mol
# Density = 2.491754 g / cm^3
# Si number density = 24.974386 Si / 1000 Ang^3
#
#
#
# Elastic Constant Matrix: (Units=GPa)
#
#
# Indices 1 2 3 4 5 6 
#
# 1 126.5029 45.6045 58.9100 0.0000 3.0326 0.0000
# 2 45.6045 126.0185 49.3222 0.0000 -6.9398 0.0000
# 3 58.9100 49.3222 136.5144 0.0000 -26.7183 0.0000
# 4 0.0000 0.0000 0.0000 44.8462 0.0000 2.5611
# 5 3.0326 -6.9398 -26.7183 0.0000 44.1376 0.0000
# 6 0.0000 0.0000 0.0000 2.5611 0.0000 20.8976
#
#
#
# Elastic Compliance Matrix: (Units=1/GPa)
#
#
# Indices 1 2 3 4 5 6 
#
# 1 0.011037 -0.002381 -0.004678 0.000000 -0.003965 0.000000
# 2 -0.002381 0.009772 -0.002462 0.000000 0.000210 0.000000
# 3 -0.004678 -0.002462 0.011594 0.000000 0.006953 0.000000
# 4 0.000000 0.000000 0.000000 0.022456 0.000000 -0.002752
# 5 -0.003965 0.000210 0.006953 0.000000 0.027171 0.000000
# 6 0.000000 0.000000 0.000000 -0.002752 0.000000 0.048190
#
#
# Mechanical properties :
#
#
# Convention : Reuss Voigt Hill
#
# Bulk Modulus (GPa) = 74.84936 77.41214 76.13075
# Shear Modulus (GPa) = 32.52729 37.65622 35.09176
#
# Velocity S-wave (km/s) = 3.61283 3.88724 3.75255
# Velocity P-wave (km/s) = 6.88759 7.15622 7.02319
#
# Compressibility (1/GPa) = 0.01336017
#
# Stress axis : x y z
#
# Youngs Moduli (GPa) = 90.60280 102.32998 86.24834
#
# Poissons Ratio (x) = 0.24370 0.40351
# Poissons Ratio (y) = 0.21577 0.21234
# Poissons Ratio (z) = 0.42388 0.25193
#
# Static dielectric constant tensor:
#      x y z
#    x 2.111000 0.000000 0.001330 
#    y 0.000000 2.016080 0.000000 
#    z 0.001330 0.000000 1.893720 
# 
# From -- ./inp_files/9739.got.cif
#   From: 2010.05.17/outbox.cif.g08.bks.cpg/sg9_5_cif.got.tgz:9739.got - 2010.06.03 20:04:27.
