data_PCOD9140795
_publ_section_title
;
Structure prediction by ZEFSAII (Michael W. Deem and Ramdas Pophale) SiO2 
 PCOD9140795
Probable space group: C C
;
_chemical_formula_sum "Si O2"
_cell_formula_units_Z 24
_cell_length_a 22.333897
_cell_length_b 5.000679
_cell_length_c 9.222577
_cell_angle_alpha 90.000000
_cell_angle_beta 114.389763
_cell_angle_gamma 90.000000
_cell_volume 938.098651
_symmetry_space_group_name_H-M "C C"
_symmetry_group_IT_number 9
_symmetry_cell_setting 'monoclinic'
loop_
_space_group_symop_operation_xyz
x,y,z
x,-y,1/2+z
1/2+x,1/2+y,z
1/2+x,1/2-y,1/2+z
loop_
_atom_site_type_symbol
_atom_site_label
_atom_site_fract_x
_atom_site_fract_y
_atom_site_fract_z
Si Si1 0.713830 0.022496 0.381640
Si Si2 0.505880 0.504565 0.066110
Si Si3 0.123087 0.677479 0.539209
Si Si4 0.297929 0.022495 0.965738
Si Si5 0.005880 0.656512 0.844420
Si Si6 0.388672 0.177478 0.304794
O O1 0.683472 0.191487 0.486605
O O2 0.755880 0.750001 0.456265
O O3 0.656652 0.940146 0.214859
O O4 0.755879 0.250001 0.343102
O O5 0.505880 0.604201 0.228607
O O6 0.572907 0.598940 0.051347
O O7 0.505880 0.197552 0.021356
O O8 0.438853 0.598941 0.917293
O O9 0.072989 0.498460 0.396064
O O10 0.355107 0.940146 0.913313
O O11 0.328288 0.191487 0.131420
O O12 0.938770 0.501541 0.761846
#
# Coordination Sequence:
#
# PCOD9140795 Si02
#       6
#     4   4   4   4   4   4
#     4  12  28  47  74 105 148 200 242 298 362 442
#     4  11  26  44  75 105 143 193 242 319 370 433
#     4  11  26  46  70 106 146 185 254 296 374 433
#     4  12  28  47  74 105 148 200 242 298 362 442
#     4  11  26  44  75 105 143 193 242 319 370 433
#     4  11  26  46  70 106 146 185 254 296 374 433
#
# _framework density 25.583662
#
# number of rings (size 3 to 8) (size 9 to 14) (size 15 to 20)
#    0.000    0.667    3.333    2.000   14.000    0.000 
#    0.000    0.000    0.000    0.000    0.000    0.000 
#    0.000    0.000    0.000    0.000    0.000    0.000 
#
# Total GULP energy -66896.113173 kJ/mol
# GULP energy per Si atom -5574.676098 kJ/mol
# Density = 2.552543 g / cm^3
# Si number density = 25.583662 Si / 1000 Ang^3
#
#
#
# Elastic Constant Matrix: (Units=GPa)
#
#
# Indices 1 2 3 4 5 6 
#
# 1 129.9110 21.2046 36.6691 0.0000 20.9675 0.0000
# 2 21.2046 55.7051 -2.8818 0.0000 10.8965 0.0000
# 3 36.6691 -2.8818 90.4699 0.0000 -3.1266 0.0000
# 4 0.0000 0.0000 0.0000 25.0264 0.0000 -14.5797
# 5 20.9675 10.8965 -3.1266 0.0000 34.3452 0.0000
# 6 0.0000 0.0000 0.0000 -14.5797 0.0000 -7.2014
#
#
#
# Elastic Compliance Matrix: (Units=1/GPa)
#
#
# Indices 1 2 3 4 5 6 
#
# 1 0.010407 -0.003062 -0.004516 0.000000 -0.005793 0.000000
# 2 -0.003062 0.020055 0.001730 0.000000 -0.004336 0.000000
# 3 -0.004516 0.001730 0.013056 0.000000 0.003397 0.000000
# 4 0.000000 0.000000 0.000000 0.018334 0.000000 -0.037118
# 5 -0.005793 -0.004336 0.003397 0.000000 0.034338 0.000000
# 6 0.000000 0.000000 0.000000 -0.037118 0.000000 -0.063714
#
#
# Mechanical properties :
#
#
# Convention : Reuss Voigt Hill
#
# Bulk Modulus (GPa) = 31.42424 42.89665 37.16045
# Shear Modulus (GPa) = 91.27582 25.17365 58.22474
#
# Velocity S-wave (km/s) = 5.97953 3.14024 4.77577
# Velocity P-wave (km/s) = 7.74485 5.47282 6.70576
#
# Compressibility (1/GPa) = 0.03182257
#
# Stress axis : x y z
#
# Youngs Moduli (GPa) = 96.08891 49.86319 76.59159
#
# Poissons Ratio (x) = 0.15268 0.34588
# Poissons Ratio (y) = 0.29422 -0.13251
# Poissons Ratio (z) = 0.43393 -0.08627
#
# Static dielectric constant tensor:
#      x y z
#    x 2.122520 0.000000 0.070210 
#    y 0.000000 2.208660 0.000000 
#    z 0.070210 0.000000 1.967330 
# 
# From -- ./inp_files/11090.got.cif
#   From: 2010.05.17/outbox.cif.g08.bks.cpg/sg9_6_cif.got.tgz:11090.got - 2010.06.03 20:04:27.
