data_PCOD9140016
_publ_section_title
;
Structure prediction by ZEFSAII (Michael W. Deem and Ramdas Pophale) SiO2 
 PCOD9140016
Probable space group: C C
;
_chemical_formula_sum "Si O2"
_cell_formula_units_Z 28
_cell_length_a 9.752281
_cell_length_b 16.243053
_cell_length_c 8.387011
_cell_angle_alpha 90.000000
_cell_angle_beta 61.251244
_cell_angle_gamma 90.000000
_cell_volume 1164.797725
_symmetry_space_group_name_H-M "C C"
_symmetry_group_IT_number 9
_symmetry_cell_setting 'monoclinic'
loop_
_space_group_symop_operation_xyz
x,y,z
x,-y,1/2+z
1/2+x,1/2+y,z
1/2+x,1/2-y,1/2+z
loop_
_atom_site_type_symbol
_atom_site_label
_atom_site_fract_x
_atom_site_fract_y
_atom_site_fract_z
Si Si1 0.443540 0.831989 0.778550
Si Si2 0.939034 0.415522 0.356499
Si Si3 0.548975 0.319766 0.429983
Si Si4 0.810749 0.737792 0.034705
Si Si5 0.752433 0.085241 0.172469
Si Si6 0.258808 0.575387 0.543491
Si Si7 0.273072 0.943464 0.125948
O O1 0.521321 0.756414 0.828429
O O2 0.336648 0.796989 0.697402
O O3 0.596175 0.889778 0.660540
O O4 0.331831 0.885785 0.951598
O O5 0.941403 0.317269 0.374351
O O6 0.889350 0.436963 0.207456
O O7 0.811934 0.463908 0.537440
O O8 0.119760 0.437667 0.250823
O O9 0.661155 0.290258 0.512572
O O10 0.379935 0.342612 0.592253
O O11 0.623962 0.396309 0.287486
O O12 0.831478 0.835209 0.028068
O O13 0.715335 0.075210 0.381019
O O14 0.844816 0.008359 0.040720
#
# Coordination Sequence:
#
# PCOD9140016 Si02
#       7
#     4   4   4   4   4   4   4
#     4  12  24  49  80 113 150 213 260 309 391 475
#     4  11  22  45  74 109 146 206 256 311 378 475
#     4  11  27  51  72 117 158 196 255 339 380 452
#     4  11  28  46  80 110 156 201 264 316 393 460
#     4  12  28  48  79 110 161 196 259 326 386 457
#     4  12  26  48  77 112 150 206 256 321 388 459
#     4  11  23  45  76 105 155 200 254 308 384 464
#
# _framework density 24.038509000000001
#
# number of rings (size 3 to 8) (size 9 to 14) (size 15 to 20)
#    0.000    0.571    4.286    1.714    8.000    3.429 
#    0.000    0.000    0.000    0.000    0.000    0.000 
#    0.000    0.000    0.000    0.000    0.000    0.000 
#
# Total GULP energy -78059.713361 kJ/mol
# GULP energy per Si atom -5575.693812 kJ/mol
# Density = 2.398380 g / cm^3
# Si number density = 24.038509 Si / 1000 Ang^3
#
#
#
# Elastic Constant Matrix: (Units=GPa)
#
#
# Indices 1 2 3 4 5 6 
#
# 1 54.0752 32.1701 36.2753 0.0000 9.1084 0.0000
# 2 32.1701 170.8866 47.3327 0.0000 6.8313 0.0000
# 3 36.2753 47.3327 88.2536 0.0000 5.1916 0.0000
# 4 0.0000 0.0000 0.0000 28.9336 0.0000 9.1607
# 5 9.1084 6.8313 5.1916 0.0000 41.5604 0.0000
# 6 0.0000 0.0000 0.0000 9.1607 0.0000 33.7329
#
#
#
# Elastic Compliance Matrix: (Units=1/GPa)
#
#
# Indices 1 2 3 4 5 6 
#
# 1 0.027036 -0.002242 -0.009654 0.000000 -0.004351 0.000000
# 2 -0.002242 0.007077 -0.002856 0.000000 -0.000315 0.000000
# 3 -0.009654 -0.002856 0.016802 0.000000 0.000486 0.000000
# 4 0.000000 0.000000 0.000000 0.037813 0.000000 -0.010269
# 5 -0.004351 -0.000315 0.000486 0.000000 0.025006 0.000000
# 6 0.000000 0.000000 0.000000 -0.010269 0.000000 0.032433
#
#
# Mechanical properties :
#
#
# Convention : Reuss Voigt Hill
#
# Bulk Modulus (GPa) = 46.70353 60.53016 53.61685
# Shear Modulus (GPa) = 27.35100 34.00788 30.67944
#
# Velocity S-wave (km/s) = 3.37679 3.76536 3.57636
# Velocity P-wave (km/s) = 5.88850 6.64373 6.27748
#
# Compressibility (1/GPa) = 0.02141166
#
# Stress axis : x y z
#
# Youngs Moduli (GPa) = 36.98828 141.29357 59.51535
#
# Poissons Ratio (x) = 0.31671 0.57459
# Poissons Ratio (y) = 0.08291 0.16997
# Poissons Ratio (z) = 0.35710 0.40353
#
# Static dielectric constant tensor:
#      x y z
#    x 1.880780 0.000000 -0.004880 
#    y 0.000000 2.179370 0.000000 
#    z -0.004880 0.000000 1.945620 
# 
# From -- ./inp_files/7336.got.cif
#   From: 2010.05.17/outbox.cif.g08.bks.cpg/sg9_4_cif.got.tgz:7336.got - 2010.06.03 20:04:27.
