data_PCOD9140521
_publ_section_title
;
Structure prediction by ZEFSAII (Michael W. Deem and Ramdas Pophale) SiO2 
 PCOD9140521
Probable space group: C C
;
_chemical_formula_sum "Si O2"
_cell_formula_units_Z 32
_cell_length_a 21.022671
_cell_length_b 14.649006
_cell_length_c 8.274382
_cell_angle_alpha 90.000000
_cell_angle_beta 31.101301
_cell_angle_gamma 90.000000
_cell_volume 1316.274033
_symmetry_space_group_name_H-M "C C"
_symmetry_group_IT_number 9
_symmetry_cell_setting 'monoclinic'
loop_
_space_group_symop_operation_xyz
x,y,z
x,-y,1/2+z
1/2+x,1/2+y,z
1/2+x,1/2-y,1/2+z
loop_
_atom_site_type_symbol
_atom_site_label
_atom_site_fract_x
_atom_site_fract_y
_atom_site_fract_z
Si Si1 0.154280 0.712249 0.394960
Si Si2 0.484587 0.114664 0.282473
Si Si3 0.710735 0.982677 0.845669
Si Si4 0.866602 0.081163 0.284708
Si Si5 0.634576 0.717872 0.304860
Si Si6 0.900165 0.712538 0.780246
Si Si7 0.104838 0.032544 0.207403
Si Si8 0.745400 0.603250 0.598057
O O1 0.209653 0.611910 0.247835
O O2 0.168577 0.743955 0.550524
O O3 0.218875 0.788511 0.142625
O O4 0.009066 0.705211 0.671819
O O5 0.422604 0.141943 0.586778
O O6 0.379592 0.089113 0.382308
O O7 0.550460 0.206611 0.071976
O O8 0.583611 0.036045 0.102293
O O9 0.745418 0.945426 0.946387
O O10 0.820615 0.050749 0.559850
O O11 0.905077 0.185449 0.197768
O O12 0.981793 0.024817 0.974755
O O13 0.585645 0.616902 0.373057
O O14 0.758634 0.704416 0.139096
O O15 0.214758 0.963990 0.019450
O O16 0.142925 0.073665 0.953538
#
# Coordination Sequence:
#
# PCOD9140521 Si02
#       8
#     4   4   4   4   4   4   4   4
#     4  11  24  47  70  99 141 183 231 287 347 413
#     4  12  26  46  71 100 145 181 227 286 352 412
#     4  12  25  44  72 105 134 186 231 285 350 407
#     4  12  25  44  71 101 139 176 243 286 335 418
#     4  11  26  47  68 102 141 182 230 286 349 413
#     4  12  24  49  68 100 145 180 227 292 340 419
#     4  11  25  43  71  98 137 184 228 285 348 407
#     4  11  25  46  65 103 138 182 229 285 347 413
#
# _framework density 24.311048
#
# number of rings (size 3 to 8) (size 9 to 14) (size 15 to 20)
#    0.000    0.500    6.250    1.500    8.750    2.000 
#    2.250    0.000    0.000    0.000    0.000    0.000 
#    0.000    0.000    0.000    0.000    0.000    0.000 
#
# Total GULP energy -89578.100145 kJ/mol
# GULP energy per Si atom -5598.631259 kJ/mol
# Density = 2.425571 g / cm^3
# Si number density = 24.311048 Si / 1000 Ang^3
#
#
#
# Elastic Constant Matrix: (Units=GPa)
#
#
# Indices 1 2 3 4 5 6 
#
# 1 74.1117 8.5379 -5.8262 0.0000 -18.5965 0.0000
# 2 8.5379 143.5934 5.6608 0.0000 -3.6105 0.0000
# 3 -5.8262 5.6608 42.2210 0.0000 -10.4610 0.0000
# 4 0.0000 0.0000 0.0000 21.7545 0.0000 -5.7196
# 5 -18.5965 -3.6105 -10.4610 0.0000 28.7668 0.0000
# 6 0.0000 0.0000 0.0000 -5.7196 0.0000 27.1206
#
#
#
# Elastic Compliance Matrix: (Units=1/GPa)
#
#
# Indices 1 2 3 4 5 6 
#
# 1 0.017374 -0.000929 0.005798 0.000000 0.013224 0.000000
# 2 -0.000929 0.007060 -0.001103 0.000000 -0.000116 0.000000
# 3 0.005798 -0.001103 0.028055 0.000000 0.013812 0.000000
# 4 0.000000 0.000000 0.000000 0.048666 0.000000 0.010263
# 5 0.013224 -0.000116 0.013812 0.000000 0.048319 0.000000
# 6 0.000000 0.000000 0.000000 0.010263 0.000000 0.039037
#
#
# Mechanical properties :
#
#
# Convention : Reuss Voigt Hill
#
# Bulk Modulus (GPa) = 16.66081 30.74123 23.70102
# Shear Modulus (GPa) = 24.87729 32.29862 28.58795
#
# Velocity S-wave (km/s) = 3.20236 3.64889 3.43290
# Velocity P-wave (km/s) = 4.53228 5.51588 5.04810
#
# Compressibility (1/GPa) = 0.06002111
#
# Stress axis : x y z
#
# Youngs Moduli (GPa) = 57.55661 141.64422 35.64399
#
# Poissons Ratio (x) = 0.13161 -0.20668
# Poissons Ratio (y) = 0.05348 0.03933
# Poissons Ratio (z) = -0.33374 0.15630
#
# Static dielectric constant tensor:
#      x y z
#    x 1.961730 0.000000 0.023790 
#    y 0.000000 1.938510 0.000000 
#    z 0.023790 0.000000 1.908000 
# 
# From -- ./inp_files/11767.got.cif
#   From: 2010.05.17/outbox.cif.g08.bks.cpg/sg9_6_cif.got.tgz:11767.got - 2010.06.03 20:04:27.
