data_PCOD9140279
_publ_section_title
;
Structure prediction by ZEFSAII (Michael W. Deem and Ramdas Pophale) SiO2 
 PCOD9140279
Probable space group: C C
;
_chemical_formula_sum "Si O2"
_cell_formula_units_Z 24
_cell_length_a 10.246582
_cell_length_b 11.922877
_cell_length_c 7.974159
_cell_angle_alpha 90.000000
_cell_angle_beta 96.081581
_cell_angle_gamma 90.000000
_cell_volume 968.710227
_symmetry_space_group_name_H-M "C C"
_symmetry_group_IT_number 9
_symmetry_cell_setting 'monoclinic'
loop_
_space_group_symop_operation_xyz
x,y,z
x,-y,1/2+z
1/2+x,1/2+y,z
1/2+x,1/2-y,1/2+z
loop_
_atom_site_type_symbol
_atom_site_label
_atom_site_fract_x
_atom_site_fract_y
_atom_site_fract_z
Si Si1 0.642900 0.131128 0.956550
Si Si2 0.669916 0.598868 0.017258
Si Si3 0.321880 0.699229 0.474564
Si Si4 0.409891 0.300770 0.604539
Si Si5 0.061854 0.401133 0.061843
Si Si6 0.088870 0.868873 0.122550
O O1 0.606510 0.124156 0.757607
O O2 0.800088 0.124086 0.000141
O O3 0.615884 0.250001 0.039548
O O4 0.559247 0.033227 0.033263
O O5 0.794389 0.680147 0.058310
O O6 0.625261 0.624158 0.821493
O O7 0.550767 0.639405 0.118697
O O8 0.672524 0.466774 0.045838
O O9 0.365885 0.716135 0.289551
O O10 0.181004 0.639404 0.460405
O O11 0.431682 0.624084 0.578960
O O12 0.437381 0.180146 0.520792
#
# Coordination Sequence:
#
# PCOD9140279 Si02
#       6
#     4   4   4   4   4   4
#     4  12  25  46  73 104 148 190 237 300 366 429
#     4  11  26  45  75 107 141 192 248 295 366 437
#     4  11  23  47  73 105 143 188 244 299 361 431
#     4  11  23  47  73 105 143 188 244 299 361 431
#     4  11  26  45  75 107 141 192 248 295 366 437
#     4  12  25  46  73 104 148 190 237 300 366 429
#
# _framework density 24.775212
#
# number of rings (size 3 to 8) (size 9 to 14) (size 15 to 20)
#    0.000    0.667    3.333    4.000    4.667    1.333 
#    0.000    0.000    0.000    0.000    0.000    0.000 
#    0.000    0.000    0.000    0.000    0.000    0.000 
#
# Total GULP energy -67195.219571 kJ/mol
# GULP energy per Si atom -5599.601631 kJ/mol
# Density = 2.471882 g / cm^3
# Si number density = 24.775212 Si / 1000 Ang^3
#
#
#
# Elastic Constant Matrix: (Units=GPa)
#
#
# Indices 1 2 3 4 5 6 
#
# 1 48.9152 -0.0068 17.0367 0.0000 -10.5674 0.0000
# 2 -0.0068 161.8656 12.7671 0.0000 -19.0800 0.0000
# 3 17.0367 12.7671 68.4268 0.0000 -26.1003 0.0000
# 4 0.0000 0.0000 0.0000 39.1240 0.0000 -14.6689
# 5 -10.5674 -19.0800 -26.1003 0.0000 37.4749 0.0000
# 6 0.0000 0.0000 0.0000 -14.6689 0.0000 41.5123
#
#
#
# Elastic Compliance Matrix: (Units=1/GPa)
#
#
# Indices 1 2 3 4 5 6 
#
# 1 0.022785 0.000792 -0.004380 0.000000 0.003778 0.000000
# 2 0.000792 0.006600 -0.000084 0.000000 0.003525 0.000000
# 3 -0.004380 -0.000084 0.020744 0.000000 0.013170 0.000000
# 4 0.000000 0.000000 0.000000 0.029463 0.000000 0.010411
# 5 0.003778 0.003525 0.013170 0.000000 0.038717 0.000000
# 6 0.000000 0.000000 0.000000 0.010411 0.000000 0.027768
#
#
# Mechanical properties :
#
#
# Convention : Reuss Voigt Hill
#
# Bulk Modulus (GPa) = 23.37260 37.64459 30.50860
# Shear Modulus (GPa) = 29.81816 40.24962 35.03389
#
# Velocity S-wave (km/s) = 3.47298 4.03500 3.76449
# Velocity P-wave (km/s) = 5.05336 6.07747 5.58893
#
# Compressibility (1/GPa) = 0.04278514
#
# Stress axis : x y z
#
# Youngs Moduli (GPa) = 43.88811 151.51162 48.20757
#
# Poissons Ratio (x) = -0.11996 0.21114
# Poissons Ratio (y) = -0.03475 0.00405
# Poissons Ratio (z) = 0.19222 0.01272
#
# Static dielectric constant tensor:
#      x y z
#    x 2.081460 0.000000 0.035660 
#    y 0.000000 2.060100 0.000000 
#    z 0.035660 0.000000 1.897830 
# 
# From -- ./inp_files/6952.got.cif
#   From: 2010.05.17/outbox.cif.g08.bks.cpg/sg9_4_cif.got.tgz:6952.got - 2010.06.03 20:04:27.
