data_PCOD9140068
_publ_section_title
;
Structure prediction by ZEFSAII (Michael W. Deem and Ramdas Pophale) SiO2 
 PCOD9140068
Probable space group: C C
;
_chemical_formula_sum "Si O2"
_cell_formula_units_Z 32
_cell_length_a 11.091158
_cell_length_b 8.510641
_cell_length_c 19.472930
_cell_angle_alpha 90.000000
_cell_angle_beta 133.618436
_cell_angle_gamma 90.000000
_cell_volume 1330.696437
_symmetry_space_group_name_H-M "C C"
_symmetry_group_IT_number 9
_symmetry_cell_setting 'monoclinic'
loop_
_space_group_symop_operation_xyz
x,y,z
x,-y,1/2+z
1/2+x,1/2+y,z
1/2+x,1/2-y,1/2+z
loop_
_atom_site_type_symbol
_atom_site_label
_atom_site_fract_x
_atom_site_fract_y
_atom_site_fract_z
Si Si1 0.490760 0.423883 0.091270
Si Si2 0.510553 0.776401 0.088410
Si Si3 0.157283 0.391261 0.628700
Si Si4 0.636220 0.286762 0.912340
Si Si5 0.295679 0.400434 0.836002
Si Si6 0.130222 0.576410 0.406721
Si Si7 0.332679 0.713448 0.797875
Si Si8 0.501802 0.501478 0.746386
O O1 0.524789 0.593334 0.068677
O O2 0.561128 0.271355 0.080444
O O3 0.559892 0.433143 0.196425
O O4 0.290556 0.403969 0.018282
O O5 0.640933 0.762282 0.202869
O O6 0.570228 0.941543 0.076617
O O7 0.313535 0.802224 0.019021
O O8 0.190519 0.392702 0.724379
O O9 0.341177 0.389897 0.668706
O O10 0.473823 0.324862 0.893179
O O11 0.627517 0.403173 0.843289
O O12 0.609332 0.106155 0.883126
O O13 0.194653 0.344531 0.861423
O O14 0.337285 0.585291 0.858900
O O15 0.955821 0.645574 0.362282
O O16 0.416844 0.630835 0.763415
#
# Coordination Sequence:
#
# PCOD9140068 Si02
#       8
#     4   4   4   4   4   4   4   4
#     4  11  23  38  62  98 122 167 220 259 331 394
#     4   9  21  40  62  95 130 161 219 270 318 397
#     4   9  21  41  61  88 128 165 211 269 329 378
#     4   9  21  40  65  94 129 167 220 269 327 389
#     4   9  21  42  62  92 125 171 216 263 333 388
#     4  11  23  40  64  99 126 169 226 260 330 405
#     4   9  21  42  63  91 129 166 218 269 326 389
#     4   9  21  41  61  89 127 166 216 265 326 388
#
# _framework density 24.047556
#
# number of rings (size 3 to 8) (size 9 to 14) (size 15 to 20)
#    0.000    3.000    0.000    0.750   10.500    2.000 
#    9.000    5.000    0.000    0.000    0.000    0.000 
#    0.000    0.000    0.000    0.000    0.000    0.000 
#
# Total GULP energy -89222.898664 kJ/mol
# GULP energy per Si atom -5576.431167 kJ/mol
# Density = 2.399282 g / cm^3
# Si number density = 24.047556 Si / 1000 Ang^3
#
#
#
# Elastic Constant Matrix: (Units=GPa)
#
#
# Indices 1 2 3 4 5 6 
#
# 1 66.8107 45.4765 35.3232 0.0000 12.8518 0.0000
# 2 45.4765 134.3184 42.5391 0.0000 24.7632 0.0000
# 3 35.3232 42.5391 113.0416 0.0000 10.0320 0.0000
# 4 0.0000 0.0000 0.0000 33.0368 0.0000 21.8120
# 5 12.8518 24.7632 10.0320 0.0000 46.6333 0.0000
# 6 0.0000 0.0000 0.0000 21.8120 0.0000 21.0298
#
#
#
# Elastic Compliance Matrix: (Units=1/GPa)
#
#
# Indices 1 2 3 4 5 6 
#
# 1 0.021443 -0.005470 -0.004460 0.000000 -0.002045 0.000000
# 2 -0.005470 0.010597 -0.001950 0.000000 -0.003700 0.000000
# 3 -0.004460 -0.001950 0.010983 0.000000 -0.000098 0.000000
# 4 0.000000 0.000000 0.000000 0.096029 0.000000 -0.099600
# 5 -0.002045 -0.003700 -0.000098 0.000000 0.023993 0.000000
# 6 0.000000 0.000000 0.000000 -0.099600 0.000000 0.150856
#
#
# Mechanical properties :
#
#
# Convention : Reuss Voigt Hill
#
# Bulk Modulus (GPa) = 51.91888 62.31649 57.11769
# Shear Modulus (GPa) = 14.53142 32.86211 23.69676
#
# Velocity S-wave (km/s) = 2.46087 3.70069 3.14253
# Velocity P-wave (km/s) = 5.45082 6.65059 6.08037
#
# Compressibility (1/GPa) = 0.01926082
#
# Stress axis : x y z
#
# Youngs Moduli (GPa) = 46.63575 94.36811 91.05326
#
# Poissons Ratio (x) = 0.51622 0.40613
# Poissons Ratio (y) = 0.25511 0.17755
# Poissons Ratio (z) = 0.20801 0.18402
#
# Static dielectric constant tensor:
#      x y z
#    x 1.975010 0.000000 -0.033330 
#    y 0.000000 1.988840 0.000000 
#    z -0.033330 0.000000 1.923990 
# 
# From -- ./inp_files/29886.got.cif
#   From: 2010.05.17/outbox.cif.g08.bks.cpg/sg9_15_cif.got.tgz:29886.got - 2010.06.03 20:04:27.
