data_PCOD9140656
_publ_section_title
;
Structure prediction by ZEFSAII (Michael W. Deem and Ramdas Pophale) SiO2 
 PCOD9140656
Probable space group: C C
;
_chemical_formula_sum "Si O2"
_cell_formula_units_Z 28
_cell_length_a 13.674959
_cell_length_b 4.801244
_cell_length_c 16.821352
_cell_angle_alpha 90.000000
_cell_angle_beta 107.743022
_cell_angle_gamma 90.000000
_cell_volume 1051.901581
_symmetry_space_group_name_H-M "C C"
_symmetry_group_IT_number 9
_symmetry_cell_setting 'monoclinic'
loop_
_space_group_symop_operation_xyz
x,y,z
x,-y,1/2+z
1/2+x,1/2+y,z
1/2+x,1/2-y,1/2+z
loop_
_atom_site_type_symbol
_atom_site_label
_atom_site_fract_x
_atom_site_fract_y
_atom_site_fract_z
Si Si1 0.163390 0.573587 0.995570
Si Si2 0.484078 0.509253 0.992214
Si Si3 0.456148 0.983192 0.597802
Si Si4 0.633786 0.293339 0.730102
Si Si5 0.825649 0.084868 0.326418
Si Si6 0.772824 0.678572 0.657051
Si Si7 0.186430 0.044588 0.896190
O O1 0.148004 0.280094 0.949040
O O2 0.225478 0.763562 0.947846
O O3 0.220687 0.571452 0.093993
O O4 0.072021 0.795326 0.984432
O O5 0.487928 0.812644 0.032791
O O6 0.448102 0.326142 0.060197
O O7 0.417155 0.547996 0.896693
O O8 0.545289 0.081081 0.681305
O O9 0.347394 0.031102 0.613302
O O10 0.679241 0.499947 0.672969
O O11 0.609456 0.467336 0.804628
O O12 0.732269 0.115929 0.780841
O O13 0.845405 0.227366 0.246928
O O14 0.781926 0.315162 0.375640
#
# Coordination Sequence:
#
# PCOD9140656 Si02
#       7
#     4   4   4   4   4   4   4
#     4  12  24  48  75 108 148 201 248 315 382 463
#     4  12  28  49  72 112 150 198 259 313 384 464
#     4  12  28  51  77 108 154 204 255 317 388 462
#     4  11  26  52  76 115 155 203 257 327 381 472
#     4  11  26  48  73 110 153 194 254 323 379 463
#     4  11  27  45  78 111 151 202 257 314 393 453
#     4  11  25  45  75 104 149 194 248 309 387 443
#
# _framework density 26.618458
#
# number of rings (size 3 to 8) (size 9 to 14) (size 15 to 20)
#    0.000    0.571    2.857    3.429   12.000    0.000 
#    2.571    0.000    0.000    0.000    0.000    0.000 
#    0.000    0.000    0.000    0.000    0.000    0.000 
#
# Total GULP energy -78326.401121 kJ/mol
# GULP energy per Si atom -5594.742937 kJ/mol
# Density = 2.655787 g / cm^3
# Si number density = 26.618458 Si / 1000 Ang^3
#
#
#
# Elastic Constant Matrix: (Units=GPa)
#
#
# Indices 1 2 3 4 5 6 
#
# 1 60.4029 9.2579 25.5271 0.0000 4.7536 0.0000
# 2 9.2579 162.6725 43.4995 0.0000 -2.1567 0.0000
# 3 25.5271 43.4995 132.0985 0.0000 12.7493 0.0000
# 4 0.0000 0.0000 0.0000 51.8511 0.0000 -2.7651
# 5 4.7536 -2.1567 12.7493 0.0000 47.1960 0.0000
# 6 0.0000 0.0000 0.0000 -2.7651 0.0000 26.7611
#
#
#
# Elastic Compliance Matrix: (Units=1/GPa)
#
#
# Indices 1 2 3 4 5 6 
#
# 1 0.018068 -0.000143 -0.003356 0.000000 -0.000920 0.000000
# 2 -0.000143 0.006782 -0.002297 0.000000 0.000945 0.000000
# 3 -0.003356 -0.002297 0.009192 0.000000 -0.002250 0.000000
# 4 0.000000 0.000000 0.000000 0.019393 0.000000 0.002004
# 5 -0.000920 0.000945 -0.002250 0.000000 0.021932 0.000000
# 6 0.000000 0.000000 0.000000 0.002004 0.000000 0.037575
#
#
# Mechanical properties :
#
#
# Convention : Reuss Voigt Hill
#
# Bulk Modulus (GPa) = 44.54151 56.86034 50.70092
# Shear Modulus (GPa) = 37.87405 43.62093 40.74749
#
# Velocity S-wave (km/s) = 3.77616 4.05254 3.91679
# Velocity P-wave (km/s) = 5.98182 6.58065 6.28837
#
# Compressibility (1/GPa) = 0.02245097
#
# Stress axis : x y z
#
# Youngs Moduli (GPa) = 55.34660 147.44499 108.78945
#
# Poissons Ratio (x) = 0.02111 0.36505
# Poissons Ratio (y) = 0.00792 0.24988
# Poissons Ratio (z) = 0.18572 0.33866
#
# Static dielectric constant tensor:
#      x y z
#    x 2.200000 0.000000 -0.055340 
#    y 0.000000 2.069910 0.000000 
#    z -0.055340 0.000000 2.156350 
# 
# From -- ./inp_files/25284.got.cif
#   From: 2010.05.17/outbox.cif.g08.bks.cpg/sg9_13_cif.got.tgz:25284.got - 2010.06.03 20:04:27.
