data_PCOD9140225
_publ_section_title
;
Structure prediction by ZEFSAII (Michael W. Deem and Ramdas Pophale) SiO2 
 PCOD9140225
Probable space group: C C
;
_chemical_formula_sum "Si O2"
_cell_formula_units_Z 32
_cell_length_a 5.041587
_cell_length_b 21.247248
_cell_length_c 11.343647
_cell_angle_alpha 90.000000
_cell_angle_beta 78.283785
_cell_angle_gamma 90.000000
_cell_volume 1189.812992
_symmetry_space_group_name_H-M "C C"
_symmetry_group_IT_number 9
_symmetry_cell_setting 'monoclinic'
loop_
_space_group_symop_operation_xyz
x,y,z
x,-y,1/2+z
1/2+x,1/2+y,z
1/2+x,1/2-y,1/2+z
loop_
_atom_site_type_symbol
_atom_site_label
_atom_site_fract_x
_atom_site_fract_y
_atom_site_fract_z
Si Si1 0.642000 0.905447 0.278200
Si Si2 0.952343 0.212616 0.704321
Si Si3 0.360669 0.021418 0.355401
Si Si4 0.400469 0.115932 0.555961
Si Si5 0.779558 0.196932 0.346897
Si Si6 0.981145 0.886712 0.458872
Si Si7 0.965930 0.704266 0.986837
Si Si8 0.431403 0.572102 0.213227
O O1 0.572359 0.916472 0.146548
O O2 0.901034 0.918017 0.339960
O O3 0.695295 0.830150 0.263268
O O4 0.408280 0.946595 0.364008
O O5 0.166832 0.160877 0.631710
O O6 0.105618 0.252517 0.789766
O O7 0.867048 0.262994 0.615604
O O8 0.293108 0.061303 0.478367
O O9 0.656693 0.041761 0.283952
O O10 0.167497 0.042125 0.267989
O O11 0.592288 0.159630 0.457750
O O12 0.001626 0.233838 0.402845
O O13 0.908422 0.145377 0.250038
O O14 0.719125 0.839376 0.496259
O O15 0.964913 0.933409 0.570798
O O16 0.230592 0.839263 0.454557
#
# Coordination Sequence:
#
# PCOD9140225 Si02
#       8
#     4   4   4   4   4   4   4   4
#     4  12  29  49  78 119 156 220 284 342 414 486
#     4  12  25  46  76 121 172 212 270 340 427 513
#     4  11  29  53  82 107 159 218 285 345 397 490
#     4  11  27  52  76 119 164 220 275 343 426 497
#     4  11  23  45  79 119 168 214 264 339 433 520
#     4  12  27  45  76 115 165 200 270 331 417 495
#     4  12  24  43  70 115 163 207 240 336 409 508
#     4  11  26  51  77 113 151 219 274 332 417 493
#
# _framework density 26.894985999999999
#
# number of rings (size 3 to 8) (size 9 to 14) (size 15 to 20)
#    0.000    0.500    3.750    3.000    7.000    2.000 
#    2.250    0.000    0.000    0.000    0.000    0.000 
#    0.000    0.000    0.000    0.000    0.000    0.000 
#
# Total GULP energy -89572.869440 kJ/mol
# GULP energy per Si atom -5598.304340 kJ/mol
# Density = 2.683377 g / cm^3
# Si number density = 26.894986 Si / 1000 Ang^3
#
#
#
# Elastic Constant Matrix: (Units=GPa)
#
#
# Indices 1 2 3 4 5 6 
#
# 1 159.8251 56.5773 37.5493 0.0000 26.1917 0.0000
# 2 56.5773 153.1486 72.1128 0.0000 12.3332 0.0000
# 3 37.5493 72.1128 164.7499 0.0000 34.6364 0.0000
# 4 0.0000 0.0000 0.0000 11.2812 0.0000 -17.6518
# 5 26.1917 12.3332 34.6364 0.0000 54.3748 0.0000
# 6 0.0000 0.0000 0.0000 -17.6518 0.0000 35.7895
#
#
#
# Elastic Compliance Matrix: (Units=1/GPa)
#
#
# Indices 1 2 3 4 5 6 
#
# 1 0.007683 -0.002610 0.000052 0.000000 -0.003142 0.000000
# 2 -0.002610 0.009123 -0.003727 0.000000 0.001562 0.000000
# 3 0.000052 -0.003727 0.008679 0.000000 -0.004708 0.000000
# 4 0.000000 0.000000 0.000000 0.388334 0.000000 0.191531
# 5 -0.003142 0.001562 -0.004708 0.000000 0.022549 0.000000
# 6 0.000000 0.000000 0.000000 0.191531 0.000000 0.122406
#
#
# Mechanical properties :
#
#
# Convention : Reuss Voigt Hill
#
# Bulk Modulus (GPa) = 77.42472 90.02247 83.72359
# Shear Modulus (GPa) = 8.68584 41.05469 24.87027
#
# Velocity S-wave (km/s) = 1.79904 3.91126 3.04422
# Velocity P-wave (km/s) = 5.75897 7.34451 6.59953
#
# Compressibility (1/GPa) = 0.01291577
#
# Stress axis : x y z
#
# Youngs Moduli (GPa) = 130.14978 109.61642 115.22023
#
# Poissons Ratio (x) = 0.28608 -0.00596
# Poissons Ratio (y) = 0.33967 0.42938
# Poissons Ratio (z) = -0.00673 0.40850
#
# Static dielectric constant tensor:
#      x y z
#    x 2.126940 0.000000 -0.099070 
#    y 0.000000 2.205330 0.000000 
#    z -0.099070 0.000000 2.184610 
# 
# From -- ./inp_files/13376.got.cif
#   From: 2010.05.17/outbox.cif.g08.bks.cpg/sg9_7_cif.got.tgz:13376.got - 2010.06.03 20:04:27.
