data_PCOD9140364
_publ_section_title
;
Structure prediction by ZEFSAII (Michael W. Deem and Ramdas Pophale) SiO2 
 PCOD9140364
Probable space group: C C
;
_chemical_formula_sum "Si O2"
_cell_formula_units_Z 32
_cell_length_a 9.463864
_cell_length_b 29.220939
_cell_length_c 5.386055
_cell_angle_alpha 90.000000
_cell_angle_beta 72.732383
_cell_angle_gamma 90.000000
_cell_volume 1422.343189
_symmetry_space_group_name_H-M "C C"
_symmetry_group_IT_number 9
_symmetry_cell_setting 'monoclinic'
loop_
_space_group_symop_operation_xyz
x,y,z
x,-y,1/2+z
1/2+x,1/2+y,z
1/2+x,1/2-y,1/2+z
loop_
_atom_site_type_symbol
_atom_site_label
_atom_site_fract_x
_atom_site_fract_y
_atom_site_fract_z
Si Si1 0.946000 0.413760 0.412400
Si Si2 0.442608 0.614692 0.762625
Si Si3 0.019350 0.747582 0.978906
Si Si4 0.806587 0.283259 0.961182
Si Si5 0.887766 0.811090 0.660344
Si Si6 0.172661 0.335509 0.132732
Si Si7 0.785057 0.611338 0.513121
Si Si8 0.734077 0.972286 0.330064
O O1 0.839418 0.417987 0.225283
O O2 0.052051 0.372620 0.265141
O O3 0.065451 0.453193 0.414472
O O4 0.861176 0.402683 0.712946
O O5 0.322588 0.645348 0.677822
O O6 0.607483 0.608316 0.574692
O O7 0.353471 0.567304 0.828595
O O8 0.461072 0.644857 0.001849
O O9 0.137995 0.770186 0.099848
O O10 0.117625 0.712223 0.770122
O O11 0.971981 0.791608 0.851737
O O12 0.877829 0.719347 0.148322
O O13 0.881590 0.236853 0.019378
O O14 0.827389 0.334931 0.039139
O O15 0.721020 0.827058 0.823274
O O16 0.754719 0.008689 0.540543
#
# Coordination Sequence:
#
# PCOD9140364 Si02
#       8
#     4   4   4   4   4   4   4   4
#     4  11  27  47  80 107 150 190 241 312 383 453
#     4  11  28  47  76 107 151 194 254 310 384 452
#     4  12  24  41  57  97 140 206 264 307 358 410
#     4  12  26  39  60  98 150 204 259 307 351 419
#     4  12  25  40  68  95 145 205 262 313 353 424
#     4  11  24  43  66  96 141 204 264 309 354 435
#     4  12  27  46  71 117 156 200 241 307 377 434
#     4  11  27  55  88 117 143 187 247 307 388 481
#
# _framework density 22.498086000000001
#
# number of rings (size 3 to 8) (size 9 to 14) (size 15 to 20)
#    0.000    0.500    3.750    3.000   15.750    0.000 
#    0.000    3.750    0.000    0.000    0.000    0.000 
#    0.000    0.000    0.000    0.000    0.000    0.000 
#
# Total GULP energy -89232.678449 kJ/mol
# GULP energy per Si atom -5577.042403 kJ/mol
# Density = 2.244688 g / cm^3
# Si number density = 22.498086 Si / 1000 Ang^3
#
#
#
# Elastic Constant Matrix: (Units=GPa)
#
#
# Indices 1 2 3 4 5 6 
#
# 1 112.8202 20.7893 32.4766 0.0000 -20.5674 0.0000
# 2 20.7893 56.7101 7.0902 0.0000 -1.9948 0.0000
# 3 32.4766 7.0902 73.1422 0.0000 -17.6761 0.0000
# 4 0.0000 0.0000 0.0000 17.5193 0.0000 11.1271
# 5 -20.5674 -1.9948 -17.6761 0.0000 32.1732 0.0000
# 6 0.0000 0.0000 0.0000 11.1271 0.0000 28.8632
#
#
#
# Elastic Compliance Matrix: (Units=1/GPa)
#
#
# Indices 1 2 3 4 5 6 
#
# 1 0.011477 -0.003588 -0.003493 0.000000 0.005196 0.000000
# 2 -0.003588 0.018972 -0.000595 0.000000 -0.001444 0.000000
# 3 -0.003493 -0.000595 0.016987 0.000000 0.007063 0.000000
# 4 0.000000 0.000000 0.000000 0.075587 0.000000 -0.029140
# 5 0.005196 -0.001444 0.007063 0.000000 0.038194 0.000000
# 6 0.000000 0.000000 0.000000 -0.029140 0.000000 0.045880
#
#
# Mechanical properties :
#
#
# Convention : Reuss Voigt Hill
#
# Bulk Modulus (GPa) = 31.16643 40.37609 35.77126
# Shear Modulus (GPa) = 21.44579 27.86558 24.65569
#
# Velocity S-wave (km/s) = 3.09079 3.52316 3.31403
# Velocity P-wave (km/s) = 5.15949 5.87670 5.52973
#
# Compressibility (1/GPa) = 0.03208580
#
# Stress axis : x y z
#
# Youngs Moduli (GPa) = 87.12722 52.70788 58.86682
#
# Poissons Ratio (x) = 0.18912 0.20561
# Poissons Ratio (y) = 0.31262 0.03503
# Poissons Ratio (z) = 0.30431 0.03136
#
# Static dielectric constant tensor:
#      x y z
#    x 2.048630 0.000000 0.282270 
#    y 0.000000 1.815870 0.000000 
#    z 0.282270 0.000000 2.297370 
# 
# From -- ./inp_files/1383.got.cif
#   From: 2010.05.17/outbox.cif.g08.bks.cpg/sg9_1_cif.got.tgz:1383.got - 2010.06.03 20:04:27.
