data_PCOD9140445
_publ_section_title
;
Structure prediction by ZEFSAII (Michael W. Deem and Ramdas Pophale) SiO2 
 PCOD9140445
Probable space group: C C
;
_chemical_formula_sum "Si O2"
_cell_formula_units_Z 32
_cell_length_a 9.305395
_cell_length_b 11.042001
_cell_length_c 15.032673
_cell_angle_alpha 90.000000
_cell_angle_beta 117.621074
_cell_angle_gamma 90.000000
_cell_volume 1368.575493
_symmetry_space_group_name_H-M "C C"
_symmetry_group_IT_number 9
_symmetry_cell_setting 'monoclinic'
loop_
_space_group_symop_operation_xyz
x,y,z
x,-y,1/2+z
1/2+x,1/2+y,z
1/2+x,1/2-y,1/2+z
loop_
_atom_site_type_symbol
_atom_site_label
_atom_site_fract_x
_atom_site_fract_y
_atom_site_fract_z
Si Si1 0.478560 0.400848 0.137280
Si Si2 0.108578 0.572737 0.756082
Si Si3 0.135523 0.302125 0.770598
Si Si4 0.609718 0.850409 0.063863
Si Si5 0.492577 0.089441 0.925134
Si Si6 0.490678 0.643750 0.446292
Si Si7 0.170120 0.953970 0.829198
Si Si8 0.903868 0.771147 0.365180
O O1 0.613789 0.297196 0.189319
O O2 0.304447 0.343341 0.112874
O O3 0.533570 0.506935 0.219392
O O4 0.476092 0.430064 0.032875
O O5 0.073906 0.433454 0.723834
O O6 0.058549 0.642668 0.652189
O O7 0.298301 0.608175 0.824661
O O8 0.031005 0.594259 0.830507
O O9 0.314592 0.329815 0.855033
O O10 0.027000 0.252923 0.820636
O O11 0.509921 0.747137 0.984194
O O12 0.572018 0.974984 0.998374
O O13 0.549093 0.217730 0.979551
O O14 0.301474 0.060764 0.878469
O O15 0.598207 0.579555 0.403612
O O16 0.271213 0.837182 0.825928
#
# Coordination Sequence:
#
# PCOD9140445 Si02
#       8
#     4   4   4   4   4   4   4   4
#     4  12  25  46  74 112 145 199 252 301 388 455
#     4  12  23  46  76 103 149 200 240 313 383 442
#     4  12  24  46  73 103 154 188 246 319 372 446
#     4  11  24  45  73 109 148 200 248 307 391 449
#     4  11  24  48  69 107 155 188 255 317 365 458
#     4  12  25  46  73 107 149 200 240 320 379 445
#     4  11  25  47  72 107 149 191 256 308 369 453
#     4  11  24  48  70 106 149 188 253 315 367 448
#
# _framework density 23.381978
#
# number of rings (size 3 to 8) (size 9 to 14) (size 15 to 20)
#    0.000    0.500    7.500    1.500    0.000    2.000 
#    6.750    0.000    0.000    0.000    0.000    0.000 
#    0.000    0.000    0.000    0.000    0.000    0.000 
#
# Total GULP energy -89516.853698 kJ/mol
# GULP energy per Si atom -5594.803356 kJ/mol
# Density = 2.332876 g / cm^3
# Si number density = 23.381978 Si / 1000 Ang^3
#
#
#
# Elastic Constant Matrix: (Units=GPa)
#
#
# Indices 1 2 3 4 5 6 
#
# 1 113.5446 20.1271 32.8722 0.0000 -10.6420 0.0000
# 2 20.1271 64.9309 15.9775 0.0000 -0.2481 0.0000
# 3 32.8722 15.9775 125.3419 0.0000 -6.8707 0.0000
# 4 0.0000 0.0000 0.0000 22.6538 0.0000 2.7810
# 5 -10.6420 -0.2481 -6.8707 0.0000 40.8128 0.0000
# 6 0.0000 0.0000 0.0000 2.7810 0.0000 41.7883
#
#
#
# Elastic Compliance Matrix: (Units=1/GPa)
#
#
# Indices 1 2 3 4 5 6 
#
# 1 0.010113 -0.002585 -0.002199 0.000000 0.002251 0.000000
# 2 -0.002585 0.016563 -0.001478 0.000000 -0.000822 0.000000
# 3 -0.002199 -0.001478 0.008793 0.000000 0.000898 0.000000
# 4 0.000000 0.000000 0.000000 0.044506 0.000000 -0.002962
# 5 0.002251 -0.000822 0.000898 0.000000 0.025235 0.000000
# 6 0.000000 0.000000 0.000000 -0.002962 0.000000 0.024127
#
#
# Mechanical properties :
#
#
# Convention : Reuss Voigt Hill
#
# Bulk Modulus (GPa) = 43.58618 49.08568 46.33593
# Shear Modulus (GPa) = 33.44245 36.70704 35.07475
#
# Velocity S-wave (km/s) = 3.78599 3.96648 3.87728
# Velocity P-wave (km/s) = 6.14760 6.48196 6.31699
#
# Compressibility (1/GPa) = 0.02294305
#
# Stress axis : x y z
#
# Youngs Moduli (GPa) = 98.88222 60.37576 113.73148
#
# Poissons Ratio (x) = 0.15607 0.25013
# Poissons Ratio (y) = 0.25561 0.16814
# Poissons Ratio (z) = 0.21748 0.08926
#
# Static dielectric constant tensor:
#      x y z
#    x 1.869200 0.000000 0.029110 
#    y 0.000000 1.947270 0.000000 
#    z 0.029110 0.000000 1.895520 
# 
# From -- ./inp_files/22960.got.cif
#   From: 2010.05.17/outbox.cif.g08.bks.cpg/sg9_12_cif.got.tgz:22960.got - 2010.06.03 20:04:27.
