data_PCOD9140154
_publ_section_title
;
Structure prediction by ZEFSAII (Michael W. Deem and Ramdas Pophale) SiO2 
 PCOD9140154
Probable space group: C C
;
_chemical_formula_sum "Si O2"
_cell_formula_units_Z 32
_cell_length_a 17.778983
_cell_length_b 8.142953
_cell_length_c 22.304167
_cell_angle_alpha 90.000000
_cell_angle_beta 24.441704
_cell_angle_gamma 90.000000
_cell_volume 1336.075167
_symmetry_space_group_name_H-M "C C"
_symmetry_group_IT_number 9
_symmetry_cell_setting 'monoclinic'
loop_
_space_group_symop_operation_xyz
x,y,z
x,-y,1/2+z
1/2+x,1/2+y,z
1/2+x,1/2-y,1/2+z
loop_
_atom_site_type_symbol
_atom_site_label
_atom_site_fract_x
_atom_site_fract_y
_atom_site_fract_z
Si Si1 0.528120 0.602204 0.094600
Si Si2 0.901588 0.380639 0.954017
Si Si3 0.283513 0.261345 0.666218
Si Si4 0.766138 0.738733 0.089525
Si Si5 0.234861 0.764926 0.951761
Si Si6 0.886590 0.268565 0.302025
Si Si7 0.646561 0.398867 0.800156
Si Si8 0.401025 0.103475 0.222623
O O1 0.428621 0.668929 0.107851
O O2 0.600982 0.418647 0.035554
O O3 0.406277 0.617548 0.242410
O O4 0.708230 0.715971 0.971852
O O5 0.861336 0.280860 0.044329
O O6 0.819803 0.561996 0.021806
O O7 0.818812 0.291858 0.956088
O O8 0.116490 0.387234 0.786571
O O9 0.198995 0.088538 0.750717
O O10 0.570124 0.788480 0.206314
O O11 0.737695 0.702749 0.180274
O O12 0.932025 0.862369 0.957417
O O13 0.098834 0.613591 0.049653
O O14 0.388113 0.779207 0.790156
O O15 0.869967 0.421493 0.268901
O O16 0.742791 0.348711 0.791942
#
# Coordination Sequence:
#
# PCOD9140154 Si02
#       8
#     4   4   4   4   4   4   4   4
#     4  11  23  44  69  98 134 182 231 277 336 413
#     4  11  25  45  67 105 136 182 231 282 348 407
#     4  11  25  44  71 101 140 180 230 285 344 408
#     4  11  25  44  71 101 140 180 230 285 344 408
#     4  11  25  44  67 100 138 180 229 282 346 404
#     4  11  23  44  69  98 134 182 231 277 336 413
#     4  11  25  45  67 105 136 182 231 282 348 407
#     4  11  25  44  67 100 138 180 229 282 346 404
#
# _framework density 23.950748000000001
#
# number of rings (size 3 to 8) (size 9 to 14) (size 15 to 20)
#    0.000    1.000    2.500    3.000    7.000    2.000 
#    0.000    0.000    0.000    0.000    0.000    0.000 
#    0.000    0.000    0.000    0.000    0.000    0.000 
#
# Total GULP energy -89625.368788 kJ/mol
# GULP energy per Si atom -5601.585549 kJ/mol
# Density = 2.389624 g / cm^3
# Si number density = 23.950748 Si / 1000 Ang^3
#
#
#
# Elastic Constant Matrix: (Units=GPa)
#
#
# Indices 1 2 3 4 5 6 
#
# 1 140.4047 -0.3774 25.6216 -0.0002 -7.6163 0.0001
# 2 -0.3774 33.8069 15.1853 -0.0074 4.4573 0.0011
# 3 25.6216 15.1853 92.3557 -0.0026 -6.4559 0.0008
# 4 -0.0002 -0.0074 -0.0026 42.9340 -0.0005 1.1883
# 5 -7.6163 4.4573 -6.4559 -0.0005 43.1728 0.0003
# 6 0.0001 0.0011 0.0008 1.1883 0.0003 17.5959
#
#
#
# Elastic Compliance Matrix: (Units=1/GPa)
#
#
# Indices 1 2 3 4 5 6 
#
# 1 0.007575 0.000950 -0.002194 0.000000 0.000910 0.000000
# 2 0.000950 0.032802 -0.005944 0.000005 -0.004108 -0.000002
# 3 -0.002194 -0.005944 0.012561 0.000000 0.002105 0.000000
# 4 0.000000 0.000005 0.000000 0.023335 0.000000 -0.001576
# 5 0.000910 -0.004108 0.002105 0.000000 0.024062 0.000000
# 6 0.000000 -0.000002 0.000000 -0.001576 0.000000 0.056938
#
#
# Mechanical properties :
#
#
# Convention : Reuss Voigt Hill
#
# Bulk Modulus (GPa) = 25.93268 38.60291 32.26779
# Shear Modulus (GPa) = 27.09996 35.81638 31.45817
#
# Velocity S-wave (km/s) = 3.36741 3.87126 3.62809
# Velocity P-wave (km/s) = 5.09610 6.01122 5.57248
#
# Compressibility (1/GPa) = 0.03856138
#
# Stress axis : x y z
#
# Youngs Moduli (GPa) = 132.02103 30.48601 79.61266
#
# Poissons Ratio (x) = -0.02896 0.17467
# Poissons Ratio (y) = -0.12542 0.47322
# Poissons Ratio (z) = 0.28965 0.18121
#
# Static dielectric constant tensor:
#      x y z
#    x 1.884690 0.000000 0.027250 
#    y 0.000000 1.928140 0.000000 
#    z 0.027250 0.000000 1.918840 
# 
# From -- ./inp_files/27343.got.cif
#   From: 2010.05.17/outbox.cif.g08.bks.cpg/sg9_14_cif.got.tgz:27343.got - 2010.06.03 20:04:27.
