data_PCOD9140933
_publ_section_title
;
Structure prediction by ZEFSAII (Michael W. Deem and Ramdas Pophale) SiO2 
 PCOD9140933
Probable space group: C C
;
_chemical_formula_sum "Si O2"
_cell_formula_units_Z 24
_cell_length_a 18.717377
_cell_length_b 8.808528
_cell_length_c 8.900394
_cell_angle_alpha 90.000000
_cell_angle_beta 44.940870
_cell_angle_gamma 90.000000
_cell_volume 1036.558700
_symmetry_space_group_name_H-M "C C"
_symmetry_group_IT_number 9
_symmetry_cell_setting 'monoclinic'
loop_
_space_group_symop_operation_xyz
x,y,z
x,-y,1/2+z
1/2+x,1/2+y,z
1/2+x,1/2-y,1/2+z
loop_
_atom_site_type_symbol
_atom_site_label
_atom_site_fract_x
_atom_site_fract_y
_atom_site_fract_z
Si Si1 0.528660 0.886323 0.711540
Si Si2 0.721742 0.553105 0.301140
Si Si3 0.135693 0.179207 0.731740
Si Si4 0.319732 0.696515 0.445522
Si Si5 0.419792 0.047038 0.643291
Si Si6 0.728402 0.955824 0.784408
O O1 0.536461 0.726527 0.785342
O O2 0.438075 0.910820 0.731560
O O3 0.632784 0.939699 0.479881
O O4 0.504472 0.986795 0.892869
O O5 0.701676 0.623868 0.493015
O O6 0.634263 0.450125 0.359600
O O7 0.752850 0.674697 0.129109
O O8 0.818438 0.450623 0.197136
O O9 0.183943 0.327313 0.738733
O O10 0.416935 0.796986 0.245833
O O11 0.313148 0.559153 0.575750
O O12 0.271013 0.625164 0.369050
#
# Coordination Sequence:
#
# PCOD9140933 Si02
#       6
#     4   4   4   4   4   4
#     4  12  24  42  70 102 137 180 224 293 352 410
#     4  12  23  43  73 100 137 186 240 283 336 429
#     4  12  23  43  72 103 135 187 238 281 342 427
#     4  12  23  43  72 103 134 187 239 284 341 426
#     4  12  24  42  70 102 136 178 230 287 359 404
#     4  12  23  43  73 100 137 184 245 280 342 428
#
# _framework density 23.153535000000002
#
# number of rings (size 3 to 8) (size 9 to 14) (size 15 to 20)
#    0.000    0.000   10.000    0.000    0.000    0.000 
#    0.000    1.667    0.000    0.000    0.000    0.000 
#    0.000    0.000    0.000    0.000    0.000    0.000 
#
# Total GULP energy -66832.038211 kJ/mol
# GULP energy per Si atom -5569.336518 kJ/mol
# Density = 2.310084 g / cm^3
# Si number density = 23.153535 Si / 1000 Ang^3
#
#
#
# Elastic Constant Matrix: (Units=GPa)
#
#
# Indices 1 2 3 4 5 6 
#
# 1 92.8868 26.6636 18.2046 0.0000 28.2646 0.0000
# 2 26.6636 76.9379 19.5492 0.0000 17.1337 0.0000
# 3 18.2046 19.5492 109.2679 0.0000 27.9242 0.0000
# 4 0.0000 0.0000 0.0000 37.9632 0.0000 15.6277
# 5 28.2646 17.1337 27.9242 0.0000 24.9698 0.0000
# 6 0.0000 0.0000 0.0000 15.6277 0.0000 45.1215
#
#
#
# Elastic Compliance Matrix: (Units=1/GPa)
#
#
# Indices 1 2 3 4 5 6 
#
# 1 0.017312 -0.001948 0.002983 0.000000 -0.021595 0.000000
# 2 -0.001948 0.015562 -0.000412 0.000000 -0.008012 0.000000
# 3 0.002983 -0.000412 0.013328 0.000000 -0.018000 0.000000
# 4 0.000000 0.000000 0.000000 0.030721 0.000000 -0.010640
# 5 -0.021595 -0.008012 -0.018000 0.000000 0.090120 0.000000
# 6 0.000000 0.000000 0.000000 -0.010640 0.000000 0.025848
#
#
# Mechanical properties :
#
#
# Convention : Reuss Voigt Hill
#
# Bulk Modulus (GPa) = 21.07607 45.32526 33.20067
# Shear Modulus (GPa) = 24.10093 35.92255 30.01174
#
# Velocity S-wave (km/s) = 3.22983 3.94317 3.60419
# Velocity P-wave (km/s) = 4.79912 6.35216 5.62945
#
# Compressibility (1/GPa) = 0.04744717
#
# Stress axis : x y z
#
# Youngs Moduli (GPa) = 57.76463 64.26075 75.02750
#
# Poissons Ratio (x) = 0.12520 -0.22382
# Poissons Ratio (y) = 0.11255 0.03092
# Poissons Ratio (z) = -0.17232 0.02648
#
# Static dielectric constant tensor:
#      x y z
#    x 1.860160 0.000000 -0.062150 
#    y 0.000000 1.981630 0.000000 
#    z -0.062150 0.000000 1.982590 
# 
# From -- ./inp_files/8699.got.cif
#   From: 2010.05.17/outbox.cif.g08.bks.cpg/sg9_5_cif.got.tgz:8699.got - 2010.06.03 20:04:27.
