data_PCOD9140454
_publ_section_title
;
Structure prediction by ZEFSAII (Michael W. Deem and Ramdas Pophale) SiO2 
 PCOD9140454
Probable space group: C C
;
_chemical_formula_sum "Si O2"
_cell_formula_units_Z 24
_cell_length_a 7.749266
_cell_length_b 7.163755
_cell_length_c 23.026471
_cell_angle_alpha 90.000000
_cell_angle_beta 132.306297
_cell_angle_gamma 90.000000
_cell_volume 945.366921
_symmetry_space_group_name_H-M "C C"
_symmetry_group_IT_number 9
_symmetry_cell_setting 'monoclinic'
loop_
_space_group_symop_operation_xyz
x,y,z
x,-y,1/2+z
1/2+x,1/2+y,z
1/2+x,1/2-y,1/2+z
loop_
_atom_site_type_symbol
_atom_site_label
_atom_site_fract_x
_atom_site_fract_y
_atom_site_fract_z
Si Si1 0.130100 0.922484 0.099150
Si Si2 0.446545 0.571586 0.685083
Si Si3 0.573287 0.822866 0.813278
Si Si4 0.291284 0.161323 0.972175
Si Si5 0.000610 0.719829 0.515830
Si Si6 0.071216 0.683140 0.744391
O O1 0.588926 0.282811 0.255874
O O2 0.083480 0.957945 0.156058
O O3 0.410756 0.922294 0.159220
O O4 0.965389 0.070980 0.029679
O O5 0.538660 0.771982 0.553733
O O6 0.436365 0.380513 0.719674
O O7 0.204998 0.656185 0.606946
O O8 0.754970 0.746636 0.900850
O O9 0.324609 0.749414 0.781433
O O10 0.590799 0.042122 0.802774
O O11 0.106795 0.248919 0.975673
O O12 0.302120 0.936468 0.972477
#
# Coordination Sequence:
#
# PCOD9140454 Si02
#       6
#     4   4   4   4   4   4
#     4  11  25  46  81 105 146 198 263 308 371 462
#     4  11  24  45  76 108 144 193 254 310 371 454
#     4  12  30  46  72 111 157 191 250 319 391 445
#     4  11  29  47  71 112 149 201 243 321 385 451
#     4  11  25  46  75 106 145 196 256 306 378 456
#     4  12  25  46  73 108 141 197 250 308 376 454
#
# _framework density 25.386969000000001
#
# number of rings (size 3 to 8) (size 9 to 14) (size 15 to 20)
#    0.000    0.667    5.000    0.000   11.667    0.000 
#    0.000    0.000    0.000    0.000    0.000    0.000 
#    0.000    0.000    0.000    0.000    0.000    0.000 
#
# Total GULP energy -67110.121066 kJ/mol
# GULP energy per Si atom -5592.510089 kJ/mol
# Density = 2.532919 g / cm^3
# Si number density = 25.386969 Si / 1000 Ang^3
#
#
#
# Elastic Constant Matrix: (Units=GPa)
#
#
# Indices 1 2 3 4 5 6 
#
# 1 71.3674 17.5336 12.7870 0.0000 -6.1219 0.0000
# 2 17.5336 132.5766 18.8059 0.0000 -7.0483 0.0000
# 3 12.7870 18.8059 75.3937 0.0000 -16.8651 0.0000
# 4 0.0000 0.0000 0.0000 22.2490 0.0000 5.5179
# 5 -6.1219 -7.0483 -16.8651 0.0000 30.6341 0.0000
# 6 0.0000 0.0000 0.0000 5.5179 0.0000 24.2220
#
#
#
# Elastic Compliance Matrix: (Units=1/GPa)
#
#
# Indices 1 2 3 4 5 6 
#
# 1 0.014866 -0.001631 -0.001749 0.000000 0.001633 0.000000
# 2 -0.001631 0.008017 -0.001578 0.000000 0.000650 0.000000
# 3 -0.001749 -0.001578 0.015732 0.000000 0.007948 0.000000
# 4 0.000000 0.000000 0.000000 0.047637 0.000000 -0.010852
# 5 0.001633 0.000650 0.007948 0.000000 0.037495 0.000000
# 6 0.000000 0.000000 0.000000 -0.010852 0.000000 0.043757
#
#
# Mechanical properties :
#
#
# Convention : Reuss Voigt Hill
#
# Bulk Modulus (GPa) = 34.84466 41.95450 38.39958
# Shear Modulus (GPa) = 26.73987 30.76843 28.75415
#
# Velocity S-wave (km/s) = 3.24897 3.48512 3.36911
# Velocity P-wave (km/s) = 5.27537 5.72334 5.50392
#
# Compressibility (1/GPa) = 0.02869880
#
# Stress axis : x y z
#
# Youngs Moduli (GPa) = 67.26663 124.73679 63.56503
#
# Poissons Ratio (x) = 0.20347 0.11119
# Poissons Ratio (y) = 0.10972 0.10028
# Poissons Ratio (z) = 0.11767 0.19679
#
# Static dielectric constant tensor:
#      x y z
#    x 2.034870 0.000000 0.006010 
#    y 0.000000 2.040630 0.000000 
#    z 0.006010 0.000000 1.954460 
# 
# From -- ./inp_files/32426.got.cif
#   From: 2010.05.17/outbox.cif.g08.bks.cpg/sg9_17_cif.got.tgz:32426.got - 2010.06.03 20:04:27.
