data_PCOD9140262
_publ_section_title
;
Structure prediction by ZEFSAII (Michael W. Deem and Ramdas Pophale) SiO2 
 PCOD9140262
Probable space group: C C
;
_chemical_formula_sum "Si O2"
_cell_formula_units_Z 32
_cell_length_a 13.357916
_cell_length_b 18.309152
_cell_length_c 8.357351
_cell_angle_alpha 90.000000
_cell_angle_beta 138.641266
_cell_angle_gamma 90.000000
_cell_volume 1350.600314
_symmetry_space_group_name_H-M "C C"
_symmetry_group_IT_number 9
_symmetry_cell_setting 'monoclinic'
loop_
_space_group_symop_operation_xyz
x,y,z
x,-y,1/2+z
1/2+x,1/2+y,z
1/2+x,1/2-y,1/2+z
loop_
_atom_site_type_symbol
_atom_site_label
_atom_site_fract_x
_atom_site_fract_y
_atom_site_fract_z
Si Si1 0.789970 0.843047 0.691200
Si Si2 0.097491 0.294546 0.952787
Si Si3 0.797735 0.391038 0.531696
Si Si4 0.122272 0.217338 0.637007
Si Si5 0.140202 0.534978 0.152003
Si Si6 0.826721 0.899433 0.381253
Si Si7 0.645324 0.644217 0.164884
Si Si8 0.911825 0.449927 0.113814
O O1 0.682040 0.773013 0.576340
O O2 0.749153 0.894938 0.794446
O O3 0.779401 0.884217 0.508628
O O4 0.960124 0.815027 0.906016
O O5 0.247464 0.338580 0.177562
O O6 0.098518 0.228996 0.084584
O O7 0.110602 0.259781 0.792717
O O8 0.952488 0.349527 0.775830
O O9 0.741755 0.347899 0.309005
O O10 0.670205 0.381394 0.512766
O O11 0.817087 0.476867 0.534704
O O12 0.257147 0.474264 0.230938
O O13 0.037621 0.486047 0.146617
O O14 0.011008 0.569437 0.885339
O O15 0.006277 0.895324 0.582448
O O16 0.803845 0.616356 0.432280
#
# Coordination Sequence:
#
# PCOD9140262 Si02
#       8
#     4   4   4   4   4   4   4   4
#     4  12  29  48  73 112 155 190 255 325 380 446
#     4  11  23  50  78 103 149 206 249 304 383 470
#     4  11  23  46  77 104 145 199 252 300 383 458
#     4  11  26  48  74 111 142 199 246 314 376 460
#     4  12  27  48  74 102 150 197 247 302 398 453
#     4  12  28  47  73 112 149 200 247 324 380 450
#     4  11  26  41  73 114 146 190 262 312 368 446
#     4  12  24  48  74 106 146 197 246 311 370 465
#
# _framework density 23.693168
#
# number of rings (size 3 to 8) (size 9 to 14) (size 15 to 20)
#    0.000    0.500    5.000    2.250    5.250    3.000 
#    0.000    0.000    0.000    0.000    0.000    0.000 
#    0.000    0.000    0.000    0.000    0.000    0.000 
#
# Total GULP energy -89352.387270 kJ/mol
# GULP energy per Si atom -5584.524204 kJ/mol
# Density = 2.363924 g / cm^3
# Si number density = 23.693168 Si / 1000 Ang^3
#
#
#
# Elastic Constant Matrix: (Units=GPa)
#
#
# Indices 1 2 3 4 5 6 
#
# 1 77.0207 2.7536 32.2813 0.0000 15.2647 0.0000
# 2 2.7536 80.9524 43.4165 0.0000 12.1655 0.0000
# 3 32.2813 43.4165 103.5518 0.0000 17.1528 0.0000
# 4 0.0000 0.0000 0.0000 36.9035 0.0000 -1.5230
# 5 15.2647 12.1655 17.1528 0.0000 31.9531 0.0000
# 6 0.0000 0.0000 0.0000 -1.5230 0.0000 24.2153
#
#
#
# Elastic Compliance Matrix: (Units=1/GPa)
#
#
# Indices 1 2 3 4 5 6 
#
# 1 0.016376 0.003301 -0.005471 0.000000 -0.006143 0.000000
# 2 0.003301 0.016820 -0.007419 0.000000 -0.003998 0.000000
# 3 -0.005471 -0.007419 0.014897 0.000000 -0.002558 0.000000
# 4 0.000000 0.000000 0.000000 0.027168 0.000000 0.001709
# 5 -0.006143 -0.003998 -0.002558 0.000000 0.037126 0.000000
# 6 0.000000 0.000000 0.000000 0.001709 0.000000 0.041404
#
#
# Mechanical properties :
#
#
# Convention : Reuss Voigt Hill
#
# Bulk Modulus (GPa) = 34.58547 46.49198 40.53872
# Shear Modulus (GPa) = 27.38086 30.81930 29.10008
#
# Velocity S-wave (km/s) = 3.40316 3.61053 3.50838
# Velocity P-wave (km/s) = 5.48370 6.08657 5.79298
#
# Compressibility (1/GPa) = 0.02891387
#
# Stress axis : x y z
#
# Youngs Moduli (GPa) = 61.06433 59.45131 67.12732
#
# Poissons Ratio (x) = -0.19622 0.36728
# Poissons Ratio (y) = -0.20155 0.49802
# Poissons Ratio (z) = 0.33411 0.44107
#
# Static dielectric constant tensor:
#      x y z
#    x 1.941030 0.000000 -0.038390 
#    y 0.000000 1.971460 0.000000 
#    z -0.038390 0.000000 1.915710 
# 
# From -- ./inp_files/9969.got.cif
#   From: 2010.05.17/outbox.cif.g08.bks.cpg/sg9_5_cif.got.tgz:9969.got - 2010.06.03 20:04:27.
