data_PCOD9140187
_publ_section_title
;
Structure prediction by ZEFSAII (Michael W. Deem and Ramdas Pophale) SiO2 
 PCOD9140187
Probable space group: C C
;
_chemical_formula_sum "Si O2"
_cell_formula_units_Z 28
_cell_length_a 5.018561
_cell_length_b 21.759184
_cell_length_c 11.915018
_cell_angle_alpha 90.000000
_cell_angle_beta 113.982100
_cell_angle_gamma 90.000000
_cell_volume 1188.795248
_symmetry_space_group_name_H-M "C C"
_symmetry_group_IT_number 9
_symmetry_cell_setting 'monoclinic'
loop_
_space_group_symop_operation_xyz
x,y,z
x,-y,1/2+z
1/2+x,1/2+y,z
1/2+x,1/2-y,1/2+z
loop_
_atom_site_type_symbol
_atom_site_label
_atom_site_fract_x
_atom_site_fract_y
_atom_site_fract_z
Si Si1 0.814610 0.272544 0.627320
Si Si2 0.030081 0.604593 0.453978
Si Si3 0.923285 0.204573 0.870848
Si Si4 0.119353 0.161622 0.567363
Si Si5 0.383630 0.877052 0.332898
Si Si6 0.644683 0.031184 0.047270
Si Si7 0.785559 0.586301 0.173803
O O1 0.517519 0.266246 0.504459
O O2 0.859750 0.345383 0.641619
O O3 0.800130 0.248459 0.752760
O O4 0.057773 0.229670 0.608049
O O5 0.310239 0.642723 0.461914
O O6 0.145118 0.540465 0.522298
O O7 0.863581 0.642909 0.520597
O O8 0.829143 0.589249 0.314047
O O9 0.222094 0.175311 0.876817
O O10 0.692303 0.150570 0.848083
O O11 0.188250 0.119058 0.688118
O O12 0.436409 0.935601 0.419517
O O13 0.508911 0.042599 0.146581
O O14 0.959381 0.063435 0.092408
#
# Coordination Sequence:
#
# PCOD9140187 Si02
#       7
#     4   4   4   4   4   4   4
#     4  11  24  46  73 107 152 194 250 314 383 462
#     4  12  28  48  74 113 154 196 257 325 381 458
#     4  11  24  41  71 104 149 192 249 306 380 456
#     4  11  26  47  74 111 149 198 247 319 387 459
#     4  11  23  45  68 103 136 196 248 296 375 451
#     4  12  26  46  75 101 149 196 258 312 376 458
#     4  12  27  49  75 111 145 206 253 316 390 454
#
# _framework density 23.553256999999999
#
# number of rings (size 3 to 8) (size 9 to 14) (size 15 to 20)
#    0.000    0.571    2.857    4.286    4.000    8.000 
#    0.000    0.000    0.000    0.000    0.000    0.000 
#    0.000    0.000    0.000    0.000    0.000    0.000 
#
# Total GULP energy -78353.410494 kJ/mol
# GULP energy per Si atom -5596.672178 kJ/mol
# Density = 2.349965 g / cm^3
# Si number density = 23.553257 Si / 1000 Ang^3
#
#
#
# Elastic Constant Matrix: (Units=GPa)
#
#
# Indices 1 2 3 4 5 6 
#
# 1 47.6950 13.7198 12.2021 0.0000 3.7651 0.0000
# 2 13.7198 116.4741 26.3918 0.0000 1.7851 0.0000
# 3 12.2021 26.3918 123.2165 0.0000 5.7330 0.0000
# 4 0.0000 0.0000 0.0000 34.6239 0.0000 -1.5019
# 5 3.7651 1.7851 5.7330 0.0000 31.4121 0.0000
# 6 0.0000 0.0000 0.0000 -1.5019 0.0000 18.1451
#
#
#
# Elastic Compliance Matrix: (Units=1/GPa)
#
#
# Indices 1 2 3 4 5 6 
#
# 1 0.022194 -0.002213 -0.001620 0.000000 -0.002239 0.000000
# 2 -0.002213 0.009245 -0.001764 0.000000 0.000062 0.000000
# 3 -0.001620 -0.001764 0.008714 0.000000 -0.001296 0.000000
# 4 0.000000 0.000000 0.000000 0.028986 0.000000 0.002399
# 5 -0.002239 0.000062 -0.001296 0.000000 0.032336 0.000000
# 6 0.000000 0.000000 0.000000 0.002399 0.000000 0.055310
#
#
# Mechanical properties :
#
#
# Convention : Reuss Voigt Hill
#
# Bulk Modulus (GPa) = 34.53001 43.55698 39.04350
# Shear Modulus (GPa) = 28.14801 32.50766 30.32784
#
# Velocity S-wave (km/s) = 3.46074 3.71910 3.59225
# Velocity P-wave (km/s) = 5.53726 6.08074 5.81535
#
# Compressibility (1/GPa) = 0.02896031
#
# Stress axis : x y z
#
# Youngs Moduli (GPa) = 45.05674 108.16640 114.75374
#
# Poissons Ratio (x) = 0.23937 0.18587
# Poissons Ratio (y) = 0.09971 0.20242
# Poissons Ratio (z) = 0.07298 0.19080
#
# Static dielectric constant tensor:
#      x y z
#    x 1.834300 0.000000 -0.012050 
#    y 0.000000 1.887420 0.000000 
#    z -0.012050 0.000000 1.906990 
# 
# From -- ./inp_files/13421.got.cif
#   From: 2010.05.17/outbox.cif.g08.bks.cpg/sg9_7_cif.got.tgz:13421.got - 2010.06.03 20:04:27.
