data_PCOD9140921
_publ_section_title
;
Structure prediction by ZEFSAII (Michael W. Deem and Ramdas Pophale) SiO2 
 PCOD9140921
Probable space group: C C
;
_chemical_formula_sum "Si O2"
_cell_formula_units_Z 28
_cell_length_a 6.796726
_cell_length_b 22.786316
_cell_length_c 8.200989
_cell_angle_alpha 90.000000
_cell_angle_beta 63.075846
_cell_angle_gamma 90.000000
_cell_volume 1132.435408
_symmetry_space_group_name_H-M "C C"
_symmetry_group_IT_number 9
_symmetry_cell_setting 'monoclinic'
loop_
_space_group_symop_operation_xyz
x,y,z
x,-y,1/2+z
1/2+x,1/2+y,z
1/2+x,1/2-y,1/2+z
loop_
_atom_site_type_symbol
_atom_site_label
_atom_site_fract_x
_atom_site_fract_y
_atom_site_fract_z
Si Si1 0.450690 0.315886 0.854760
Si Si2 0.487708 0.812158 0.195275
Si Si3 0.004943 0.543175 0.161182
Si Si4 0.907482 0.429328 0.382741
Si Si5 0.997026 0.063916 0.159965
Si Si6 0.909183 0.053084 0.869358
Si Si7 0.228541 0.124311 0.508163
O O1 0.449378 0.253857 0.765777
O O2 0.450973 0.369619 0.730604
O O3 0.652649 0.330638 0.896901
O O4 0.238785 0.318321 0.048602
O O5 0.431134 0.859338 0.353769
O O6 0.347114 0.835522 0.096590
O O7 0.783405 0.554356 0.108925
O O8 0.888226 0.577699 0.358565
O O9 0.986339 0.473518 0.209515
O O10 0.276132 0.554296 0.112344
O O11 0.134802 0.438339 0.424873
O O12 0.625181 0.435487 0.425813
O O13 0.928905 0.015523 0.318088
O O14 0.028004 0.089941 0.674581
#
# Coordination Sequence:
#
# PCOD9140921 Si02
#       7
#     4   4   4   4   4   4   4
#     4  12  28  50  73 105 146 196 247 300 359 435
#     4  12  28  50  73 105 146 196 247 300 359 435
#     4  12  24  42  75 111 144 188 237 302 370 431
#     4  12  22  44  70 104 151 184 237 302 363 427
#     4  12  22  44  70 104 151 184 237 302 363 427
#     4  12  24  42  75 111 144 188 237 302 370 431
#     4  12  26  50  78 108 146 192 242 302 370 428
#
# _framework density 24.725473999999998
#
# number of rings (size 3 to 8) (size 9 to 14) (size 15 to 20)
#    0.000    0.000    4.286    6.857    0.000    1.143 
#    2.571    0.000    0.000    0.000    0.000    0.000 
#    0.000    0.000    0.000    0.000    0.000    0.000 
#
# Total GULP energy -78264.240094 kJ/mol
# GULP energy per Si atom -5590.302864 kJ/mol
# Density = 2.466920 g / cm^3
# Si number density = 24.725474 Si / 1000 Ang^3
#
#
#
# Elastic Constant Matrix: (Units=GPa)
#
#
# Indices 1 2 3 4 5 6 
#
# 1 119.8182 25.3061 45.2855 0.0000 -7.7979 0.0000
# 2 25.3061 189.1297 43.4803 0.0000 23.7112 0.0000
# 3 45.2855 43.4803 88.0660 0.0000 9.0105 0.0000
# 4 0.0000 0.0000 0.0000 39.4351 0.0000 3.7283
# 5 -7.7979 23.7112 9.0105 0.0000 83.7616 0.0000
# 6 0.0000 0.0000 0.0000 3.7283 0.0000 33.9877
#
#
#
# Elastic Compliance Matrix: (Units=1/GPa)
#
#
# Indices 1 2 3 4 5 6 
#
# 1 0.010587 -0.000379 -0.005429 0.000000 0.001677 0.000000
# 2 -0.000379 0.006142 -0.002686 0.000000 -0.001485 0.000000
# 3 -0.005429 -0.002686 0.015618 0.000000 -0.001425 0.000000
# 4 0.000000 0.000000 0.000000 0.025624 0.000000 -0.002811
# 5 0.001677 -0.001485 -0.001425 0.000000 0.012668 0.000000
# 6 0.000000 0.000000 0.000000 -0.002811 0.000000 0.029731
#
#
# Mechanical properties :
#
#
# Convention : Reuss Voigt Hill
#
# Bulk Modulus (GPa) = 65.09968 69.46198 67.28083
# Shear Modulus (GPa) = 40.82436 50.29968 45.56202
#
# Velocity S-wave (km/s) = 4.06779 4.51524 4.29734
# Velocity P-wave (km/s) = 6.96051 7.43892 7.20369
#
# Compressibility (1/GPa) = 0.01536106
#
# Stress axis : x y z
#
# Youngs Moduli (GPa) = 94.45703 162.82336 64.02726
#
# Poissons Ratio (x) = 0.06167 0.34757
# Poissons Ratio (y) = 0.03578 0.17195
# Poissons Ratio (z) = 0.51276 0.43727
#
# Static dielectric constant tensor:
#      x y z
#    x 2.246940 0.000000 -0.004510 
#    y 0.000000 1.808130 0.000000 
#    z -0.004510 0.000000 1.973690 
# 
# From -- ./inp_files/13173.got.cif
#   From: 2010.05.17/outbox.cif.g08.bks.cpg/sg9_7_cif.got.tgz:13173.got - 2010.06.03 20:04:27.
