data_PCOD9140113
_publ_section_title
;
Structure prediction by ZEFSAII (Michael W. Deem and Ramdas Pophale) SiO2 
 PCOD9140113
Probable space group: C C
;
_chemical_formula_sum "Si O2"
_cell_formula_units_Z 28
_cell_length_a 17.314761
_cell_length_b 15.526482
_cell_length_c 9.411444
_cell_angle_alpha 90.000000
_cell_angle_beta 149.776788
_cell_angle_gamma 90.000000
_cell_volume 1273.600426
_symmetry_space_group_name_H-M "C C"
_symmetry_group_IT_number 9
_symmetry_cell_setting 'monoclinic'
loop_
_space_group_symop_operation_xyz
x,y,z
x,-y,1/2+z
1/2+x,1/2+y,z
1/2+x,1/2-y,1/2+z
loop_
_atom_site_type_symbol
_atom_site_label
_atom_site_fract_x
_atom_site_fract_y
_atom_site_fract_z
Si Si1 0.700270 0.067770 0.329030
Si Si2 0.782606 0.287037 0.147770
Si Si3 0.578194 0.821013 0.900196
Si Si4 0.991056 0.839597 0.150480
Si Si5 0.650315 0.117238 0.808773
Si Si6 0.249232 0.100826 0.862196
Si Si7 0.917254 0.422482 0.153695
O O1 0.636803 0.129904 0.352431
O O2 0.849889 0.109586 0.494614
O O3 0.736037 0.974765 0.456273
O O4 0.563968 0.058086 0.993322
O O5 0.925630 0.238330 0.448805
O O6 0.713526 0.353859 0.153352
O O7 0.834731 0.342735 0.096996
O O8 0.686427 0.203256 0.954072
O O9 0.588349 0.717827 0.914628
O O10 0.400247 0.845250 0.648558
O O11 0.669910 0.857919 0.177781
O O12 0.105228 0.892951 0.235906
O O13 0.483154 0.094737 0.602511
O O14 0.308461 0.003853 0.959788
#
# Coordination Sequence:
#
# PCOD9140113 Si02
#       7
#     4   4   4   4   4   4   4
#     4  12  22  46  72 102 141 194 229 285 355 429
#     4  11  24  44  74 103 142 187 236 295 356 413
#     4  11  23  42  74 102 141 185 235 284 357 418
#     4  11  24  44  70 105 145 181 232 298 354 409
#     4  12  24  44  70 106 138 186 243 281 345 438
#     4  11  23  45  73 103 140 183 236 292 355 416
#     4  12  22  45  75  99 137 190 239 279 356 431
#
# _framework density 21.984916999999999
#
# number of rings (size 3 to 8) (size 9 to 14) (size 15 to 20)
#    0.000    0.571    7.143    2.571    0.000    2.286 
#    5.143    0.000    0.000    0.000    0.000    0.000 
#    0.000    0.000    0.000    0.000    0.000    0.000 
#
# Total GULP energy -78138.776465 kJ/mol
# GULP energy per Si atom -5581.341176 kJ/mol
# Density = 2.193488 g / cm^3
# Si number density = 21.984917 Si / 1000 Ang^3
#
#
#
# Elastic Constant Matrix: (Units=GPa)
#
#
# Indices 1 2 3 4 5 6 
#
# 1 162.1263 84.1048 45.4304 0.0000 18.0112 0.0000
# 2 84.1048 184.3733 41.1775 0.0000 18.1197 0.0000
# 3 45.4304 41.1775 30.1274 0.0000 8.8740 0.0000
# 4 0.0000 0.0000 0.0000 27.6982 0.0000 6.7207
# 5 18.0112 18.1197 8.8740 0.0000 24.9929 0.0000
# 6 0.0000 0.0000 0.0000 6.7207 0.0000 34.9218
#
#
#
# Elastic Compliance Matrix: (Units=1/GPa)
#
#
# Indices 1 2 3 4 5 6 
#
# 1 0.011204 -0.001840 -0.013843 0.000000 -0.001825 0.000000
# 2 -0.001840 0.008208 -0.007909 0.000000 -0.001817 0.000000
# 3 -0.013843 -0.007909 0.067286 0.000000 -0.008181 0.000000
# 4 0.000000 0.000000 0.000000 0.037872 0.000000 -0.007288
# 5 -0.001825 -0.001817 -0.008181 0.000000 0.045549 0.000000
# 6 0.000000 0.000000 0.000000 -0.007288 0.000000 0.030038
#
#
# Mechanical properties :
#
#
# Convention : Reuss Voigt Hill
#
# Bulk Modulus (GPa) = 25.30695 79.78361 52.54528
# Shear Modulus (GPa) = 19.19294 31.25019 25.22156
#
# Velocity S-wave (km/s) = 2.95787 3.77429 3.39074
# Velocity P-wave (km/s) = 4.81678 7.44060 6.26753
#
# Compressibility (1/GPa) = 0.03951484
#
# Stress axis : x y z
#
# Youngs Moduli (GPa) = 89.25085 121.83234 14.86188
#
# Poissons Ratio (x) = 0.22417 0.20573
# Poissons Ratio (y) = 0.16422 0.11754
# Poissons Ratio (z) = 1.23550 0.96356
#
# Static dielectric constant tensor:
#      x y z
#    x 1.790230 0.000000 -0.081570 
#    y 0.000000 1.897810 0.000000 
#    z -0.081570 0.000000 1.939490 
# 
# From -- ./inp_files/9746.got.cif
#   From: 2010.05.17/outbox.cif.g08.bks.cpg/sg9_5_cif.got.tgz:9746.got - 2010.06.03 20:04:27.
