data_PCOD9140817
_publ_section_title
;
Structure prediction by ZEFSAII (Michael W. Deem and Ramdas Pophale) SiO2 
 PCOD9140817
Probable space group: C C
;
_chemical_formula_sum "Si O2"
_cell_formula_units_Z 28
_cell_length_a 16.813106
_cell_length_b 7.816420
_cell_length_c 15.235125
_cell_angle_alpha 90.000000
_cell_angle_beta 32.279818
_cell_angle_gamma 90.000000
_cell_volume 1069.270299
_symmetry_space_group_name_H-M "C C"
_symmetry_group_IT_number 9
_symmetry_cell_setting 'monoclinic'
loop_
_space_group_symop_operation_xyz
x,y,z
x,-y,1/2+z
1/2+x,1/2+y,z
1/2+x,1/2-y,1/2+z
loop_
_atom_site_type_symbol
_atom_site_label
_atom_site_fract_x
_atom_site_fract_y
_atom_site_fract_z
Si Si1 0.596040 0.839313 0.309990
Si Si2 0.849649 0.540212 0.467857
Si Si3 0.261385 0.347485 0.663975
Si Si4 0.567029 0.334867 0.474630
Si Si5 0.570580 0.113807 0.112895
Si Si6 0.629022 0.724754 0.097984
Si Si7 0.260316 0.160795 0.317311
O O1 0.570854 0.712983 0.251676
O O2 0.684835 0.769911 0.309774
O O3 0.436129 0.931755 0.462784
O O4 0.711857 0.979636 0.164776
O O5 0.756502 0.682991 0.605650
O O6 0.977281 0.631796 0.290459
O O7 0.769665 0.403402 0.477681
O O8 0.425121 0.371447 0.548893
O O9 0.148878 0.322925 0.850991
O O10 0.522106 0.334310 0.618895
O O11 0.694250 0.476540 0.357686
O O12 0.436273 0.140857 0.167261
O O13 0.641410 0.923210 0.054269
O O14 0.692116 0.251419 0.969140
#
# Coordination Sequence:
#
# PCOD9140817 Si02
#       7
#     4   4   4   4   4   4   4
#     4  11  27  47  75 111 148 201 251 322 377 454
#     4  11  26  49  73 112 156 198 255 313 385 460
#     4  12  26  50  74 112 150 202 257 313 387 452
#     4  12  26  46  77 106 153 199 252 317 377 459
#     4  11  27  49  76 112 153 200 258 314 384 457
#     4  11  26  47  73 109 151 198 252 315 383 444
#     4  12  26  50  76 114 153 202 259 312 387 458
#
# _framework density 26.186081000000001
#
# number of rings (size 3 to 8) (size 9 to 14) (size 15 to 20)
#    0.000    0.571    2.857    3.429   12.000    0.000 
#    2.571    0.000    0.000    0.000    0.000    0.000 
#    0.000    0.000    0.000    0.000    0.000    0.000 
#
# Total GULP energy -78197.923634 kJ/mol
# GULP energy per Si atom -5585.565974 kJ/mol
# Density = 2.612648 g / cm^3
# Si number density = 26.186081 Si / 1000 Ang^3
#
#
#
# Elastic Constant Matrix: (Units=GPa)
#
#
# Indices 1 2 3 4 5 6 
#
# 1 183.9262 33.0538 37.1547 0.0000 -1.1659 0.0000
# 2 33.0538 56.3507 4.7543 0.0001 1.6844 0.0000
# 3 37.1547 4.7543 70.0749 0.0000 6.3900 0.0000
# 4 0.0000 0.0001 0.0000 26.6577 0.0000 -3.1545
# 5 -1.1659 1.6844 6.3900 0.0000 47.2203 0.0000
# 6 0.0000 0.0000 0.0000 -3.1545 0.0000 48.8543
#
#
#
# Elastic Compliance Matrix: (Units=1/GPa)
#
#
# Indices 1 2 3 4 5 6 
#
# 1 0.006803 -0.003724 -0.003424 0.000000 0.000764 0.000000
# 2 -0.003724 0.019898 0.000707 0.000000 -0.000897 0.000000
# 3 -0.003424 0.000707 0.016248 0.000000 -0.002309 0.000000
# 4 0.000000 0.000000 0.000000 0.037801 0.000000 0.002441
# 5 0.000764 -0.000897 -0.002309 0.000000 0.021541 0.000000
# 6 0.000000 0.000000 0.000000 0.002441 0.000000 0.020627
#
#
# Mechanical properties :
#
#
# Convention : Reuss Voigt Hill
#
# Bulk Modulus (GPa) = 33.26061 51.14194 42.20127
# Shear Modulus (GPa) = 34.28816 40.23907 37.26362
#
# Velocity S-wave (km/s) = 3.62249 3.92428 3.77640
# Velocity P-wave (km/s) = 5.49780 6.33292 5.93008
#
# Compressibility (1/GPa) = 0.03006559
#
# Stress axis : x y z
#
# Youngs Moduli (GPa) = 146.99888 50.25683 61.54439
#
# Poissons Ratio (x) = 0.18717 0.21072
# Poissons Ratio (y) = 0.54747 -0.04348
# Poissons Ratio (z) = 0.50331 -0.03551
#
# Static dielectric constant tensor:
#      x y z
#    x 2.093700 0.000000 0.066780 
#    y 0.000000 2.096740 0.000000 
#    z 0.066780 0.000000 2.060300 
# 
# From -- ./inp_files/11297.got.cif
#   From: 2010.05.17/outbox.cif.g08.bks.cpg/sg9_6_cif.got.tgz:11297.got - 2010.06.03 20:04:27.
