data_PCOD9140002
_publ_section_title
;
Structure prediction by ZEFSAII (Michael W. Deem and Ramdas Pophale) SiO2 
 PCOD9140002
Probable space group: C C
;
_chemical_formula_sum "Si O2"
_cell_formula_units_Z 28
_cell_length_a 10.263767
_cell_length_b 11.877076
_cell_length_c 11.645126
_cell_angle_alpha 90.000000
_cell_angle_beta 131.278689
_cell_angle_gamma 90.000000
_cell_volume 1066.829523
_symmetry_space_group_name_H-M "C C"
_symmetry_group_IT_number 9
_symmetry_cell_setting 'monoclinic'
loop_
_space_group_symop_operation_xyz
x,y,z
x,-y,1/2+z
1/2+x,1/2+y,z
1/2+x,1/2-y,1/2+z
loop_
_atom_site_type_symbol
_atom_site_label
_atom_site_fract_x
_atom_site_fract_y
_atom_site_fract_z
Si Si1 0.608410 0.940745 0.371060
Si Si2 0.847231 0.277892 0.953675
Si Si3 0.712750 0.048601 0.191850
Si Si4 0.743987 0.678156 0.964778
Si Si5 0.600637 0.269642 0.144390
Si Si6 0.247392 0.684256 0.678539
Si Si7 0.227469 0.941672 0.060310
O O1 0.746601 0.836371 0.435743
O O2 0.623098 0.976011 0.513479
O O3 0.406068 0.914404 0.231847
O O4 0.643836 0.026220 0.283591
O O5 0.846720 0.272577 0.815919
O O6 0.742588 0.381139 0.946196
O O7 0.046995 0.299716 0.104171
O O8 0.756508 0.180429 0.211070
O O9 0.830994 0.936932 0.253389
O O10 0.742101 0.786769 0.043488
O O11 0.712542 0.572436 0.027986
O O12 0.942130 0.683055 0.037161
O O13 0.622679 0.686592 0.785343
O O14 0.587499 0.375099 0.053290
#
# Coordination Sequence:
#
# PCOD9140002 Si02
#       7
#     4   4   4   4   4   4   4
#     4  11  23  43  74 107 144 206 255 319 385 479
#     4  11  22  45  68 108 136 200 249 307 380 469
#     4  11  22  45  75 103 149 202 253 308 394 469
#     4  12  28  50  73 111 155 196 253 330 383 477
#     4  12  26  50  77 110 150 201 258 312 401 463
#     4  11  25  43  73 106 149 191 252 315 395 456
#     4  12  26  46  76 107 151 202 252 315 396 463
#
# _framework density 26.245992000000001
#
# number of rings (size 3 to 8) (size 9 to 14) (size 15 to 20)
#    0.000    0.571    5.714    2.571    4.000    0.000 
#   10.286    0.000    0.000    0.000    0.000    0.000 
#    0.000    0.000    0.000    0.000    0.000    0.000 
#
# Total GULP energy -78122.059895 kJ/mol
# GULP energy per Si atom -5580.147135 kJ/mol
# Density = 2.618625 g / cm^3
# Si number density = 26.245992 Si / 1000 Ang^3
#
#
#
# Elastic Constant Matrix: (Units=GPa)
#
#
# Indices 1 2 3 4 5 6 
#
# 1 62.1013 18.8648 44.0809 0.0000 -8.7289 0.0000
# 2 18.8648 147.7028 26.1462 0.0000 -11.1157 0.0000
# 3 44.0809 26.1462 107.3357 0.0000 -16.7368 0.0000
# 4 0.0000 0.0000 0.0000 40.4298 0.0000 -22.3673
# 5 -8.7289 -11.1157 -16.7368 0.0000 55.7913 0.0000
# 6 0.0000 0.0000 0.0000 -22.3673 0.0000 37.5202
#
#
#
# Elastic Compliance Matrix: (Units=1/GPa)
#
#
# Indices 1 2 3 4 5 6 
#
# 1 0.022993 -0.001291 -0.009030 0.000000 0.000631 0.000000
# 2 -0.001291 0.007195 -0.001081 0.000000 0.000907 0.000000
# 3 -0.009030 -0.001081 0.013674 0.000000 0.002474 0.000000
# 4 0.000000 0.000000 0.000000 0.036906 0.000000 0.022001
# 5 0.000631 0.000907 0.002474 0.000000 0.018946 0.000000
# 6 0.000000 0.000000 0.000000 0.022001 0.000000 0.039768
#
#
# Mechanical properties :
#
#
# Convention : Reuss Voigt Hill
#
# Bulk Modulus (GPa) = 47.48667 55.03597 51.26132
# Shear Modulus (GPa) = 29.53240 41.95146 35.74193
#
# Velocity S-wave (km/s) = 3.35806 4.00233 3.69427
# Velocity P-wave (km/s) = 5.75914 6.50946 6.14576
#
# Compressibility (1/GPa) = 0.02105854
#
# Stress axis : x y z
#
# Youngs Moduli (GPa) = 43.49091 138.98823 73.13066
#
# Poissons Ratio (x) = 0.17940 0.66038
# Poissons Ratio (y) = 0.05614 0.07906
# Poissons Ratio (z) = 0.39273 0.15026
#
# Static dielectric constant tensor:
#      x y z
#    x 2.359410 0.000000 0.141840 
#    y 0.000000 2.038250 0.000000 
#    z 0.141840 0.000000 2.065760 
# 
# From -- ./inp_files/16370.got.cif
#   From: 2010.05.17/outbox.cif.g08.bks.cpg/sg9_9_cif.got.tgz:16370.got - 2010.06.03 20:04:27.
