data_PCOD9140228
_publ_section_title
;
Structure prediction by ZEFSAII (Michael W. Deem and Ramdas Pophale) SiO2 
 PCOD9140228
Probable space group: C C
;
_chemical_formula_sum "Si O2"
_cell_formula_units_Z 32
_cell_length_a 19.721514
_cell_length_b 13.603285
_cell_length_c 13.935751
_cell_angle_alpha 90.000000
_cell_angle_beta 157.599622
_cell_angle_gamma 90.000000
_cell_volume 1424.710311
_symmetry_space_group_name_H-M "C C"
_symmetry_group_IT_number 9
_symmetry_cell_setting 'monoclinic'
loop_
_space_group_symop_operation_xyz
x,y,z
x,-y,1/2+z
1/2+x,1/2+y,z
1/2+x,1/2-y,1/2+z
loop_
_atom_site_type_symbol
_atom_site_label
_atom_site_fract_x
_atom_site_fract_y
_atom_site_fract_z
Si Si1 0.269730 0.542365 0.021950
Si Si2 0.300725 0.894225 0.163585
Si Si3 0.370916 0.234045 0.300190
Si Si4 0.274932 0.326177 0.352869
Si Si5 0.986383 0.388900 0.596624
Si Si6 0.092937 0.073730 0.903875
Si Si7 0.053061 0.708567 0.840451
Si Si8 0.823992 0.229610 0.512344
O O1 0.451861 0.486254 0.285143
O O2 0.297875 0.578721 0.948831
O O3 0.203139 0.636741 0.992869
O O4 0.105517 0.467589 0.807652
O O5 0.382260 0.930826 0.370340
O O6 0.448714 0.846707 0.288539
O O7 0.157235 0.809246 0.000095
O O8 0.204978 0.990392 0.995494
O O9 0.326027 0.326928 0.308193
O O10 0.568197 0.200789 0.583772
O O11 0.350004 0.254650 0.160276
O O12 0.228139 0.147584 0.133719
O O13 0.400586 0.242661 0.565445
O O14 0.864389 0.327734 0.508428
O O15 0.129686 0.312278 0.740787
O O16 0.968610 0.144962 0.677322
#
# Coordination Sequence:
#
# PCOD9140228 Si02
#       8
#     4   4   4   4   4   4   4   4
#     4  11  25  45  67 103 139 180 231 294 344 417
#     4  12  24  44  70  99 136 184 230 280 349 419
#     4  12  23  41  72 101 134 183 226 287 356 406
#     4  12  22  43  71 100 138 177 236 283 356 409
#     4  11  25  44  70  98 137 180 232 276 347 421
#     4  11  24  44  66 103 139 178 233 288 349 422
#     4  12  24  45  70  99 141 183 227 294 348 409
#     4  11  23  46  68  97 140 177 223 288 345 413
#
# _framework density 22.460708
#
# number of rings (size 3 to 8) (size 9 to 14) (size 15 to 20)
#    0.000    0.500    6.250    1.500    1.750    0.000 
#    4.500    1.250    2.750    0.000    0.000    0.000 
#    0.000    0.000    0.000    0.000    0.000    0.000 
#
# Total GULP energy -89425.994476 kJ/mol
# GULP energy per Si atom -5589.124655 kJ/mol
# Density = 2.240959 g / cm^3
# Si number density = 22.460708 Si / 1000 Ang^3
#
#
#
# Elastic Constant Matrix: (Units=GPa)
#
#
# Indices 1 2 3 4 5 6 
#
# 1 63.8676 10.3168 2.4445 0.0000 -3.8647 0.0000
# 2 10.3168 76.7236 -2.9989 0.0000 5.2271 0.0000
# 3 2.4445 -2.9989 86.0178 0.0000 13.7387 0.0000
# 4 0.0000 0.0000 0.0000 42.2570 0.0000 12.4754
# 5 -3.8647 5.2271 13.7387 0.0000 19.0074 0.0000
# 6 0.0000 0.0000 0.0000 12.4754 0.0000 33.2838
#
#
#
# Elastic Compliance Matrix: (Units=1/GPa)
#
#
# Indices 1 2 3 4 5 6 
#
# 1 0.016436 -0.002607 -0.001364 0.000000 0.005044 0.000000
# 2 -0.002607 0.013804 0.001409 0.000000 -0.005345 0.000000
# 3 -0.001364 0.001409 0.013362 0.000000 -0.010323 0.000000
# 4 0.000000 0.000000 0.000000 0.026609 0.000000 -0.009974
# 5 0.005044 -0.005345 -0.010323 0.000000 0.062568 0.000000
# 6 0.000000 0.000000 0.000000 -0.009974 0.000000 0.033783
#
#
# Mechanical properties :
#
#
# Convention : Reuss Voigt Hill
#
# Bulk Modulus (GPa) = 25.98883 27.34821 26.66852
# Shear Modulus (GPa) = 27.09858 33.36608 30.23233
#
# Velocity S-wave (km/s) = 3.47722 3.85844 3.67278
# Velocity P-wave (km/s) = 5.26473 5.66150 5.46671
#
# Compressibility (1/GPa) = 0.03847807
#
# Stress axis : x y z
#
# Youngs Moduli (GPa) = 60.84224 72.44514 74.83822
#
# Poissons Ratio (x) = 0.18887 0.10206
# Poissons Ratio (y) = 0.15862 -0.10544
# Poissons Ratio (z) = 0.08297 -0.10207
#
# Static dielectric constant tensor:
#      x y z
#    x 1.855610 0.000000 0.015710 
#    y 0.000000 1.825540 0.000000 
#    z 0.015710 0.000000 1.829910 
# 
# From -- ./inp_files/27484.got.cif
#   From: 2010.05.17/outbox.cif.g08.bks.cpg/sg9_14_cif.got.tgz:27484.got - 2010.06.03 20:04:27.
