data_PCOD9140559
_publ_section_title
;
Structure prediction by ZEFSAII (Michael W. Deem and Ramdas Pophale) SiO2 
 PCOD9140559
Probable space group: C C
;
_chemical_formula_sum "Si O2"
_cell_formula_units_Z 32
_cell_length_a 12.676009
_cell_length_b 18.858204
_cell_length_c 9.164567
_cell_angle_alpha 90.000000
_cell_angle_beta 39.029024
_cell_angle_gamma 90.000000
_cell_volume 1379.552260
_symmetry_space_group_name_H-M "C C"
_symmetry_group_IT_number 9
_symmetry_cell_setting 'monoclinic'
loop_
_space_group_symop_operation_xyz
x,y,z
x,-y,1/2+z
1/2+x,1/2+y,z
1/2+x,1/2-y,1/2+z
loop_
_atom_site_type_symbol
_atom_site_label
_atom_site_fract_x
_atom_site_fract_y
_atom_site_fract_z
Si Si1 0.892360 0.162134 0.920770
Si Si2 0.764801 0.841064 0.133670
Si Si3 0.664182 0.320468 0.741631
Si Si4 0.728976 0.440209 0.446022
Si Si5 0.765849 0.689023 0.458937
Si Si6 0.206402 0.444555 0.437648
Si Si7 0.391367 0.055582 0.463310
Si Si8 0.350383 0.586837 0.247890
O O1 0.814199 0.229435 0.923627
O O2 0.854863 0.091389 0.870717
O O3 0.086507 0.177537 0.723511
O O4 0.826540 0.146713 0.152340
O O5 0.765970 0.886154 0.985680
O O6 0.963673 0.834818 0.961586
O O7 0.693569 0.762830 0.183367
O O8 0.663506 0.883738 0.366226
O O9 0.746213 0.371190 0.531746
O O10 0.745004 0.333532 0.813448
O O11 0.753315 0.508126 0.525490
O O12 0.545191 0.430112 0.572710
O O13 0.856315 0.448214 0.172944
O O14 0.884967 0.637445 0.420213
O O15 0.270454 0.513155 0.285661
O O16 0.065187 0.467132 0.703957
#
# Coordination Sequence:
#
# PCOD9140559 Si02
#       8
#     4   4   4   4   4   4   4   4
#     4  12  25  45  73 107 143 195 241 297 366 433
#     4  11  26  44  73 103 139 190 235 296 360 423
#     4  11  24  48  71 103 139 189 239 294 359 431
#     4  11  27  49  74 108 142 192 241 304 370 432
#     4  12  23  46  73 103 148 187 243 294 362 440
#     4  12  26  47  71 106 145 191 246 295 365 432
#     4  12  28  45  74 109 142 189 241 304 370 431
#     4  11  27  46  73 105 148 189 240 300 362 442
#
# _framework density 23.195933
#
# number of rings (size 3 to 8) (size 9 to 14) (size 15 to 20)
#    0.000    0.500    3.750    3.000   10.500    1.000 
#    0.000    0.000    0.000    0.000    0.000    0.000 
#    0.000    0.000    0.000    0.000    0.000    0.000 
#
# Total GULP energy -89553.937371 kJ/mol
# GULP energy per Si atom -5597.121086 kJ/mol
# Density = 2.314314 g / cm^3
# Si number density = 23.195933 Si / 1000 Ang^3
#
#
#
# Elastic Constant Matrix: (Units=GPa)
#
#
# Indices 1 2 3 4 5 6 
#
# 1 56.2697 28.2059 25.3074 -0.0001 23.1404 -0.0001
# 2 28.2059 88.5039 41.6022 -0.0001 24.8195 -0.0002
# 3 25.3074 41.6022 120.6805 -0.0001 33.4285 -0.0002
# 4 -0.0001 -0.0001 -0.0001 24.0533 0.0001 -11.0530
# 5 23.1404 24.8195 33.4285 0.0001 32.4267 0.0001
# 6 -0.0001 -0.0002 -0.0002 -11.0530 0.0001 20.7096
#
#
#
# Elastic Compliance Matrix: (Units=1/GPa)
#
#
# Indices 1 2 3 4 5 6 
#
# 1 0.026205 -0.004027 0.000307 0.000000 -0.015934 0.000000
# 2 -0.004027 0.015649 -0.002839 0.000000 -0.006177 0.000000
# 3 0.000307 -0.002839 0.012121 0.000000 -0.010541 0.000000
# 4 0.000000 0.000000 0.000000 0.055084 -0.000001 0.029399
# 5 -0.015934 -0.006177 -0.010541 -0.000001 0.057805 -0.000001
# 6 0.000000 0.000000 0.000000 0.029399 -0.000001 0.063977
#
#
# Mechanical properties :
#
#
# Convention : Reuss Voigt Hill
#
# Bulk Modulus (GPa) = 24.47625 50.63167 37.55396
# Shear Modulus (GPa) = 19.41158 26.79383 23.10271
#
# Velocity S-wave (km/s) = 2.89598 3.40238 3.15934
# Velocity P-wave (km/s) = 4.66445 6.10820 5.43448
#
# Compressibility (1/GPa) = 0.04085593
#
# Stress axis : x y z
#
# Youngs Moduli (GPa) = 38.16048 63.90075 82.50436
#
# Poissons Ratio (x) = 0.25734 -0.02531
# Poissons Ratio (y) = 0.15368 0.23424
# Poissons Ratio (z) = -0.01171 0.18142
#
# Static dielectric constant tensor:
#      x y z
#    x 1.890520 0.000000 -0.018930 
#    y 0.000000 1.957010 0.000000 
#    z -0.018930 0.000000 1.844780 
# 
# From -- ./inp_files/9926.got.cif
#   From: 2010.05.17/outbox.cif.g08.bks.cpg/sg9_5_cif.got.tgz:9926.got - 2010.06.03 20:04:27.
