data_PCOD9140598
_publ_section_title
;
Structure prediction by ZEFSAII (Michael W. Deem and Ramdas Pophale) SiO2 
 PCOD9140598
Probable space group: C C
;
_chemical_formula_sum "Si O2"
_cell_formula_units_Z 28
_cell_length_a 11.830598
_cell_length_b 7.241743
_cell_length_c 12.084833
_cell_angle_alpha 90.000000
_cell_angle_beta 74.801861
_cell_angle_gamma 90.000000
_cell_volume 999.146170
_symmetry_space_group_name_H-M "C C"
_symmetry_group_IT_number 9
_symmetry_cell_setting 'monoclinic'
loop_
_space_group_symop_operation_xyz
x,y,z
x,-y,1/2+z
1/2+x,1/2+y,z
1/2+x,1/2-y,1/2+z
loop_
_atom_site_type_symbol
_atom_site_label
_atom_site_fract_x
_atom_site_fract_y
_atom_site_fract_z
Si Si1 0.132860 0.219589 0.143930
Si Si2 0.468136 0.217572 0.500396
Si Si3 0.999048 0.698799 0.049344
Si Si4 0.701979 0.687721 0.649602
Si Si5 0.848003 0.338043 0.812505
Si Si6 0.905530 0.249565 0.342906
Si Si7 0.737183 0.983427 0.258196
O O1 0.234206 0.293141 0.328418
O O2 0.222315 0.389679 0.138670
O O3 0.025452 0.286789 0.247210
O O4 0.185055 0.028249 0.173620
O O5 0.570681 0.317957 0.541831
O O6 0.339967 0.224923 0.593290
O O7 0.429787 0.250181 0.385981
O O8 0.512584 0.007310 0.499505
O O9 0.938635 0.797876 0.960475
O O10 0.119438 0.772160 0.067141
O O11 0.663944 0.830077 0.755474
O O12 0.835393 0.554127 0.850765
O O13 0.915727 0.315958 0.678629
O O14 0.844781 0.082893 0.293644
#
# Coordination Sequence:
#
# PCOD9140598 Si02
#       7
#     4   4   4   4   4   4   4
#     4  12  25  47  76 109 148 196 251 314 378 449
#     4  11  25  50  74 109 153 196 252 319 372 456
#     4  11  24  50  73 109 151 197 248 310 382 451
#     4  12  26  47  78 110 151 200 254 310 385 451
#     4  11  25  48  78 108 157 196 251 315 376 462
#     4  11  25  47  76 107 152 195 249 316 377 449
#     4  12  24  45  77 110 148 196 249 308 380 450
#
# _framework density 28.023927
#
# number of rings (size 3 to 8) (size 9 to 14) (size 15 to 20)
#    0.000    0.571    4.286    2.571    4.000    0.000 
#    0.000    5.714    0.000    0.000    0.000    0.000 
#    0.000    0.000    0.000    0.000    0.000    0.000 
#
# Total GULP energy -78231.260086 kJ/mol
# GULP energy per Si atom -5587.947149 kJ/mol
# Density = 2.796014 g / cm^3
# Si number density = 28.023927 Si / 1000 Ang^3
#
#
#
# Elastic Constant Matrix: (Units=GPa)
#
#
# Indices 1 2 3 4 5 6 
#
# 1 141.7539 83.4291 44.4977 0.0000 50.3283 0.0000
# 2 83.4291 187.1356 43.1360 0.0000 40.9922 0.0000
# 3 44.4977 43.1360 134.5849 0.0000 45.4348 0.0000
# 4 0.0000 0.0000 0.0000 31.3992 0.0000 30.2296
# 5 50.3283 40.9922 45.4348 0.0000 62.8411 0.0000
# 6 0.0000 0.0000 0.0000 30.2296 0.0000 45.7664
#
#
#
# Elastic Compliance Matrix: (Units=1/GPa)
#
#
# Indices 1 2 3 4 5 6 
#
# 1 0.011718 -0.003659 -0.000449 0.000000 -0.006674 0.000000
# 2 -0.003659 0.007447 -0.000696 0.000000 -0.001424 0.000000
# 3 -0.000449 -0.000696 0.009958 0.000000 -0.006386 0.000000
# 4 0.000000 0.000000 0.000000 0.087474 0.000000 -0.057778
# 5 -0.006674 -0.001424 -0.006386 0.000000 0.026804 0.000000
# 6 0.000000 0.000000 0.000000 -0.057778 0.000000 0.060014
#
#
# Mechanical properties :
#
#
# Convention : Reuss Voigt Hill
#
# Bulk Modulus (GPa) = 51.24200 89.51109 70.37654
# Shear Modulus (GPa) = 22.77612 47.49546 35.13579
#
# Velocity S-wave (km/s) = 2.85395 4.12128 3.54471
# Velocity P-wave (km/s) = 5.40230 7.39303 6.47463
#
# Compressibility (1/GPa) = 0.01951524
#
# Stress axis : x y z
#
# Youngs Moduli (GPa) = 85.33719 134.27421 100.42557
#
# Poissons Ratio (x) = 0.49130 0.04506
# Poissons Ratio (y) = 0.31224 0.06994
# Poissons Ratio (z) = 0.03829 0.09352
#
# Static dielectric constant tensor:
#      x y z
#    x 2.242850 0.000000 -0.013930 
#    y 0.000000 2.131480 0.000000 
#    z -0.013930 0.000000 2.254720 
# 
# From -- ./inp_files/29667.got.cif
#   From: 2010.05.17/outbox.cif.g08.bks.cpg/sg9_15_cif.got.tgz:29667.got - 2010.06.03 20:04:27.
