data_PCOD9140929
_publ_section_title
;
Structure prediction by ZEFSAII (Michael W. Deem and Ramdas Pophale) SiO2 
 PCOD9140929
Probable space group: C C
;
_chemical_formula_sum "Si O2"
_cell_formula_units_Z 20
_cell_length_a 11.906414
_cell_length_b 9.911676
_cell_length_c 8.761948
_cell_angle_alpha 90.000000
_cell_angle_beta 137.383655
_cell_angle_gamma 90.000000
_cell_volume 700.120087
_symmetry_space_group_name_H-M "C C"
_symmetry_group_IT_number 9
_symmetry_cell_setting 'monoclinic'
loop_
_space_group_symop_operation_xyz
x,y,z
x,-y,1/2+z
1/2+x,1/2+y,z
1/2+x,1/2-y,1/2+z
loop_
_atom_site_type_symbol
_atom_site_label
_atom_site_fract_x
_atom_site_fract_y
_atom_site_fract_z
Si Si1 0.000000 0.301261 0.118990
Si Si2 0.677611 0.049777 0.362776
Si Si3 0.500000 0.448132 0.396016
Si Si4 0.499999 0.750746 0.475655
Si Si5 0.822388 0.549776 0.007553
O O1 0.158021 0.402067 0.269640
O O2 1.000000 0.255432 0.294238
O O3 0.000000 0.180666 0.003920
O O4 0.841979 0.402067 0.953598
O O5 0.836210 0.060738 0.626155
O O6 0.645551 0.157541 0.196876
O O7 0.499999 0.063506 0.276286
O O8 0.499999 0.587933 0.493820
O O9 0.663789 0.560738 0.953734
O O10 0.354448 0.842459 0.405773
#
# Coordination Sequence:
#
# PCOD9140929 Si02
#       5
#     4   4   4   4   4
#     4   9  23  51  86 136 178 233 311 375 438 556
#     4   8  24  53  80 130 188 229 294 384 448 541
#     4  12  22  52  96 123 175 254 293 358 483 533
#     4   9  23  51  84 135 185 223 308 385 435 551
#     4   8  24  53  80 130 188 229 294 384 448 541
#
# _framework density 28.566531000000001
#
# number of rings (size 3 to 8) (size 9 to 14) (size 15 to 20)
#    2.400    0.000    0.000    0.000    0.000    4.800 
#    7.200   16.000    0.000    9.600    0.000    0.000 
#    0.000    0.000    0.000    0.000    0.000    0.000 
#
# Total GULP energy -55996.348518 kJ/mol
# GULP energy per Si atom -5599.634852 kJ/mol
# Density = 2.850151 g / cm^3
# Si number density = 28.566531 Si / 1000 Ang^3
#
#
#
# Elastic Constant Matrix: (Units=GPa)
#
#
# Indices 1 2 3 4 5 6 
#
# 1 229.6190 115.9797 139.7474 0.0000 15.0378 0.0000
# 2 115.9797 332.8560 147.0957 0.0000 -24.8753 0.0000
# 3 139.7474 147.0957 209.7776 0.0000 0.8252 0.0000
# 4 0.0000 0.0000 0.0000 68.1338 0.0000 -9.0724
# 5 15.0378 -24.8753 0.8252 0.0000 46.8946 0.0000
# 6 0.0000 0.0000 0.0000 -9.0724 0.0000 56.7872
#
#
#
# Elastic Compliance Matrix: (Units=1/GPa)
#
#
# Indices 1 2 3 4 5 6 
#
# 1 0.007755 -0.000929 -0.004503 0.000000 -0.002900 0.000000
# 2 -0.000929 0.004743 -0.002718 0.000000 0.002862 0.000000
# 3 -0.004503 -0.002718 0.009674 0.000000 -0.000168 0.000000
# 4 0.000000 0.000000 0.000000 0.014996 0.000000 0.002396
# 5 -0.002900 0.002862 -0.000168 0.000000 0.023775 0.000000
# 6 0.000000 0.000000 0.000000 0.002396 0.000000 0.017992
#
#
# Mechanical properties :
#
#
# Convention : Reuss Voigt Hill
#
# Bulk Modulus (GPa) = 170.33903 175.32203 172.83053
# Shear Modulus (GPa) = 51.44373 58.99177 55.21775
#
# Velocity S-wave (km/s) = 4.24823 4.54923 4.40131
# Velocity P-wave (km/s) = 9.15542 9.43930 9.29844
#
# Compressibility (1/GPa) = 0.00587065
#
# Stress axis : x y z
#
# Youngs Moduli (GPa) = 128.95115 210.83372 103.37123
#
# Poissons Ratio (x) = 0.19579 0.46553
# Poissons Ratio (y) = 0.11975 0.28101
# Poissons Ratio (z) = 0.58073 0.57314
#
# Static dielectric constant tensor:
#      x y z
#    x 2.445330 0.000000 0.148690 
#    y 0.000000 2.269970 0.000000 
#    z 0.148690 0.000000 2.259360 
# 
# From -- ./inp_files/6700.got.cif
#   From: 2010.05.17/outbox.cif.g08.bks.cpg/sg9_4_cif.got.tgz:6700.got - 2010.06.03 20:04:27.
