data_PCOD9140188
_publ_section_title
;
Structure prediction by ZEFSAII (Michael W. Deem and Ramdas Pophale) SiO2 
 PCOD9140188
Probable space group: C C
;
_chemical_formula_sum "Si O2"
_cell_formula_units_Z 28
_cell_length_a 8.287233
_cell_length_b 21.114297
_cell_length_c 7.740404
_cell_angle_alpha 90.000000
_cell_angle_beta 126.358515
_cell_angle_gamma 90.000000
_cell_volume 1090.736992
_symmetry_space_group_name_H-M "C C"
_symmetry_group_IT_number 9
_symmetry_cell_setting 'monoclinic'
loop_
_space_group_symop_operation_xyz
x,y,z
x,-y,1/2+z
1/2+x,1/2+y,z
1/2+x,1/2-y,1/2+z
loop_
_atom_site_type_symbol
_atom_site_label
_atom_site_fract_x
_atom_site_fract_y
_atom_site_fract_z
Si Si1 0.220110 0.568999 0.951860
Si Si2 0.175774 0.272291 0.019499
Si Si3 0.604934 0.822811 0.592692
Si Si4 0.279923 0.075372 0.500344
Si Si5 0.064955 0.024048 0.681284
Si Si6 0.019836 0.142570 0.887873
Si Si7 0.854515 0.292323 0.116231
O O1 0.376272 0.612896 0.943528
O O2 0.007805 0.566154 0.714011
O O3 0.174767 0.605707 0.101551
O O4 0.341500 0.504204 0.054073
O O5 0.108642 0.299907 0.791106
O O6 0.185348 0.195578 0.035696
O O7 0.374262 0.312513 0.182090
O O8 0.031252 0.285745 0.090338
O O9 0.747757 0.773312 0.581402
O O10 0.411684 0.815367 0.345893
O O11 0.112835 0.050405 0.525133
O O12 0.233482 0.149570 0.457427
O O13 0.230709 0.031541 0.308039
O O14 0.096917 0.082043 0.832187
#
# Coordination Sequence:
#
# PCOD9140188 Si02
#       7
#     4   4   4   4   4   4   4
#     4  11  26  51  75 114 159 208 268 333 395 485
#     4  12  24  45  80 108 155 205 260 334 403 476
#     4  11  24  42  74 109 152 202 257 329 402 463
#     4  11  27  48  72 112 153 206 265 331 396 479
#     4  12  28  50  77 110 158 210 271 322 409 487
#     4  12  26  51  74 116 153 207 268 328 408 476
#     4  11  23  45  68 111 154 192 263 327 393 472
#
# _framework density 25.670717
#
# number of rings (size 3 to 8) (size 9 to 14) (size 15 to 20)
#    0.000    0.571    5.714    1.714    6.000    2.286 
#   10.286    0.000    0.000    0.000    0.000    0.000 
#    0.000    0.000    0.000    0.000    0.000    0.000 
#
# Total GULP energy -78315.037102 kJ/mol
# GULP energy per Si atom -5593.931222 kJ/mol
# Density = 2.561229 g / cm^3
# Si number density = 25.670717 Si / 1000 Ang^3
#
#
#
# Elastic Constant Matrix: (Units=GPa)
#
#
# Indices 1 2 3 4 5 6 
#
# 1 72.1116 7.1598 37.2330 0.0000 -3.7204 0.0000
# 2 7.1598 96.9469 30.9717 0.0000 14.9717 0.0000
# 3 37.2330 30.9717 94.6118 0.0000 -2.4539 0.0000
# 4 0.0000 0.0000 0.0000 39.6230 0.0000 3.9375
# 5 -3.7204 14.9717 -2.4539 0.0000 44.7892 0.0000
# 6 0.0000 0.0000 0.0000 3.9375 0.0000 54.2646
#
#
#
# Elastic Compliance Matrix: (Units=1/GPa)
#
#
# Indices 1 2 3 4 5 6 
#
# 1 0.017517 0.000875 -0.007160 0.000000 0.000770 0.000000
# 2 0.000875 0.012352 -0.004499 0.000000 -0.004303 0.000000
# 3 -0.007160 -0.004499 0.014905 0.000000 0.001726 0.000000
# 4 0.000000 0.000000 0.000000 0.025421 0.000000 -0.001845
# 5 0.000770 -0.004303 0.001726 0.000000 0.023924 0.000000
# 6 0.000000 0.000000 0.000000 -0.001845 0.000000 0.018562
#
#
# Mechanical properties :
#
#
# Convention : Reuss Voigt Hill
#
# Bulk Modulus (GPa) = 43.09419 46.04435 44.56927
# Shear Modulus (GPa) = 35.21487 40.28908 37.75198
#
# Velocity S-wave (km/s) = 3.70779 3.96593 3.83903
# Velocity P-wave (km/s) = 5.92908 6.24075 6.08691
#
# Compressibility (1/GPa) = 0.02320498
#
# Stress axis : x y z
#
# Youngs Moduli (GPa) = 57.08689 80.95695 67.09215
#
# Poissons Ratio (x) = -0.07082 0.48038
# Poissons Ratio (y) = -0.04994 0.30188
# Poissons Ratio (z) = 0.40874 0.36426
#
# Static dielectric constant tensor:
#      x y z
#    x 2.045810 0.000000 0.064120 
#    y 0.000000 2.100830 0.000000 
#    z 0.064120 0.000000 2.146200 
# 
# From -- ./inp_files/5887.got.cif
#   From: 2010.05.17/outbox.cif.g08.bks.cpg/sg9_3_cif.got.tgz:5887.got - 2010.06.03 20:04:27.
