data_PCOD9140940
_publ_section_title
;
Structure prediction by ZEFSAII (Michael W. Deem and Ramdas Pophale) SiO2 
 PCOD9140940
Probable space group: C C
;
_chemical_formula_sum "Si O2"
_cell_formula_units_Z 32
_cell_length_a 8.045780
_cell_length_b 21.744143
_cell_length_c 10.914609
_cell_angle_alpha 90.000000
_cell_angle_beta 42.841647
_cell_angle_gamma 90.000000
_cell_volume 1298.408140
_symmetry_space_group_name_H-M "C C"
_symmetry_group_IT_number 9
_symmetry_cell_setting 'monoclinic'
loop_
_space_group_symop_operation_xyz
x,y,z
x,-y,1/2+z
1/2+x,1/2+y,z
1/2+x,1/2-y,1/2+z
loop_
_atom_site_type_symbol
_atom_site_label
_atom_site_fract_x
_atom_site_fract_y
_atom_site_fract_z
Si Si1 0.745910 0.611367 0.283990
Si Si2 0.517511 0.299485 0.210127
Si Si3 0.217369 0.560399 0.629800
Si Si4 0.574398 0.983802 0.475310
Si Si5 0.370166 0.178098 0.811977
Si Si6 0.480832 0.785100 0.526299
Si Si7 0.845766 0.794910 0.667335
Si Si8 0.955867 0.385693 0.937332
O O1 0.475851 0.590928 0.461684
O O2 0.907021 0.608742 0.319475
O O3 0.868161 0.565468 0.119940
O O4 0.774142 0.678084 0.210213
O O5 0.250539 0.314075 0.402765
O O6 0.625528 0.237012 0.210296
O O7 0.490698 0.281918 0.081385
O O8 0.723745 0.349603 0.115554
O O9 0.192922 0.504952 0.542460
O O10 0.212078 0.540405 0.777084
O O11 0.006996 0.612875 0.722642
O O12 0.465964 0.047764 0.487733
O O13 0.432265 0.203164 0.912490
O O14 0.445167 0.234740 0.684264
O O15 0.072423 0.176064 0.971662
O O16 0.705183 0.846768 0.821090
#
# Coordination Sequence:
#
# PCOD9140940 Si02
#       8
#     4   4   4   4   4   4   4   4
#     4  12  28  51  83 116 161 214 275 339 409 480
#     4  12  23  46  75 113 158 215 266 328 405 495
#     4  12  30  54  84 122 164 216 276 341 415 485
#     4  12  29  55  81 118 156 220 276 342 403 483
#     4  12  27  46  74 122 165 210 262 341 408 490
#     4  12  24  45  75 113 167 207 269 327 411 488
#     4  12  25  46  75 115 165 209 264 328 412 485
#     4  12  26  49  81 115 156 215 268 336 405 492
#
# _framework density 24.645564
#
# number of rings (size 3 to 8) (size 9 to 14) (size 15 to 20)
#    0.000    0.000    6.250    2.250    3.500    2.000 
#    0.000    0.000    0.000    0.000    0.000    0.000 
#    0.000    0.000    0.000    0.000    0.000    0.000 
#
# Total GULP energy -89579.839113 kJ/mol
# GULP energy per Si atom -5598.739945 kJ/mol
# Density = 2.458947 g / cm^3
# Si number density = 24.645564 Si / 1000 Ang^3
#
#
#
# Elastic Constant Matrix: (Units=GPa)
#
#
# Indices 1 2 3 4 5 6 
#
# 1 78.8827 21.1526 40.2817 0.0000 8.5977 0.0000
# 2 21.1526 73.7158 44.5397 0.0000 -12.2498 0.0000
# 3 40.2817 44.5397 173.6659 0.0000 -13.6478 0.0000
# 4 0.0000 0.0000 0.0000 47.1244 0.0000 12.3442
# 5 8.5977 -12.2498 -13.6478 0.0000 51.6841 0.0000
# 6 0.0000 0.0000 0.0000 12.3442 0.0000 38.5860
#
#
#
# Elastic Compliance Matrix: (Units=1/GPa)
#
#
# Indices 1 2 3 4 5 6 
#
# 1 0.015604 -0.003300 -0.003103 0.000000 -0.004197 0.000000
# 2 -0.003300 0.017151 -0.003340 0.000000 0.003732 0.000000
# 3 -0.003103 -0.003340 0.007468 0.000000 0.001697 0.000000
# 4 0.000000 0.000000 0.000000 0.023161 0.000000 -0.007410
# 5 -0.004197 0.003732 0.001697 0.000000 0.021379 0.000000
# 6 0.000000 0.000000 0.000000 -0.007410 0.000000 0.028287
#
#
# Mechanical properties :
#
#
# Convention : Reuss Voigt Hill
#
# Bulk Modulus (GPa) = 48.22371 59.80136 54.01254
# Shear Modulus (GPa) = 35.85583 42.16494 39.01038
#
# Velocity S-wave (km/s) = 3.81840 4.14073 3.98283
# Velocity P-wave (km/s) = 6.24897 6.86863 6.56612
#
# Compressibility (1/GPa) = 0.02073669
#
# Stress axis : x y z
#
# Youngs Moduli (GPa) = 64.08644 58.30652 133.90924
#
# Poissons Ratio (x) = 0.19243 0.41549
# Poissons Ratio (y) = 0.21150 0.44723
# Poissons Ratio (z) = 0.19884 0.19473
#
# Static dielectric constant tensor:
#      x y z
#    x 2.055430 0.000000 0.076830 
#    y 0.000000 1.935820 0.000000 
#    z 0.076830 0.000000 1.961400 
# 
# From -- ./inp_files/15640.got.cif
#   From: 2010.05.17/outbox.cif.g08.bks.cpg/sg9_8_cif.got.tgz:15640.got - 2010.06.03 20:04:27.
