data_PCOD9140644
_publ_section_title
;
Structure prediction by ZEFSAII (Michael W. Deem and Ramdas Pophale) SiO2 
 PCOD9140644
Probable space group: C C
;
_chemical_formula_sum "Si O2"
_cell_formula_units_Z 32
_cell_length_a 9.666512
_cell_length_b 15.995209
_cell_length_c 15.338966
_cell_angle_alpha 90.000000
_cell_angle_beta 33.585717
_cell_angle_gamma 90.000000
_cell_volume 1311.974300
_symmetry_space_group_name_H-M "C C"
_symmetry_group_IT_number 9
_symmetry_cell_setting 'monoclinic'
loop_
_space_group_symop_operation_xyz
x,y,z
x,-y,1/2+z
1/2+x,1/2+y,z
1/2+x,1/2-y,1/2+z
loop_
_atom_site_type_symbol
_atom_site_label
_atom_site_fract_x
_atom_site_fract_y
_atom_site_fract_z
Si Si1 0.313640 0.277219 0.253350
Si Si2 0.344210 0.328509 0.818226
Si Si3 0.151018 0.870479 0.938825
Si Si4 0.734769 0.636960 0.849310
Si Si5 0.434463 0.946113 0.951739
Si Si6 0.463383 0.590756 0.822281
Si Si7 0.833539 0.628150 0.984779
Si Si8 0.237231 0.566570 0.529307
O O1 0.319159 0.182498 0.283478
O O2 0.362201 0.337911 0.310989
O O3 0.034775 0.299477 0.369254
O O4 0.496355 0.303880 0.079596
O O5 0.318939 0.233465 0.802532
O O6 0.632834 0.355530 0.664232
O O7 0.249442 0.350208 0.964112
O O8 0.164862 0.386723 0.853255
O O9 0.313216 0.919647 0.923779
O O10 0.950570 0.925893 0.991018
O O11 0.532738 0.626245 0.880621
O O12 0.666182 0.621880 0.985525
O O13 0.961833 0.572388 0.713137
O O14 0.489809 0.043952 0.916435
O O15 0.219471 0.936960 0.138820
O O16 0.292360 0.510894 0.935956
#
# Coordination Sequence:
#
# PCOD9140644 Si02
#       8
#     4   4   4   4   4   4   4   4
#     4  11  25  46  69 102 140 182 228 287 351 415
#     4  12  25  46  74  98 140 188 234 286 348 417
#     4  11  25  46  70 102 141 179 231 287 350 417
#     4  12  25  45  69 106 138 181 237 287 345 419
#     4  11  25  46  69 100 139 185 227 286 349 413
#     4  11  25  45  71 101 140 179 231 287 350 413
#     4  12  26  43  71 101 137 181 234 287 347 413
#     4  12  24  45  71 102 139 183 232 287 346 419
#
# _framework density 24.390722
#
# number of rings (size 3 to 8) (size 9 to 14) (size 15 to 20)
#    0.000    0.500    3.750    4.500    3.500    1.000 
#    4.500    0.000    0.000    0.000    0.000    0.000 
#    0.000    0.000    0.000    0.000    0.000    0.000 
#
# Total GULP energy -89625.873483 kJ/mol
# GULP energy per Si atom -5601.617093 kJ/mol
# Density = 2.433521 g / cm^3
# Si number density = 24.390722 Si / 1000 Ang^3
#
#
#
# Elastic Constant Matrix: (Units=GPa)
#
#
# Indices 1 2 3 4 5 6 
#
# 1 119.8828 9.5872 -16.3930 0.0091 9.5334 -0.0015
# 2 9.5872 84.3885 5.3606 0.0241 -7.1150 -0.0019
# 3 -16.3930 5.3606 69.7592 0.0584 5.1857 -0.0104
# 4 0.0091 0.0241 0.0584 33.2340 -0.0055 6.2693
# 5 9.5334 -7.1150 5.1857 -0.0055 32.9788 -0.0038
# 6 -0.0015 -0.0019 -0.0104 6.2693 -0.0038 37.5640
#
#
#
# Elastic Compliance Matrix: (Units=1/GPa)
#
#
# Indices 1 2 3 4 5 6 
#
# 1 0.009064 -0.001469 0.002490 -0.000007 -0.003329 0.000002
# 2 -0.001469 0.012397 -0.001546 -0.000006 0.003342 0.000001
# 3 0.002490 -0.001546 0.015296 -0.000029 -0.003459 0.000009
# 4 -0.000007 -0.000006 -0.000029 0.031068 0.000010 -0.005185
# 5 -0.003329 0.003342 -0.003459 0.000010 0.032550 0.000001
# 6 0.000002 0.000001 0.000009 -0.005185 0.000001 0.027487
#
#
# Mechanical properties :
#
#
# Convention : Reuss Voigt Hill
#
# Bulk Modulus (GPa) = 28.00476 30.12671 29.06574
# Shear Modulus (GPa) = 35.50809 39.12041 37.31425
#
# Velocity S-wave (km/s) = 3.81964 4.00922 3.91558
# Velocity P-wave (km/s) = 5.56413 5.81467 5.69078
#
# Compressibility (1/GPa) = 0.03570821
#
# Stress axis : x y z
#
# Youngs Moduli (GPa) = 110.32461 80.66583 65.37579
#
# Poissons Ratio (x) = 0.11847 -0.16281
# Poissons Ratio (y) = 0.16202 0.10108
# Poissons Ratio (z) = -0.27474 0.12473
#
# Static dielectric constant tensor:
#      x y z
#    x 1.933660 0.000000 0.015880 
#    y 0.000000 1.937690 0.000010 
#    z 0.015880 0.000010 1.876790 
# 
# From -- ./inp_files/14817.got.cif
#   From: 2010.05.17/outbox.cif.g08.bks.cpg/sg9_8_cif.got.tgz:14817.got - 2010.06.03 20:04:27.
