data_PCOD9140281
_publ_section_title
;
Structure prediction by ZEFSAII (Michael W. Deem and Ramdas Pophale) SiO2 
 PCOD9140281
Probable space group: C C
;
_chemical_formula_sum "Si O2"
_cell_formula_units_Z 32
_cell_length_a 11.565340
_cell_length_b 9.022773
_cell_length_c 14.322806
_cell_angle_alpha 90.000000
_cell_angle_beta 114.760042
_cell_angle_gamma 90.000000
_cell_volume 1357.205997
_symmetry_space_group_name_H-M "C C"
_symmetry_group_IT_number 9
_symmetry_cell_setting 'monoclinic'
loop_
_space_group_symop_operation_xyz
x,y,z
x,-y,1/2+z
1/2+x,1/2+y,z
1/2+x,1/2-y,1/2+z
loop_
_atom_site_type_symbol
_atom_site_label
_atom_site_fract_x
_atom_site_fract_y
_atom_site_fract_z
Si Si1 0.211360 0.736253 0.018060
Si Si2 0.989221 0.726653 0.635373
Si Si3 0.098002 0.523031 0.821358
Si Si4 0.873996 0.992833 0.857360
Si Si5 0.059577 0.994572 0.245579
Si Si6 0.014179 0.718910 0.436700
Si Si7 0.741887 0.573047 0.961950
Si Si8 0.478163 0.717671 0.558142
O O1 0.353789 0.689538 0.090318
O O2 0.114759 0.726089 0.070482
O O3 0.152266 0.642144 0.914094
O O4 0.229516 0.908361 0.997310
O O5 0.004073 0.603334 0.718674
O O6 0.007022 0.659777 0.538927
O O7 0.085432 0.859821 0.692714
O O8 0.222892 0.465481 0.807724
O O9 0.030260 0.398987 0.860677
O O10 0.961521 0.961506 0.796352
O O11 0.898070 0.168208 0.881866
O O12 0.930642 0.899973 0.963273
O O13 0.189201 0.938788 0.338149
O O14 0.996440 0.867262 0.161498
O O15 0.138769 0.821692 0.475767
O O16 0.875622 0.651897 0.021174
#
# Coordination Sequence:
#
# PCOD9140281 Si02
#       8
#     4   4   4   4   4   4   4   4
#     4  12  26  48  69 113 156 193 263 327 382 471
#     4  12  26  48  76 107 157 209 250 319 408 467
#     4  12  26  46  77 111 151 207 257 325 394 467
#     4  11  23  47  74 108 154 193 263 325 383 470
#     4  11  24  49  76 108 153 211 248 322 406 467
#     4  11  24  49  74 107 152 194 262 322 380 473
#     4  11  25  47  75 110 150 195 261 322 382 473
#     4  12  24  46  77 110 155 204 254 324 397 466
#
# _framework density 23.577850000000002
#
# number of rings (size 3 to 8) (size 9 to 14) (size 15 to 20)
#    0.000    0.500    7.500    0.000    3.500    4.000 
#    2.250    0.000    0.000    0.000    0.000    0.000 
#    0.000    0.000    0.000    0.000    0.000    0.000 
#
# Total GULP energy -89593.133923 kJ/mol
# GULP energy per Si atom -5599.570870 kJ/mol
# Density = 2.352419 g / cm^3
# Si number density = 23.577850 Si / 1000 Ang^3
#
#
#
# Elastic Constant Matrix: (Units=GPa)
#
#
# Indices 1 2 3 4 5 6 
#
# 1 67.1417 4.4190 -0.0797 0.0000 -1.5536 0.0000
# 2 4.4190 83.9290 8.1309 0.0000 -3.3651 0.0000
# 3 -0.0797 8.1309 74.5147 0.0000 -5.4638 0.0000
# 4 0.0000 0.0000 0.0000 40.0682 0.0000 7.4352
# 5 -1.5536 -3.3651 -5.4638 0.0000 22.2254 0.0000
# 6 0.0000 0.0000 0.0000 7.4352 0.0000 31.3752
#
#
#
# Elastic Compliance Matrix: (Units=1/GPa)
#
#
# Indices 1 2 3 4 5 6 
#
# 1 0.014967 -0.000766 0.000171 0.000000 0.000972 0.000000
# 2 -0.000766 0.012132 -0.001216 0.000000 0.001485 0.000000
# 3 0.000171 -0.001216 0.013789 0.000000 0.003218 0.000000
# 4 0.000000 0.000000 0.000000 0.026105 0.000000 -0.006186
# 5 0.000972 0.001485 0.003218 0.000000 0.046077 0.000000
# 6 0.000000 0.000000 0.000000 -0.006186 0.000000 0.033338
#
#
# Mechanical properties :
#
#
# Convention : Reuss Voigt Hill
#
# Bulk Modulus (GPa) = 26.83322 27.83618 27.33470
# Shear Modulus (GPa) = 30.77812 32.94144 31.85978
#
# Velocity S-wave (km/s) = 3.61693 3.74188 3.67994
# Velocity P-wave (km/s) = 5.37106 5.52274 5.44743
#
# Compressibility (1/GPa) = 0.03726724
#
# Stress axis : x y z
#
# Youngs Moduli (GPa) = 66.81377 82.42351 72.52180
#
# Poissons Ratio (x) = 0.06310 -0.01239
# Poissons Ratio (y) = 0.05115 0.08817
# Poissons Ratio (z) = -0.01142 0.10021
#
# Static dielectric constant tensor:
#      x y z
#    x 1.902100 0.000000 0.006970 
#    y 0.000000 1.916700 0.000000 
#    z 0.006970 0.000000 1.880660 
# 
# From -- ./inp_files/24339.got.cif
#   From: 2010.05.17/outbox.cif.g08.bks.cpg/sg9_13_cif.got.tgz:24339.got - 2010.06.03 20:04:27.
