data_PCOD9140491
_publ_section_title
;
Structure prediction by ZEFSAII (Michael W. Deem and Ramdas Pophale) SiO2 
 PCOD9140491
Probable space group: C C
;
_chemical_formula_sum "Si O2"
_cell_formula_units_Z 28
_cell_length_a 9.767637
_cell_length_b 7.875393
_cell_length_c 19.395510
_cell_angle_alpha 90.000000
_cell_angle_beta 127.094361
_cell_angle_gamma 90.000000
_cell_volume 1190.067699
_symmetry_space_group_name_H-M "C C"
_symmetry_group_IT_number 9
_symmetry_cell_setting 'monoclinic'
loop_
_space_group_symop_operation_xyz
x,y,z
x,-y,1/2+z
1/2+x,1/2+y,z
1/2+x,1/2-y,1/2+z
loop_
_atom_site_type_symbol
_atom_site_label
_atom_site_fract_x
_atom_site_fract_y
_atom_site_fract_z
Si Si1 0.209270 0.495927 0.738060
Si Si2 0.820616 0.990732 0.066279
Si Si3 0.779105 0.848961 0.902953
Si Si4 0.879915 0.336598 0.804893
Si Si5 0.176688 0.862958 0.173071
Si Si6 0.925033 0.518955 0.464812
Si Si7 0.341779 0.112693 0.589467
O O1 0.293382 0.452906 0.837137
O O2 0.282200 0.678732 0.741954
O O3 0.240679 0.329471 0.701808
O O4 0.005290 0.524653 0.674549
O O5 0.867713 0.185945 0.091792
O O6 0.630056 0.954351 0.037453
O O7 0.982022 0.880419 0.140597
O O8 0.809133 0.954153 0.981290
O O9 0.577282 0.806463 0.846529
O O10 0.890000 0.677078 0.934347
O O11 0.799384 0.509441 0.750921
O O12 0.866864 0.361498 0.884051
O O13 0.187284 0.912996 0.095796
O O14 0.828136 0.547035 0.507496
#
# Coordination Sequence:
#
# PCOD9140491 Si02
#       7
#     4   4   4   4   4   4   4
#     4  12  25  44  76 109 147 195 240 310 372 437
#     4  11  25  46  74 106 151 196 248 307 367 446
#     4  11  24  46  73 110 148 192 255 306 366 443
#     4  11  25  48  75 108 147 197 246 304 370 442
#     4  12  26  48  76 109 150 190 250 306 370 445
#     4  11  26  49  75 109 149 201 248 306 372 441
#     4  12  25  45  73 113 146 193 247 305 375 438
#
# _framework density 23.528071000000001
#
# number of rings (size 3 to 8) (size 9 to 14) (size 15 to 20)
#    0.000    0.571    4.286    3.429    0.000    9.143 
#    2.571    0.000    0.000    0.000    0.000    0.000 
#    0.000    0.000    0.000    0.000    0.000    0.000 
#
# Total GULP energy -78338.386358 kJ/mol
# GULP energy per Si atom -5595.599026 kJ/mol
# Density = 2.347452 g / cm^3
# Si number density = 23.528071 Si / 1000 Ang^3
#
#
#
# Elastic Constant Matrix: (Units=GPa)
#
#
# Indices 1 2 3 4 5 6 
#
# 1 86.7087 17.7982 34.9334 0.0000 2.4094 0.0000
# 2 17.7982 113.8034 27.5843 0.0000 5.3214 0.0000
# 3 34.9334 27.5843 64.7170 0.0000 2.3119 0.0000
# 4 0.0000 0.0000 0.0000 48.5544 0.0000 -6.7710
# 5 2.4094 5.3214 2.3119 0.0000 41.2754 0.0000
# 6 0.0000 0.0000 0.0000 -6.7710 0.0000 11.1482
#
#
#
# Elastic Compliance Matrix: (Units=1/GPa)
#
#
# Indices 1 2 3 4 5 6 
#
# 1 0.014762 -0.000405 -0.007782 0.000000 -0.000374 0.000000
# 2 -0.000405 0.009855 -0.003945 0.000000 -0.001026 0.000000
# 3 -0.007782 -0.003945 0.021342 0.000000 -0.000233 0.000000
# 4 0.000000 0.000000 0.000000 0.022501 0.000000 0.013666
# 5 -0.000374 -0.001026 -0.000233 0.000000 0.024395 0.000000
# 6 0.000000 0.000000 0.000000 0.013666 0.000000 0.098001
#
#
# Mechanical properties :
#
#
# Convention : Reuss Voigt Hill
#
# Bulk Modulus (GPa) = 46.09513 47.31789 46.70651
# Shear Modulus (GPa) = 22.48686 32.52314 27.50500
#
# Velocity S-wave (km/s) = 3.09487 3.72198 3.42282
# Velocity P-wave (km/s) = 5.69254 6.21496 5.95948
#
# Compressibility (1/GPa) = 0.02169427
#
# Stress axis : x y z
#
# Youngs Moduli (GPa) = 67.74295 101.47528 46.85492
#
# Poissons Ratio (x) = 0.04108 0.36464
# Poissons Ratio (y) = 0.02743 0.18485
# Poissons Ratio (z) = 0.52719 0.40033
#
# Static dielectric constant tensor:
#      x y z
#    x 1.907130 0.000000 -0.022160 
#    y 0.000000 1.849280 0.000000 
#    z -0.022160 0.000000 1.880620 
# 
# From -- ./inp_files/24318.got.cif
#   From: 2010.05.17/outbox.cif.g08.bks.cpg/sg9_13_cif.got.tgz:24318.got - 2010.06.03 20:04:27.
