data_PCOD9140936
_publ_section_title
;
Structure prediction by ZEFSAII (Michael W. Deem and Ramdas Pophale) SiO2 
 PCOD9140936
Probable space group: C C
;
_chemical_formula_sum "Si O2"
_cell_formula_units_Z 28
_cell_length_a 11.161387
_cell_length_b 19.129641
_cell_length_c 8.887121
_cell_angle_alpha 90.000000
_cell_angle_beta 40.021341
_cell_angle_gamma 90.000000
_cell_volume 1220.242885
_symmetry_space_group_name_H-M "C C"
_symmetry_group_IT_number 9
_symmetry_cell_setting 'monoclinic'
loop_
_space_group_symop_operation_xyz
x,y,z
x,-y,1/2+z
1/2+x,1/2+y,z
1/2+x,1/2-y,1/2+z
loop_
_atom_site_type_symbol
_atom_site_label
_atom_site_fract_x
_atom_site_fract_y
_atom_site_fract_z
Si Si1 0.247490 0.593639 0.698630
Si Si2 0.061093 0.862942 0.727608
Si Si3 0.357376 0.935123 0.647409
Si Si4 0.773967 0.573899 0.576782
Si Si5 0.366601 0.191328 0.714187
Si Si6 0.838026 0.949842 0.450593
Si Si7 0.777691 0.150130 0.267604
O O1 0.382201 0.654928 0.505973
O O2 0.266183 0.524875 0.575291
O O3 0.304187 0.567385 0.809697
O O4 0.030532 0.609464 0.920852
O O5 0.175765 0.910911 0.731479
O O6 0.222910 0.818521 0.491050
O O7 0.939977 0.891162 0.702282
O O8 0.374953 0.016179 0.583854
O O9 0.347434 0.927904 0.835800
O O10 0.792965 0.646935 0.643541
O O11 0.557685 0.554739 0.769160
O O12 0.576075 0.162065 0.538420
O O13 0.365523 0.272585 0.671893
O O14 0.747261 0.889658 0.641544
#
# Coordination Sequence:
#
# PCOD9140936 Si02
#       7
#     4   4   4   4   4   4   4
#     4  12  25  43  69 107 142 183 234 296 374 415
#     4  12  24  44  70 100 146 176 238 294 340 434
#     4  12  25  43  69 107 142 183 234 296 374 415
#     4  12  23  45  70 102 146 185 233 300 359 430
#     4  12  25  47  75 102 140 194 245 287 352 427
#     4  12  23  45  70 102 146 185 233 300 359 430
#     4  12  25  47  75 102 140 194 245 287 352 427
#
# _framework density 22.946254
#
# number of rings (size 3 to 8) (size 9 to 14) (size 15 to 20)
#    0.000    0.000    5.714    5.143    0.000    0.000 
#    0.000    1.429    0.000    0.000    0.000    0.000 
#    0.000    0.000    0.000    0.000    0.000    0.000 
#
# Total GULP energy -78185.393926 kJ/mol
# GULP energy per Si atom -5584.670995 kJ/mol
# Density = 2.289403 g / cm^3
# Si number density = 22.946254 Si / 1000 Ang^3
#
#
#
# Elastic Constant Matrix: (Units=GPa)
#
#
# Indices 1 2 3 4 5 6 
#
# 1 102.3176 15.4249 26.9043 0.0000 6.2176 0.0000
# 2 15.4249 55.0772 38.7445 0.0000 22.1639 0.0000
# 3 26.9043 38.7445 158.2831 0.0000 -3.9975 0.0000
# 4 0.0000 0.0000 0.0000 29.0574 0.0000 -5.8376
# 5 6.2176 22.1639 -3.9975 0.0000 63.8241 0.0000
# 6 0.0000 0.0000 0.0000 -5.8376 0.0000 15.7462
#
#
#
# Elastic Compliance Matrix: (Units=1/GPa)
#
#
# Indices 1 2 3 4 5 6 
#
# 1 0.010425 -0.001776 -0.001350 0.000000 -0.000483 0.000000
# 2 -0.001776 0.027192 -0.006599 0.000000 -0.009683 0.000000
# 3 -0.001350 -0.006599 0.008237 0.000000 0.002939 0.000000
# 4 0.000000 0.000000 0.000000 0.037184 0.000000 0.013785
# 5 -0.000483 -0.009683 0.002939 0.000000 0.019262 0.000000
# 6 0.000000 0.000000 0.000000 0.013785 0.000000 0.068618
#
#
# Mechanical properties :
#
#
# Convention : Reuss Voigt Hill
#
# Bulk Modulus (GPa) = 37.87019 53.09171 45.48095
# Shear Modulus (GPa) = 25.10426 37.36581 31.23504
#
# Velocity S-wave (km/s) = 3.31123 4.03973 3.69348
# Velocity P-wave (km/s) = 5.58199 6.70424 6.16869
#
# Compressibility (1/GPa) = 0.02640599
#
# Stress axis : x y z
#
# Youngs Moduli (GPa) = 95.91910 36.77501 121.40804
#
# Poissons Ratio (x) = 0.06530 0.16385
# Poissons Ratio (y) = 0.17033 0.80115
# Poissons Ratio (z) = 0.12945 0.24267
#
# Static dielectric constant tensor:
#      x y z
#    x 1.859070 0.000000 -0.028150 
#    y 0.000000 1.846420 0.000000 
#    z -0.028150 0.000000 1.923630 
# 
# From -- ./inp_files/8228.got.cif
#   From: 2010.05.17/outbox.cif.g08.bks.cpg/sg9_5_cif.got.tgz:8228.got - 2010.06.03 20:04:27.
