data_PCOD9140700
_publ_section_title
;
Structure prediction by ZEFSAII (Michael W. Deem and Ramdas Pophale) SiO2 
 PCOD9140700
Probable space group: C C
;
_chemical_formula_sum "Si O2"
_cell_formula_units_Z 28
_cell_length_a 14.267419
_cell_length_b 11.401643
_cell_length_c 7.793929
_cell_angle_alpha 90.000000
_cell_angle_beta 66.998981
_cell_angle_gamma 90.000000
_cell_volume 1167.057096
_symmetry_space_group_name_H-M "C C"
_symmetry_group_IT_number 9
_symmetry_cell_setting 'monoclinic'
loop_
_space_group_symop_operation_xyz
x,y,z
x,-y,1/2+z
1/2+x,1/2+y,z
1/2+x,1/2-y,1/2+z
loop_
_atom_site_type_symbol
_atom_site_label
_atom_site_fract_x
_atom_site_fract_y
_atom_site_fract_z
Si Si1 0.675080 0.430412 0.984990
Si Si2 0.387618 0.983651 0.314910
Si Si3 0.358793 0.255829 0.644948
Si Si4 0.529212 0.404018 0.385649
Si Si5 0.507408 0.849091 0.507226
Si Si6 0.886568 0.874665 0.977809
Si Si7 0.736308 0.807905 0.382262
O O1 0.778012 0.490443 0.975781
O O2 0.606373 0.530908 0.955485
O O3 0.712120 0.325479 0.836044
O O4 0.600760 0.371741 0.176748
O O5 0.364303 0.879415 0.196198
O O6 0.473321 0.931190 0.375376
O O7 0.433452 0.103800 0.208781
O O8 0.471535 0.296300 0.509137
O O9 0.336706 0.328022 0.836681
O O10 0.287683 0.289063 0.533318
O O11 0.442467 0.501662 0.406915
O O12 0.472847 0.719552 0.472852
O O13 0.624888 0.864586 0.468623
O O14 0.807840 0.872021 0.192719
#
# Coordination Sequence:
#
# PCOD9140700 Si02
#       7
#     4   4   4   4   4   4   4
#     4  12  24  44  81 108 138 199 256 299 362 442
#     4  11  25  49  72 111 150 193 249 312 369 448
#     4  11  27  48  73 110 149 190 249 308 366 447
#     4  12  24  46  75 110 148 188 249 313 363 434
#     4  11  25  47  73 105 151 193 242 313 374 434
#     4  11  25  49  74 108 152 189 247 311 370 439
#     4  12  26  47  76 110 146 200 244 304 376 442
#
# _framework density 23.991969999999998
#
# number of rings (size 3 to 8) (size 9 to 14) (size 15 to 20)
#    0.000    0.571    4.286    3.429    2.000    1.143 
#    7.714    0.000    0.000    0.000    0.000    0.000 
#    0.000    0.000    0.000    0.000    0.000    0.000 
#
# Total GULP energy -78337.637577 kJ/mol
# GULP energy per Si atom -5595.545541 kJ/mol
# Density = 2.393736 g / cm^3
# Si number density = 23.991970 Si / 1000 Ang^3
#
#
#
# Elastic Constant Matrix: (Units=GPa)
#
#
# Indices 1 2 3 4 5 6 
#
# 1 169.8591 18.3745 60.7086 0.0000 4.0276 0.0000
# 2 18.3745 79.5401 23.0584 0.0000 -8.8431 0.0000
# 3 60.7086 23.0584 109.1615 0.0000 -5.9332 0.0000
# 4 0.0000 0.0000 0.0000 39.4959 0.0000 0.7220
# 5 4.0276 -8.8431 -5.9332 0.0000 40.3313 0.0000
# 6 0.0000 0.0000 0.0000 0.7220 0.0000 36.1136
#
#
#
# Elastic Compliance Matrix: (Units=1/GPa)
#
#
# Indices 1 2 3 4 5 6 
#
# 1 0.007457 -0.000707 -0.004079 0.000000 -0.001500 0.000000
# 2 -0.000707 0.013723 -0.002357 0.000000 0.002733 0.000000
# 3 -0.004079 -0.002357 0.012018 0.000000 0.001659 0.000000
# 4 0.000000 0.000000 0.000000 0.025328 0.000000 -0.000506
# 5 -0.001500 0.002733 0.001659 0.000000 0.025788 0.000000
# 6 0.000000 0.000000 0.000000 -0.000506 0.000000 0.027701
#
#
# Mechanical properties :
#
#
# Convention : Reuss Voigt Hill
#
# Bulk Modulus (GPa) = 52.87993 62.53820 57.70907
# Shear Modulus (GPa) = 37.70621 40.28278 38.99449
#
# Velocity S-wave (km/s) = 3.96866 4.10202 4.03589
# Velocity P-wave (km/s) = 6.56422 6.96838 6.76931
#
# Compressibility (1/GPa) = 0.01891076
#
# Stress axis : x y z
#
# Youngs Moduli (GPa) = 134.09708 72.87216 83.21192
#
# Poissons Ratio (x) = 0.05151 0.33946
# Poissons Ratio (y) = 0.09478 0.19613
# Poissons Ratio (z) = 0.54705 0.17176
#
# Static dielectric constant tensor:
#      x y z
#    x 1.917580 0.000000 0.074800 
#    y 0.000000 1.925100 0.000000 
#    z 0.074800 0.000000 1.974600 
# 
# From -- ./inp_files/9034.got.cif
#   From: 2010.05.17/outbox.cif.g08.bks.cpg/sg9_5_cif.got.tgz:9034.got - 2010.06.03 20:04:27.
