data_PCOD9140219
_publ_section_title
;
Structure prediction by ZEFSAII (Michael W. Deem and Ramdas Pophale) SiO2 
 PCOD9140219
Probable space group: C C
;
_chemical_formula_sum "Si O2"
_cell_formula_units_Z 32
_cell_length_a 7.135635
_cell_length_b 11.888150
_cell_length_c 16.852875
_cell_angle_alpha 90.000000
_cell_angle_beta 101.675127
_cell_angle_gamma 90.000000
_cell_volume 1400.043164
_symmetry_space_group_name_H-M "C C"
_symmetry_group_IT_number 9
_symmetry_cell_setting 'monoclinic'
loop_
_space_group_symop_operation_xyz
x,y,z
x,-y,1/2+z
1/2+x,1/2+y,z
1/2+x,1/2-y,1/2+z
loop_
_atom_site_type_symbol
_atom_site_label
_atom_site_fract_x
_atom_site_fract_y
_atom_site_fract_z
Si Si1 0.970770 0.088933 0.713480
Si Si2 0.885460 0.834479 0.931019
Si Si3 0.605504 0.357619 0.785851
Si Si4 0.069829 0.513823 0.600237
Si Si5 0.312879 0.574487 0.992533
Si Si6 0.459168 0.739678 0.869344
Si Si7 0.944171 0.727202 0.092557
Si Si8 0.014854 0.248759 0.117298
O O1 0.760870 0.048401 0.665426
O O2 0.042435 0.175804 0.652944
O O3 0.968568 0.159269 0.793923
O O4 0.086406 0.977339 0.742034
O O5 0.667235 0.788688 0.907723
O O6 0.969898 0.840561 0.850167
O O7 0.910304 0.959545 0.969857
O O8 0.983657 0.751725 0.003583
O O9 0.552166 0.267778 0.713425
O O10 0.819175 0.340259 0.834336
O O11 0.122207 0.481127 0.513953
O O12 0.942012 0.625711 0.592366
O O13 0.990382 0.397268 0.626090
O O14 0.350554 0.665106 0.926751
O O15 0.394293 0.644190 0.074623
O O16 0.717868 0.741127 0.088977
#
# Coordination Sequence:
#
# PCOD9140219 Si02
#       8
#     4   4   4   4   4   4   4   4
#     4  11  24  45  70 103 146 182 242 305 348 430
#     4  12  26  49  74 108 150 189 246 300 365 442
#     4  12  25  48  74 107 147 196 232 301 379 417
#     4  11  23  45  76 100 137 191 245 300 361 428
#     4  12  22  48  73  98 151 186 237 312 355 421
#     4  12  26  47  70 108 153 187 238 307 362 435
#     4  11  23  48  74 102 139 196 243 296 357 432
#     4  11  23  48  71 102 145 185 245 299 353 433
#
# _framework density 22.856439999999999
#
# number of rings (size 3 to 8) (size 9 to 14) (size 15 to 20)
#    0.000    0.500    8.750    0.750    1.750    0.000 
#   18.000    0.000    0.000    0.000    0.000    0.000 
#    0.000    0.000    0.000    0.000    0.000    0.000 
#
# Total GULP energy -89360.338077 kJ/mol
# GULP energy per Si atom -5585.021130 kJ/mol
# Density = 2.280442 g / cm^3
# Si number density = 22.856440 Si / 1000 Ang^3
#
#
#
# Elastic Constant Matrix: (Units=GPa)
#
#
# Indices 1 2 3 4 5 6 
#
# 1 47.8775 41.9380 22.6628 0.0000 1.7659 0.0000
# 2 41.9380 182.1112 54.2048 0.0000 7.2594 0.0000
# 3 22.6628 54.2048 128.7516 0.0000 -11.5209 0.0000
# 4 0.0000 0.0000 0.0000 29.0724 0.0000 8.8847
# 5 1.7659 7.2594 -11.5209 0.0000 28.8073 0.0000
# 6 0.0000 0.0000 0.0000 8.8847 0.0000 32.1998
#
#
#
# Elastic Compliance Matrix: (Units=1/GPa)
#
#
# Indices 1 2 3 4 5 6 
#
# 1 0.026858 -0.005361 -0.002589 0.000000 -0.001331 0.000000
# 2 -0.005361 0.007563 -0.002470 0.000000 -0.002565 0.000000
# 3 -0.002589 -0.002470 0.009679 0.000000 0.004652 0.000000
# 4 0.000000 0.000000 0.000000 0.037564 0.000000 -0.010365
# 5 -0.001331 -0.002565 0.004652 0.000000 0.037302 0.000000
# 6 0.000000 0.000000 0.000000 -0.010365 0.000000 0.033916
#
#
# Mechanical properties :
#
#
# Convention : Reuss Voigt Hill
#
# Bulk Modulus (GPa) = 42.99537 66.26128 54.62832
# Shear Modulus (GPa) = 27.55185 34.01155 30.78170
#
# Velocity S-wave (km/s) = 3.47570 3.86171 3.67378
# Velocity P-wave (km/s) = 5.91263 6.99549 6.47673
#
# Compressibility (1/GPa) = 0.02325832
#
# Stress axis : x y z
#
# Youngs Moduli (GPa) = 37.23348 132.21925 103.31818
#
# Poissons Ratio (x) = 0.70885 0.26754
# Poissons Ratio (y) = 0.19961 0.25519
# Poissons Ratio (z) = 0.09642 0.32658
#
# Static dielectric constant tensor:
#      x y z
#    x 1.900490 0.000000 -0.011460 
#    y 0.000000 1.877540 0.000000 
#    z -0.011460 0.000000 1.849560 
# 
# From -- ./inp_files/29195.got.cif
#   From: 2010.05.17/outbox.cif.g08.bks.cpg/sg9_15_cif.got.tgz:29195.got - 2010.06.03 20:04:27.
