data_PCOD9140092
_publ_section_title
;
Structure prediction by ZEFSAII (Michael W. Deem and Ramdas Pophale) SiO2 
 PCOD9140092
Probable space group: C C
;
_chemical_formula_sum "Si O2"
_cell_formula_units_Z 28
_cell_length_a 8.093752
_cell_length_b 20.320993
_cell_length_c 7.689148
_cell_angle_alpha 90.000000
_cell_angle_beta 118.113511
_cell_angle_gamma 90.000000
_cell_volume 1115.448158
_symmetry_space_group_name_H-M "C C"
_symmetry_group_IT_number 9
_symmetry_cell_setting 'monoclinic'
loop_
_space_group_symop_operation_xyz
x,y,z
x,-y,1/2+z
1/2+x,1/2+y,z
1/2+x,1/2-y,1/2+z
loop_
_atom_site_type_symbol
_atom_site_label
_atom_site_fract_x
_atom_site_fract_y
_atom_site_fract_z
Si Si1 0.357430 0.401361 0.088880
Si Si2 0.476844 0.842676 0.452046
Si Si3 0.748919 0.450358 0.202640
Si Si4 0.920827 0.581607 0.415006
Si Si5 0.836430 0.843067 0.444593
Si Si6 0.240794 0.270378 0.850752
Si Si7 0.204588 0.207903 0.207860
O O1 0.524663 0.444094 0.093533
O O2 0.398939 0.384888 0.310572
O O3 0.353661 0.332648 0.981034
O O4 0.142807 0.426612 0.989254
O O5 0.333750 0.903045 0.396726
O O6 0.659110 0.873680 0.451956
O O7 0.355390 0.784802 0.300906
O O8 0.574684 0.800543 0.654139
O O9 0.811729 0.524255 0.263388
O O10 0.848839 0.424236 0.077556
O O11 0.860750 0.653627 0.322252
O O12 0.752815 0.773895 0.333588
O O13 0.009286 0.827555 0.654136
O O14 0.180423 0.230105 0.994069
#
# Coordination Sequence:
#
# PCOD9140092 Si02
#       7
#     4   4   4   4   4   4   4
#     4  11  26  51  76 110 152 198 255 317 397 443
#     4  12  24  44  72 119 150 190 259 308 387 459
#     4  12  31  50  78 108 153 210 261 316 376 465
#     4  12  30  53  74 110 153 207 264 318 373 465
#     4  11  23  41  75 112 153 194 240 324 387 452
#     4  11  24  42  79 112 153 196 241 329 383 458
#     4  11  24  45  72 109 152 197 248 310 393 450
#
# _framework density 25.102021000000001
#
# number of rings (size 3 to 8) (size 9 to 14) (size 15 to 20)
#    0.000    0.571    1.429    6.857   12.000    2.286 
#    0.000    0.000    0.000    0.000    0.000    0.000 
#    0.000    0.000    0.000    0.000    0.000    0.000 
#
# Total GULP energy -78380.491452 kJ/mol
# GULP energy per Si atom -5598.606532 kJ/mol
# Density = 2.504489 g / cm^3
# Si number density = 25.102021 Si / 1000 Ang^3
#
#
#
# Elastic Constant Matrix: (Units=GPa)
#
#
# Indices 1 2 3 4 5 6 
#
# 1 154.1214 16.2176 29.4661 0.0000 31.1301 0.0000
# 2 16.2176 54.0778 4.9013 0.0000 -10.5219 0.0000
# 3 29.4661 4.9013 63.6738 0.0000 5.0260 0.0000
# 4 0.0000 0.0000 0.0000 47.3445 0.0000 7.8363
# 5 31.1301 -10.5219 5.0260 0.0000 40.3990 0.0000
# 6 0.0000 0.0000 0.0000 7.8363 0.0000 29.4056
#
#
#
# Elastic Compliance Matrix: (Units=1/GPa)
#
#
# Indices 1 2 3 4 5 6 
#
# 1 0.009060 -0.003895 -0.003294 0.000000 -0.007586 0.000000
# 2 -0.003895 0.021388 -0.000526 0.000000 0.008637 0.000000
# 3 -0.003294 -0.000526 0.017250 0.000000 0.000255 0.000000
# 4 0.000000 0.000000 0.000000 0.022096 0.000000 -0.005888
# 5 -0.007586 0.008637 0.000255 0.000000 0.032816 0.000000
# 6 0.000000 0.000000 0.000000 -0.005888 0.000000 0.035576
#
#
# Mechanical properties :
#
#
# Convention : Reuss Voigt Hill
#
# Bulk Modulus (GPa) = 30.98961 41.44922 36.21942
# Shear Modulus (GPa) = 30.41868 38.18236 34.30052
#
# Velocity S-wave (km/s) = 3.48487 3.90434 3.70056
# Velocity P-wave (km/s) = 5.34460 6.07234 5.72005
#
# Compressibility (1/GPa) = 0.03226888
#
# Stress axis : x y z
#
# Youngs Moduli (GPa) = 110.37190 46.75521 57.97168
#
# Poissons Ratio (x) = 0.18209 0.19097
# Poissons Ratio (y) = 0.42985 0.03048
# Poissons Ratio (z) = 0.36359 0.02458
#
# Static dielectric constant tensor:
#      x y z
#    x 2.148370 0.000000 -0.057910 
#    y 0.000000 1.894680 0.000000 
#    z -0.057910 0.000000 2.048220 
# 
# From -- ./inp_files/5854.got.cif
#   From: 2010.05.17/outbox.cif.g08.bks.cpg/sg9_3_cif.got.tgz:5854.got - 2010.06.03 20:04:27.
