data_PCOD9140142
_publ_section_title
;
Structure prediction by ZEFSAII (Michael W. Deem and Ramdas Pophale) SiO2 
 PCOD9140142
Probable space group: C C
;
_chemical_formula_sum "Si O2"
_cell_formula_units_Z 24
_cell_length_a 5.509350
_cell_length_b 12.688186
_cell_length_c 11.871297
_cell_angle_alpha 90.000000
_cell_angle_beta 99.132602
_cell_angle_gamma 90.000000
_cell_volume 819.327651
_symmetry_space_group_name_H-M "C C"
_symmetry_group_IT_number 9
_symmetry_cell_setting 'monoclinic'
loop_
_space_group_symop_operation_xyz
x,y,z
x,-y,1/2+z
1/2+x,1/2+y,z
1/2+x,1/2-y,1/2+z
loop_
_atom_site_type_symbol
_atom_site_label
_atom_site_fract_x
_atom_site_fract_y
_atom_site_fract_z
Si Si1 0.172870 0.955280 0.912240
Si Si2 0.608412 0.217858 0.943887
Si Si3 0.142847 0.854894 0.560406
Si Si4 0.605395 0.637064 0.717532
Si Si5 0.004587 0.632800 0.277804
Si Si6 0.110062 0.411234 0.208252
O O1 0.054233 0.840238 0.912214
O O2 0.447993 0.917256 0.895533
O O3 0.115517 0.042443 0.809750
O O4 0.111467 0.025862 0.014735
O O5 0.624642 0.146314 0.831882
O O6 0.387118 0.179874 0.007700
O O7 0.881033 0.199472 0.017493
O O8 0.238273 0.853628 0.695537
O O9 0.618563 0.752164 0.776122
O O10 0.331176 0.630170 0.650338
O O11 0.836824 0.621471 0.655366
O O12 0.128310 0.537150 0.219935
#
# Coordination Sequence:
#
# PCOD9140142 Si02
#       6
#     4   4   4   4   4   4
#     4  11  24  47  76 103 147 194 236 300 360 439
#     4  12  25  48  73 103 151 188 247 297 368 429
#     4  12  28  47  71 115 145 196 240 308 361 424
#     4  11  24  41  73 102 135 188 241 292 361 418
#     4  11  26  46  77 107 150 189 251 299 361 434
#     4  11  23  43  74 102 138 195 233 296 361 424
#
# _framework density 29.292308999999999
#
# number of rings (size 3 to 8) (size 9 to 14) (size 15 to 20)
#    0.000    0.667    6.667    0.000    2.333   10.667 
#    0.000    0.000    0.000    0.000    0.000    0.000 
#    0.000    0.000    0.000    0.000    0.000    0.000 
#
# Total GULP energy -67222.269269 kJ/mol
# GULP energy per Si atom -5601.855772 kJ/mol
# Density = 2.922564 g / cm^3
# Si number density = 29.292309 Si / 1000 Ang^3
#
#
#
# Elastic Constant Matrix: (Units=GPa)
#
#
# Indices 1 2 3 4 5 6 
#
# 1 231.2746 80.5053 30.4330 0.0000 6.8337 0.0000
# 2 80.5053 301.5254 43.7989 0.0000 -1.3086 0.0000
# 3 30.4330 43.7989 99.7211 0.0000 6.4899 0.0000
# 4 0.0000 0.0000 0.0000 58.1529 0.0000 -19.0444
# 5 6.8337 -1.3086 6.4899 0.0000 36.4272 0.0000
# 6 0.0000 0.0000 0.0000 -19.0444 0.0000 49.4469
#
#
#
# Elastic Compliance Matrix: (Units=1/GPa)
#
#
# Indices 1 2 3 4 5 6 
#
# 1 0.004876 -0.001171 -0.000922 0.000000 -0.000793 0.000000
# 2 -0.001171 0.003830 -0.001364 0.000000 0.000600 0.000000
# 3 -0.000922 -0.001364 0.011028 0.000000 -0.001841 0.000000
# 4 0.000000 0.000000 0.000000 0.019678 0.000000 0.007579
# 5 -0.000793 0.000600 -0.001841 0.000000 0.027950 0.000000
# 6 0.000000 0.000000 0.000000 0.007579 0.000000 0.023143
#
#
# Mechanical properties :
#
#
# Convention : Reuss Voigt Hill
#
# Bulk Modulus (GPa) = 78.00349 104.66617 91.33483
# Shear Modulus (GPa) = 49.16738 60.65764 54.91251
#
# Velocity S-wave (km/s) = 4.10140 4.55551 4.33441
# Velocity P-wave (km/s) = 7.00827 7.96740 7.50317
#
# Compressibility (1/GPa) = 0.01281994
#
# Stress axis : x y z
#
# Youngs Moduli (GPa) = 205.06929 261.10064 90.67719
#
# Poissons Ratio (x) = 0.30587 0.08361
# Poissons Ratio (y) = 0.24023 0.12366
# Poissons Ratio (z) = 0.18909 0.35607
#
# Static dielectric constant tensor:
#      x y z
#    x 2.321890 0.000000 0.103090 
#    y 0.000000 2.229230 0.000000 
#    z 0.103090 0.000000 2.363920 
# 
# From -- ./inp_files/21634.got.cif
#   From: 2010.05.17/outbox.cif.g08.bks.cpg/sg9_11_cif.got.tgz:21634.got - 2010.06.03 20:04:27.
