data_PCOD9140046
_publ_section_title
;
Structure prediction by ZEFSAII (Michael W. Deem and Ramdas Pophale) SiO2 
 PCOD9140046
Probable space group: C C
;
_chemical_formula_sum "Si O2"
_cell_formula_units_Z 32
_cell_length_a 18.371124
_cell_length_b 6.065066
_cell_length_c 14.679146
_cell_angle_alpha 90.000000
_cell_angle_beta 65.849855
_cell_angle_gamma 90.000000
_cell_volume 1492.429135
_symmetry_space_group_name_H-M "C C"
_symmetry_group_IT_number 9
_symmetry_cell_setting 'monoclinic'
loop_
_space_group_symop_operation_xyz
x,y,z
x,-y,1/2+z
1/2+x,1/2+y,z
1/2+x,1/2-y,1/2+z
loop_
_atom_site_type_symbol
_atom_site_label
_atom_site_fract_x
_atom_site_fract_y
_atom_site_fract_z
Si Si1 0.370200 0.179305 0.657930
Si Si2 0.080971 0.367201 0.858488
Si Si3 0.320514 0.717926 0.369894
Si Si4 0.705940 0.558263 0.713556
Si Si5 0.013883 0.968268 0.539478
Si Si6 0.681627 0.512299 0.024252
Si Si7 0.939133 0.645043 0.965506
Si Si8 0.724345 0.174752 0.854811
O O1 0.362181 0.132603 0.770156
O O2 0.279125 0.230199 0.678483
O O3 0.431649 0.378280 0.619963
O O4 0.398556 0.998968 0.568050
O O5 0.124861 0.193186 0.770623
O O6 0.149900 0.529529 0.858439
O O7 0.001158 0.500469 0.873104
O O8 0.049539 0.219495 0.956795
O O9 0.232479 0.809298 0.440914
O O10 0.375232 0.738085 0.431750
O O11 0.301205 0.479929 0.334690
O O12 0.706643 0.454895 0.614400
O O13 0.724980 0.372807 0.779823
O O14 0.086058 0.994891 0.571816
O O15 0.994247 0.179839 0.489522
O O16 0.706760 0.286736 0.961429
#
# Coordination Sequence:
#
# PCOD9140046 Si02
#       8
#     4   4   4   4   4   4   4   4
#     4  11  25  42  67 104 147 180 242 300 352 438
#     4  11  22  47  71  99 146 182 236 300 353 419
#     4  12  26  45  72 107 143 193 242 290 370 433
#     4  12  25  44  76 107 139 190 246 296 362 436
#     4  11  24  45  68 102 146 183 236 298 355 426
#     4  12  25  46  73 105 137 191 243 287 370 434
#     4  11  26  44  73 105 149 187 238 308 362 423
#     4  12  23  45  76  97 145 186 235 303 348 439
#
# _framework density 21.441554
#
# number of rings (size 3 to 8) (size 9 to 14) (size 15 to 20)
#    0.000    0.500    7.500    0.000    3.500    4.000 
#    0.000    0.000    0.000    0.000    0.000    0.000 
#    0.000    0.000    0.000    0.000    0.000    0.000 
#
# Total GULP energy -89186.910042 kJ/mol
# GULP energy per Si atom -5574.181878 kJ/mol
# Density = 2.139275 g / cm^3
# Si number density = 21.441554 Si / 1000 Ang^3
#
#
#
# Elastic Constant Matrix: (Units=GPa)
#
#
# Indices 1 2 3 4 5 6 
#
# 1 109.8115 30.6589 43.6430 0.0001 -5.2440 0.0002
# 2 30.6589 67.2119 33.6153 0.0001 -6.5218 0.0003
# 3 43.6430 33.6153 109.9361 0.0000 -7.0307 0.0001
# 4 0.0001 0.0001 0.0000 23.8029 0.0000 -12.0785
# 5 -5.2440 -6.5218 -7.0307 0.0000 33.9997 0.0001
# 6 0.0002 0.0003 0.0001 -12.0785 0.0001 36.8795
#
#
#
# Elastic Compliance Matrix: (Units=1/GPa)
#
#
# Indices 1 2 3 4 5 6 
#
# 1 0.011470 -0.003458 -0.003471 0.000000 0.000388 0.000000
# 2 -0.003458 0.018785 -0.004231 0.000000 0.002195 0.000000
# 3 -0.003471 -0.004231 0.011838 0.000000 0.001101 0.000000
# 4 0.000000 0.000000 0.000000 0.050385 0.000000 0.016502
# 5 0.000388 0.002195 0.001101 0.000000 0.030121 0.000000
# 6 0.000000 0.000000 0.000000 0.016502 0.000000 0.032520
#
#
# Mechanical properties :
#
#
# Convention : Reuss Voigt Hill
#
# Bulk Modulus (GPa) = 50.57441 55.86598 53.22020
# Shear Modulus (GPa) = 27.16947 30.87257 29.02102
#
# Velocity S-wave (km/s) = 3.56355 3.79865 3.68298
# Velocity P-wave (km/s) = 6.36947 6.73433 6.55444
#
# Compressibility (1/GPa) = 0.01977285
#
# Stress axis : x y z
#
# Youngs Moduli (GPa) = 87.18249 53.23474 84.47235
#
# Poissons Ratio (x) = 0.18411 0.29322
# Poissons Ratio (y) = 0.30151 0.35736
# Poissons Ratio (z) = 0.30263 0.22521
#
# Static dielectric constant tensor:
#      x y z
#    x 1.828710 0.000000 -0.024470 
#    y 0.000000 1.853990 0.000000 
#    z -0.024470 0.000000 1.784820 
# 
# From -- ./inp_files/26341.got.cif
#   From: 2010.05.17/outbox.cif.g08.bks.cpg/sg9_14_cif.got.tgz:26341.got - 2010.06.03 20:04:27.
