data_PCOD9140133
_publ_section_title
;
Structure prediction by ZEFSAII (Michael W. Deem and Ramdas Pophale) SiO2 
 PCOD9140133
Probable space group: C C
;
_chemical_formula_sum "Si O2"
_cell_formula_units_Z 28
_cell_length_a 11.766948
_cell_length_b 14.766870
_cell_length_c 7.887266
_cell_angle_alpha 90.000000
_cell_angle_beta 65.089237
_cell_angle_gamma 90.000000
_cell_volume 1242.994643
_symmetry_space_group_name_H-M "C C"
_symmetry_group_IT_number 9
_symmetry_cell_setting 'monoclinic'
loop_
_space_group_symop_operation_xyz
x,y,z
x,-y,1/2+z
1/2+x,1/2+y,z
1/2+x,1/2-y,1/2+z
loop_
_atom_site_type_symbol
_atom_site_label
_atom_site_fract_x
_atom_site_fract_y
_atom_site_fract_z
Si Si1 0.419220 0.112984 0.843160
Si Si2 0.095906 0.099626 0.836390
Si Si3 0.778680 0.198970 0.434378
Si Si4 0.369990 0.075347 0.518167
Si Si5 0.641784 0.780308 0.360396
Si Si6 0.031801 0.100406 0.263891
Si Si7 0.070978 0.292390 0.774787
O O1 0.339832 0.203270 0.864110
O O2 0.451840 0.076479 0.637506
O O3 0.535048 0.148048 0.876368
O O4 0.355628 0.027278 0.968494
O O5 0.231222 0.105897 0.659254
O O6 0.022380 0.188946 0.822408
O O7 0.044553 0.000612 0.825434
O O8 0.096577 0.106030 0.039478
O O9 0.747078 0.199407 0.654513
O O10 0.660413 0.190714 0.382291
O O11 0.886588 0.126516 0.331331
O O12 0.451338 0.140345 0.345569
O O13 0.593184 0.678230 0.345127
O O14 0.654862 0.794281 0.552100
#
# Coordination Sequence:
#
# PCOD9140133 Si02
#       7
#     4   4   4   4   4   4   4
#     4  11  23  43  70 103 146 183 236 289 356 414
#     4  12  24  44  71 104 139 192 230 294 346 429
#     4  11  23  51  68 103 151 183 229 308 344 427
#     4  12  23  43  72 104 140 185 236 295 342 428
#     4  11  23  45  72 105 141 190 231 294 352 423
#     4  11  25  46  72 104 149 184 240 286 364 417
#     4  12  25  44  77 105 138 187 244 286 366 408
#
# _framework density 22.526244999999999
#
# number of rings (size 3 to 8) (size 9 to 14) (size 15 to 20)
#    0.000    0.571    4.286    4.286    0.000    3.429 
#    5.143    0.000    0.000    0.000    0.000    0.000 
#    0.000    0.000    0.000    0.000    0.000    0.000 
#
# Total GULP energy -78218.832813 kJ/mol
# GULP energy per Si atom -5587.059487 kJ/mol
# Density = 2.247497 g / cm^3
# Si number density = 22.526245 Si / 1000 Ang^3
#
#
#
# Elastic Constant Matrix: (Units=GPa)
#
#
# Indices 1 2 3 4 5 6 
#
# 1 28.1643 50.0568 19.1499 0.0000 -3.0090 0.0000
# 2 50.0568 110.4794 36.5103 0.0000 -15.1962 0.0000
# 3 19.1499 36.5103 100.7921 0.0000 15.9049 0.0000
# 4 0.0000 0.0000 0.0000 39.8019 0.0000 -3.2525
# 5 -3.0090 -15.1962 15.9049 0.0000 30.5770 0.0000
# 6 0.0000 0.0000 0.0000 -3.2525 0.0000 23.0961
#
#
#
# Elastic Compliance Matrix: (Units=1/GPa)
#
#
# Indices 1 2 3 4 5 6 
#
# 1 0.201774 -0.095482 0.000660 0.000000 -0.027940 0.000000
# 2 -0.095482 0.057438 -0.006195 0.000000 0.022372 0.000000
# 3 0.000660 -0.006195 0.013635 0.000000 -0.010106 0.000000
# 4 0.000000 0.000000 0.000000 0.025417 0.000000 0.003579
# 5 -0.027940 0.022372 -0.010106 0.000000 0.046330 0.000000
# 6 0.000000 0.000000 0.000000 0.003579 0.000000 0.043801
#
#
# Mechanical properties :
#
#
# Convention : Reuss Voigt Hill
#
# Bulk Modulus (GPa) = 14.12195 50.09665 32.10930
# Shear Modulus (GPa) = 8.14288 27.60958 17.87623
#
# Velocity S-wave (km/s) = 1.90334 3.50474 2.82010
# Velocity P-wave (km/s) = 3.33361 6.21813 4.98889
#
# Compressibility (1/GPa) = 0.07081173
#
# Stress axis : x y z
#
# Youngs Moduli (GPa) = 4.95605 17.41017 73.34174
#
# Poissons Ratio (x) = 1.66236 -0.04841
# Poissons Ratio (y) = 0.47321 0.45436
# Poissons Ratio (z) = -0.00327 0.10786
#
# Static dielectric constant tensor:
#      x y z
#    x 1.866850 0.000000 0.005130 
#    y 0.000000 1.839750 0.000000 
#    z 0.005130 0.000000 1.888040 
# 
# From -- ./inp_files/7333.got.cif
#   From: 2010.05.17/outbox.cif.g08.bks.cpg/sg9_4_cif.got.tgz:7333.got - 2010.06.03 20:04:27.
