data_PCOD9140440
_publ_section_title
;
Structure prediction by ZEFSAII (Michael W. Deem and Ramdas Pophale) SiO2 
 PCOD9140440
Probable space group: C C
;
_chemical_formula_sum "Si O2"
_cell_formula_units_Z 32
_cell_length_a 31.866765
_cell_length_b 5.719185
_cell_length_c 8.781780
_cell_angle_alpha 90.000000
_cell_angle_beta 50.954651
_cell_angle_gamma 90.000000
_cell_volume 1243.021642
_symmetry_space_group_name_H-M "C C"
_symmetry_group_IT_number 9
_symmetry_cell_setting 'monoclinic'
loop_
_space_group_symop_operation_xyz
x,y,z
x,-y,1/2+z
1/2+x,1/2+y,z
1/2+x,1/2-y,1/2+z
loop_
_atom_site_type_symbol
_atom_site_label
_atom_site_fract_x
_atom_site_fract_y
_atom_site_fract_z
Si Si1 0.570230 0.593616 0.149400
Si Si2 0.467573 0.156144 0.991490
Si Si3 0.213787 0.771933 0.791334
Si Si4 0.395081 0.883198 0.371688
Si Si5 0.555477 0.196982 0.366864
Si Si6 0.152821 0.386843 0.135013
Si Si7 0.316644 0.449000 0.892829
Si Si8 0.293343 0.163185 0.653008
O O1 0.517720 0.665540 0.371484
O O2 0.581214 0.329429 0.166484
O O3 0.624686 0.728319 0.069874
O O4 0.552051 0.642313 0.021652
O O5 0.435409 0.197926 0.910263
O O6 0.500775 0.912710 0.929497
O O7 0.423945 0.103520 0.221808
O O8 0.177940 0.756163 0.718650
O O9 0.269463 0.669910 0.598428
O O10 0.235664 0.030094 0.792633
O O11 0.189938 0.592498 0.973839
O O12 0.373390 0.671422 0.314438
O O13 0.341668 0.984015 0.572058
O O14 0.598685 0.008381 0.322157
O O15 0.303787 0.365305 0.752649
O O16 0.306240 0.719032 0.959518
#
# Coordination Sequence:
#
# PCOD9140440 Si02
#       8
#     4   4   4   4   4   4   4   4
#     4  11  26  44  71 109 149 194 247 315 373 450
#     4  11  24  46  70 106 152 198 253 306 374 449
#     4  11  26  48  77 104 145 197 251 318 380 453
#     4  11  24  45  73 103 146 202 253 311 369 444
#     4  11  26  43  72 110 148 193 253 310 377 449
#     4  11  25  50  76 105 146 192 254 311 381 459
#     4  11  26  46  71 109 147 195 256 312 376 452
#     4  11  27  48  74 108 151 197 255 317 378 450
#
# _framework density 25.74372
#
# number of rings (size 3 to 8) (size 9 to 14) (size 15 to 20)
#    0.000    1.000    3.750    0.750    5.250    8.000 
#    0.000    1.250    0.000    0.000    0.000    0.000 
#    0.000    0.000    0.000    0.000    0.000    0.000 
#
# Total GULP energy -89365.076030 kJ/mol
# GULP energy per Si atom -5585.317252 kJ/mol
# Density = 2.568513 g / cm^3
# Si number density = 25.743720 Si / 1000 Ang^3
#
#
#
# Elastic Constant Matrix: (Units=GPa)
#
#
# Indices 1 2 3 4 5 6 
#
# 1 184.8979 73.5633 40.8397 0.0000 -5.5171 0.0000
# 2 73.5633 62.1855 21.2563 0.0000 16.3984 0.0000
# 3 40.8397 21.2563 87.9100 0.0000 -3.4478 0.0000
# 4 0.0000 0.0000 0.0000 39.9723 0.0000 -1.4006
# 5 -5.5171 16.3984 -3.4478 0.0000 39.3637 0.0000
# 6 0.0000 0.0000 0.0000 -1.4006 0.0000 37.4326
#
#
#
# Elastic Compliance Matrix: (Units=1/GPa)
#
#
# Indices 1 2 3 4 5 6 
#
# 1 0.012648 -0.016721 -0.001495 0.000000 0.008607 0.000000
# 2 -0.016721 0.042317 -0.003259 0.000000 -0.020258 0.000000
# 3 -0.001495 -0.003259 0.012947 0.000000 0.002282 0.000000
# 4 0.000000 0.000000 0.000000 0.025050 0.000000 0.000937
# 5 0.008607 -0.020258 0.002282 0.000000 0.035250 0.000000
# 6 0.000000 0.000000 0.000000 0.000937 0.000000 0.026750
#
#
# Mechanical properties :
#
#
# Convention : Reuss Voigt Hill
#
# Bulk Modulus (GPa) = 40.05950 67.36799 53.71375
# Shear Modulus (GPa) = 24.24449 36.64267 30.44358
#
# Velocity S-wave (km/s) = 3.07215 3.77684 3.44257
# Velocity P-wave (km/s) = 5.30837 6.72643 6.05903
#
# Compressibility (1/GPa) = 0.02496287
#
# Stress axis : x y z
#
# Youngs Moduli (GPa) = 79.06359 23.63110 77.23617
#
# Poissons Ratio (x) = 0.39513 0.11548
# Poissons Ratio (y) = 1.32202 0.25169
# Poissons Ratio (z) = 0.11821 0.07701
#
# Static dielectric constant tensor:
#      x y z
#    x 1.996530 0.000000 -0.030340 
#    y 0.000000 2.271440 0.000000 
#    z -0.030340 0.000000 2.069150 
# 
# From -- ./inp_files/12616.got.cif
#   From: 2010.05.17/outbox.cif.g08.bks.cpg/sg9_7_cif.got.tgz:12616.got - 2010.06.03 20:04:27.
