data_PCOD9140352
_publ_section_title
;
Structure prediction by ZEFSAII (Michael W. Deem and Ramdas Pophale) SiO2 
 PCOD9140352
Probable space group: C C
;
_chemical_formula_sum "Si O2"
_cell_formula_units_Z 16
_cell_length_a 6.619183
_cell_length_b 24.147282
_cell_length_c 4.932018
_cell_angle_alpha 90.000000
_cell_angle_beta 128.208463
_cell_angle_gamma 90.000000
_cell_volume 619.427204
_symmetry_space_group_name_H-M "C C"
_symmetry_group_IT_number 9
_symmetry_cell_setting 'monoclinic'
loop_
_space_group_symop_operation_xyz
x,y,z
x,-y,1/2+z
1/2+x,1/2+y,z
1/2+x,1/2-y,1/2+z
loop_
_atom_site_type_symbol
_atom_site_label
_atom_site_fract_x
_atom_site_fract_y
_atom_site_fract_z
Si Si1 0.778550 0.858655 0.854250
Si Si2 0.471147 0.784920 0.932185
Si Si3 0.606615 0.375957 0.613058
Si Si4 0.988624 0.536198 0.361391
O O1 0.581042 0.807866 0.732592
O O2 0.658430 0.914554 0.879775
O O3 0.015469 0.847789 0.258138
O O4 0.883969 0.870454 0.646679
O O5 0.348856 0.842358 0.938807
O O6 0.225023 0.744991 0.752166
O O7 0.702251 0.437406 0.623987
O O8 0.027887 0.515925 0.698510
#
# Coordination Sequence:
#
# PCOD9140352 Si02
#       4
#     4   4   4   4
#     4  11  25  45  70 104 143 186 240 294 353 431
#     4  11  24  48  74 108 144 192 238 297 360 426
#     4  11  25  45  70 104 143 186 240 294 353 431
#     4  11  24  42  68 104 142 188 236 293 358 422
#
# _framework density 25.830311999999999
#
# number of rings (size 3 to 8) (size 9 to 14) (size 15 to 20)
#    0.000    1.000    2.500    3.000    0.000   14.000 
#    0.000    0.000    0.000    0.000    0.000    0.000 
#    0.000    0.000    0.000    0.000    0.000    0.000 
#
# Total GULP energy -44693.269175 kJ/mol
# GULP energy per Si atom -5586.658647 kJ/mol
# Density = 2.577152 g / cm^3
# Si number density = 25.830312 Si / 1000 Ang^3
#
#
#
# Elastic Constant Matrix: (Units=GPa)
#
#
# Indices 1 2 3 4 5 6 
#
# 1 157.0559 32.9816 41.7296 0.0000 5.8743 0.0000
# 2 32.9816 88.9150 13.5908 0.0000 16.6622 0.0000
# 3 41.7296 13.5908 94.1350 0.0000 15.5973 0.0000
# 4 0.0000 0.0000 0.0000 43.0762 0.0000 16.9363
# 5 5.8743 16.6622 15.5973 0.0000 48.1062 0.0000
# 6 0.0000 0.0000 0.0000 16.9363 0.0000 50.9231
#
#
#
# Elastic Compliance Matrix: (Units=1/GPa)
#
#
# Indices 1 2 3 4 5 6 
#
# 1 0.007722 -0.002557 -0.003217 0.000000 0.000986 0.000000
# 2 -0.002557 0.012984 -0.000050 0.000000 -0.004169 0.000000
# 3 -0.003217 -0.000050 0.012669 0.000000 -0.003697 0.000000
# 4 0.000000 0.000000 0.000000 0.026707 0.000000 -0.008882
# 5 0.000986 -0.004169 -0.003697 0.000000 0.023310 0.000000
# 6 0.000000 0.000000 0.000000 -0.008882 0.000000 0.022592
#
#
# Mechanical properties :
#
#
# Convention : Reuss Voigt Hill
#
# Bulk Modulus (GPa) = 46.02863 57.41222 51.72043
# Shear Modulus (GPa) = 40.03989 45.20803 42.62396
#
# Velocity S-wave (km/s) = 3.94142 4.18807 4.06661
# Velocity P-wave (km/s) = 6.21058 6.75733 6.48972
#
# Compressibility (1/GPa) = 0.02172561
#
# Stress axis : x y z
#
# Youngs Moduli (GPa) = 129.49710 77.01676 78.93185
#
# Poissons Ratio (x) = 0.19696 0.25395
# Poissons Ratio (y) = 0.33118 0.00396
# Poissons Ratio (z) = 0.41664 0.00387
#
# Static dielectric constant tensor:
#      x y z
#    x 1.982470 0.000000 0.064300 
#    y 0.000000 2.100270 0.000000 
#    z 0.064300 0.000000 2.164410 
# 
# From -- ./inp_files/125.got.cif
#   From: 2010.05.17/outbox.cif.g08.bks.cpg/sg9_1_cif.got.tgz:125.got - 2010.06.03 20:04:27.
