data_PCOD9140229
_publ_section_title
;
Structure prediction by ZEFSAII (Michael W. Deem and Ramdas Pophale) SiO2 
 PCOD9140229
Probable space group: C C
;
_chemical_formula_sum "Si O2"
_cell_formula_units_Z 32
_cell_length_a 6.486165
_cell_length_b 17.580514
_cell_length_c 14.566944
_cell_angle_alpha 90.000000
_cell_angle_beta 116.625485
_cell_angle_gamma 90.000000
_cell_volume 1484.922072
_symmetry_space_group_name_H-M "C C"
_symmetry_group_IT_number 9
_symmetry_cell_setting 'monoclinic'
loop_
_space_group_symop_operation_xyz
x,y,z
x,-y,1/2+z
1/2+x,1/2+y,z
1/2+x,1/2-y,1/2+z
loop_
_atom_site_type_symbol
_atom_site_label
_atom_site_fract_x
_atom_site_fract_y
_atom_site_fract_z
Si Si1 0.712580 0.071759 0.350180
Si Si2 0.861080 0.077207 0.172368
Si Si3 0.896704 0.921883 0.172178
Si Si4 0.903414 0.427663 0.350005
Si Si5 0.293010 0.170887 0.213802
Si Si6 0.540880 0.667733 0.532816
Si Si7 0.937185 0.332679 0.532451
Si Si8 0.050014 0.328193 0.214884
O O1 0.794228 0.056440 0.262770
O O2 0.535424 0.143330 0.304724
O O3 0.939498 0.102168 0.447803
O O4 0.572240 0.999683 0.364192
O O5 0.698617 0.145668 0.109966
O O6 0.115616 0.105967 0.207804
O O7 0.813152 0.999541 0.108236
O O8 0.716293 0.892895 0.209159
O O9 0.146846 0.942724 0.261504
O O10 0.932104 0.853562 0.109189
O O11 0.869506 0.397898 0.447052
O O12 0.991002 0.355750 0.305920
O O13 0.310154 0.170790 0.105725
O O14 0.188859 0.249423 0.231851
O O15 0.444377 0.750200 0.487631
O O16 0.814949 0.671233 0.606971
#
# Coordination Sequence:
#
# PCOD9140229 Si02
#       8
#     4   4   4   4   4   4   4   4
#     4  11  25  45  69 105 136 179 234 282 342 415
#     4  11  23  46  69  98 138 180 225 284 345 408
#     4  11  23  46  69  98 138 180 225 284 345 408
#     4  11  25  45  69 105 136 179 234 282 342 415
#     4  11  24  46  71  97 140 184 225 285 346 403
#     4  11  25  42  68 103 139 174 235 284 341 414
#     4  11  25  42  68 103 139 174 235 284 341 414
#     4  11  24  46  71  97 140 184 225 285 346 403
#
# _framework density 21.549949999999999
#
# number of rings (size 3 to 8) (size 9 to 14) (size 15 to 20)
#    0.000    1.000    5.000    0.750    3.500    2.000 
#    4.500    0.000    0.000    0.000    0.000    0.000 
#    0.000    0.000    0.000    0.000    0.000    0.000 
#
# Total GULP energy -89265.018634 kJ/mol
# GULP energy per Si atom -5579.063665 kJ/mol
# Density = 2.150090 g / cm^3
# Si number density = 21.549950 Si / 1000 Ang^3
#
#
#
# Elastic Constant Matrix: (Units=GPa)
#
#
# Indices 1 2 3 4 5 6 
#
# 1 80.0965 38.5116 10.8362 0.0000 -3.2750 0.0000
# 2 38.5116 139.6099 30.4334 0.0000 -0.8993 0.0000
# 3 10.8362 30.4334 70.4579 0.0000 0.9656 0.0000
# 4 0.0000 0.0000 0.0000 21.3443 0.0000 -0.9558
# 5 -3.2750 -0.8993 0.9656 0.0000 1.3000 0.0000
# 6 0.0000 0.0000 0.0000 -0.9558 0.0000 42.0139
#
#
#
# Elastic Compliance Matrix: (Units=1/GPa)
#
#
# Indices 1 2 3 4 5 6 
#
# 1 0.016137 -0.003912 -0.001326 0.000000 0.038932 0.000000
# 2 -0.003912 0.008941 -0.003243 0.000000 -0.001261 0.000000
# 3 -0.001326 -0.003243 0.016037 0.000000 -0.017496 0.000000
# 4 0.000000 0.000000 0.000000 0.046899 0.000000 0.001067
# 5 0.038932 -0.001261 -0.017496 0.000000 0.879451 0.000000
# 6 0.000000 0.000000 0.000000 0.001067 0.000000 0.023826
#
#
# Mechanical properties :
#
#
# Convention : Reuss Voigt Hill
#
# Bulk Modulus (GPa) = 41.40068 49.96964 45.68516
# Shear Modulus (GPa) = 4.91979 26.95718 15.93849
#
# Velocity S-wave (km/s) = 1.51259 3.54067 2.72252
# Velocity P-wave (km/s) = 4.72269 6.32086 5.57929
#
# Compressibility (1/GPa) = 0.02415419
#
# Stress axis : x y z
#
# Youngs Moduli (GPa) = 61.96964 111.84880 62.35464
#
# Poissons Ratio (x) = 0.43751 0.08267
# Poissons Ratio (y) = 0.24240 0.20221
# Poissons Ratio (z) = 0.08216 0.36272
#
# Static dielectric constant tensor:
#      x y z
#    x 1.756650 0.000000 0.001110 
#    y 0.000000 1.874750 0.000000 
#    z 0.001110 0.000000 1.801510 
# 
# From -- ./inp_files/21930.got.cif
#   From: 2010.05.17/outbox.cif.g08.bks.cpg/sg9_11_cif.got.tgz:21930.got - 2010.06.03 20:04:27.
