data_PCOD9140193
_publ_section_title
;
Structure prediction by ZEFSAII (Michael W. Deem and Ramdas Pophale) SiO2 
 PCOD9140193
Probable space group: C C
;
_chemical_formula_sum "Si O2"
_cell_formula_units_Z 32
_cell_length_a 14.694889
_cell_length_b 14.990631
_cell_length_c 10.198550
_cell_angle_alpha 90.000000
_cell_angle_beta 142.922238
_cell_angle_gamma 90.000000
_cell_volume 1354.468064
_symmetry_space_group_name_H-M "C C"
_symmetry_group_IT_number 9
_symmetry_cell_setting 'monoclinic'
loop_
_space_group_symop_operation_xyz
x,y,z
x,-y,1/2+z
1/2+x,1/2+y,z
1/2+x,1/2-y,1/2+z
loop_
_atom_site_type_symbol
_atom_site_label
_atom_site_fract_x
_atom_site_fract_y
_atom_site_fract_z
Si Si1 0.643610 0.978438 0.609890
Si Si2 0.448326 0.148227 0.724232
Si Si3 0.879962 0.478440 0.488297
Si Si4 0.608129 0.464593 0.531335
Si Si5 0.233911 0.711885 0.912716
Si Si6 0.915452 0.035398 0.066857
Si Si7 0.575240 0.148227 0.373947
Si Si8 0.789668 0.711897 0.185477
O O1 0.568455 0.890131 0.465843
O O2 0.511796 0.017234 0.549115
O O3 0.658303 0.058048 0.521115
O O4 0.794651 0.966366 0.865723
O O5 0.319180 0.219159 0.606872
O O6 0.560903 0.197730 0.752345
O O7 0.365255 0.058050 0.577054
O O8 0.728932 0.466371 0.232461
O O9 0.955100 0.390129 0.632331
O O10 0.511792 0.499992 0.299095
O O11 0.511789 0.436432 0.549095
O O12 0.707360 0.383183 0.591483
O O13 0.261791 0.749990 0.799096
O O14 0.316222 0.616805 0.006725
O O15 0.704394 0.219153 0.491309
O O16 0.462674 0.197738 0.345847
#
# Coordination Sequence:
#
# PCOD9140193 Si02
#       8
#     4   4   4   4   4   4   4   4
#     4  11  23  45  69  97 137 188 220 278 354 413
#     4  11  24  41  70 101 138 171 236 287 338 400
#     4  11  23  45  69  97 137 188 220 278 354 413
#     4  12  26  43  68 103 140 178 230 286 343 410
#     4  12  22  42  67 104 130 175 234 284 330 400
#     4  12  26  43  68 103 140 178 230 286 343 410
#     4  11  24  41  70 101 138 171 236 287 338 400
#     4  12  22  42  67 104 130 175 234 284 330 400
#
# _framework density 23.625512000000001
#
# number of rings (size 3 to 8) (size 9 to 14) (size 15 to 20)
#    0.000    0.500    5.000    3.750    3.500    0.000 
#    0.000    6.250    0.000    0.000    0.000    0.000 
#    0.000    0.000    0.000    0.000    0.000    0.000 
#
# Total GULP energy -89468.118666 kJ/mol
# GULP energy per Si atom -5591.757417 kJ/mol
# Density = 2.357174 g / cm^3
# Si number density = 23.625512 Si / 1000 Ang^3
#
#
#
# Elastic Constant Matrix: (Units=GPa)
#
#
# Indices 1 2 3 4 5 6 
#
# 1 45.8631 0.0276 17.9744 0.0000 6.2372 0.0000
# 2 0.0276 76.7309 50.0326 0.0000 -6.4420 0.0000
# 3 17.9744 50.0326 193.1190 0.0000 -5.3957 0.0000
# 4 0.0000 0.0000 0.0000 46.5747 0.0000 4.9135
# 5 6.2372 -6.4420 -5.3957 0.0000 31.1811 0.0000
# 6 0.0000 0.0000 0.0000 4.9135 0.0000 20.5792
#
#
#
# Elastic Compliance Matrix: (Units=1/GPa)
#
#
# Indices 1 2 3 4 5 6 
#
# 1 0.023514 0.001320 -0.002667 0.000000 -0.004892 0.000000
# 2 0.001320 0.015960 -0.004193 0.000000 0.002308 0.000000
# 3 -0.002667 -0.004193 0.006535 0.000000 0.000798 0.000000
# 4 0.000000 0.000000 0.000000 0.022026 0.000000 -0.005259
# 5 -0.004892 0.002308 0.000798 0.000000 0.033664 0.000000
# 6 0.000000 0.000000 0.000000 -0.005259 0.000000 0.049848
#
#
# Mechanical properties :
#
#
# Convention : Reuss Voigt Hill
#
# Bulk Modulus (GPa) = 28.63032 50.19801 39.41417
# Shear Modulus (GPa) = 28.69097 36.17890 32.43494
#
# Velocity S-wave (km/s) = 3.48861 3.91749 3.70926
# Velocity P-wave (km/s) = 5.32653 6.46187 5.92148
#
# Compressibility (1/GPa) = 0.03492801
#
# Stress axis : x y z
#
# Youngs Moduli (GPa) = 42.52808 62.65646 153.02058
#
# Poissons Ratio (x) = -0.08270 0.40814
# Poissons Ratio (y) = -0.05613 0.64165
# Poissons Ratio (z) = 0.11343 0.26273
#
# Static dielectric constant tensor:
#      x y z
#    x 1.998810 0.000000 -0.076160 
#    y 0.000000 1.899300 0.000000 
#    z -0.076160 0.000000 1.947220 
# 
# From -- ./inp_files/7545.got.cif
#   From: 2010.05.17/outbox.cif.g08.bks.cpg/sg9_4_cif.got.tgz:7545.got - 2010.06.03 20:04:27.
