data_PCOD9140950
_publ_section_title
;
Structure prediction by ZEFSAII (Michael W. Deem and Ramdas Pophale) SiO2 
 PCOD9140950
Probable space group: C C
;
_chemical_formula_sum "Si O2"
_cell_formula_units_Z 20
_cell_length_a 5.393948
_cell_length_b 18.084886
_cell_length_c 7.798789
_cell_angle_alpha 90.000000
_cell_angle_beta 87.823082
_cell_angle_gamma 90.000000
_cell_volume 760.214516
_symmetry_space_group_name_H-M "C C"
_symmetry_group_IT_number 9
_symmetry_cell_setting 'monoclinic'
loop_
_space_group_symop_operation_xyz
x,y,z
x,-y,1/2+z
1/2+x,1/2+y,z
1/2+x,1/2-y,1/2+z
loop_
_atom_site_type_symbol
_atom_site_label
_atom_site_fract_x
_atom_site_fract_y
_atom_site_fract_z
Si Si1 0.998340 0.364504 0.928160
Si Si2 0.727697 0.840713 0.245541
Si Si3 0.207152 0.913975 0.658817
Si Si4 0.709279 0.987591 0.727692
Si Si5 0.521275 0.217312 0.088763
O O1 0.734287 0.387762 0.856170
O O2 0.109398 0.313237 0.772020
O O3 0.168766 0.437586 0.901281
O O4 0.997115 0.335013 0.118556
O O5 0.755451 0.927646 0.270960
O O6 0.694115 0.797087 0.423066
O O7 0.931114 0.798763 0.128188
O O8 0.287676 0.839596 0.557294
O O9 0.444587 0.969047 0.642734
O O10 0.949442 0.951894 0.631951
#
# Coordination Sequence:
#
# PCOD9140950 Si02
#       5
#     4   4   4   4   4
#     4   8  24  45  71 110 153 189 263 304 390 442
#     4  12  23  49  74 113 152 210 249 324 382 467
#     4   8  21  50  71 107 154 185 260 310 378 446
#     4   9  22  46  78 107 143 204 250 321 371 456
#     4   9  26  46  72 109 160 200 258 311 393 459
#
# _framework density 26.308361000000001
#
# number of rings (size 3 to 8) (size 9 to 14) (size 15 to 20)
#    2.400    0.000    0.000    0.000    8.400    1.600 
#   18.000    0.000    0.000    0.000    0.000    0.000 
#    0.000    0.000    0.000    0.000    0.000    0.000 
#
# Total GULP energy -55762.192320 kJ/mol
# GULP energy per Si atom -5576.219232 kJ/mol
# Density = 2.624848 g / cm^3
# Si number density = 26.308361 Si / 1000 Ang^3
#
#
#
# Elastic Constant Matrix: (Units=GPa)
#
#
# Indices 1 2 3 4 5 6 
#
# 1 114.7936 38.1445 36.4093 0.0000 -15.5889 0.0000
# 2 38.1445 148.9433 41.9007 0.0000 -25.5758 0.0000
# 3 36.4093 41.9007 132.9130 0.0000 -2.2343 0.0000
# 4 0.0000 0.0000 0.0000 35.5066 0.0000 -14.2332
# 5 -15.5889 -25.5758 -2.2343 0.0000 33.0768 0.0000
# 6 0.0000 0.0000 0.0000 -14.2332 0.0000 32.1032
#
#
#
# Elastic Compliance Matrix: (Units=1/GPa)
#
#
# Indices 1 2 3 4 5 6 
#
# 1 0.010416 -0.001370 -0.002359 0.000000 0.003690 0.000000
# 2 -0.001370 0.008726 -0.002276 0.000000 0.005948 0.000000
# 3 -0.002359 -0.002276 0.008849 0.000000 -0.002274 0.000000
# 4 0.000000 0.000000 0.000000 0.034251 0.000000 0.015185
# 5 0.003690 0.005948 -0.002274 0.000000 0.036417 0.000000
# 6 0.000000 0.000000 0.000000 0.015185 0.000000 0.037882
#
#
# Mechanical properties :
#
#
# Convention : Reuss Voigt Hill
#
# Bulk Modulus (GPa) = 62.57308 69.95100 66.26204
# Shear Modulus (GPa) = 32.49296 38.81702 35.65499
#
# Velocity S-wave (km/s) = 3.51818 3.84534 3.68540
# Velocity P-wave (km/s) = 6.35135 6.80898 6.58414
#
# Compressibility (1/GPa) = 0.01598131
#
# Stress axis : x y z
#
# Youngs Moduli (GPa) = 96.00604 114.59455 113.00458
#
# Poissons Ratio (x) = 0.15701 0.26661
# Poissons Ratio (y) = 0.13154 0.25716
# Poissons Ratio (z) = 0.22651 0.26078
#
# Static dielectric constant tensor:
#      x y z
#    x 2.083650 0.000000 0.080940 
#    y 0.000000 2.148350 0.000000 
#    z 0.080940 0.000000 2.157120 
# 
# From -- ./inp_files/3694.got.cif
#   From: 2010.05.17/outbox.cif.g08.bks.cpg/sg9_2_cif.got.tgz:3694.got - 2010.06.03 20:04:27.
