data_PCOD9140780
_publ_section_title
;
Structure prediction by ZEFSAII (Michael W. Deem and Ramdas Pophale) SiO2 
 PCOD9140780
Probable space group: C C
;
_chemical_formula_sum "Si O2"
_cell_formula_units_Z 24
_cell_length_a 11.636310
_cell_length_b 8.586706
_cell_length_c 8.849495
_cell_angle_alpha 90.000000
_cell_angle_beta 86.035962
_cell_angle_gamma 90.000000
_cell_volume 882.104686
_symmetry_space_group_name_H-M "C C"
_symmetry_group_IT_number 9
_symmetry_cell_setting 'monoclinic'
loop_
_space_group_symop_operation_xyz
x,y,z
x,-y,1/2+z
1/2+x,1/2+y,z
1/2+x,1/2-y,1/2+z
loop_
_atom_site_type_symbol
_atom_site_label
_atom_site_fract_x
_atom_site_fract_y
_atom_site_fract_z
Si Si1 0.009880 0.623523 0.184730
Si Si2 0.156380 0.823972 0.952053
Si Si3 0.053748 0.151794 0.964169
Si Si4 0.840050 0.252445 0.185169
Si Si5 0.814987 0.697229 0.017270
Si Si6 0.721941 0.931217 0.206427
O O1 0.024772 0.726599 0.332992
O O2 0.090565 0.472912 0.175222
O O3 0.881681 0.599390 0.137634
O O4 0.058026 0.728733 0.045210
O O5 0.213920 0.704108 0.830143
O O6 0.088912 0.977928 0.900316
O O7 0.255733 0.838837 0.072434
O O8 0.176973 0.182073 0.029844
O O9 0.951650 0.183032 0.091715
O O10 0.858996 0.336203 0.344763
O O11 0.767156 0.100976 0.248363
O O12 0.815898 0.875380 0.075623
#
# Coordination Sequence:
#
# PCOD9140780 Si02
#       6
#     4   4   4   4   4   4
#     4  11  27  51  80 118 159 214 267 328 407 476
#     4  11  26  50  84 118 160 213 269 329 407 481
#     4  12  28  52  83 121 162 215 270 331 406 480
#     4  11  25  52  83 118 162 215 265 333 407 476
#     4  12  27  50  82 120 162 209 268 335 402 480
#     4  11  25  51  82 115 161 212 267 328 405 477
#
# _framework density 27.207652
#
# number of rings (size 3 to 8) (size 9 to 14) (size 15 to 20)
#    0.000    0.667    3.333    4.000    4.667    4.000 
#    3.000    0.000    3.667    0.000    0.000    0.000 
#    0.000    0.000    0.000    0.000    0.000    0.000 
#
# Total GULP energy -67114.564093 kJ/mol
# GULP energy per Si atom -5592.880341 kJ/mol
# Density = 2.714573 g / cm^3
# Si number density = 27.207652 Si / 1000 Ang^3
#
#
#
# Elastic Constant Matrix: (Units=GPa)
#
#
# Indices 1 2 3 4 5 6 
#
# 1 165.4034 46.6441 92.0350 0.0000 -1.2996 0.0000
# 2 46.6441 110.6694 61.9473 0.0000 5.6751 0.0000
# 3 92.0350 61.9473 161.8998 0.0000 15.6100 0.0000
# 4 0.0000 0.0000 0.0000 31.4159 0.0000 3.7012
# 5 -1.2996 5.6751 15.6100 0.0000 52.5436 0.0000
# 6 0.0000 0.0000 0.0000 3.7012 0.0000 47.1722
#
#
#
# Elastic Compliance Matrix: (Units=1/GPa)
#
#
# Indices 1 2 3 4 5 6 
#
# 1 0.009127 -0.001193 -0.004906 0.000000 0.001812 0.000000
# 2 -0.001193 0.011655 -0.003765 0.000000 -0.000170 0.000000
# 3 -0.004906 -0.003765 0.010685 0.000000 -0.002889 0.000000
# 4 0.000000 0.000000 0.000000 0.032128 0.000000 -0.002521
# 5 0.001812 -0.000170 -0.002889 0.000000 0.019953 0.000000
# 6 0.000000 0.000000 0.000000 -0.002521 0.000000 0.021397
#
#
# Mechanical properties :
#
#
# Convention : Reuss Voigt Hill
#
# Bulk Modulus (GPa) = 85.19635 93.24726 89.22181
# Shear Modulus (GPa) = 38.88461 42.04941 40.46701
#
# Velocity S-wave (km/s) = 3.78455 3.93555 3.86079
# Velocity P-wave (km/s) = 7.10482 7.41608 7.26212
#
# Compressibility (1/GPa) = 0.01173759
#
# Stress axis : x y z
#
# Youngs Moduli (GPa) = 109.57009 85.80094 93.59046
#
# Poissons Ratio (x) = 0.10238 0.45919
# Poissons Ratio (y) = 0.13074 0.35235
# Poissons Ratio (z) = 0.53759 0.32302
#
# Static dielectric constant tensor:
#      x y z
#    x 2.179920 0.000000 0.023370 
#    y 0.000000 2.293720 0.000000 
#    z 0.023370 0.000000 2.221680 
# 
# From -- ./inp_files/6747.got.cif
#   From: 2010.05.17/outbox.cif.g08.bks.cpg/sg9_4_cif.got.tgz:6747.got - 2010.06.03 20:04:27.
