data_PCOD9140206
_publ_section_title
;
Structure prediction by ZEFSAII (Michael W. Deem and Ramdas Pophale) SiO2 
 PCOD9140206
Probable space group: C C
;
_chemical_formula_sum "Si O2"
_cell_formula_units_Z 32
_cell_length_a 11.976767
_cell_length_b 14.987486
_cell_length_c 8.526527
_cell_angle_alpha 90.000000
_cell_angle_beta 116.666992
_cell_angle_gamma 90.000000
_cell_volume 1367.723621
_symmetry_space_group_name_H-M "C C"
_symmetry_group_IT_number 9
_symmetry_cell_setting 'monoclinic'
loop_
_space_group_symop_operation_xyz
x,y,z
x,-y,1/2+z
1/2+x,1/2+y,z
1/2+x,1/2-y,1/2+z
loop_
_atom_site_type_symbol
_atom_site_label
_atom_site_fract_x
_atom_site_fract_y
_atom_site_fract_z
Si Si1 0.216580 0.907561 0.840860
Si Si2 0.327087 0.594492 0.528152
Si Si3 0.491454 0.111431 0.564896
Si Si4 0.481882 0.287205 0.697334
Si Si5 0.174434 0.898946 0.450081
Si Si6 0.554341 0.921672 0.745039
Si Si7 0.897919 0.919457 0.400158
Si Si8 0.880977 0.717956 0.958264
O O1 0.228534 0.898364 0.660803
O O2 0.090978 0.856743 0.811884
O O3 0.343297 0.873697 0.997960
O O4 0.206090 0.010518 0.880252
O O5 0.200840 0.599832 0.346763
O O6 0.401362 0.512041 0.497840
O O7 0.300838 0.575489 0.695487
O O8 0.391579 0.690261 0.560346
O O9 0.549634 0.205386 0.651282
O O10 0.509063 0.093201 0.393449
O O11 0.533851 0.024579 0.685840
O O12 0.389605 0.340791 0.522241
O O13 0.414501 0.247020 0.804833
O O14 0.241693 0.820317 0.398161
O O15 0.027629 0.900608 0.391918
O O16 0.475739 0.857690 0.580890
#
# Coordination Sequence:
#
# PCOD9140206 Si02
#       8
#     4   4   4   4   4   4   4   4
#     4  11  23  45  72 108 147 201 245 325 382 462
#     4  12  27  47  78 106 160 202 263 319 397 463
#     4  12  24  45  70 105 152 197 261 312 397 466
#     4  11  28  44  75 111 153 198 264 317 399 463
#     4  11  24  44  79 107 150 197 257 321 382 461
#     4  12  27  46  74 111 154 203 256 330 391 460
#     4  11  25  51  77 111 154 210 257 321 394 469
#     4  12  26  46  73 119 148 204 259 325 386 470
#
# _framework density 23.396540999999999
#
# number of rings (size 3 to 8) (size 9 to 14) (size 15 to 20)
#    0.000    0.500    2.500    5.250    7.000    2.000 
#    0.000    0.000    0.000    0.000    0.000    0.000 
#    0.000    0.000    0.000    0.000    0.000    0.000 
#
# Total GULP energy -89570.143700 kJ/mol
# GULP energy per Si atom -5598.133981 kJ/mol
# Density = 2.334329 g / cm^3
# Si number density = 23.396541 Si / 1000 Ang^3
#
#
#
# Elastic Constant Matrix: (Units=GPa)
#
#
# Indices 1 2 3 4 5 6 
#
# 1 86.0995 30.2622 35.0576 0.0000 -14.4318 0.0000
# 2 30.2622 173.2774 37.5934 0.0000 -13.0254 0.0000
# 3 35.0576 37.5934 47.6309 0.0000 -2.9444 0.0000
# 4 0.0000 0.0000 0.0000 65.2939 0.0000 42.9263
# 5 -14.4318 -13.0254 -2.9444 0.0000 43.0146 0.0000
# 6 0.0000 0.0000 0.0000 42.9263 0.0000 236.6409
#
#
#
# Elastic Compliance Matrix: (Units=1/GPa)
#
#
# Indices 1 2 3 4 5 6 
#
# 1 0.017611 0.000059 -0.012696 0.000000 0.005057 0.000000
# 2 0.000059 0.007096 -0.005533 0.000000 0.001790 0.000000
# 3 -0.012696 -0.005533 0.034486 0.000000 -0.003575 0.000000
# 4 0.000000 0.000000 0.000000 0.017389 0.000000 -0.003154
# 5 0.005057 0.001790 -0.003575 0.000000 0.025242 0.000000
# 6 0.000000 0.000000 0.000000 -0.003154 0.000000 0.004798
#
#
# Mechanical properties :
#
#
# Convention : Reuss Voigt Hill
#
# Bulk Modulus (GPa) = 43.76026 56.98156 50.37091
# Shear Modulus (GPa) = 33.20508 82.59616 57.90062
#
# Velocity S-wave (km/s) = 3.77135 5.94806 4.98008
# Velocity P-wave (km/s) = 6.14072 8.46050 7.39218
#
# Compressibility (1/GPa) = 0.02285178
#
# Stress axis : x y z
#
# Youngs Moduli (GPa) = 56.78281 140.92854 28.99761
#
# Poissons Ratio (x) = -0.00831 0.36815
# Poissons Ratio (y) = -0.00335 0.16045
# Poissons Ratio (z) = 0.72092 0.77979
#
# Static dielectric constant tensor:
#      x y z
#    x 1.920120 0.000000 0.043960 
#    y 0.000000 1.133170 0.000000 
#    z 0.043960 0.000000 1.899600 
# 
# From -- ./inp_files/7504.got.cif
#   From: 2010.05.17/outbox.cif.g08.bks.cpg/sg9_4_cif.got.tgz:7504.got - 2010.06.03 20:04:27.
