data_PCOD9140764
_publ_section_title
;
Structure prediction by ZEFSAII (Michael W. Deem and Ramdas Pophale) SiO2 
 PCOD9140764
Probable space group: C C
;
_chemical_formula_sum "Si O2"
_cell_formula_units_Z 16
_cell_length_a 18.494453
_cell_length_b 5.067367
_cell_length_c 12.949945
_cell_angle_alpha 90.000000
_cell_angle_beta 149.066945
_cell_angle_gamma 90.000000
_cell_volume 623.857612
_symmetry_space_group_name_H-M "C C"
_symmetry_group_IT_number 9
_symmetry_cell_setting 'monoclinic'
loop_
_space_group_symop_operation_xyz
x,y,z
x,-y,1/2+z
1/2+x,1/2+y,z
1/2+x,1/2-y,1/2+z
loop_
_atom_site_type_symbol
_atom_site_label
_atom_site_fract_x
_atom_site_fract_y
_atom_site_fract_z
Si Si1 0.760340 0.347049 0.576440
Si Si2 0.480782 0.009469 0.706034
Si Si3 0.024914 0.754532 0.538585
Si Si4 0.122534 0.752627 0.054726
O O1 0.615045 0.186054 0.384598
O O2 0.883727 0.223111 0.797465
O O3 0.730434 0.613375 0.606832
O O4 0.833739 0.375530 0.554565
O O5 0.489393 0.157293 0.608876
O O6 0.628097 0.967286 0.115318
O O7 0.994903 0.714563 0.817647
O O8 0.093990 0.037229 0.608798
#
# Coordination Sequence:
#
# PCOD9140764 Si02
#       4
#     4   4   4   4
#     4  11  25  52  73 118 154 200 264 320 379 481
#     4  11  28  49  84 111 161 207 257 327 398 456
#     4  11  28  47  79 110 155 206 257 320 392 456
#     4  11  25  50  70 115 152 199 262 317 375 477
#
# _framework density 25.646878000000001
#
# number of rings (size 3 to 8) (size 9 to 14) (size 15 to 20)
#    0.000    1.000    5.000    0.000   14.000    0.000 
#    0.000    0.000    0.000    0.000    0.000    0.000 
#    0.000    0.000    0.000    0.000    0.000    0.000 
#
# Total GULP energy -44697.371918 kJ/mol
# GULP energy per Si atom -5587.171490 kJ/mol
# Density = 2.558850 g / cm^3
# Si number density = 25.646878 Si / 1000 Ang^3
#
#
#
# Elastic Constant Matrix: (Units=GPa)
#
#
# Indices 1 2 3 4 5 6 
#
# 1 202.6508 49.6860 54.3497 0.0006 4.7163 0.0002
# 2 49.6860 129.4836 37.5595 0.0047 9.8943 0.0046
# 3 54.3497 37.5595 102.9937 0.0001 1.5989 -0.0001
# 4 0.0006 0.0047 0.0001 12.1226 0.0004 -34.0408
# 5 4.7163 9.8943 1.5989 0.0004 54.6196 0.0002
# 6 0.0002 0.0046 -0.0001 -34.0408 0.0002 -7.9171
#
#
#
# Elastic Compliance Matrix: (Units=1/GPa)
#
#
# Indices 1 2 3 4 5 6 
#
# 1 0.006016 -0.001539 -0.002611 0.000000 -0.000164 0.000000
# 2 -0.001539 0.009150 -0.002502 0.000001 -0.001451 0.000002
# 3 -0.002611 -0.002502 0.011995 0.000000 0.000328 0.000000
# 4 0.000000 0.000001 0.000000 0.006310 0.000000 -0.027130
# 5 -0.000164 -0.001451 0.000328 0.000000 0.018576 0.000000
# 6 0.000000 0.000002 0.000000 -0.027130 0.000000 -0.009661
#
#
# Mechanical properties :
#
#
# Convention : Reuss Voigt Hill
#
# Bulk Modulus (GPa) = 72.16668 79.81316 75.98992
# Shear Modulus (GPa) = 82.90804 31.33387 57.12096
#
# Velocity S-wave (km/s) = 5.69183 3.49913 4.72445
# Velocity P-wave (km/s) = 8.44959 6.89296 7.71066
#
# Compressibility (1/GPa) = 0.01385681
#
# Stress axis : x y z
#
# Youngs Moduli (GPa) = 166.22675 109.28784 83.37060
#
# Poissons Ratio (x) = 0.16814 0.21768
# Poissons Ratio (y) = 0.25574 0.20863
# Poissons Ratio (z) = 0.43401 0.27349
#
# Static dielectric constant tensor:
#      x y z
#    x 2.121910 0.000000 0.072840 
#    y 0.000000 2.158560 0.000000 
#    z 0.072840 0.000000 2.027330 
# 
# From -- ./inp_files/6681.got.cif
#   From: 2010.05.17/outbox.cif.g08.bks.cpg/sg9_4_cif.got.tgz:6681.got - 2010.06.03 20:04:27.
