data_PCOD9140626
_publ_section_title
;
Structure prediction by ZEFSAII (Michael W. Deem and Ramdas Pophale) SiO2 
 PCOD9140626
Probable space group: C C
;
_chemical_formula_sum "Si O2"
_cell_formula_units_Z 28
_cell_length_a 24.992705
_cell_length_b 4.821479
_cell_length_c 13.876262
_cell_angle_alpha 90.000000
_cell_angle_beta 138.253607
_cell_angle_gamma 90.000000
_cell_volume 1113.351906
_symmetry_space_group_name_H-M "C C"
_symmetry_group_IT_number 9
_symmetry_cell_setting 'monoclinic'
loop_
_space_group_symop_operation_xyz
x,y,z
x,-y,1/2+z
1/2+x,1/2+y,z
1/2+x,1/2-y,1/2+z
loop_
_atom_site_type_symbol
_atom_site_label
_atom_site_fract_x
_atom_site_fract_y
_atom_site_fract_z
Si Si1 0.426410 0.810876 0.778130
Si Si2 0.639553 0.098148 0.723710
Si Si3 0.528583 0.330889 0.854717
Si Si4 0.666517 0.944165 0.049715
Si Si5 0.590676 0.371531 0.269561
Si Si6 0.311910 0.702394 0.446869
Si Si7 0.333321 0.767278 0.841961
O O1 0.480527 0.046956 0.801916
O O2 0.354347 0.760546 0.605316
O O3 0.481774 0.539052 0.860896
O O4 0.524312 0.475859 0.744585
O O5 0.631307 0.177397 0.601622
O O6 0.636840 0.375864 0.781500
O O7 0.573933 0.870995 0.669941
O O8 0.724322 0.935834 0.844842
O O9 0.392127 0.127631 0.337712
O O10 0.623004 0.245235 0.991796
O O11 0.639349 0.797515 0.916242
O O12 0.760577 0.893257 0.188764
O O13 0.360738 0.471466 0.452063
O O14 0.305913 0.976239 0.372289
#
# Coordination Sequence:
#
# PCOD9140626 Si02
#       7
#     4   4   4   4   4   4   4
#     4  12  26  49  70 101 150 195 232 300 366 440
#     4  11  25  43  76 110 137 186 243 303 369 413
#     4  12  26  48  66 105 149 189 241 296 363 437
#     4  11  26  47  76 108 146 181 253 314 344 447
#     4  12  24  45  69 108 142 188 232 296 373 420
#     4  11  25  48  71 110 142 184 247 300 353 455
#     4  11  26  46  78 104 140 191 250 295 372 420
#
# _framework density 25.149280999999998
#
# number of rings (size 3 to 8) (size 9 to 14) (size 15 to 20)
#    0.000    0.571    2.857    4.286    6.000    1.143 
#   15.429    0.000    0.000    0.000    0.000    0.000 
#    0.000    0.000    0.000    0.000    0.000    0.000 
#
# Total GULP energy -78311.102425 kJ/mol
# GULP energy per Si atom -5593.650173 kJ/mol
# Density = 2.509204 g / cm^3
# Si number density = 25.149281 Si / 1000 Ang^3
#
#
#
# Elastic Constant Matrix: (Units=GPa)
#
#
# Indices 1 2 3 4 5 6 
#
# 1 120.4291 28.8685 26.6466 0.0002 -32.0468 0.0000
# 2 28.8685 136.1276 12.6194 0.0016 -5.7987 0.0003
# 3 26.6466 12.6194 79.3177 0.0003 9.8039 0.0000
# 4 0.0002 0.0016 0.0003 25.7052 0.0002 -15.5869
# 5 -32.0468 -5.7987 9.8039 0.0002 39.3595 0.0000
# 6 0.0000 0.0003 0.0000 -15.5869 0.0000 59.1607
#
#
#
# Elastic Compliance Matrix: (Units=1/GPa)
#
#
# Indices 1 2 3 4 5 6 
#
# 1 0.013098 -0.001758 -0.005578 0.000000 0.011795 0.000000
# 2 -0.001758 0.007772 -0.000630 -0.000001 -0.000130 0.000000
# 3 -0.005578 -0.000630 0.015636 0.000000 -0.008530 0.000000
# 4 0.000000 -0.000001 0.000000 0.046299 0.000000 0.012198
# 5 0.011795 -0.000130 -0.008530 0.000000 0.037116 0.000000
# 6 0.000000 0.000000 0.000000 0.012198 0.000000 0.020117
#
#
# Mechanical properties :
#
#
# Convention : Reuss Voigt Hill
#
# Bulk Modulus (GPa) = 48.60711 52.46037 50.53374
# Shear Modulus (GPa) = 30.70706 42.69440 36.70073
#
# Velocity S-wave (km/s) = 3.49806 4.12471 3.82424
# Velocity P-wave (km/s) = 5.97366 6.60221 6.29579
#
# Compressibility (1/GPa) = 0.02057312
#
# Stress axis : x y z
#
# Youngs Moduli (GPa) = 76.34665 128.67103 63.95452
#
# Poissons Ratio (x) = 0.22622 0.35677
# Poissons Ratio (y) = 0.13423 0.04028
# Poissons Ratio (z) = 0.42590 0.08104
#
# Static dielectric constant tensor:
#      x y z
#    x 2.022000 0.000000 0.037030 
#    y 0.000000 1.968930 0.000000 
#    z 0.037030 0.000000 2.016990 
# 
# From -- ./inp_files/28166.got.cif
#   From: 2010.05.17/outbox.cif.g08.bks.cpg/sg9_15_cif.got.tgz:28166.got - 2010.06.03 20:04:27.
