data_PCOD9140338
_publ_section_title
;
Structure prediction by ZEFSAII (Michael W. Deem and Ramdas Pophale) SiO2 
 PCOD9140338
Probable space group: C C
;
_chemical_formula_sum "Si O2"
_cell_formula_units_Z 20
_cell_length_a 10.200497
_cell_length_b 10.949085
_cell_length_c 7.843615
_cell_angle_alpha 90.000000
_cell_angle_beta 61.376773
_cell_angle_gamma 90.000000
_cell_volume 768.963077
_symmetry_space_group_name_H-M "C C"
_symmetry_group_IT_number 9
_symmetry_cell_setting 'monoclinic'
loop_
_space_group_symop_operation_xyz
x,y,z
x,-y,1/2+z
1/2+x,1/2+y,z
1/2+x,1/2-y,1/2+z
loop_
_atom_site_type_symbol
_atom_site_label
_atom_site_fract_x
_atom_site_fract_y
_atom_site_fract_z
Si Si1 0.997670 0.051054 0.526250
Si Si2 0.339912 0.337199 0.413479
Si Si3 0.061585 0.363011 0.816784
Si Si4 0.225576 0.919718 0.636758
Si Si5 0.942397 0.406002 0.231894
O O1 0.856704 0.105602 0.715283
O O2 0.098462 0.136892 0.339574
O O3 0.936433 0.932483 0.466242
O O4 0.120869 0.003320 0.582381
O O5 0.196226 0.316061 0.618643
O O6 0.417762 0.208253 0.341290
O O7 0.044444 0.503597 0.778301
O O8 0.049370 0.341427 0.027413
O O9 0.331890 0.845454 0.439822
O O10 0.332698 0.010750 0.679456
#
# Coordination Sequence:
#
# PCOD9140338 Si02
#       5
#     4   4   4   4   4
#     4   9  19  38  62  88 126 156 196 250 304 354
#     4  11  24  39  65  89 123 160 205 245 304 358
#     4  11  24  39  65  89 123 160 205 245 304 358
#     4   8  16  32  66  84 114 152 200 236 310 336
#     4   9  19  38  62  88 126 156 196 250 304 354
#
# _framework density 26.009049000000001
#
# number of rings (size 3 to 8) (size 9 to 14) (size 15 to 20)
#    0.000    2.400    0.000    1.200   16.800    0.000 
#    0.000    8.000    8.800    0.000    0.000    0.000 
#    0.000    0.000    0.000    0.000    0.000    0.000 
#
# Total GULP energy -55764.803367 kJ/mol
# GULP energy per Si atom -5576.480337 kJ/mol
# Density = 2.594985 g / cm^3
# Si number density = 26.009049 Si / 1000 Ang^3
#
#
#
# Elastic Constant Matrix: (Units=GPa)
#
#
# Indices 1 2 3 4 5 6 
#
# 1 51.0051 7.1578 49.6692 0.0000 -19.4390 0.0000
# 2 7.1578 42.2669 30.0528 0.0000 -7.1936 0.0000
# 3 49.6692 30.0528 291.2429 0.0000 -37.4923 0.0000
# 4 0.0000 0.0000 0.0000 16.7468 0.0000 1.3117
# 5 -19.4390 -7.1936 -37.4923 0.0000 47.1164 0.0000
# 6 0.0000 0.0000 0.0000 1.3117 0.0000 22.5642
#
#
#
# Elastic Compliance Matrix: (Units=1/GPa)
#
#
# Indices 1 2 3 4 5 6 
#
# 1 0.025985 -0.000673 -0.003337 0.000000 0.007962 0.000000
# 2 -0.000673 0.025721 -0.002306 0.000000 0.001815 0.000000
# 3 -0.003337 -0.002306 0.004477 0.000000 0.001833 0.000000
# 4 0.000000 0.000000 0.000000 0.059986 0.000000 -0.003487
# 5 0.007962 0.001815 0.001833 0.000000 0.026245 0.000000
# 6 0.000000 0.000000 0.000000 -0.003487 0.000000 0.044521
#
#
# Mechanical properties :
#
#
# Convention : Reuss Voigt Hill
#
# Bulk Modulus (GPa) = 22.96119 62.03049 42.49584
# Shear Modulus (GPa) = 23.35548 37.12782 30.24165
#
# Velocity S-wave (km/s) = 2.99987 3.78232 3.41359
# Velocity P-wave (km/s) = 4.56578 6.55561 5.64899
#
# Compressibility (1/GPa) = 0.04355176
#
# Stress axis : x y z
#
# Youngs Moduli (GPa) = 38.48446 38.87809 223.38303
#
# Poissons Ratio (x) = 0.02615 0.74544
# Poissons Ratio (y) = 0.02588 0.51508
# Poissons Ratio (z) = 0.12842 0.08965
#
# Static dielectric constant tensor:
#      x y z
#    x 2.047740 0.000000 0.012110 
#    y 0.000000 2.075860 0.000000 
#    z 0.012110 0.000000 2.210220 
# 
# From -- ./inp_files/4819.got.cif
#   From: 2010.05.17/outbox.cif.g08.bks.cpg/sg9_3_cif.got.tgz:4819.got - 2010.06.03 20:04:27.
