data_PCOD9140630
_publ_section_title
;
Structure prediction by ZEFSAII (Michael W. Deem and Ramdas Pophale) SiO2 
 PCOD9140630
Probable space group: C C
;
_chemical_formula_sum "Si O2"
_cell_formula_units_Z 32
_cell_length_a 15.658128
_cell_length_b 7.559564
_cell_length_c 11.557105
_cell_angle_alpha 90.000000
_cell_angle_beta 89.895457
_cell_angle_gamma 90.000000
_cell_volume 1367.996301
_symmetry_space_group_name_H-M "C C"
_symmetry_group_IT_number 9
_symmetry_cell_setting 'monoclinic'
loop_
_space_group_symop_operation_xyz
x,y,z
x,-y,1/2+z
1/2+x,1/2+y,z
1/2+x,1/2-y,1/2+z
loop_
_atom_site_type_symbol
_atom_site_label
_atom_site_fract_x
_atom_site_fract_y
_atom_site_fract_z
Si Si1 0.799140 0.822683 0.430840
Si Si2 0.375482 0.831380 0.715745
Si Si3 0.689356 0.660748 0.112957
Si Si4 0.057018 0.637300 0.218352
Si Si5 0.035882 0.248707 0.283428
Si Si6 0.864503 0.275787 0.176375
Si Si7 0.122545 0.196274 0.508472
Si Si8 0.227800 0.697910 0.358894
O O1 0.859706 0.701857 0.352172
O O2 0.831095 0.822974 0.563258
O O3 0.706167 0.737376 0.435129
O O4 0.779315 0.014765 0.378739
O O5 0.280909 0.786159 0.668224
O O6 0.470300 0.748534 0.700822
O O7 0.387183 0.020350 0.650396
O O8 0.615063 0.732820 0.195376
O O9 0.654545 0.460415 0.091862
O O10 0.702739 0.728341 0.983104
O O11 0.027204 0.462007 0.287445
O O12 0.138464 0.693391 0.292101
O O13 0.094839 0.637530 0.087703
O O14 0.052858 0.163990 0.408689
O O15 0.948129 0.184265 0.227509
O O16 0.793178 0.300514 0.275759
#
# Coordination Sequence:
#
# PCOD9140630 Si02
#       8
#     4   4   4   4   4   4   4   4
#     4  12  24  45  71  97 138 179 226 280 339 405
#     4  11  25  44  71 101 136 178 230 279 341 405
#     4  12  26  44  69  99 139 182 228 281 340 397
#     4  11  25  44  71 101 136 178 230 279 341 405
#     4  11  27  46  69 102 136 179 228 281 342 404
#     4  11  27  46  69 102 136 179 228 281 342 404
#     4  12  24  45  71  97 138 179 226 280 339 405
#     4  12  26  44  69  99 139 182 228 281 340 397
#
# _framework density 23.391877999999998
#
# number of rings (size 3 to 8) (size 9 to 14) (size 15 to 20)
#    0.000    0.500    5.000    1.500    7.000    4.000 
#    0.000    0.000    0.000    0.000    0.000    0.000 
#    0.000    0.000    0.000    0.000    0.000    0.000 
#
# Total GULP energy -89157.672679 kJ/mol
# GULP energy per Si atom -5572.354542 kJ/mol
# Density = 2.333864 g / cm^3
# Si number density = 23.391878 Si / 1000 Ang^3
#
#
#
# Elastic Constant Matrix: (Units=GPa)
#
#
# Indices 1 2 3 4 5 6 
#
# 1 132.6290 -4.8636 40.7751 0.0000 8.4171 0.0000
# 2 -4.8636 50.0175 8.0889 0.0000 6.8518 0.0000
# 3 40.7751 8.0889 123.4226 0.0000 16.9374 0.0000
# 4 0.0000 0.0000 0.0000 14.2335 0.0000 -11.6473
# 5 8.4171 6.8518 16.9374 0.0000 28.2106 0.0000
# 6 0.0000 0.0000 0.0000 -11.6473 0.0000 13.1753
#
#
#
# Elastic Compliance Matrix: (Units=1/GPa)
#
#
# Indices 1 2 3 4 5 6 
#
# 1 0.008513 0.001441 -0.002736 0.000000 -0.001248 0.000000
# 2 0.001441 0.020985 -0.001191 0.000000 -0.004812 0.000000
# 3 -0.002736 -0.001191 0.009734 0.000000 -0.004739 0.000000
# 4 0.000000 0.000000 0.000000 0.254005 0.000000 0.224547
# 5 -0.001248 -0.004812 -0.004739 0.000000 0.039834 0.000000
# 6 0.000000 0.000000 0.000000 0.224547 0.000000 0.274404
#
#
# Mechanical properties :
#
#
# Convention : Reuss Voigt Hill
#
# Bulk Modulus (GPa) = 29.18782 43.78554 36.48668
# Shear Modulus (GPa) = 8.01453 28.59515 18.30484
#
# Velocity S-wave (km/s) = 1.85301 3.50013 2.80041
# Velocity P-wave (km/s) = 4.13316 5.92397 5.10767
#
# Compressibility (1/GPa) = 0.03426086
#
# Stress axis : x y z
#
# Youngs Moduli (GPa) = 117.46898 47.65337 102.72832
#
# Poissons Ratio (x) = -0.06867 0.28103
# Poissons Ratio (y) = -0.16928 0.12236
# Poissons Ratio (z) = 0.32135 0.05676
#
# Static dielectric constant tensor:
#      x y z
#    x 1.903260 0.000000 0.033380 
#    y 0.000000 2.177120 0.000000 
#    z 0.033380 0.000000 1.930920 
# 
# From -- ./inp_files/17932.got.cif
#   From: 2010.05.17/outbox.cif.g08.bks.cpg/sg9_9_cif.got.tgz:17932.got - 2010.06.03 20:04:27.
