data_PCOD9140573
_publ_section_title
;
Structure prediction by ZEFSAII (Michael W. Deem and Ramdas Pophale) SiO2 
 PCOD9140573
Probable space group: C C
;
_chemical_formula_sum "Si O2"
_cell_formula_units_Z 28
_cell_length_a 4.984047
_cell_length_b 13.279746
_cell_length_c 15.908624
_cell_angle_alpha 90.000000
_cell_angle_beta 110.869120
_cell_angle_gamma 90.000000
_cell_volume 983.865579
_symmetry_space_group_name_H-M "C C"
_symmetry_group_IT_number 9
_symmetry_cell_setting 'monoclinic'
loop_
_space_group_symop_operation_xyz
x,y,z
x,-y,1/2+z
1/2+x,1/2+y,z
1/2+x,1/2-y,1/2+z
loop_
_atom_site_type_symbol
_atom_site_label
_atom_site_fract_x
_atom_site_fract_y
_atom_site_fract_z
Si Si1 0.853390 0.128768 0.918070
Si Si2 0.876066 0.224695 0.239837
Si Si3 0.962160 0.957045 0.622315
Si Si4 0.688729 0.829545 0.902581
Si Si5 0.771908 0.833377 0.174537
Si Si6 0.266657 0.090216 0.552125
Si Si7 0.322706 0.986456 0.388370
O O1 0.980184 0.317124 0.088070
O O2 0.512412 0.106980 0.879767
O O3 0.027838 0.232499 0.923497
O O4 0.001441 0.052232 0.866551
O O5 0.933802 0.132696 0.183776
O O6 0.563322 0.274596 0.187331
O O7 0.146995 0.297386 0.249864
O O8 0.848532 0.190454 0.332746
O O9 0.907597 0.912180 0.521281
O O10 0.251158 0.018743 0.631577
O O11 0.820269 0.050851 0.656847
O O12 0.446711 0.914873 0.856931
O O13 0.947162 0.870287 0.991671
O O14 0.384426 0.022087 0.490360
#
# Coordination Sequence:
#
# PCOD9140573 Si02
#       7
#     4   4   4   4   4   4   4
#     4  11  27  43  82 113 151 211 274 326 405 472
#     4  12  33  47  83 117 171 212 260 341 434 464
#     4  11  26  51  79 115 156 219 274 333 399 489
#     4  12  29  53  77 125 164 205 276 346 400 483
#     4  12  27  54  75 117 161 212 274 336 397 502
#     4  11  24  54  83 112 165 212 280 341 382 488
#     4  11  24  48  75 113 152 203 266 337 389 468
#
# _framework density 28.459173
#
# number of rings (size 3 to 8) (size 9 to 14) (size 15 to 20)
#    0.000    0.571    5.714    0.000   10.000    2.286 
#    0.000    1.429    0.000    0.000    0.000    0.000 
#    0.000    0.000    0.000    0.000    0.000    0.000 
#
# Total GULP energy -78242.705804 kJ/mol
# GULP energy per Si atom -5588.764700 kJ/mol
# Density = 2.839440 g / cm^3
# Si number density = 28.459173 Si / 1000 Ang^3
#
#
#
# Elastic Constant Matrix: (Units=GPa)
#
#
# Indices 1 2 3 4 5 6 
#
# 1 234.4383 85.6738 68.3215 0.0000 -34.0757 0.0000
# 2 85.6738 193.3944 62.2406 0.0000 -22.5552 0.0000
# 3 68.3215 62.2406 109.1227 0.0000 -37.3072 0.0000
# 4 0.0000 0.0000 0.0000 47.7514 0.0000 -26.6486
# 5 -34.0757 -22.5552 -37.3072 0.0000 59.6187 0.0000
# 6 0.0000 0.0000 0.0000 -26.6486 0.0000 54.6787
#
#
#
# Elastic Compliance Matrix: (Units=1/GPa)
#
#
# Indices 1 2 3 4 5 6 
#
# 1 0.005696 -0.001675 -0.002181 0.000000 0.001257 0.000000
# 2 -0.001675 0.006827 -0.002913 0.000000 -0.000197 0.000000
# 3 -0.002181 -0.002913 0.014488 0.000000 0.006717 0.000000
# 4 0.000000 0.000000 0.000000 0.028766 0.000000 0.014019
# 5 0.001257 -0.000197 0.006717 0.000000 0.021620 0.000000
# 6 0.000000 0.000000 0.000000 0.014019 0.000000 0.025121
#
#
# Mechanical properties :
#
#
# Convention : Reuss Voigt Hill
#
# Bulk Modulus (GPa) = 74.22268 107.71416 90.96842
# Shear Modulus (GPa) = 41.47779 53.79105 47.63442
#
# Velocity S-wave (km/s) = 3.82180 4.35226 4.09563
# Velocity P-wave (km/s) = 6.75366 7.94903 7.37560
#
# Compressibility (1/GPa) = 0.01347297
#
# Stress axis : x y z
#
# Youngs Moduli (GPa) = 175.56491 146.47416 69.02488
#
# Poissons Ratio (x) = 0.24530 0.15056
# Poissons Ratio (y) = 0.29402 0.20106
# Poissons Ratio (z) = 0.38295 0.42666
#
# Static dielectric constant tensor:
#      x y z
#    x 2.297870 0.000000 0.140750 
#    y 0.000000 2.247060 0.000000 
#    z 0.140750 0.000000 2.408020 
# 
# From -- ./inp_files/31951.got.cif
#   From: 2010.05.17/outbox.cif.g08.bks.cpg/sg9_16_cif.got.tgz:31951.got - 2010.06.03 20:04:27.
