data_PCOD9140375
_publ_section_title
;
Structure prediction by ZEFSAII (Michael W. Deem and Ramdas Pophale) SiO2 
 PCOD9140375
Probable space group: C C
;
_chemical_formula_sum "Si O2"
_cell_formula_units_Z 32
_cell_length_a 5.141975
_cell_length_b 24.385826
_cell_length_c 11.368559
_cell_angle_alpha 90.000000
_cell_angle_beta 91.929478
_cell_angle_gamma 90.000000
_cell_volume 1424.710247
_symmetry_space_group_name_H-M "C C"
_symmetry_group_IT_number 9
_symmetry_cell_setting 'monoclinic'
loop_
_space_group_symop_operation_xyz
x,y,z
x,-y,1/2+z
1/2+x,1/2+y,z
1/2+x,1/2-y,1/2+z
loop_
_atom_site_type_symbol
_atom_site_label
_atom_site_fract_x
_atom_site_fract_y
_atom_site_fract_z
Si Si1 0.488000 0.058133 0.221090
Si Si2 0.802432 0.815226 0.520502
Si Si3 0.115867 0.996014 0.395324
Si Si4 0.311548 0.117739 0.992529
Si Si5 0.714845 0.307138 0.934552
Si Si6 0.218420 0.546411 0.720044
Si Si7 0.700912 0.163636 0.293181
Si Si8 0.204234 0.912749 0.098077
O O1 0.271967 0.025879 0.292000
O O2 0.670844 0.097573 0.301267
O O3 0.663642 0.013052 0.157463
O O4 0.348260 0.098233 0.128118
O O5 0.576100 0.852464 0.459916
O O6 0.760790 0.752117 0.490110
O O7 0.770983 0.822401 0.660422
O O8 0.076309 0.839557 0.483668
O O9 0.151955 0.037773 0.504061
O O10 0.250816 0.938617 0.427326
O O11 0.828649 0.977163 0.346192
O O12 0.427274 0.313881 0.878543
O O13 0.925505 0.314184 0.834058
O O14 0.745938 0.356867 0.027290
O O15 0.447339 0.583760 0.673308
O O16 0.953191 0.577156 0.684432
#
# Coordination Sequence:
#
# PCOD9140375 Si02
#       8
#     4   4   4   4   4   4   4   4
#     4  11  24  43  71 103 145 181 240 277 343 438
#     4  11  27  49  70 102 139 183 237 298 335 413
#     4  12  25  43  72 103 144 186 222 288 360 422
#     4  11  26  44  72 100 143 182 234 284 350 422
#     4  12  25  50  73 100 138 181 245 286 348 409
#     4  12  26  42  63 106 147 172 229 280 363 402
#     4  11  24  44  77 102 127 193 236 281 346 422
#     4  12  27  43  70 106 135 188 229 294 337 426
#
# _framework density 22.460705000000001
#
# number of rings (size 3 to 8) (size 9 to 14) (size 15 to 20)
#    0.000    0.500    3.750    3.750   10.500    0.000 
#    6.750    0.000    0.000    0.000    0.000    0.000 
#    0.000    0.000    0.000    0.000    0.000    0.000 
#
# Total GULP energy -89489.102788 kJ/mol
# GULP energy per Si atom -5593.068924 kJ/mol
# Density = 2.240958 g / cm^3
# Si number density = 22.460705 Si / 1000 Ang^3
#
#
#
# Elastic Constant Matrix: (Units=GPa)
#
#
# Indices 1 2 3 4 5 6 
#
# 1 115.2972 11.2771 13.4359 0.0000 25.9727 0.0000
# 2 11.2771 118.7766 13.6900 0.0000 22.7568 0.0000
# 3 13.4359 13.6900 47.0359 0.0000 18.5479 0.0000
# 4 0.0000 0.0000 0.0000 27.1242 0.0000 6.2173
# 5 25.9727 22.7568 18.5479 0.0000 33.4198 0.0000
# 6 0.0000 0.0000 0.0000 6.2173 0.0000 33.8759
#
#
#
# Elastic Compliance Matrix: (Units=1/GPa)
#
#
# Indices 1 2 3 4 5 6 
#
# 1 0.010561 0.000653 0.000263 0.000000 -0.008797 0.000000
# 2 0.000653 0.009726 -0.000263 0.000000 -0.006984 0.000000
# 3 0.000263 -0.000263 0.027231 0.000000 -0.015138 0.000000
# 4 0.000000 0.000000 0.000000 0.038487 0.000000 -0.007064
# 5 -0.008797 -0.006984 -0.015138 0.000000 0.049917 0.000000
# 6 0.000000 0.000000 0.000000 -0.007064 0.000000 0.030816
#
#
# Mechanical properties :
#
#
# Convention : Reuss Voigt Hill
#
# Bulk Modulus (GPa) = 20.48275 39.76840 30.12558
# Shear Modulus (GPa) = 27.51689 35.06443 31.29066
#
# Velocity S-wave (km/s) = 3.50396 3.95542 3.73651
# Velocity P-wave (km/s) = 5.05069 6.21327 5.66190
#
# Compressibility (1/GPa) = 0.04882156
#
# Stress axis : x y z
#
# Youngs Moduli (GPa) = 94.69168 102.82194 36.72219
#
# Poissons Ratio (x) = -0.06710 -0.00964
# Poissons Ratio (y) = -0.06180 0.00966
# Poissons Ratio (z) = -0.02486 0.02706
#
# Static dielectric constant tensor:
#      x y z
#    x 1.869920 0.000000 0.000010 
#    y 0.000000 1.818380 0.000000 
#    z 0.000010 0.000000 1.876700 
# 
# From -- ./inp_files/13673.got.cif
#   From: 2010.05.17/outbox.cif.g08.bks.cpg/sg9_7_cif.got.tgz:13673.got - 2010.06.03 20:04:27.
