data_PCOD9140843
_publ_section_title
;
Structure prediction by ZEFSAII (Michael W. Deem and Ramdas Pophale) SiO2 
 PCOD9140843
Probable space group: C C
;
_chemical_formula_sum "Si O2"
_cell_formula_units_Z 28
_cell_length_a 11.060260
_cell_length_b 10.950257
_cell_length_c 11.014124
_cell_angle_alpha 90.000000
_cell_angle_beta 127.931673
_cell_angle_gamma 90.000000
_cell_volume 1052.145719
_symmetry_space_group_name_H-M "C C"
_symmetry_group_IT_number 9
_symmetry_cell_setting 'monoclinic'
loop_
_space_group_symop_operation_xyz
x,y,z
x,-y,1/2+z
1/2+x,1/2+y,z
1/2+x,1/2-y,1/2+z
loop_
_atom_site_type_symbol
_atom_site_label
_atom_site_fract_x
_atom_site_fract_y
_atom_site_fract_z
Si Si1 0.454220 0.291590 0.316760
Si Si2 0.130507 0.244533 0.177542
Si Si3 0.631482 0.478945 0.858181
Si Si4 0.423279 0.393921 0.946059
Si Si5 0.941816 0.447283 0.666941
Si Si6 0.161699 0.302431 0.650124
Si Si7 0.187388 0.583497 0.917101
O O1 0.280827 0.327822 0.241232
O O2 0.527012 0.261360 0.494184
O O3 0.571624 0.381188 0.323034
O O4 0.402417 0.185410 0.193061
O O5 0.149624 0.107424 0.249443
O O6 0.088728 0.324607 0.268609
O O7 0.495934 0.434768 0.863601
O O8 0.794002 0.481397 0.029477
O O9 0.293114 0.297308 0.830952
O O10 0.334919 0.501373 0.965735
O O11 0.563854 0.318864 0.084759
O O12 0.056832 0.417405 0.627323
O O13 0.047904 0.489711 0.844990
O O14 0.225819 0.337094 0.557577
#
# Coordination Sequence:
#
# PCOD9140843 Si02
#       7
#     4   4   4   4   4   4   4
#     4  12  28  52  79 120 168 214 278 352 418 508
#     4  12  27  50  82 121 164 217 281 346 425 503
#     4  12  27  48  81 123 160 223 278 347 428 506
#     4  11  27  49  79 116 161 214 277 346 420 498
#     4  11  29  50  80 116 164 218 276 352 428 509
#     4  11  28  50  76 117 161 215 271 352 411 525
#     4  11  26  49  79 115 166 213 279 343 430 503
#
# _framework density 26.612283999999999
#
# number of rings (size 3 to 8) (size 9 to 14) (size 15 to 20)
#    0.000    0.571    4.286    0.857   14.000    2.286 
#    0.000    0.000    0.000    0.000    0.000    0.000 
#    0.000    0.000    0.000    0.000    0.000    0.000 
#
# Total GULP energy -78063.284439 kJ/mol
# GULP energy per Si atom -5575.948889 kJ/mol
# Density = 2.655171 g / cm^3
# Si number density = 26.612284 Si / 1000 Ang^3
#
#
#
# Elastic Constant Matrix: (Units=GPa)
#
#
# Indices 1 2 3 4 5 6 
#
# 1 74.8108 18.3971 29.3475 0.0000 -4.1145 0.0000
# 2 18.3971 46.0336 21.7418 0.0000 -14.0140 0.0000
# 3 29.3475 21.7418 102.4888 0.0000 -22.5369 0.0000
# 4 0.0000 0.0000 0.0000 38.8547 0.0000 11.1125
# 5 -4.1145 -14.0140 -22.5369 0.0000 42.7684 0.0000
# 6 0.0000 0.0000 0.0000 11.1125 0.0000 35.0973
#
#
#
# Elastic Compliance Matrix: (Units=1/GPa)
#
#
# Indices 1 2 3 4 5 6 
#
# 1 0.016099 -0.005238 -0.003999 0.000000 -0.002275 0.000000
# 2 -0.005238 0.027236 -0.002744 0.000000 0.006974 0.000000
# 3 -0.003999 -0.002744 0.012670 0.000000 0.005393 0.000000
# 4 0.000000 0.000000 0.000000 0.028300 0.000000 -0.008960
# 5 -0.002275 0.006974 0.005393 0.000000 0.028290 0.000000
# 6 0.000000 0.000000 0.000000 -0.008960 0.000000 0.031329
#
#
# Mechanical properties :
#
#
# Convention : Reuss Voigt Hill
#
# Bulk Modulus (GPa) = 31.20800 40.25623 35.73212
# Shear Modulus (GPa) = 28.00085 33.60056 30.80071
#
# Velocity S-wave (km/s) = 3.24725 3.55716 3.40573
# Velocity P-wave (km/s) = 5.08054 5.65959 5.37786
#
# Compressibility (1/GPa) = 0.03204307
#
# Stress axis : x y z
#
# Youngs Moduli (GPa) = 62.11687 36.71642 78.92494
#
# Poissons Ratio (x) = 0.19230 0.31562
# Poissons Ratio (y) = 0.32534 0.21660
# Poissons Ratio (z) = 0.24840 0.10076
#
# Static dielectric constant tensor:
#      x y z
#    x 2.311450 0.000000 -0.130780 
#    y 0.000000 2.368980 0.000000 
#    z -0.130780 0.000000 2.120180 
# 
# From -- ./inp_files/16528.got.cif
#   From: 2010.05.17/outbox.cif.g08.bks.cpg/sg9_9_cif.got.tgz:16528.got - 2010.06.03 20:04:27.
