data_PCOD9140252
_publ_section_title
;
Structure prediction by ZEFSAII (Michael W. Deem and Ramdas Pophale) SiO2 
 PCOD9140252
Probable space group: C C
;
_chemical_formula_sum "Si O2"
_cell_formula_units_Z 32
_cell_length_a 28.589637
_cell_length_b 8.081283
_cell_length_c 17.907337
_cell_angle_alpha 90.000000
_cell_angle_beta 19.506708
_cell_angle_gamma 90.000000
_cell_volume 1381.525093
_symmetry_space_group_name_H-M "C C"
_symmetry_group_IT_number 9
_symmetry_cell_setting 'monoclinic'
loop_
_space_group_symop_operation_xyz
x,y,z
x,-y,1/2+z
1/2+x,1/2+y,z
1/2+x,1/2-y,1/2+z
loop_
_atom_site_type_symbol
_atom_site_label
_atom_site_fract_x
_atom_site_fract_y
_atom_site_fract_z
Si Si1 0.035640 0.370512 0.469600
Si Si2 0.456327 0.489000 0.569903
Si Si3 0.468724 0.372475 0.381253
Si Si4 0.171638 0.628097 0.018602
Si Si5 0.992091 0.565981 0.681833
Si Si6 0.687146 0.691134 0.812016
Si Si7 0.814085 0.626010 0.186687
Si Si8 0.354378 0.331954 0.978343
O O1 0.198875 0.408687 0.214022
O O2 0.022243 0.171127 0.485180
O O3 0.971520 0.443069 0.642871
O O4 0.944873 0.437624 0.537800
O O5 0.445040 0.450887 0.498781
O O6 0.562107 0.353092 0.443532
O O7 0.302087 0.507013 0.839992
O O8 0.608081 0.260398 0.171660
O O9 0.335657 0.258080 0.560685
O O10 0.465173 0.521030 0.325818
O O11 0.040417 0.531479 0.182054
O O12 0.233949 0.740769 0.857954
O O13 0.128580 0.669005 0.453712
O O14 0.879069 0.706048 0.872806
O O15 0.716712 0.524316 0.811839
O O16 0.861491 0.717827 0.041003
#
# Coordination Sequence:
#
# PCOD9140252 Si02
#       8
#     4   4   4   4   4   4   4   4
#     4  11  23  46  75 103 154 194 245 314 373 442
#     4  11  24  48  74 108 154 199 251 314 376 447
#     4  12  25  47  77 110 152 200 252 312 376 447
#     4  11  23  48  74 106 150 192 251 310 371 444
#     4  12  25  45  74 107 147 195 245 307 376 440
#     4  12  24  46  73 106 153 194 246 312 378 437
#     4  11  23  46  74 103 153 193 239 317 368 439
#     4  12  23  48  73 111 149 195 249 304 374 452
#
# _framework density 23.162807000000001
#
# number of rings (size 3 to 8) (size 9 to 14) (size 15 to 20)
#    0.000    0.500    7.500    1.500    1.750    2.000 
#   11.250    0.000    0.000    0.000    0.000    0.000 
#    0.000    0.000    0.000    0.000    0.000    0.000 
#
# Total GULP energy -89414.788400 kJ/mol
# GULP energy per Si atom -5588.424275 kJ/mol
# Density = 2.311009 g / cm^3
# Si number density = 23.162807 Si / 1000 Ang^3
#
#
#
# Elastic Constant Matrix: (Units=GPa)
#
#
# Indices 1 2 3 4 5 6 
#
# 1 75.8999 28.9816 32.2980 0.0000 -21.0660 0.0000
# 2 28.9816 81.3172 34.8154 0.0000 3.6743 0.0000
# 3 32.2980 34.8154 100.1641 0.0000 8.3408 0.0000
# 4 0.0000 0.0000 0.0000 56.6402 0.0000 0.5549
# 5 -21.0660 3.6743 8.3408 0.0000 22.9730 0.0000
# 6 0.0000 0.0000 0.0000 0.5549 0.0000 32.0272
#
#
#
# Elastic Compliance Matrix: (Units=1/GPa)
#
#
# Indices 1 2 3 4 5 6 
#
# 1 0.028438 -0.007638 -0.009062 0.000000 0.030589 0.000000
# 2 -0.007638 0.016504 -0.002548 0.000000 -0.008718 0.000000
# 3 -0.009062 -0.002548 0.014900 0.000000 -0.013312 0.000000
# 4 0.000000 0.000000 0.000000 0.017658 0.000000 -0.000306
# 5 0.030589 -0.008718 -0.013312 0.000000 0.077807 0.000000
# 6 0.000000 0.000000 0.000000 -0.000306 0.000000 0.031229
#
#
# Mechanical properties :
#
#
# Convention : Reuss Voigt Hill
#
# Bulk Modulus (GPa) = 46.84591 49.95237 48.39914
# Shear Modulus (GPa) = 21.53804 33.08049 27.30927
#
# Velocity S-wave (km/s) = 3.05266 3.78322 3.43740
# Velocity P-wave (km/s) = 5.71782 6.37936 6.05763
#
# Compressibility (1/GPa) = 0.02134658
#
# Stress axis : x y z
#
# Youngs Moduli (GPa) = 35.16431 60.59001 67.11440
#
# Poissons Ratio (x) = 0.46276 0.60821
# Poissons Ratio (y) = 0.26857 0.17100
# Poissons Ratio (z) = 0.31867 0.15438
#
# Static dielectric constant tensor:
#      x y z
#    x 1.885730 0.000000 -0.024640 
#    y 0.000000 1.885090 0.000000 
#    z -0.024640 0.000000 1.892330 
# 
# From -- ./inp_files/31840.got.cif
#   From: 2010.05.17/outbox.cif.g08.bks.cpg/sg9_16_cif.got.tgz:31840.got - 2010.06.03 20:04:27.
