data_PCOD9140624
_publ_section_title
;
Structure prediction by ZEFSAII (Michael W. Deem and Ramdas Pophale) SiO2 
 PCOD9140624
Probable space group: C C
;
_chemical_formula_sum "Si O2"
_cell_formula_units_Z 20
_cell_length_a 5.376863
_cell_length_b 28.575688
_cell_length_c 5.247269
_cell_angle_alpha 90.000000
_cell_angle_beta 103.144760
_cell_angle_gamma 90.000000
_cell_volume 785.105726
_symmetry_space_group_name_H-M "C C"
_symmetry_group_IT_number 9
_symmetry_cell_setting 'monoclinic'
loop_
_space_group_symop_operation_xyz
x,y,z
x,-y,1/2+z
1/2+x,1/2+y,z
1/2+x,1/2-y,1/2+z
loop_
_atom_site_type_symbol
_atom_site_label
_atom_site_fract_x
_atom_site_fract_y
_atom_site_fract_z
Si Si1 0.721350 0.308656 0.766290
Si Si2 0.097523 0.028441 0.027136
Si Si3 0.785776 0.118430 0.769721
Si Si4 0.282742 0.710466 0.547836
Si Si5 0.977096 0.398432 0.685247
O O1 0.452712 0.298066 0.837266
O O2 0.784739 0.265696 0.592824
O O3 0.748196 0.363389 0.711211
O O4 0.983111 0.302408 0.993924
O O5 0.944380 0.073368 0.893135
O O6 0.050600 0.989391 0.802009
O O7 0.385071 0.049113 0.108644
O O8 0.902169 0.170694 0.762076
O O9 0.673437 0.105034 0.464876
O O10 0.580470 0.122196 0.946770
#
# Coordination Sequence:
#
# PCOD9140624 Si02
#       5
#     4   4   4   4   4
#     4  11  25  43  74 113 156 204 253 312 383 461
#     4  12  28  46  78 108 148 200 258 324 388 452
#     4  11  27  47  75 109 153 199 255 319 385 460
#     4  11  25  43  74 113 156 204 253 312 383 461
#     4  11  27  47  75 109 153 199 255 319 385 460
#
# _framework density 25.474277000000001
#
# number of rings (size 3 to 8) (size 9 to 14) (size 15 to 20)
#    0.000    0.800    0.000    4.800   16.800    4.800 
#    0.000    0.000    0.000    0.000    0.000    0.000 
#    0.000    0.000    0.000    0.000    0.000    0.000 
#
# Total GULP energy -55836.982883 kJ/mol
# GULP energy per Si atom -5583.698288 kJ/mol
# Density = 2.541630 g / cm^3
# Si number density = 25.474277 Si / 1000 Ang^3
#
#
#
# Elastic Constant Matrix: (Units=GPa)
#
#
# Indices 1 2 3 4 5 6 
#
# 1 43.9566 18.3574 24.8671 0.0000 -12.1988 0.0000
# 2 18.3574 117.8150 33.7526 0.0000 12.0150 0.0000
# 3 24.8671 33.7526 111.0910 0.0000 -8.6597 0.0000
# 4 0.0000 0.0000 0.0000 64.2475 0.0000 0.4917
# 5 -12.1988 12.0150 -8.6597 0.0000 44.8882 0.0000
# 6 0.0000 0.0000 0.0000 0.4917 0.0000 49.0861
#
#
#
# Elastic Compliance Matrix: (Units=1/GPa)
#
#
# Indices 1 2 3 4 5 6 
#
# 1 0.029372 -0.004061 -0.004705 0.000000 0.008162 0.000000
# 2 -0.004061 0.010298 -0.002559 0.000000 -0.004354 0.000000
# 3 -0.004705 -0.002559 0.010951 0.000000 0.001519 0.000000
# 4 0.000000 0.000000 0.000000 0.015566 0.000000 -0.000156
# 5 0.008162 -0.004354 0.001519 0.000000 0.025954 0.000000
# 6 0.000000 0.000000 0.000000 -0.000156 0.000000 0.020374
#
#
# Mechanical properties :
#
#
# Convention : Reuss Voigt Hill
#
# Bulk Modulus (GPa) = 35.75141 47.42407 41.58774
# Shear Modulus (GPa) = 34.60487 44.70339 39.65413
#
# Velocity S-wave (km/s) = 3.68968 4.19363 3.94970
# Velocity P-wave (km/s) = 5.67595 6.48888 6.09598
#
# Compressibility (1/GPa) = 0.02797092
#
# Stress axis : x y z
#
# Youngs Moduli (GPa) = 34.04563 97.10783 91.31854
#
# Poissons Ratio (x) = 0.39437 0.42963
# Poissons Ratio (y) = 0.13826 0.23369
# Poissons Ratio (z) = 0.16017 0.24851
#
# Static dielectric constant tensor:
#      x y z
#    x 2.126440 0.000000 0.127580 
#    y 0.000000 2.009680 0.000000 
#    z 0.127580 0.000000 2.097670 
# 
# From -- ./inp_files/220.got.cif
#   From: 2010.05.17/outbox.cif.g08.bks.cpg/sg9_1_cif.got.tgz:220.got - 2010.06.03 20:04:27.
