data_PCOD9140765
_publ_section_title
;
Structure prediction by ZEFSAII (Michael W. Deem and Ramdas Pophale) SiO2 
 PCOD9140765
Probable space group: C C
;
_chemical_formula_sum "Si O2"
_cell_formula_units_Z 16
_cell_length_a 13.080280
_cell_length_b 5.064236
_cell_length_c 9.780381
_cell_angle_alpha 90.000000
_cell_angle_beta 109.089296
_cell_angle_gamma 90.000000
_cell_volume 612.242067
_symmetry_space_group_name_H-M "C C"
_symmetry_group_IT_number 9
_symmetry_cell_setting 'monoclinic'
loop_
_space_group_symop_operation_xyz
x,y,z
x,-y,1/2+z
1/2+x,1/2+y,z
1/2+x,1/2-y,1/2+z
loop_
_atom_site_type_symbol
_atom_site_label
_atom_site_fract_x
_atom_site_fract_y
_atom_site_fract_z
Si Si1 0.158140 0.598672 0.139180
Si Si2 0.747397 0.717287 0.420753
Si Si3 0.538037 0.497370 0.267314
Si Si4 0.455449 0.016252 0.369931
O O1 0.204080 0.425656 0.286104
O O2 0.097875 0.869437 0.161940
O O3 0.253018 0.641020 0.069592
O O4 0.058265 0.462165 0.016157
O O5 0.647004 0.524793 0.403081
O O6 0.847095 0.546421 0.410510
O O7 0.477812 0.769279 0.279988
O O8 0.457413 0.271820 0.277011
#
# Coordination Sequence:
#
# PCOD9140765 Si02
#       4
#     4   4   4   4
#     4  11  25  53  83 119 166 203 276 333 398 486
#     4  11  28  50  85 117 161 215 263 335 402 479
#     4  11  25  50  73 118 159 206 264 328 384 487
#     4  11  28  49  79 116 162 212 263 326 406 470
#
# _framework density 26.133455000000001
#
# number of rings (size 3 to 8) (size 9 to 14) (size 15 to 20)
#    0.000    1.000    5.000    0.000   10.500    4.000 
#    0.000    0.000    0.000    0.000    0.000    0.000 
#    0.000    0.000    0.000    0.000    0.000    0.000 
#
# Total GULP energy -44629.679532 kJ/mol
# GULP energy per Si atom -5578.709942 kJ/mol
# Density = 2.607397 g / cm^3
# Si number density = 26.133455 Si / 1000 Ang^3
#
#
#
# Elastic Constant Matrix: (Units=GPa)
#
#
# Indices 1 2 3 4 5 6 
#
# 1 176.4417 59.7354 44.0912 0.0000 -14.3007 0.0000
# 2 59.7354 183.6739 43.3346 0.0000 -21.6937 0.0000
# 3 44.0912 43.3346 117.2124 0.0000 -32.1095 0.0000
# 4 0.0000 0.0000 0.0000 36.9207 0.0000 -8.7112
# 5 -14.3007 -21.6937 -32.1095 0.0000 46.6372 0.0000
# 6 0.0000 0.0000 0.0000 -8.7112 0.0000 41.6875
#
#
#
# Elastic Compliance Matrix: (Units=1/GPa)
#
#
# Indices 1 2 3 4 5 6 
#
# 1 0.006729 -0.001747 -0.001902 0.000000 -0.000058 0.000000
# 2 -0.001747 0.006510 -0.001315 0.000000 0.001587 0.000000
# 3 -0.001902 -0.001315 0.011592 0.000000 0.006786 0.000000
# 4 0.000000 0.000000 0.000000 0.028490 0.000000 0.005953
# 5 -0.000058 0.001587 0.006786 0.000000 0.026835 0.000000
# 6 0.000000 0.000000 0.000000 0.005953 0.000000 0.025232
#
#
# Mechanical properties :
#
#
# Convention : Reuss Voigt Hill
#
# Bulk Modulus (GPa) = 67.09122 85.73892 76.41507
# Shear Modulus (GPa) = 41.56848 47.06021 44.31434
#
# Velocity S-wave (km/s) = 3.99259 4.24815 4.12235
# Velocity P-wave (km/s) = 6.85439 7.54597 7.20848
#
# Compressibility (1/GPa) = 0.01490508
#
# Stress axis : x y z
#
# Youngs Moduli (GPa) = 148.60063 153.60345 86.26617
#
# Poissons Ratio (x) = 0.26832 0.16404
# Poissons Ratio (y) = 0.25958 0.11344
# Poissons Ratio (z) = 0.28257 0.20199
#
# Static dielectric constant tensor:
#      x y z
#    x 2.047940 0.000000 -0.070620 
#    y 0.000000 2.184430 0.000000 
#    z -0.070620 0.000000 2.238730 
# 
# From -- ./inp_files/6589.got.cif
#   From: 2010.05.17/outbox.cif.g08.bks.cpg/sg9_4_cif.got.tgz:6589.got - 2010.06.03 20:04:27.
