data_PCOD9140300
_publ_section_title
;
Structure prediction by ZEFSAII (Michael W. Deem and Ramdas Pophale) SiO2 
 PCOD9140300
Probable space group: C C
;
_chemical_formula_sum "Si O2"
_cell_formula_units_Z 32
_cell_length_a 15.952954
_cell_length_b 11.289570
_cell_length_c 14.100560
_cell_angle_alpha 90.000000
_cell_angle_beta 29.265714
_cell_angle_gamma 90.000000
_cell_volume 1241.480308
_symmetry_space_group_name_H-M "C C"
_symmetry_group_IT_number 9
_symmetry_cell_setting 'monoclinic'
loop_
_space_group_symop_operation_xyz
x,y,z
x,-y,1/2+z
1/2+x,1/2+y,z
1/2+x,1/2-y,1/2+z
loop_
_atom_site_type_symbol
_atom_site_label
_atom_site_fract_x
_atom_site_fract_y
_atom_site_fract_z
Si Si1 0.430850 0.143271 0.655540
Si Si2 0.372838 0.495196 0.831677
Si Si3 0.312495 0.110294 0.091659
Si Si4 0.791165 0.607838 0.327424
Si Si5 0.794317 0.115898 0.216315
Si Si6 0.577925 0.593633 0.782563
Si Si7 0.616639 0.810991 0.168341
Si Si8 0.107346 0.708216 0.116902
O O1 0.591034 0.097230 0.433196
O O2 0.327775 0.246285 0.706000
O O3 0.518454 0.200400 0.663941
O O4 0.311496 0.034074 0.803903
O O5 0.252896 0.610528 0.960439
O O6 0.278800 0.389593 0.979676
O O7 0.382793 0.459698 0.713004
O O8 0.543487 0.522233 0.719656
O O9 0.338187 0.148805 0.174687
O O10 0.185137 0.198901 0.159938
O O11 0.489100 0.116071 0.861099
O O12 0.230336 0.979525 0.178185
O O13 0.631720 0.690231 0.513049
O O14 0.928725 0.645905 0.271478
O O15 0.904106 0.086871 0.015181
O O16 0.612494 0.726842 0.713470
#
# Coordination Sequence:
#
# PCOD9140300 Si02
#       8
#     4   4   4   4   4   4   4   4
#     4  11  25  48  76 106 149 199 252 316 377 457
#     4  11  26  48  76 105 154 196 253 318 382 453
#     4  12  27  44  78 112 145 197 259 316 378 467
#     4  12  27  48  75 111 156 198 251 318 392 451
#     4  11  27  46  76 109 147 197 259 313 378 453
#     4  12  29  45  78 109 154 201 257 314 387 465
#     4  11  23  48  74 104 146 193 255 313 380 446
#     4  12  26  49  73 112 151 203 244 316 390 458
#
# _framework density 25.775680000000001
#
# number of rings (size 3 to 8) (size 9 to 14) (size 15 to 20)
#    0.000    0.500    3.750    4.500    7.000    2.000 
#    0.000    0.000    0.000    0.000    0.000    0.000 
#    0.000    0.000    0.000    0.000    0.000    0.000 
#
# Total GULP energy -89658.113797 kJ/mol
# GULP energy per Si atom -5603.632112 kJ/mol
# Density = 2.571701 g / cm^3
# Si number density = 25.775680 Si / 1000 Ang^3
#
#
#
# Elastic Constant Matrix: (Units=GPa)
#
#
# Indices 1 2 3 4 5 6 
#
# 1 70.4203 38.1351 2.5241 0.0000 13.0212 0.0000
# 2 38.1351 127.8830 16.6730 0.0000 4.8502 0.0000
# 3 2.5241 16.6730 100.6694 0.0000 26.4110 0.0000
# 4 0.0000 0.0000 0.0000 36.5157 0.0001 1.1925
# 5 13.0212 4.8502 26.4110 0.0001 42.4340 0.0000
# 6 0.0000 0.0000 0.0000 1.1925 0.0000 42.2104
#
#
#
# Elastic Compliance Matrix: (Units=1/GPa)
#
#
# Indices 1 2 3 4 5 6 
#
# 1 0.018253 -0.005478 0.002097 0.000000 -0.006280 0.000000
# 2 -0.005478 0.009637 -0.001925 0.000000 0.001778 0.000000
# 3 0.002097 -0.001925 0.012323 0.000000 -0.008093 0.000000
# 4 0.000000 0.000000 0.000000 0.027411 0.000000 -0.000774
# 5 -0.006280 0.001778 -0.008093 0.000000 0.030327 0.000000
# 6 0.000000 0.000000 0.000000 -0.000774 0.000000 0.023713
#
#
# Mechanical properties :
#
#
# Convention : Reuss Voigt Hill
#
# Bulk Modulus (GPa) = 33.78276 45.95969 39.87122
# Shear Modulus (GPa) = 35.17567 40.34137 37.75852
#
# Velocity S-wave (km/s) = 3.69817 3.96042 3.83154
# Velocity P-wave (km/s) = 5.60091 6.22757 5.92253
#
# Compressibility (1/GPa) = 0.02960090
#
# Stress axis : x y z
#
# Youngs Moduli (GPa) = 54.78446 103.76769 81.14837
#
# Poissons Ratio (x) = 0.56849 -0.17020
# Poissons Ratio (y) = 0.30013 0.15622
# Poissons Ratio (z) = -0.11490 0.19977
#
# Static dielectric constant tensor:
#      x y z
#    x 2.018600 0.000000 -0.046350 
#    y 0.000000 2.072750 0.000000 
#    z -0.046350 0.000000 2.071770 
# 
# From -- ./inp_files/9103.got.cif
#   From: 2010.05.17/outbox.cif.g08.bks.cpg/sg9_5_cif.got.tgz:9103.got - 2010.06.03 20:04:27.
