data_PCOD9140872
_publ_section_title
;
Structure prediction by ZEFSAII (Michael W. Deem and Ramdas Pophale) SiO2 
 PCOD9140872
Probable space group: C C
;
_chemical_formula_sum "Si O2"
_cell_formula_units_Z 24
_cell_length_a 12.256986
_cell_length_b 14.026442
_cell_length_c 6.641826
_cell_angle_alpha 90.000000
_cell_angle_beta 55.652461
_cell_angle_gamma 90.000000
_cell_volume 942.767068
_symmetry_space_group_name_H-M "C C"
_symmetry_group_IT_number 9
_symmetry_cell_setting 'monoclinic'
loop_
_space_group_symop_operation_xyz
x,y,z
x,-y,1/2+z
1/2+x,1/2+y,z
1/2+x,1/2-y,1/2+z
loop_
_atom_site_type_symbol
_atom_site_label
_atom_site_fract_x
_atom_site_fract_y
_atom_site_fract_z
Si Si1 0.543410 0.392920 0.094800
Si Si2 0.830819 0.386008 0.737489
Si Si3 0.899938 0.780167 0.892150
Si Si4 0.292115 0.473707 0.901810
Si Si5 0.505010 0.208634 0.386669
Si Si6 0.589371 0.010326 0.354372
O O1 0.431420 0.467701 0.272085
O O2 0.551296 0.308251 0.249873
O O3 0.689453 0.434970 0.912410
O O4 0.493382 0.335485 0.950711
O O5 0.814305 0.296356 0.603769
O O6 0.881433 0.333679 0.888301
O O7 0.947836 0.455883 0.537488
O O8 0.976980 0.720797 0.647859
O O9 0.824838 0.861987 0.849853
O O10 0.254960 0.518095 0.700006
O O11 0.602881 0.120897 0.263929
O O12 0.618627 0.028308 0.579409
#
# Coordination Sequence:
#
# PCOD9140872 Si02
#       6
#     4   4   4   4   4   4
#     4  11  28  49  75 113 158 194 257 326 373 447
#     4  11  28  49  75 113 158 194 257 326 373 447
#     4  11  27  48  76 112 151 203 253 309 388 452
#     4  12  25  49  78 107 149 203 253 307 381 458
#     4  11  27  48  76 112 151 203 253 309 388 452
#     4  12  25  49  78 107 149 203 253 307 381 458
#
# _framework density 25.456976999999998
#
# number of rings (size 3 to 8) (size 9 to 14) (size 15 to 20)
#    0.000    0.667    3.333    2.000   14.000    1.333 
#    0.000    0.000    0.000    0.000    0.000    0.000 
#    0.000    0.000    0.000    0.000    0.000    0.000 
#
# Total GULP energy -67029.503795 kJ/mol
# GULP energy per Si atom -5585.791983 kJ/mol
# Density = 2.539904 g / cm^3
# Si number density = 25.456977 Si / 1000 Ang^3
#
#
#
# Elastic Constant Matrix: (Units=GPa)
#
#
# Indices 1 2 3 4 5 6 
#
# 1 126.4399 44.8922 62.3498 0.0000 -45.3447 0.0000
# 2 44.8922 127.3902 17.3963 0.0000 -25.0950 0.0000
# 3 62.3498 17.3963 138.3110 0.0000 -19.4535 0.0000
# 4 0.0000 0.0000 0.0000 52.4827 0.0000 9.9905
# 5 -45.3447 -25.0950 -19.4535 0.0000 57.9647 0.0000
# 6 0.0000 0.0000 0.0000 9.9905 0.0000 36.8887
#
#
#
# Elastic Compliance Matrix: (Units=1/GPa)
#
#
# Indices 1 2 3 4 5 6 
#
# 1 0.014303 -0.002721 -0.004930 0.000000 0.008356 0.000000
# 2 -0.002721 0.009145 0.000350 0.000000 0.001948 0.000000
# 3 -0.004930 0.000350 0.009328 0.000000 -0.000575 0.000000
# 4 0.000000 0.000000 0.000000 0.020090 0.000000 -0.005441
# 5 0.008356 0.001948 -0.000575 0.000000 0.024439 0.000000
# 6 0.000000 0.000000 0.000000 -0.005441 0.000000 0.028582
#
#
# Mechanical properties :
#
#
# Convention : Reuss Voigt Hill
#
# Bulk Modulus (GPa) = 55.02393 71.26863 63.14628
# Shear Modulus (GPa) = 39.51147 47.30074 43.40610
#
# Velocity S-wave (km/s) = 3.94393 4.31521 4.13374
# Velocity P-wave (km/s) = 6.51159 7.27217 6.90237
#
# Compressibility (1/GPa) = 0.01817391
#
# Stress axis : x y z
#
# Youngs Moduli (GPa) = 69.91609 109.35335 107.20807
#
# Poissons Ratio (x) = 0.29754 0.52855
# Poissons Ratio (y) = 0.19024 -0.03757
# Poissons Ratio (z) = 0.34469 -0.03832
#
# Static dielectric constant tensor:
#      x y z
#    x 2.045500 0.000000 0.083040 
#    y 0.000000 1.885490 0.000000 
#    z 0.083040 0.000000 2.101030 
# 
# From -- ./inp_files/1526.got.cif
#   From: 2010.05.17/outbox.cif.g08.bks.cpg/sg9_1_cif.got.tgz:1526.got - 2010.06.03 20:04:27.
