data_PCOD9140497
_publ_section_title
;
Structure prediction by ZEFSAII (Michael W. Deem and Ramdas Pophale) SiO2 
 PCOD9140497
Probable space group: C C
;
_chemical_formula_sum "Si O2"
_cell_formula_units_Z 24
_cell_length_a 18.460444
_cell_length_b 4.853983
_cell_length_c 10.361951
_cell_angle_alpha 90.000000
_cell_angle_beta 104.134979
_cell_angle_gamma 90.000000
_cell_volume 900.387946
_symmetry_space_group_name_H-M "C C"
_symmetry_group_IT_number 9
_symmetry_cell_setting 'monoclinic'
loop_
_space_group_symop_operation_xyz
x,y,z
x,-y,1/2+z
1/2+x,1/2+y,z
1/2+x,1/2-y,1/2+z
loop_
_atom_site_type_symbol
_atom_site_label
_atom_site_fract_x
_atom_site_fract_y
_atom_site_fract_z
Si Si1 0.961230 0.197088 0.225460
Si Si2 0.754239 0.297716 0.029330
Si Si3 0.122093 0.025519 0.799712
Si Si4 0.641487 0.983529 0.147654
Si Si5 0.353078 0.332341 0.066365
Si Si6 0.480415 0.984100 0.476481
O O1 0.959855 0.463506 0.317152
O O2 0.037066 0.041636 0.298387
O O3 0.888850 0.006382 0.199517
O O4 0.968819 0.279244 0.078330
O O5 0.685854 0.432238 0.923604
O O6 0.716309 0.111016 0.123119
O O7 0.808120 0.555555 0.083276
O O8 0.800957 0.061426 0.974709
O O9 0.139806 0.838566 0.680103
O O10 0.127893 0.347294 0.773146
O O11 0.569288 0.059468 0.030537
O O12 0.422988 0.238330 0.010471
#
# Coordination Sequence:
#
# PCOD9140497 Si02
#       6
#     4   4   4   4   4   4
#     4  11  25  50  81 117 154 211 263 319 390 470
#     4  12  26  48  71 115 151 198 253 328 393 451
#     4  11  24  46  75 108 146 202 263 315 381 469
#     4  11  24  46  75 106 145 205 255 318 380 468
#     4  12  26  48  72 115 156 200 254 325 391 455
#     4  11  25  50  80 113 156 206 264 317 385 473
#
# _framework density 26.655176000000001
#
# number of rings (size 3 to 8) (size 9 to 14) (size 15 to 20)
#    0.000    0.667    5.000    2.000    0.000    5.333 
#    6.000    0.000    0.000    0.000    0.000    0.000 
#    0.000    0.000    0.000    0.000    0.000    0.000 
#
# Total GULP energy -67132.309945 kJ/mol
# GULP energy per Si atom -5594.359162 kJ/mol
# Density = 2.659451 g / cm^3
# Si number density = 26.655176 Si / 1000 Ang^3
#
#
#
# Elastic Constant Matrix: (Units=GPa)
#
#
# Indices 1 2 3 4 5 6 
#
# 1 128.7982 54.6976 64.0205 0.0000 20.7765 0.0000
# 2 54.6976 141.2260 24.0635 0.0000 8.7734 0.0000
# 3 64.0205 24.0635 53.3593 0.0000 13.1623 0.0000
# 4 0.0000 0.0000 0.0000 30.2516 0.0000 7.6691
# 5 20.7765 8.7734 13.1623 0.0000 34.7163 0.0000
# 6 0.0000 0.0000 0.0000 7.6691 0.0000 47.4906
#
#
#
# Elastic Compliance Matrix: (Units=1/GPa)
#
#
# Indices 1 2 3 4 5 6 
#
# 1 0.021623 -0.004217 -0.023290 0.000000 -0.003045 0.000000
# 2 -0.004217 0.008508 0.001247 0.000000 -0.000099 0.000000
# 3 -0.023290 0.001247 0.047173 0.000000 -0.004262 0.000000
# 4 0.000000 0.000000 0.000000 0.034467 0.000000 -0.005566
# 5 -0.003045 -0.000099 -0.004262 0.000000 0.032268 0.000000
# 6 0.000000 0.000000 0.000000 -0.005566 0.000000 0.021956
#
#
# Mechanical properties :
#
#
# Convention : Reuss Voigt Hill
#
# Bulk Modulus (GPa) = 40.34865 67.66074 54.00469
# Shear Modulus (GPa) = 22.04822 34.53182 28.29002
#
# Velocity S-wave (km/s) = 2.87917 3.60321 3.26134
# Velocity P-wave (km/s) = 5.12083 6.53832 5.87250
#
# Compressibility (1/GPa) = 0.02478398
#
# Stress axis : x y z
#
# Youngs Moduli (GPa) = 46.24764 117.53972 21.19842
#
# Poissons Ratio (x) = 0.49567 0.49372
# Poissons Ratio (y) = 0.19503 -0.02644
# Poissons Ratio (z) = 1.07712 -0.14661
#
# Static dielectric constant tensor:
#      x y z
#    x 2.134760 0.000000 -0.012870 
#    y 0.000000 2.049230 0.000000 
#    z -0.012870 0.000000 2.150300 
# 
# From -- ./inp_files/18759.got.cif
#   From: 2010.05.17/outbox.cif.g08.bks.cpg/sg9_10_cif.got.tgz:18759.got - 2010.06.03 20:04:27.
