data_PCOD9140604
_publ_section_title
;
Structure prediction by ZEFSAII (Michael W. Deem and Ramdas Pophale) SiO2 
 PCOD9140604
Probable space group: C C
;
_chemical_formula_sum "Si O2"
_cell_formula_units_Z 20
_cell_length_a 12.393743
_cell_length_b 7.387974
_cell_length_c 19.711736
_cell_angle_alpha 90.000000
_cell_angle_beta 154.891584
_cell_angle_gamma 90.000000
_cell_volume 765.876859
_symmetry_space_group_name_H-M "C C"
_symmetry_group_IT_number 9
_symmetry_cell_setting 'monoclinic'
loop_
_space_group_symop_operation_xyz
x,y,z
x,-y,1/2+z
1/2+x,1/2+y,z
1/2+x,1/2-y,1/2+z
loop_
_atom_site_type_symbol
_atom_site_label
_atom_site_fract_x
_atom_site_fract_y
_atom_site_fract_z
Si Si1 0.292100 0.652726 0.900630
Si Si2 0.596300 0.994066 0.072906
Si Si3 0.143068 0.911243 0.418181
Si Si4 0.855734 0.085419 0.094799
Si Si5 0.021224 0.685887 0.235073
O O1 0.254527 0.449184 0.851914
O O2 0.060666 0.769325 0.737850
O O3 0.528707 0.783762 0.021691
O O4 0.287394 0.633411 0.979471
O O5 0.880788 0.020675 0.264245
O O6 0.618535 0.083551 0.011632
O O7 0.377585 0.050439 0.000192
O O8 0.047922 0.722479 0.330747
O O9 0.275576 0.915231 0.565432
O O10 0.986141 0.884962 0.180108
#
# Coordination Sequence:
#
# PCOD9140604 Si02
#       5
#     4   4   4   4   4
#     4  12  25  50  86 113 169 220 267 347 420 474
#     4  11  25  52  79 121 159 215 279 336 411 505
#     4  11  25  50  74 110 167 200 278 335 404 488
#     4  11  27  50  78 123 161 213 282 338 410 503
#     4  11  24  50  75 119 156 216 268 344 397 500
#
# _framework density 26.113861
#
# number of rings (size 3 to 8) (size 9 to 14) (size 15 to 20)
#    0.000    0.800    6.000    1.200    0.000    8.000 
#    7.200    0.000    0.000    0.000    0.000    0.000 
#    0.000    0.000    0.000    0.000    0.000    0.000 
#
# Total GULP energy -55777.927291 kJ/mol
# GULP energy per Si atom -5577.792729 kJ/mol
# Density = 2.605442 g / cm^3
# Si number density = 26.113861 Si / 1000 Ang^3
#
#
#
# Elastic Constant Matrix: (Units=GPa)
#
#
# Indices 1 2 3 4 5 6 
#
# 1 127.7797 6.8221 56.5893 0.0012 4.2069 -0.0005
# 2 6.8221 115.2309 33.6577 0.0033 2.6389 -0.0002
# 3 56.5893 33.6577 158.8333 0.0101 -5.2275 0.0039
# 4 0.0012 0.0033 0.0101 28.5037 0.0032 -22.4270
# 5 4.2069 2.6389 -5.2275 0.0032 58.4822 0.0009
# 6 -0.0005 -0.0002 0.0039 -22.4270 0.0009 4.6394
#
#
#
# Elastic Compliance Matrix: (Units=1/GPa)
#
#
# Indices 1 2 3 4 5 6 
#
# 1 0.009372 0.000483 -0.003475 -0.000001 -0.001007 -0.000003
# 2 0.000483 0.009296 -0.002163 -0.000001 -0.000648 0.000000
# 3 -0.003475 -0.002163 0.008027 0.000003 0.001065 0.000007
# 4 -0.000001 -0.000001 0.000003 -0.012514 0.000002 -0.060494
# 5 -0.001007 -0.000648 0.001065 0.000002 0.017296 0.000005
# 6 -0.000003 0.000000 0.000007 -0.060494 0.000005 -0.076886
#
#
# Mechanical properties :
#
#
# Convention : Reuss Voigt Hill
#
# Bulk Modulus (GPa) = 61.02772 66.22024 63.62398
# Shear Modulus (GPa) = -168.71236 38.64340 -65.03448
#
# Velocity S-wave (km/s) = -8.04653 3.85100 -4.99582
# Velocity P-wave (km/s) = 7.93148 6.72212 2.97670
#
# Compressibility (1/GPa) = 0.01638600
#
# Stress axis : x y z
#
# Youngs Moduli (GPa) = 106.69971 107.56902 124.57442
#
# Poissons Ratio (x) = -0.05196 0.43285
# Poissons Ratio (y) = -0.05154 0.26950
# Poissons Ratio (z) = 0.37074 0.23271
#
# Static dielectric constant tensor:
#      x y z
#    x 2.093590 0.000000 0.021080 
#    y 0.000000 2.195120 0.000000 
#    z 0.021080 0.000000 2.066310 
# 
# From -- ./inp_files/17666.got.cif
#   From: 2010.05.17/outbox.cif.g08.bks.cpg/sg9_9_cif.got.tgz:17666.got - 2010.06.03 20:04:27.
