data_PCOD9140708
_publ_section_title
;
Structure prediction by ZEFSAII (Michael W. Deem and Ramdas Pophale) SiO2 
 PCOD9140708
Probable space group: C C
;
_chemical_formula_sum "Si O2"
_cell_formula_units_Z 28
_cell_length_a 13.556886
_cell_length_b 7.622564
_cell_length_c 11.167943
_cell_angle_alpha 90.000000
_cell_angle_beta 101.443574
_cell_angle_gamma 90.000000
_cell_volume 1131.133114
_symmetry_space_group_name_H-M "C C"
_symmetry_group_IT_number 9
_symmetry_cell_setting 'monoclinic'
loop_
_space_group_symop_operation_xyz
x,y,z
x,-y,1/2+z
1/2+x,1/2+y,z
1/2+x,1/2-y,1/2+z
loop_
_atom_site_type_symbol
_atom_site_label
_atom_site_fract_x
_atom_site_fract_y
_atom_site_fract_z
Si Si1 0.392420 0.728734 0.604480
Si Si2 0.418235 0.114863 0.605275
Si Si3 0.613073 0.788819 0.296345
Si Si4 0.562795 0.558831 0.502179
Si Si5 0.905452 0.156622 0.877406
Si Si6 0.235615 0.040127 0.727223
Si Si7 0.243608 0.377277 0.885555
O O1 0.393823 0.743297 0.746766
O O2 0.660829 0.025718 0.845196
O O3 0.284556 0.666145 0.528465
O O4 0.420087 0.916731 0.555910
O O5 0.526883 0.180191 0.676457
O O6 0.375288 0.236054 0.488627
O O7 0.344965 0.093172 0.701618
O O8 0.564075 0.706805 0.402348
O O9 0.479551 0.402600 0.084074
O O10 0.696956 0.644551 0.274878
O O11 0.522449 0.386700 0.426725
O O12 0.668111 0.550523 0.591861
O O13 0.842878 0.975136 0.854882
O O14 0.214739 0.197876 0.814020
#
# Coordination Sequence:
#
# PCOD9140708 Si02
#       7
#     4   4   4   4   4   4   4
#     4  11  27  49  78 116 157 213 274 334 406 497
#     4  12  27  50  81 117 162 213 275 338 415 486
#     4  12  27  53  79 121 161 215 273 347 409 495
#     4  11  25  47  79 112 162 207 271 343 412 484
#     4  11  25  49  81 115 160 216 270 336 414 490
#     4  12  27  51  79 119 160 211 275 343 411 491
#     4  11  28  47  81 112 162 213 268 335 413 483
#
# _framework density 24.75394
#
# number of rings (size 3 to 8) (size 9 to 14) (size 15 to 20)
#    0.000    0.571    1.429    5.143   16.000    0.000 
#    2.571    0.000    0.000    0.000    0.000    0.000 
#    0.000    0.000    0.000    0.000    0.000    0.000 
#
# Total GULP energy -78335.772577 kJ/mol
# GULP energy per Si atom -5595.412327 kJ/mol
# Density = 2.469760 g / cm^3
# Si number density = 24.753940 Si / 1000 Ang^3
#
#
#
# Elastic Constant Matrix: (Units=GPa)
#
#
# Indices 1 2 3 4 5 6 
#
# 1 99.0592 41.5260 43.2237 0.0000 -2.6903 0.0000
# 2 41.5260 143.4247 64.7004 0.0000 4.6159 0.0000
# 3 43.2237 64.7004 143.8720 0.0000 11.3117 0.0000
# 4 0.0000 0.0000 0.0000 29.2826 0.0000 -1.1485
# 5 -2.6903 4.6159 11.3117 0.0000 39.5838 0.0000
# 6 0.0000 0.0000 0.0000 -1.1485 0.0000 39.9160
#
#
#
# Elastic Compliance Matrix: (Units=1/GPa)
#
#
# Indices 1 2 3 4 5 6 
#
# 1 0.012365 -0.002381 -0.002795 0.000000 0.001917 0.000000
# 2 -0.002381 0.009206 -0.003404 0.000000 -0.000263 0.000000
# 3 -0.002795 -0.003404 0.009519 0.000000 -0.002513 0.000000
# 4 0.000000 0.000000 0.000000 0.034189 0.000000 0.000984
# 5 0.001917 -0.000263 -0.002513 0.000000 0.026142 0.000000
# 6 0.000000 0.000000 0.000000 0.000984 0.000000 0.025081
#
#
# Mechanical properties :
#
#
# Convention : Reuss Voigt Hill
#
# Bulk Modulus (GPa) = 71.78861 76.13958 73.96409
# Shear Modulus (GPa) = 36.15266 37.55020 36.85143
#
# Velocity S-wave (km/s) = 3.82577 3.89901 3.86257
# Velocity P-wave (km/s) = 6.96988 7.14808 7.05954
#
# Compressibility (1/GPa) = 0.01392979
#
# Stress axis : x y z
#
# Youngs Moduli (GPa) = 80.87641 108.62915 105.05768
#
# Poissons Ratio (x) = 0.25864 0.29360
# Poissons Ratio (y) = 0.19256 0.35761
# Poissons Ratio (z) = 0.22602 0.36976
#
# Static dielectric constant tensor:
#      x y z
#    x 1.989740 0.000000 0.015160 
#    y 0.000000 2.021430 0.000000 
#    z 0.015160 0.000000 1.915280 
# 
# From -- ./inp_files/19947.got.cif
#   From: 2010.05.17/outbox.cif.g08.bks.cpg/sg9_10_cif.got.tgz:19947.got - 2010.06.03 20:04:27.
