data_PCOD9140901
_publ_section_title
;
Structure prediction by ZEFSAII (Michael W. Deem and Ramdas Pophale) SiO2 
 PCOD9140901
Probable space group: C C
;
_chemical_formula_sum "Si O2"
_cell_formula_units_Z 32
_cell_length_a 13.293175
_cell_length_b 18.860634
_cell_length_c 11.261479
_cell_angle_alpha 90.000000
_cell_angle_beta 145.556943
_cell_angle_gamma 90.000000
_cell_volume 1596.907597
_symmetry_space_group_name_H-M "C C"
_symmetry_group_IT_number 9
_symmetry_cell_setting 'monoclinic'
loop_
_space_group_symop_operation_xyz
x,y,z
x,-y,1/2+z
1/2+x,1/2+y,z
1/2+x,1/2-y,1/2+z
loop_
_atom_site_type_symbol
_atom_site_label
_atom_site_fract_x
_atom_site_fract_y
_atom_site_fract_z
Si Si1 0.520670 0.670629 0.955350
Si Si2 0.080186 0.833933 0.000318
Si Si3 0.960264 0.686338 0.764678
Si Si4 0.232809 0.412620 0.649789
Si Si5 0.895818 0.318975 0.927619
Si Si6 0.684232 0.079342 0.601100
Si Si7 0.700600 0.687158 0.882711
Si Si8 0.615373 0.849335 0.787070
O O1 0.444393 0.750419 0.894974
O O2 0.362087 0.616368 0.824430
O O3 0.597347 0.660006 0.897727
O O4 0.688983 0.664526 0.206313
O O5 0.273819 0.842768 0.132205
O O6 0.105671 0.831638 0.166826
O O7 0.006263 0.758229 0.881165
O O8 0.938258 0.893470 0.828136
O O9 0.938466 0.700867 0.604382
O O10 0.113463 0.629223 0.938185
O O11 0.193738 0.495350 0.617644
O O12 0.179838 0.378712 0.724557
O O13 0.017829 0.384198 0.005203
O O14 0.668131 0.101656 0.447940
O O15 0.700870 0.772300 0.890535
O O16 0.902315 0.659971 0.077421
#
# Coordination Sequence:
#
# PCOD9140901 Si02
#       8
#     4   4   4   4   4   4   4   4
#     4  12  23  44  74 105 135 178 234 287 336 408
#     4  12  23  44  74 105 135 178 234 287 336 408
#     4  12  25  44  72 102 139 181 233 281 336 412
#     4  12  28  46  67 102 143 185 224 281 353 406
#     4  12  25  44  72 102 139 181 233 281 336 412
#     4  12  28  46  67 102 143 185 224 281 353 406
#     4  12  20  42  78 107 127 169 239 296 332 390
#     4  12  22  44  72 101 139 171 229 292 338 408
#
# _framework density 20.038729
#
# number of rings (size 3 to 8) (size 9 to 14) (size 15 to 20)
#    0.000    0.000    7.500    3.000    1.750    2.000 
#    0.000    0.000    0.000    0.000    0.000    0.000 
#    0.000    0.000    0.000    0.000    0.000    0.000 
#
# Total GULP energy -89611.390246 kJ/mol
# GULP energy per Si atom -5600.711890 kJ/mol
# Density = 1.999312 g / cm^3
# Si number density = 20.038729 Si / 1000 Ang^3
#
#
#
# Elastic Constant Matrix: (Units=GPa)
#
#
# Indices 1 2 3 4 5 6 
#
# 1 27.1197 -21.3393 18.1880 0.0000 -13.5555 0.0000
# 2 -21.3393 71.6713 17.5909 0.0000 11.0842 0.0000
# 3 18.1880 17.5909 126.5139 0.0000 4.2841 0.0000
# 4 0.0000 0.0000 0.0000 17.7458 0.0000 8.8005
# 5 -13.5555 11.0842 4.2841 0.0000 30.5190 0.0000
# 6 0.0000 0.0000 0.0000 8.8005 0.0000 0.3704
#
#
#
# Elastic Compliance Matrix: (Units=1/GPa)
#
#
# Indices 1 2 3 4 5 6 
#
# 1 0.080613 0.023316 -0.015832 0.000000 0.029560 0.000000
# 2 0.023316 0.021987 -0.006520 0.000000 0.003286 0.000000
# 3 -0.015832 -0.006520 0.011299 0.000000 -0.006250 0.000000
# 4 0.000000 0.000000 0.000000 -0.005225 0.000000 0.124167
# 5 0.029560 0.003286 -0.006250 0.000000 0.045580 0.000000
# 6 0.000000 0.000000 0.000000 0.124167 0.000000 -0.250379
#
#
# Mechanical properties :
#
#
# Convention : Reuss Voigt Hill
#
# Bulk Modulus (GPa) = 8.63373 28.24269 18.43821
# Shear Modulus (GPa) = -84.11061 23.78472 -30.16295
#
# Velocity S-wave (km/s) = -6.48577 3.44893 -3.88394
# Velocity P-wave (km/s) = 7.19507 5.47584 3.30031
#
# Compressibility (1/GPa) = 0.11582482
#
# Stress axis : x y z
#
# Youngs Moduli (GPa) = 12.40501 45.48193 88.50677
#
# Poissons Ratio (x) = -1.06045 1.40124
# Poissons Ratio (y) = -0.28923 0.57709
# Poissons Ratio (z) = 0.19640 0.29656
#
# Static dielectric constant tensor:
#      x y z
#    x 1.711070 0.000000 0.000910 
#    y 0.000000 1.658980 0.000000 
#    z 0.000910 0.000000 1.726890 
# 
# From -- ./inp_files/18522.got.cif
#   From: 2010.05.17/outbox.cif.g08.bks.cpg/sg9_10_cif.got.tgz:18522.got - 2010.06.03 20:04:27.
