data_PCOD9140488
_publ_section_title
;
Structure prediction by ZEFSAII (Michael W. Deem and Ramdas Pophale) SiO2 
 PCOD9140488
Probable space group: C C
;
_chemical_formula_sum "Si O2"
_cell_formula_units_Z 32
_cell_length_a 15.787360
_cell_length_b 14.171181
_cell_length_c 8.011389
_cell_angle_alpha 90.000000
_cell_angle_beta 134.638858
_cell_angle_gamma 90.000000
_cell_volume 1275.347708
_symmetry_space_group_name_H-M "C C"
_symmetry_group_IT_number 9
_symmetry_cell_setting 'monoclinic'
loop_
_space_group_symop_operation_xyz
x,y,z
x,-y,1/2+z
1/2+x,1/2+y,z
1/2+x,1/2-y,1/2+z
loop_
_atom_site_type_symbol
_atom_site_label
_atom_site_fract_x
_atom_site_fract_y
_atom_site_fract_z
Si Si1 0.598400 0.625458 0.423010
Si Si2 0.145166 0.175138 0.972358
Si Si3 0.872894 0.406155 0.240374
Si Si4 0.481114 0.468427 0.437163
Si Si5 0.098458 0.359907 0.710803
Si Si6 0.115885 0.702980 0.734604
Si Si7 0.389058 0.892389 0.864929
Si Si8 0.705462 0.973462 0.545980
O O1 0.737348 0.600443 0.607920
O O2 0.543580 0.570954 0.503401
O O3 0.594018 0.735854 0.371814
O O4 0.523233 0.578129 0.167862
O O5 0.181824 0.231270 0.194438
O O6 0.264068 0.117562 0.100515
O O7 0.136743 0.256826 0.824822
O O8 0.038270 0.104909 0.879771
O O9 0.930190 0.505944 0.365629
O O10 0.961978 0.341868 0.467783
O O11 0.879110 0.394051 0.051474
O O12 0.340458 0.487633 0.233511
O O13 0.171129 0.412401 0.662342
O O14 0.122889 0.435941 0.892561
O O15 0.988757 0.684837 0.471191
O O16 0.181150 0.605963 0.869194
#
# Coordination Sequence:
#
# PCOD9140488 Si02
#       8
#     4   4   4   4   4   4   4   4
#     4  11  24  46  73 104 151 205 248 317 385 461
#     4  11  27  49  73 111 149 207 254 319 392 463
#     4  12  22  49  74 105 146 199 254 310 374 461
#     4  11  25  48  73 107 156 200 254 312 394 460
#     4  12  26  47  78 113 151 199 262 318 386 455
#     4  11  25  45  72 109 147 201 249 316 393 451
#     4  12  25  48  75 103 152 194 258 311 381 460
#     4  12  26  48  72 116 156 199 255 325 387 463
#
# _framework density 25.091194999999999
#
# number of rings (size 3 to 8) (size 9 to 14) (size 15 to 20)
#    0.000    0.500    6.250    1.500    7.000    1.000 
#    6.750    0.000    0.000    0.000    0.000    0.000 
#    0.000    0.000    0.000    0.000    0.000    0.000 
#
# Total GULP energy -89518.857956 kJ/mol
# GULP energy per Si atom -5594.928622 kJ/mol
# Density = 2.503409 g / cm^3
# Si number density = 25.091195 Si / 1000 Ang^3
#
#
#
# Elastic Constant Matrix: (Units=GPa)
#
#
# Indices 1 2 3 4 5 6 
#
# 1 69.8610 3.6952 46.4220 0.0000 13.9131 0.0000
# 2 3.6952 107.2561 40.6927 0.0000 10.3150 0.0000
# 3 46.4220 40.6927 134.4521 0.0000 27.3084 0.0000
# 4 0.0000 0.0000 0.0000 80.3308 0.0000 26.2457
# 5 13.9131 10.3150 27.3084 0.0000 44.3260 0.0000
# 6 0.0000 0.0000 0.0000 26.2457 0.0000 72.2643
#
#
#
# Elastic Compliance Matrix: (Units=1/GPa)
#
#
# Indices 1 2 3 4 5 6 
#
# 1 0.019182 0.002142 -0.006798 0.000000 -0.002331 0.000000
# 2 0.002142 0.010784 -0.003838 0.000000 -0.000818 0.000000
# 3 -0.006798 -0.003838 0.011809 0.000000 -0.004249 0.000000
# 4 0.000000 0.000000 0.000000 0.014125 0.000000 -0.005130
# 5 -0.002331 -0.000818 -0.004249 0.000000 0.026100 0.000000
# 6 0.000000 0.000000 0.000000 -0.005130 0.000000 0.015701
#
#
# Mechanical properties :
#
#
# Convention : Reuss Voigt Hill
#
# Bulk Modulus (GPa) = 40.33942 54.79878 47.56910
# Shear Modulus (GPa) = 40.66682 54.10150 47.38416
#
# Velocity S-wave (km/s) = 4.03023 4.64852 4.35038
# Velocity P-wave (km/s) = 6.14566 7.12032 6.65086
#
# Compressibility (1/GPa) = 0.02478965
#
# Stress axis : x y z
#
# Youngs Moduli (GPa) = 52.13141 92.72762 84.68068
#
# Poissons Ratio (x) = -0.19867 0.57565
# Poissons Ratio (y) = -0.11169 0.32497
# Poissons Ratio (z) = 0.35438 0.35585
#
# Static dielectric constant tensor:
#      x y z
#    x 2.011850 0.000000 -0.095080 
#    y 0.000000 1.881010 0.000000 
#    z -0.095080 0.000000 1.979360 
# 
# From -- ./inp_files/10913.got.cif
#   From: 2010.05.17/outbox.cif.g08.bks.cpg/sg9_6_cif.got.tgz:10913.got - 2010.06.03 20:04:27.
