data_PCOD9140198
_publ_section_title
;
Structure prediction by ZEFSAII (Michael W. Deem and Ramdas Pophale) SiO2 
 PCOD9140198
Probable space group: C C
;
_chemical_formula_sum "Si O2"
_cell_formula_units_Z 32
_cell_length_a 11.777542
_cell_length_b 14.292516
_cell_length_c 15.923031
_cell_angle_alpha 90.000000
_cell_angle_beta 150.866071
_cell_angle_gamma 90.000000
_cell_volume 1304.928419
_symmetry_space_group_name_H-M "C C"
_symmetry_group_IT_number 9
_symmetry_cell_setting 'monoclinic'
loop_
_space_group_symop_operation_xyz
x,y,z
x,-y,1/2+z
1/2+x,1/2+y,z
1/2+x,1/2-y,1/2+z
loop_
_atom_site_type_symbol
_atom_site_label
_atom_site_fract_x
_atom_site_fract_y
_atom_site_fract_z
Si Si1 0.510050 0.078189 0.976310
Si Si2 0.032383 0.893247 0.084491
Si Si3 0.279882 0.078759 0.577223
Si Si4 0.072644 0.286437 0.828130
Si Si5 0.460284 0.144109 0.441370
Si Si6 0.299195 0.888107 0.505947
Si Si7 0.998326 0.750224 0.619337
Si Si8 0.261249 0.430287 0.476970
O O1 0.284857 0.126994 0.787697
O O2 0.725980 0.091425 0.052969
O O3 0.468741 0.966803 0.950840
O O4 0.503354 0.109491 0.068057
O O5 0.079788 0.908445 0.016601
O O6 0.833129 0.817819 0.970086
O O7 0.935861 0.987706 0.065556
O O8 0.355742 0.175765 0.582803
O O9 0.508655 0.043548 0.776592
O O10 0.228046 0.994134 0.480508
O O11 0.031194 0.324339 0.894714
O O12 0.893159 0.335306 0.649124
O O13 0.084953 0.174057 0.834100
O O14 0.202787 0.186501 0.290729
O O15 0.602050 0.191208 0.608778
O O16 0.833297 0.833801 0.480462
#
# Coordination Sequence:
#
# PCOD9140198 Si02
#       8
#     4   4   4   4   4   4   4   4
#     4  11  24  45  69 101 143 181 234 285 344 414
#     4  11  23  45  73 100 142 187 228 290 349 406
#     4  11  25  45  69 104 145 181 232 289 347 411
#     4  12  26  47  70 104 141 184 232 288 352 410
#     4  12  24  44  73 101 138 182 235 287 341 414
#     4  12  26  48  68 103 140 183 233 284 348 414
#     4  12  25  43  71 105 137 184 233 284 346 414
#     4  11  23  45  71 100 142 184 229 289 347 407
#
# _framework density 24.522417000000001
#
# number of rings (size 3 to 8) (size 9 to 14) (size 15 to 20)
#    0.000    0.500    6.250    2.250    3.500    0.000 
#    4.500    0.000    0.000    0.000    0.000    0.000 
#    0.000    0.000    0.000    0.000    0.000    0.000 
#
# Total GULP energy -89575.273280 kJ/mol
# GULP energy per Si atom -5598.454580 kJ/mol
# Density = 2.446660 g / cm^3
# Si number density = 24.522417 Si / 1000 Ang^3
#
#
#
# Elastic Constant Matrix: (Units=GPa)
#
#
# Indices 1 2 3 4 5 6 
#
# 1 143.3608 5.7813 -7.3801 0.0092 12.7493 -0.0025
# 2 5.7813 102.5460 2.2599 0.0457 10.3058 -0.0058
# 3 -7.3801 2.2599 35.0819 0.0343 14.2637 0.0016
# 4 0.0092 0.0457 0.0343 24.8348 0.0040 -7.7971
# 5 12.7493 10.3058 14.2637 0.0040 32.4071 -0.0018
# 6 -0.0025 -0.0058 0.0016 -7.7971 -0.0018 35.2151
#
#
#
# Elastic Compliance Matrix: (Units=1/GPa)
#
#
# Indices 1 2 3 4 5 6 
#
# 1 0.007548 -0.000053 0.003400 -0.000007 -0.004449 -0.000001
# 2 -0.000053 0.010092 0.000773 -0.000020 -0.003529 -0.000003
# 3 0.003400 0.000773 0.036312 -0.000054 -0.017566 -0.000014
# 4 -0.000007 -0.000020 -0.000054 0.043274 0.000028 0.009582
# 5 -0.004449 -0.003529 -0.017566 0.000028 0.041462 0.000008
# 6 -0.000001 -0.000003 -0.000014 0.009582 0.000008 0.030518
#
#
# Mechanical properties :
#
#
# Convention : Reuss Voigt Hill
#
# Bulk Modulus (GPa) = 16.07870 31.36787 23.72329
# Shear Modulus (GPa) = 27.51819 37.17992 32.34905
#
# Velocity S-wave (km/s) = 3.35351 3.89801 3.63597
# Velocity P-wave (km/s) = 4.64388 5.75140 5.22706
#
# Compressibility (1/GPa) = 0.06219407
#
# Stress axis : x y z
#
# Youngs Moduli (GPa) = 132.48040 99.08497 27.53874
#
# Poissons Ratio (x) = 0.00529 -0.09364
# Poissons Ratio (y) = 0.00707 -0.02130
# Poissons Ratio (z) = -0.45048 -0.07664
#
# Static dielectric constant tensor:
#      x y z
#    x 1.959720 0.000000 -0.046530 
#    y 0.000000 1.911300 0.000000 
#    z -0.046530 0.000000 2.053200 
# 
# From -- ./inp_files/7507.got.cif
#   From: 2010.05.17/outbox.cif.g08.bks.cpg/sg9_4_cif.got.tgz:7507.got - 2010.06.03 20:04:27.
