data_PCOD9140697
_publ_section_title
;
Structure prediction by ZEFSAII (Michael W. Deem and Ramdas Pophale) SiO2 
 PCOD9140697
Probable space group: C C
;
_chemical_formula_sum "Si O2"
_cell_formula_units_Z 32
_cell_length_a 21.185512
_cell_length_b 14.264328
_cell_length_c 8.237596
_cell_angle_alpha 90.000000
_cell_angle_beta 32.274062
_cell_angle_gamma 90.000000
_cell_volume 1329.252042
_symmetry_space_group_name_H-M "C C"
_symmetry_group_IT_number 9
_symmetry_cell_setting 'monoclinic'
loop_
_space_group_symop_operation_xyz
x,y,z
x,-y,1/2+z
1/2+x,1/2+y,z
1/2+x,1/2-y,1/2+z
loop_
_atom_site_type_symbol
_atom_site_label
_atom_site_fract_x
_atom_site_fract_y
_atom_site_fract_z
Si Si1 0.709080 0.307894 0.137070
Si Si2 0.892099 0.158563 0.812941
Si Si3 0.467795 0.711237 0.006290
Si Si4 0.319159 0.012545 0.274823
Si Si5 0.691225 0.969496 0.879058
Si Si6 0.650093 0.330489 0.629745
Si Si7 0.963193 0.410952 0.180278
Si Si8 0.733232 0.859675 0.115385
O O1 0.604140 0.312542 0.235406
O O2 0.658862 0.291180 0.427160
O O3 0.810003 0.230435 0.891235
O O4 0.766173 0.409775 0.007434
O O5 0.925793 0.208741 0.911410
O O6 0.016250 0.139030 0.457877
O O7 0.812425 0.069510 0.032496
O O8 0.454406 0.810511 0.120382
O O9 0.375205 0.645540 0.301640
O O10 0.236405 0.920798 0.448581
O O11 0.445536 0.981952 0.070869
O O12 0.351995 0.065385 0.037865
O O13 0.694093 0.925925 0.051152
O O14 0.689555 0.082569 0.866385
O O15 0.583618 0.925261 0.013028
O O16 0.686373 0.244542 0.671535
#
# Coordination Sequence:
#
# PCOD9140697 Si02
#       8
#     4   4   4   4   4   4   4   4
#     4  12  26  49  74 109 148 197 253 306 379 451
#     4  11  27  48  76 107 157 194 246 316 372 451
#     4  11  25  48  76 106 151 194 251 303 377 451
#     4  12  28  45  78 111 150 202 250 311 378 450
#     4  11  25  47  72 107 144 191 249 301 379 442
#     4  12  26  51  72 107 156 197 246 319 378 444
#     4  12  24  48  76 111 148 197 256 309 371 453
#     4  11  25  48  70 104 146 190 245 307 368 446
#
# _framework density 24.073689000000002
#
# number of rings (size 3 to 8) (size 9 to 14) (size 15 to 20)
#    0.000    0.500    6.250    0.750    8.750    2.000 
#    0.000    0.000    0.000    0.000    0.000    0.000 
#    0.000    0.000    0.000    0.000    0.000    0.000 
#
# Total GULP energy -89575.965690 kJ/mol
# GULP energy per Si atom -5598.497856 kJ/mol
# Density = 2.401890 g / cm^3
# Si number density = 24.073689 Si / 1000 Ang^3
#
#
#
# Elastic Constant Matrix: (Units=GPa)
#
#
# Indices 1 2 3 4 5 6 
#
# 1 84.6272 22.6355 20.0451 0.0000 -23.8122 0.0000
# 2 22.6355 116.8717 26.5605 0.0000 -0.6854 0.0000
# 3 20.0451 26.5605 108.2176 0.0000 -16.3877 0.0000
# 4 0.0000 0.0000 0.0000 27.8538 0.0000 2.8553
# 5 -23.8122 -0.6854 -16.3877 0.0000 38.0084 0.0000
# 6 0.0000 0.0000 0.0000 2.8553 0.0000 35.6984
#
#
#
# Elastic Compliance Matrix: (Units=1/GPa)
#
#
# Indices 1 2 3 4 5 6 
#
# 1 0.015326 -0.002739 -0.000770 0.000000 0.009220 0.000000
# 2 -0.002739 0.009577 -0.002222 0.000000 -0.002501 0.000000
# 3 -0.000770 -0.002222 0.010538 0.000000 0.004021 0.000000
# 4 0.000000 0.000000 0.000000 0.036198 0.000000 -0.002895
# 5 0.009220 -0.002501 0.004021 0.000000 0.033775 0.000000
# 6 0.000000 0.000000 0.000000 -0.002895 0.000000 0.028244
#
#
# Mechanical properties :
#
#
# Convention : Reuss Voigt Hill
#
# Bulk Modulus (GPa) = 41.70524 49.79984 45.75254
# Shear Modulus (GPa) = 32.65547 36.34383 34.49965
#
# Velocity S-wave (km/s) = 3.68704 3.88969 3.78972
# Velocity P-wave (km/s) = 5.95712 6.39564 6.18027
#
# Compressibility (1/GPa) = 0.02397780
#
# Stress axis : x y z
#
# Youngs Moduli (GPa) = 65.24864 104.41445 94.89869
#
# Poissons Ratio (x) = 0.28601 0.07310
# Poissons Ratio (y) = 0.17873 0.21087
# Poissons Ratio (z) = 0.05026 0.23201
#
# Static dielectric constant tensor:
#      x y z
#    x 1.979950 0.000000 0.045340 
#    y 0.000000 1.906980 0.000000 
#    z 0.045340 0.000000 1.963420 
# 
# From -- ./inp_files/12252.got.cif
#   From: 2010.05.17/outbox.cif.g08.bks.cpg/sg9_7_cif.got.tgz:12252.got - 2010.06.03 20:04:27.
