data_PCOD9140186
_publ_section_title
;
Structure prediction by ZEFSAII (Michael W. Deem and Ramdas Pophale) SiO2 
 PCOD9140186
Probable space group: C C
;
_chemical_formula_sum "Si O2"
_cell_formula_units_Z 32
_cell_length_a 13.669513
_cell_length_b 11.898373
_cell_length_c 17.123112
_cell_angle_alpha 90.000000
_cell_angle_beta 26.954803
_cell_angle_gamma 90.000000
_cell_volume 1262.400222
_symmetry_space_group_name_H-M "C C"
_symmetry_group_IT_number 9
_symmetry_cell_setting 'monoclinic'
loop_
_space_group_symop_operation_xyz
x,y,z
x,-y,1/2+z
1/2+x,1/2+y,z
1/2+x,1/2-y,1/2+z
loop_
_atom_site_type_symbol
_atom_site_label
_atom_site_fract_x
_atom_site_fract_y
_atom_site_fract_z
Si Si1 0.252670 0.387650 0.453510
Si Si2 0.629531 0.889405 0.855845
Si Si3 0.091495 0.637154 0.854910
Si Si4 0.424913 0.400581 0.796965
Si Si5 0.923550 0.846922 0.497005
Si Si6 0.324968 0.972418 0.261191
Si Si7 0.625546 0.178992 0.647364
Si Si8 0.564819 0.685360 0.502419
O O1 0.448505 0.465434 0.283639
O O2 0.276353 0.381226 0.529336
O O3 0.215695 0.264758 0.446772
O O4 0.037353 0.458124 0.584389
O O5 0.758829 0.875635 0.844852
O O6 0.804461 0.880631 0.661480
O O7 0.468511 0.785513 0.963225
O O8 0.520830 0.011780 0.926949
O O9 0.101340 0.645582 0.754508
O O10 0.343227 0.650726 0.700157
O O11 0.999310 0.739283 0.972549
O O12 0.618489 0.314546 0.646256
O O13 0.320816 0.366449 0.954980
O O14 0.156371 0.908718 0.325437
O O15 0.184655 0.071729 0.397302
O O16 0.417564 0.877019 0.252807
#
# Coordination Sequence:
#
# PCOD9140186 Si02
#       8
#     4   4   4   4   4   4   4   4
#     4  11  27  46  74 105 148 193 244 301 373 436
#     4  12  25  47  69 108 143 197 239 302 363 432
#     4  12  26  46  75 103 145 186 247 294 368 432
#     4  11  23  45  68 101 142 186 240 290 358 427
#     4  12  28  46  77 106 153 193 247 303 366 438
#     4  11  25  45  72 101 149 189 235 308 365 425
#     4  11  25  43  71 103 138 187 233 302 352 432
#     4  12  25  46  70 103 142 191 233 306 357 436
#
# _framework density 25.348538000000001
#
# number of rings (size 3 to 8) (size 9 to 14) (size 15 to 20)
#    0.000    0.500    5.000    3.000    7.000    0.000 
#    0.000    1.250    0.000    0.000    0.000    0.000 
#    0.000    0.000    0.000    0.000    0.000    0.000 
#
# Total GULP energy -89572.695937 kJ/mol
# GULP energy per Si atom -5598.293496 kJ/mol
# Density = 2.529084 g / cm^3
# Si number density = 25.348538 Si / 1000 Ang^3
#
#
#
# Elastic Constant Matrix: (Units=GPa)
#
#
# Indices 1 2 3 4 5 6 
#
# 1 97.0419 3.3516 19.5186 -0.0001 23.9165 0.0031
# 2 3.3516 140.3060 29.1453 -0.0022 1.8378 0.0034
# 3 19.5186 29.1453 51.3539 0.0174 2.6139 -0.0016
# 4 -0.0001 -0.0022 0.0174 34.9494 0.0033 -0.3966
# 5 23.9165 1.8378 2.6139 0.0033 30.1460 -0.0018
# 6 0.0031 0.0034 -0.0016 -0.3966 -0.0018 22.6512
#
#
#
# Elastic Compliance Matrix: (Units=1/GPa)
#
#
# Indices 1 2 3 4 5 6 
#
# 1 0.013967 0.000902 -0.005277 0.000004 -0.010678 -0.000003
# 2 0.000902 0.008138 -0.004922 0.000003 -0.000785 -0.000002
# 3 -0.005277 -0.004922 0.024150 -0.000013 0.002393 0.000003
# 4 0.000004 0.000003 -0.000013 0.028619 -0.000005 0.000501
# 5 -0.010678 -0.000785 0.002393 -0.000005 0.041484 0.000005
# 6 -0.000003 -0.000002 0.000003 0.000501 0.000005 0.044157
#
#
# Mechanical properties :
#
#
# Convention : Reuss Voigt Hill
#
# Bulk Modulus (GPa) = 36.15066 43.63697 39.89382
# Shear Modulus (GPa) = 26.54946 33.32841 29.93894
#
# Velocity S-wave (km/s) = 3.23983 3.62996 3.44043
# Velocity P-wave (km/s) = 5.31862 5.90093 5.61733
#
# Compressibility (1/GPa) = 0.02766201
#
# Stress axis : x y z
#
# Youngs Moduli (GPa) = 71.59876 122.87410 41.40787
#
# Poissons Ratio (x) = -0.11089 0.21851
# Poissons Ratio (y) = -0.06461 0.20380
# Poissons Ratio (z) = 0.37783 0.60477
#
# Static dielectric constant tensor:
#      x y z
#    x 1.996400 0.000000 -0.026430 
#    y 0.000000 2.011030 0.000000 
#    z -0.026430 0.000000 2.044220 
# 
# From -- ./inp_files/30688.got.cif
#   From: 2010.05.17/outbox.cif.g08.bks.cpg/sg9_16_cif.got.tgz:30688.got - 2010.06.03 20:04:27.
