data_PCOD9140116
_publ_section_title
;
Structure prediction by ZEFSAII (Michael W. Deem and Ramdas Pophale) SiO2 
 PCOD9140116
Probable space group: C C
;
_chemical_formula_sum "Si O2"
_cell_formula_units_Z 24
_cell_length_a 17.257180
_cell_length_b 6.330901
_cell_length_c 16.956061
_cell_angle_alpha 90.000000
_cell_angle_beta 33.404179
_cell_angle_gamma 90.000000
_cell_volume 1019.883313
_symmetry_space_group_name_H-M "C C"
_symmetry_group_IT_number 9
_symmetry_cell_setting 'monoclinic'
loop_
_space_group_symop_operation_xyz
x,y,z
x,-y,1/2+z
1/2+x,1/2+y,z
1/2+x,1/2-y,1/2+z
loop_
_atom_site_type_symbol
_atom_site_label
_atom_site_fract_x
_atom_site_fract_y
_atom_site_fract_z
Si Si1 0.077700 0.818568 0.243810
Si Si2 0.975937 0.882134 0.973290
Si Si3 0.098691 0.549237 0.371135
Si Si4 0.389414 0.265351 0.655285
Si Si5 0.003374 0.553467 0.715594
Si Si6 0.272018 0.807607 0.533627
O O1 0.119534 0.620810 0.263362
O O2 0.999143 0.697147 0.239327
O O3 0.008308 0.966385 0.370451
O O4 0.197741 0.965691 0.106382
O O5 0.092365 0.701398 0.885073
O O6 0.834158 0.770154 0.063638
O O7 0.954700 0.010424 0.071822
O O8 0.224876 0.679025 0.305119
O O9 0.947237 0.626044 0.532954
O O10 0.446626 0.137709 0.680848
O O11 0.160264 0.645743 0.592064
O O12 0.904208 0.664003 0.864293
#
# Coordination Sequence:
#
# PCOD9140116 Si02
#       6
#     4   4   4   4   4   4
#     4  11  23  42  75 106 143 196 250 311 364 450
#     4  11  23  45  78 110 143 200 257 308 370 453
#     4  11  23  47  74 107 150 195 257 308 374 456
#     4  11  26  45  73 108 157 197 250 314 383 453
#     4  12  27  45  72 111 156 199 251 315 387 447
#     4  12  24  46  74 112 151 197 255 314 378 451
#
# _framework density 23.532102999999999
#
# number of rings (size 3 to 8) (size 9 to 14) (size 15 to 20)
#    0.000    0.667    3.333    4.000    4.667    2.667 
#    0.000    3.333    0.000    0.000    0.000    0.000 
#    0.000    0.000    0.000    0.000    0.000    0.000 
#
# Total GULP energy -66978.120992 kJ/mol
# GULP energy per Si atom -5581.510083 kJ/mol
# Density = 2.347854 g / cm^3
# Si number density = 23.532103 Si / 1000 Ang^3
#
#
#
# Elastic Constant Matrix: (Units=GPa)
#
#
# Indices 1 2 3 4 5 6 
#
# 1 84.9402 36.3816 -7.1838 -0.0024 -5.3454 0.0020
# 2 36.3816 113.3819 25.0649 -0.0056 2.0221 0.0047
# 3 -7.1838 25.0649 60.6903 -0.0018 -13.0661 0.0018
# 4 -0.0024 -0.0056 -0.0018 27.2553 0.0014 -2.4699
# 5 -5.3454 2.0221 -13.0661 0.0014 31.1745 -0.0010
# 6 0.0020 0.0047 0.0018 -2.4699 -0.0010 47.1081
#
#
#
# Elastic Compliance Matrix: (Units=1/GPa)
#
#
# Indices 1 2 3 4 5 6 
#
# 1 0.015229 -0.006199 0.005509 0.000000 0.005322 0.000000
# 2 -0.006199 0.012416 -0.006885 0.000002 -0.004754 -0.000001
# 3 0.005509 -0.006885 0.022283 0.000000 0.010731 0.000000
# 4 0.000000 0.000002 0.000000 0.036865 -0.000002 0.001933
# 5 0.005322 -0.004754 0.010731 -0.000002 0.037796 0.000001
# 6 0.000000 -0.000001 0.000000 0.001933 0.000001 0.021329
#
#
# Mechanical properties :
#
#
# Convention : Reuss Voigt Hill
#
# Bulk Modulus (GPa) = 28.75490 40.83754 34.79622
# Shear Modulus (GPa) = 28.95839 34.75757 31.85798
#
# Velocity S-wave (km/s) = 3.51178 3.84738 3.68341
# Velocity P-wave (km/s) = 5.35625 6.09328 5.73662
#
# Compressibility (1/GPa) = 0.03477668
#
# Stress axis : x y z
#
# Youngs Moduli (GPa) = 65.66340 80.54229 44.87753
#
# Poissons Ratio (x) = 0.49932 -0.24722
# Poissons Ratio (y) = 0.40708 0.30898
# Poissons Ratio (z) = -0.36173 0.55454
#
# Static dielectric constant tensor:
#      x y z
#    x 1.960510 0.000000 -0.017940 
#    y 0.000000 1.991930 0.000000 
#    z -0.017940 0.000000 1.919040 
# 
# From -- ./inp_files/18764.got.cif
#   From: 2010.05.17/outbox.cif.g08.bks.cpg/sg9_10_cif.got.tgz:18764.got - 2010.06.03 20:04:27.
