data_PCOD9140273
_publ_section_title
;
Structure prediction by ZEFSAII (Michael W. Deem and Ramdas Pophale) SiO2 
 PCOD9140273
Probable space group: C C
;
_chemical_formula_sum "Si O2"
_cell_formula_units_Z 20
_cell_length_a 5.539734
_cell_length_b 22.940908
_cell_length_c 6.301167
_cell_angle_alpha 90.000000
_cell_angle_beta 72.085477
_cell_angle_gamma 90.000000
_cell_volume 761.968141
_symmetry_space_group_name_H-M "C C"
_symmetry_group_IT_number 9
_symmetry_cell_setting 'monoclinic'
loop_
_space_group_symop_operation_xyz
x,y,z
x,-y,1/2+z
1/2+x,1/2+y,z
1/2+x,1/2-y,1/2+z
loop_
_atom_site_type_symbol
_atom_site_label
_atom_site_fract_x
_atom_site_fract_y
_atom_site_fract_z
Si Si1 0.258440 0.603009 0.681220
Si Si2 0.067820 0.699116 0.434658
Si Si3 0.867619 0.498144 0.846004
Si Si4 0.513533 0.665997 0.996031
Si Si5 0.246341 0.117002 0.308779
O O1 0.120797 0.661796 0.631250
O O2 0.081260 0.547773 0.772741
O O3 0.481126 0.589085 0.452382
O O4 0.417326 0.623983 0.840551
O O5 0.275620 0.676810 0.213398
O O6 0.094453 0.768147 0.425133
O O7 0.798285 0.676932 0.419212
O O8 0.756305 0.498479 0.624375
O O9 0.953392 0.430404 0.819328
O O10 0.730342 0.633937 0.070428
#
# Coordination Sequence:
#
# PCOD9140273 Si02
#       5
#     4   4   4   4   4
#     4  11  26  47  73 111 150 200 257 314 389 459
#     4  11  23  47  70 113 149 196 252 320 385 466
#     4  12  28  50  75 107 158 203 256 318 376 461
#     4  11  25  43  77 107 151 195 257 317 387 464
#     4  11  26  47  73 112 148 204 252 317 391 452
#
# _framework density 26.247817999999999
#
# number of rings (size 3 to 8) (size 9 to 14) (size 15 to 20)
#    0.000    0.800    2.000    3.600    5.600    9.600 
#    0.000    0.000    0.000    0.000    0.000    0.000 
#    0.000    0.000    0.000    0.000    0.000    0.000 
#
# Total GULP energy -55841.043810 kJ/mol
# GULP energy per Si atom -5584.104381 kJ/mol
# Density = 2.618808 g / cm^3
# Si number density = 26.247818 Si / 1000 Ang^3
#
#
#
# Elastic Constant Matrix: (Units=GPa)
#
#
# Indices 1 2 3 4 5 6 
#
# 1 63.4823 46.2290 37.6171 0.0000 14.6940 0.0000
# 2 46.2290 206.5354 50.8292 0.0000 11.8822 0.0000
# 3 37.6171 50.8292 167.8313 0.0000 9.5214 0.0000
# 4 0.0000 0.0000 0.0000 43.5977 0.0000 3.0999
# 5 14.6940 11.8822 9.5214 0.0000 61.9291 0.0000
# 6 0.0000 0.0000 0.0000 3.0999 0.0000 39.6668
#
#
#
# Elastic Compliance Matrix: (Units=1/GPa)
#
#
# Indices 1 2 3 4 5 6 
#
# 1 0.021392 -0.003718 -0.003451 0.000000 -0.003832 0.000000
# 2 -0.003718 0.005914 -0.000952 0.000000 -0.000106 0.000000
# 3 -0.003451 -0.000952 0.007025 0.000000 -0.000079 0.000000
# 4 0.000000 0.000000 0.000000 0.023065 0.000000 -0.001803
# 5 -0.003832 -0.000106 -0.000079 0.000000 0.017089 0.000000
# 6 0.000000 0.000000 0.000000 -0.001803 0.000000 0.025351
#
#
# Mechanical properties :
#
#
# Convention : Reuss Voigt Hill
#
# Bulk Modulus (GPa) = 55.28409 78.57774 66.93091
# Shear Modulus (GPa) = 40.94709 49.25030 45.09870
#
# Velocity S-wave (km/s) = 3.95399 4.33639 4.14960
# Velocity P-wave (km/s) = 6.47715 7.42120 6.96519
#
# Compressibility (1/GPa) = 0.01808839
#
# Stress axis : x y z
#
# Youngs Moduli (GPa) = 46.74591 169.07799 142.35639
#
# Poissons Ratio (x) = 0.62871 0.49131
# Poissons Ratio (y) = 0.17382 0.13549
# Poissons Ratio (z) = 0.16133 0.16092
#
# Static dielectric constant tensor:
#      x y z
#    x 2.105870 0.000000 0.015780 
#    y 0.000000 2.034370 0.000000 
#    z 0.015780 0.000000 2.192990 
# 
# From -- ./inp_files/156.got.cif
#   From: 2010.05.17/outbox.cif.g08.bks.cpg/sg9_1_cif.got.tgz:156.got - 2010.06.03 20:04:27.
