data_PCOD9140218
_publ_section_title
;
Structure prediction by ZEFSAII (Michael W. Deem and Ramdas Pophale) SiO2 
 PCOD9140218
Probable space group: C C
;
_chemical_formula_sum "Si O2"
_cell_formula_units_Z 32
_cell_length_a 11.203092
_cell_length_b 14.172302
_cell_length_c 8.786061
_cell_angle_alpha 90.000000
_cell_angle_beta 103.540859
_cell_angle_gamma 90.000000
_cell_volume 1356.218174
_symmetry_space_group_name_H-M "C C"
_symmetry_group_IT_number 9
_symmetry_cell_setting 'monoclinic'
loop_
_space_group_symop_operation_xyz
x,y,z
x,-y,1/2+z
1/2+x,1/2+y,z
1/2+x,1/2-y,1/2+z
loop_
_atom_site_type_symbol
_atom_site_label
_atom_site_fract_x
_atom_site_fract_y
_atom_site_fract_z
Si Si1 0.660770 0.352989 0.526790
Si Si2 0.794811 0.380981 0.997542
Si Si3 0.534888 0.548214 0.498584
Si Si4 0.047711 0.776939 0.207823
Si Si5 0.806711 0.233164 0.777058
Si Si6 0.370896 0.937906 0.366185
Si Si7 0.273699 0.521725 0.848554
Si Si8 0.136172 0.599754 0.086723
O O1 0.577700 0.442142 0.545008
O O2 0.594580 0.283383 0.391651
O O3 0.692581 0.290830 0.680369
O O4 0.771999 0.393838 0.455092
O O5 0.649764 0.405672 0.944438
O O6 0.838979 0.407020 0.183045
O O7 0.856493 0.450479 0.891648
O O8 0.827637 0.276306 0.950644
O O9 0.534336 0.617050 0.642880
O O10 0.399300 0.538906 0.387543
O O11 0.133110 0.709408 0.134076
O O12 0.911553 0.738740 0.187858
O O13 0.791497 0.121297 0.768393
O O14 0.507286 0.912633 0.461163
O O15 0.239343 0.558053 0.006374
O O16 0.161532 0.461370 0.745842
#
# Coordination Sequence:
#
# PCOD9140218 Si02
#       8
#     4   4   4   4   4   4   4   4
#     4  11  25  46  81 109 150 202 256 324 375 469
#     4  11  24  45  81 109 147 194 270 319 371 466
#     4  11  25  50  76 112 151 199 259 313 392 449
#     4  12  26  49  75 114 151 202 255 322 385 461
#     4  12  27  48  73 118 149 200 260 309 394 462
#     4  11  23  45  75 110 147 201 254 322 382 446
#     4  12  29  49  76 113 159 207 249 322 393 464
#     4  12  29  48  75 111 160 203 251 319 396 453
#
# _framework density 23.595023000000001
#
# number of rings (size 3 to 8) (size 9 to 14) (size 15 to 20)
#    0.000    0.500    3.750    3.750    7.000    1.000 
#    0.000    0.000    0.000    0.000    0.000    0.000 
#    0.000    0.000    0.000    0.000    0.000    0.000 
#
# Total GULP energy -89401.870836 kJ/mol
# GULP energy per Si atom -5587.616927 kJ/mol
# Density = 2.354132 g / cm^3
# Si number density = 23.595023 Si / 1000 Ang^3
#
#
#
# Elastic Constant Matrix: (Units=GPa)
#
#
# Indices 1 2 3 4 5 6 
#
# 1 67.0602 24.2296 30.0787 0.0000 9.9503 0.0000
# 2 24.2296 59.1969 28.8998 0.0000 5.2774 0.0000
# 3 30.0787 28.8998 107.3414 0.0000 11.0342 0.0000
# 4 0.0000 0.0000 0.0000 23.3893 0.0000 -6.4623
# 5 9.9503 5.2774 11.0342 0.0000 32.7087 0.0000
# 6 0.0000 0.0000 0.0000 -6.4623 0.0000 30.4152
#
#
#
# Elastic Compliance Matrix: (Units=1/GPa)
#
#
# Indices 1 2 3 4 5 6 
#
# 1 0.019093 -0.005823 -0.003400 0.000000 -0.003722 0.000000
# 2 -0.005823 0.021289 -0.004070 0.000000 -0.000290 0.000000
# 3 -0.003400 -0.004070 0.011593 0.000000 -0.002220 0.000000
# 4 0.000000 0.000000 0.000000 0.045421 0.000000 0.009650
# 5 -0.003722 -0.000290 -0.002220 0.000000 0.032501 0.000000
# 6 0.000000 0.000000 0.000000 0.009650 0.000000 0.034929
#
#
# Mechanical properties :
#
#
# Convention : Reuss Voigt Hill
#
# Bulk Modulus (GPa) = 39.38772 44.44608 41.91690
# Shear Modulus (GPa) = 25.01565 27.32869 26.17217
#
# Velocity S-wave (km/s) = 3.25962 3.40698 3.33411
# Velocity P-wave (km/s) = 5.55844 5.86129 5.71187
#
# Compressibility (1/GPa) = 0.02538863
#
# Stress axis : x y z
#
# Youngs Moduli (GPa) = 52.37469 46.97216 86.26100
#
# Poissons Ratio (x) = 0.27354 0.29327
# Poissons Ratio (y) = 0.30500 0.35109
# Poissons Ratio (z) = 0.17806 0.19118
#
# Static dielectric constant tensor:
#      x y z
#    x 1.947570 0.000000 0.004620 
#    y 0.000000 1.913690 0.000000 
#    z 0.004620 0.000000 1.912910 
# 
# From -- ./inp_files/7627.got.cif
#   From: 2010.05.17/outbox.cif.g08.bks.cpg/sg9_4_cif.got.tgz:7627.got - 2010.06.03 20:04:27.
