data_PCOD9140523
_publ_section_title
;
Structure prediction by ZEFSAII (Michael W. Deem and Ramdas Pophale) SiO2 
 PCOD9140523
Probable space group: C C
;
_chemical_formula_sum "Si O2"
_cell_formula_units_Z 24
_cell_length_a 7.604786
_cell_length_b 11.955510
_cell_length_c 10.106732
_cell_angle_alpha 90.000000
_cell_angle_beta 100.712781
_cell_angle_gamma 90.000000
_cell_volume 902.879834
_symmetry_space_group_name_H-M "C C"
_symmetry_group_IT_number 9
_symmetry_cell_setting 'monoclinic'
loop_
_space_group_symop_operation_xyz
x,y,z
x,-y,1/2+z
1/2+x,1/2+y,z
1/2+x,1/2-y,1/2+z
loop_
_atom_site_type_symbol
_atom_site_label
_atom_site_fract_x
_atom_site_fract_y
_atom_site_fract_z
Si Si1 0.877920 0.876875 0.086860
Si Si2 0.734882 0.713871 0.710974
Si Si3 0.103999 0.796486 0.493348
Si Si4 0.446257 0.427289 0.801430
Si Si5 0.357185 0.020848 0.117738
Si Si6 0.371564 0.887820 0.881522
O O1 0.857479 0.177894 0.214234
O O2 0.048240 0.793215 0.106417
O O3 0.709157 0.798500 0.089321
O O4 0.867861 0.931547 0.939683
O O5 0.825699 0.598928 0.679362
O O6 0.692337 0.703351 0.860233
O O7 0.169550 0.914013 0.561442
O O8 0.915104 0.736703 0.439319
O O9 0.406711 0.463321 0.209552
O O10 0.659002 0.407213 0.844729
O O11 0.450177 0.092273 0.245846
O O12 0.442277 0.984956 0.990603
#
# Coordination Sequence:
#
# PCOD9140523 Si02
#       6
#     4   4   4   4   4   4
#     4  11  24  49  73 103 152 191 239 310 354 438
#     4  11  24  47  72 103 149 194 234 305 361 424
#     4  11  27  46  76 110 144 195 247 297 370 433
#     4  11  24  47  77 107 145 195 245 298 366 430
#     4  12  24  48  73 106 151 187 239 304 364 430
#     4  12  25  45  79 105 149 194 238 310 359 437
#
# _framework density 26.581612
#
# number of rings (size 3 to 8) (size 9 to 14) (size 15 to 20)
#    0.000    0.667    5.000    1.000    2.333    4.000 
#    3.000    0.000    3.667    0.000    0.000    0.000 
#    0.000    0.000    0.000    0.000    0.000    0.000 
#
# Total GULP energy -67193.589824 kJ/mol
# GULP energy per Si atom -5599.465819 kJ/mol
# Density = 2.652111 g / cm^3
# Si number density = 26.581612 Si / 1000 Ang^3
#
#
#
# Elastic Constant Matrix: (Units=GPa)
#
#
# Indices 1 2 3 4 5 6 
#
# 1 65.5455 51.5841 12.6449 0.0000 21.4370 0.0000
# 2 51.5841 171.0364 62.4930 0.0000 13.7667 0.0000
# 3 12.6449 62.4930 142.8549 0.0000 4.9347 0.0000
# 4 0.0000 0.0000 0.0000 61.4082 0.0000 18.9324
# 5 21.4370 13.7667 4.9347 0.0000 31.0667 0.0000
# 6 0.0000 0.0000 0.0000 18.9324 0.0000 56.4441
#
#
#
# Elastic Compliance Matrix: (Units=1/GPa)
#
#
# Indices 1 2 3 4 5 6 
#
# 1 0.025189 -0.006899 0.001290 0.000000 -0.014529 0.000000
# 2 -0.006899 0.009066 -0.003400 0.000000 0.001283 0.000000
# 3 0.001290 -0.003400 0.008398 0.000000 -0.000718 0.000000
# 4 0.000000 0.000000 0.000000 0.018163 0.000000 -0.006092
# 5 -0.014529 0.001283 -0.000718 0.000000 0.041760 0.000000
# 6 0.000000 0.000000 0.000000 -0.006092 0.000000 0.019760
#
#
# Mechanical properties :
#
#
# Convention : Reuss Voigt Hill
#
# Bulk Modulus (GPa) = 40.59062 70.32009 55.45535
# Shear Modulus (GPa) = 33.65543 46.63147 40.14345
#
# Velocity S-wave (km/s) = 3.56211 4.19295 3.89034
# Velocity P-wave (km/s) = 5.67640 7.06774 6.40993
#
# Compressibility (1/GPa) = 0.02463624
#
# Stress axis : x y z
#
# Youngs Moduli (GPa) = 39.70021 110.29808 119.07648
#
# Poissons Ratio (x) = 0.76093 -0.15364
# Poissons Ratio (y) = 0.27389 0.40484
# Poissons Ratio (z) = -0.05122 0.37499
#
# Static dielectric constant tensor:
#      x y z
#    x 2.141600 0.000000 -0.001330 
#    y 0.000000 2.044740 0.000000 
#    z -0.001330 0.000000 2.158710 
# 
# From -- ./inp_files/5224.got.cif
#   From: 2010.05.17/outbox.cif.g08.bks.cpg/sg9_3_cif.got.tgz:5224.got - 2010.06.03 20:04:27.
