data_PCOD9140592
_publ_section_title
;
Structure prediction by ZEFSAII (Michael W. Deem and Ramdas Pophale) SiO2 
 PCOD9140592
Probable space group: C C
;
_chemical_formula_sum "Si O2"
_cell_formula_units_Z 24
_cell_length_a 10.768641
_cell_length_b 11.463946
_cell_length_c 16.390696
_cell_angle_alpha 90.000000
_cell_angle_beta 152.145278
_cell_angle_gamma 90.000000
_cell_volume 945.419006
_symmetry_space_group_name_H-M "C C"
_symmetry_group_IT_number 9
_symmetry_cell_setting 'monoclinic'
loop_
_space_group_symop_operation_xyz
x,y,z
x,-y,1/2+z
1/2+x,1/2+y,z
1/2+x,1/2-y,1/2+z
loop_
_atom_site_type_symbol
_atom_site_label
_atom_site_fract_x
_atom_site_fract_y
_atom_site_fract_z
Si Si1 0.664530 0.837186 0.650160
Si Si2 0.871629 0.914734 0.420398
Si Si3 0.086059 0.778834 0.271464
Si Si4 0.357755 0.908584 0.209921
Si Si5 0.157220 0.468161 0.028733
Si Si6 0.784570 0.289583 0.754958
O O1 0.347389 0.838268 0.457096
O O2 0.687691 0.802521 0.757777
O O3 0.791124 0.727994 0.675093
O O4 0.756230 0.957404 0.662916
O O5 0.990053 0.831001 0.561709
O O6 0.568212 0.943736 0.263575
O O7 0.849013 0.836704 0.326820
O O8 0.087302 0.017518 0.545066
O O9 0.889063 0.883422 0.129362
O O10 0.936002 0.707587 0.255375
O O11 0.520837 0.943231 0.386209
O O12 0.915012 0.376544 0.896778
#
# Coordination Sequence:
#
# PCOD9140592 Si02
#       6
#     4   4   4   4   4   4
#     4  12  26  47  81 116 155 215 271 327 408 484
#     4  11  26  48  78 109 158 208 262 331 405 470
#     4  12  24  50  79 113 158 209 269 326 410 474
#     4  11  27  48  77 113 162 208 269 335 397 489
#     4  11  25  46  75 115 156 209 261 335 393 477
#     4  11  24  49  76 114 151 209 262 334 397 486
#
# _framework density 25.385570000000001
#
# number of rings (size 3 to 8) (size 9 to 14) (size 15 to 20)
#    0.000    0.667    5.000    1.000    7.000    1.333 
#    3.000    0.000    0.000    0.000    0.000    0.000 
#    0.000    0.000    0.000    0.000    0.000    0.000 
#
# Total GULP energy -67127.412012 kJ/mol
# GULP energy per Si atom -5593.951001 kJ/mol
# Density = 2.532779 g / cm^3
# Si number density = 25.385570 Si / 1000 Ang^3
#
#
#
# Elastic Constant Matrix: (Units=GPa)
#
#
# Indices 1 2 3 4 5 6 
#
# 1 98.9623 55.9500 9.2054 0.0078 8.7609 0.0013
# 2 55.9500 165.3521 48.9340 0.0184 -10.7297 0.0032
# 3 9.2054 48.9340 103.1524 0.0420 18.1374 0.0100
# 4 0.0078 0.0184 0.0420 51.3467 0.0063 -4.2702
# 5 8.7609 -10.7297 18.1374 0.0063 32.9447 0.0000
# 6 0.0013 0.0032 0.0100 -4.2702 0.0000 32.5270
#
#
#
# Elastic Compliance Matrix: (Units=1/GPa)
#
#
# Indices 1 2 3 4 5 6 
#
# 1 0.013883 -0.006024 0.002893 -0.000002 -0.007246 -0.000001
# 2 -0.006024 0.010331 -0.005798 0.000001 0.008159 0.000001
# 3 0.002893 -0.005798 0.014010 -0.000009 -0.010371 -0.000005
# 4 -0.000002 0.000001 -0.000009 0.019690 0.000002 0.002585
# 5 -0.007246 0.008159 -0.010371 0.000002 0.040648 0.000003
# 6 -0.000001 0.000001 -0.000005 0.002585 0.000003 0.031083
#
#
# Mechanical properties :
#
#
# Convention : Reuss Voigt Hill
#
# Bulk Modulus (GPa) = 49.10034 66.18284 57.64159
# Shear Modulus (GPa) = 32.40599 40.25550 36.33074
#
# Velocity S-wave (km/s) = 3.57676 3.98648 3.78717
# Velocity P-wave (km/s) = 6.03668 6.87874 6.47142
#
# Compressibility (1/GPa) = 0.02036646
#
# Stress axis : x y z
#
# Youngs Moduli (GPa) = 72.03059 96.79363 71.37642
#
# Poissons Ratio (x) = 0.58308 -0.20648
# Poissons Ratio (y) = 0.43391 0.41384
# Poissons Ratio (z) = -0.20837 0.56121
#
# Static dielectric constant tensor:
#      x y z
#    x 2.079460 0.000000 -0.061210 
#    y 0.000000 2.074760 -0.000010 
#    z -0.061210 -0.000010 1.957910 
# 
# From -- ./inp_files/30084.got.cif
#   From: 2010.05.17/outbox.cif.g08.bks.cpg/sg9_16_cif.got.tgz:30084.got - 2010.06.03 20:04:27.
