data_PCOD9140099
_publ_section_title
;
Structure prediction by ZEFSAII (Michael W. Deem and Ramdas Pophale) SiO2 
 PCOD9140099
Probable space group: C C
;
_chemical_formula_sum "Si O2"
_cell_formula_units_Z 32
_cell_length_a 21.223234
_cell_length_b 16.317584
_cell_length_c 8.455731
_cell_angle_alpha 90.000000
_cell_angle_beta 30.482741
_cell_angle_gamma 90.000000
_cell_volume 1485.474791
_symmetry_space_group_name_H-M "C C"
_symmetry_group_IT_number 9
_symmetry_cell_setting 'monoclinic'
loop_
_space_group_symop_operation_xyz
x,y,z
x,-y,1/2+z
1/2+x,1/2+y,z
1/2+x,1/2-y,1/2+z
loop_
_atom_site_type_symbol
_atom_site_label
_atom_site_fract_x
_atom_site_fract_y
_atom_site_fract_z
Si Si1 0.851990 0.984673 0.412450
Si Si2 0.145995 0.391187 0.299042
Si Si3 0.462433 0.388588 0.914835
Si Si4 0.710014 0.677299 0.713978
Si Si5 0.895104 0.447715 0.966128
Si Si6 0.754219 0.244133 0.788382
Si Si7 0.150657 0.350608 0.940094
Si Si8 0.394755 0.884502 0.324831
O O1 0.746763 0.921126 0.690232
O O2 0.771305 0.056149 0.499662
O O3 0.909975 0.036372 0.426488
O O4 0.956831 0.930580 0.098462
O O5 0.168326 0.319739 0.379329
O O6 0.038270 0.447207 0.602916
O O7 0.103952 0.358769 0.220177
O O8 0.588534 0.360960 0.559598
O O9 0.365877 0.312729 0.115843
O O10 0.820732 0.615522 0.515793
O O11 0.699456 0.702640 0.551963
O O12 0.722704 0.765342 0.769021
O O13 0.852770 0.540525 0.028638
O O14 0.887566 0.417595 0.162278
O O15 0.809087 0.306710 0.542027
O O16 0.033662 0.356851 0.075004
#
# Coordination Sequence:
#
# PCOD9140099 Si02
#       8
#     4   4   4   4   4   4   4   4
#     4  11  23  42  70 103 139 183 239 290 356 431
#     4  11  24  41  71 108 136 183 240 294 354 423
#     4  11  25  44  70 105 142 186 233 298 361 425
#     4  12  26  46  69 103 147 187 233 299 366 429
#     4  12  27  43  71 105 142 187 241 290 363 428
#     4  11  24  45  71 102 145 184 236 296 361 426
#     4  12  22  42  71 101 141 181 236 295 354 431
#     4  12  25  45  69 103 142 187 236 296 357 431
#
# _framework density 21.541934000000001
#
# number of rings (size 3 to 8) (size 9 to 14) (size 15 to 20)
#    0.000    0.500    5.000    3.750    1.750    2.000 
#    0.000    2.500    0.000    0.000    0.000    0.000 
#    0.000    0.000    0.000    0.000    0.000    0.000 
#
# Total GULP energy -89402.854334 kJ/mol
# GULP energy per Si atom -5587.678396 kJ/mol
# Density = 2.149290 g / cm^3
# Si number density = 21.541934 Si / 1000 Ang^3
#
#
#
# Elastic Constant Matrix: (Units=GPa)
#
#
# Indices 1 2 3 4 5 6 
#
# 1 42.0757 5.1949 10.2779 0.0000 7.6395 0.0000
# 2 5.1949 101.3584 10.9304 0.0000 -10.1255 0.0000
# 3 10.2779 10.9304 78.6475 0.0000 10.9467 0.0000
# 4 0.0000 0.0000 0.0000 49.7270 0.0000 1.0729
# 5 7.6395 -10.1255 10.9467 0.0000 27.5257 0.0000
# 6 0.0000 0.0000 0.0000 1.0729 0.0000 5.3856
#
#
#
# Elastic Compliance Matrix: (Units=1/GPa)
#
#
# Indices 1 2 3 4 5 6 
#
# 1 0.025775 -0.001784 -0.002153 0.000000 -0.006954 0.000000
# 2 -0.001784 0.010692 -0.001979 0.000000 0.005215 0.000000
# 3 -0.002153 -0.001979 0.014068 0.000000 -0.005725 0.000000
# 4 0.000000 0.000000 0.000000 0.020197 0.000000 -0.004024
# 5 -0.006954 0.005215 -0.005725 0.000000 0.042455 0.000000
# 6 0.000000 0.000000 0.000000 -0.004024 0.000000 0.186482
#
#
# Mechanical properties :
#
#
# Convention : Reuss Voigt Hill
#
# Bulk Modulus (GPa) = 25.83622 30.54309 28.18966
# Shear Modulus (GPa) = 15.41305 29.57288 22.49296
#
# Velocity S-wave (km/s) = 2.67777 3.70916 3.23483
# Velocity P-wave (km/s) = 4.64544 5.70553 5.20255
#
# Compressibility (1/GPa) = 0.03870535
#
# Stress axis : x y z
#
# Youngs Moduli (GPa) = 38.79680 93.53019 71.08264
#
# Poissons Ratio (x) = 0.16682 0.15302
# Poissons Ratio (y) = 0.06920 0.14065
# Poissons Ratio (z) = 0.08352 0.18507
#
# Static dielectric constant tensor:
#      x y z
#    x 1.803720 0.000000 0.037230 
#    y 0.000000 1.749410 0.000000 
#    z 0.037230 0.000000 1.792150 
# 
# From -- ./inp_files/7392.got.cif
#   From: 2010.05.17/outbox.cif.g08.bks.cpg/sg9_4_cif.got.tgz:7392.got - 2010.06.03 20:04:27.
