data_PCOD9140498
_publ_section_title
;
Structure prediction by ZEFSAII (Michael W. Deem and Ramdas Pophale) SiO2 
 PCOD9140498
Probable space group: C C
;
_chemical_formula_sum "Si O2"
_cell_formula_units_Z 32
_cell_length_a 15.245640
_cell_length_b 11.134987
_cell_length_c 11.718907
_cell_angle_alpha 90.000000
_cell_angle_beta 135.508163
_cell_angle_gamma 90.000000
_cell_volume 1394.187902
_symmetry_space_group_name_H-M "C C"
_symmetry_group_IT_number 9
_symmetry_cell_setting 'monoclinic'
loop_
_space_group_symop_operation_xyz
x,y,z
x,-y,1/2+z
1/2+x,1/2+y,z
1/2+x,1/2-y,1/2+z
loop_
_atom_site_type_symbol
_atom_site_label
_atom_site_fract_x
_atom_site_fract_y
_atom_site_fract_z
Si Si1 0.919930 0.001938 0.143760
Si Si2 0.212510 0.665926 0.336123
Si Si3 0.421980 0.232540 0.559677
Si Si4 0.751946 0.018922 0.166151
Si Si5 0.683412 0.239903 0.686559
Si Si6 0.030420 0.500470 0.289646
Si Si7 0.777297 0.549041 0.152869
Si Si8 0.693892 0.553012 0.824561
O O1 0.891986 0.990721 0.252642
O O2 0.047200 0.968799 0.201122
O O3 0.902093 0.144284 0.109528
O O4 0.818878 0.910110 0.998957
O O5 0.239179 0.634609 0.230533
O O6 0.080275 0.605684 0.252114
O O7 0.221860 0.806279 0.360154
O O8 0.540183 0.259386 0.587002
O O9 0.288635 0.215079 0.374103
O O10 0.472236 0.115828 0.673652
O O11 0.707378 0.900765 0.192008
O O12 0.653201 0.037081 0.973011
O O13 0.717093 0.318606 0.607883
O O14 0.927383 0.551168 0.281596
O O15 0.738673 0.486033 0.237762
O O16 0.739168 0.500214 0.991222
#
# Coordination Sequence:
#
# PCOD9140498 Si02
#       8
#     4   4   4   4   4   4   4   4
#     4  11  26  47  72 109 148 201 256 312 389 469
#     4  11  26  50  73 110 153 202 254 325 397 464
#     4  12  24  48  76 109 155 204 262 322 388 480
#     4  11  24  46  75 106 150 202 252 316 395 463
#     4  12  24  46  79 107 152 206 261 323 392 478
#     4  11  26  45  74 110 150 200 257 324 390 467
#     4  12  28  48  74 113 149 199 262 316 389 461
#     4  12  30  48  75 110 155 200 256 324 388 464
#
# _framework density 22.95243
#
# number of rings (size 3 to 8) (size 9 to 14) (size 15 to 20)
#    0.000    0.500    3.750    3.750   10.500    1.000 
#    0.000    0.000    0.000    0.000    0.000    0.000 
#    0.000    0.000    0.000    0.000    0.000    0.000 
#
# Total GULP energy -89268.920795 kJ/mol
# GULP energy per Si atom -5579.307550 kJ/mol
# Density = 2.290019 g / cm^3
# Si number density = 22.952430 Si / 1000 Ang^3
#
#
#
# Elastic Constant Matrix: (Units=GPa)
#
#
# Indices 1 2 3 4 5 6 
#
# 1 144.2617 19.1905 24.0979 0.0000 2.3082 0.0000
# 2 19.1905 62.6797 29.1615 0.0000 3.0469 0.0000
# 3 24.0979 29.1615 73.9158 0.0000 -20.5429 0.0000
# 4 0.0000 0.0000 0.0000 131.0149 0.0000 22.2714
# 5 2.3082 3.0469 -20.5429 0.0000 27.1180 0.0000
# 6 0.0000 0.0000 0.0000 22.2714 0.0000 39.8870
#
#
#
# Elastic Compliance Matrix: (Units=1/GPa)
#
#
# Indices 1 2 3 4 5 6 
#
# 1 0.007572 -0.000833 -0.002904 0.000000 -0.002751 0.000000
# 2 -0.000833 0.022135 -0.011568 0.000000 -0.011179 0.000000
# 3 -0.002904 -0.011568 0.024662 0.000000 0.020229 0.000000
# 4 0.000000 0.000000 0.000000 0.008433 0.000000 -0.004709
# 5 -0.002751 -0.011179 0.020229 0.000000 0.053690 0.000000
# 6 0.000000 0.000000 0.000000 -0.004709 0.000000 0.027700
#
#
# Mechanical properties :
#
#
# Convention : Reuss Voigt Hill
#
# Bulk Modulus (GPa) = 42.09274 47.30632 44.69953
# Shear Modulus (GPa) = 27.36396 53.49779 40.43087
#
# Velocity S-wave (km/s) = 3.45658 4.83309 4.20158
# Velocity P-wave (km/s) = 5.85743 7.19724 6.56162
#
# Compressibility (1/GPa) = 0.02375707
#
# Stress axis : x y z
#
# Youngs Moduli (GPa) = 132.06783 45.17808 40.54862
#
# Poissons Ratio (x) = 0.03765 0.11777
# Poissons Ratio (y) = 0.11005 0.46906
# Poissons Ratio (z) = 0.38358 0.52262
#
# Static dielectric constant tensor:
#      x y z
#    x 1.945160 0.000000 -0.023380 
#    y 0.000000 1.782430 0.000000 
#    z -0.023380 0.000000 1.941970 
# 
# From -- ./inp_files/18291.got.cif
#   From: 2010.05.17/outbox.cif.g08.bks.cpg/sg9_10_cif.got.tgz:18291.got - 2010.06.03 20:04:27.
