data_PCOD9140119
_publ_section_title
;
Structure prediction by ZEFSAII (Michael W. Deem and Ramdas Pophale) SiO2 
 PCOD9140119
Probable space group: C C
;
_chemical_formula_sum "Si O2"
_cell_formula_units_Z 32
_cell_length_a 23.122929
_cell_length_b 5.324095
_cell_length_c 12.363560
_cell_angle_alpha 90.000000
_cell_angle_beta 104.905470
_cell_angle_gamma 90.000000
_cell_volume 1470.846393
_symmetry_space_group_name_H-M "C C"
_symmetry_group_IT_number 9
_symmetry_cell_setting 'monoclinic'
loop_
_space_group_symop_operation_xyz
x,y,z
x,-y,1/2+z
1/2+x,1/2+y,z
1/2+x,1/2-y,1/2+z
loop_
_atom_site_type_symbol
_atom_site_label
_atom_site_fract_x
_atom_site_fract_y
_atom_site_fract_z
Si Si1 0.508430 0.561656 0.084300
Si Si2 0.199260 0.931978 0.940987
Si Si3 0.615097 0.710670 0.586091
Si Si4 0.930614 0.311531 0.229974
Si Si5 0.339717 0.088897 0.501716
Si Si6 0.033334 0.443854 0.902841
Si Si7 0.647236 0.073538 0.310998
Si Si8 0.391944 0.402164 0.924425
O O1 0.573522 0.457228 0.142829
O O2 0.479572 0.697947 0.172145
O O3 0.521837 0.737854 0.988355
O O4 0.455397 0.378692 0.018399
O O5 0.163729 0.930405 0.037854
O O6 0.269639 0.896525 0.990742
O O7 0.173935 0.689323 0.864897
O O8 0.185968 0.190866 0.872369
O O9 0.643378 0.914611 0.679428
O O10 0.566273 0.828718 0.481349
O O11 0.878332 0.420852 0.130562
O O12 0.969246 0.500957 0.320398
O O13 0.904439 0.112031 0.302759
O O14 0.362518 0.338248 0.449783
O O15 0.353649 0.839370 0.440027
O O16 0.081976 0.386286 0.834154
#
# Coordination Sequence:
#
# PCOD9140119 Si02
#       8
#     4   4   4   4   4   4   4   4
#     4  11  24  40  67 104 143 176 226 285 349 427
#     4  11  26  50  68 102 137 186 236 289 331 416
#     4  11  25  42  68 106 138 179 229 284 352 416
#     4  11  24  42  72 102 140 187 219 290 357 406
#     4  11  27  48  71  98 141 182 244 279 339 411
#     4  11  23  43  65 107 146 175 223 286 349 427
#     4  11  26  42  74  98 140 185 224 285 355 398
#     4  11  25  45  67 105 135 184 227 288 336 415
#
# _framework density 21.756181999999999
#
# number of rings (size 3 to 8) (size 9 to 14) (size 15 to 20)
#    0.000    1.000    2.500    3.000    8.750    5.000 
#    0.000    0.000    0.000    0.000    0.000    0.000 
#    0.000    0.000    0.000    0.000    0.000    0.000 
#
# Total GULP energy -89480.984854 kJ/mol
# GULP energy per Si atom -5592.561553 kJ/mol
# Density = 2.170666 g / cm^3
# Si number density = 21.756182 Si / 1000 Ang^3
#
#
#
# Elastic Constant Matrix: (Units=GPa)
#
#
# Indices 1 2 3 4 5 6 
#
# 1 126.7700 27.6684 12.8461 0.0000 16.6171 0.0000
# 2 27.6684 86.5046 15.5868 0.0000 5.2003 0.0000
# 3 12.8461 15.5868 57.0200 0.0000 1.8542 0.0000
# 4 0.0000 0.0000 0.0000 29.3897 0.0000 -2.8014
# 5 16.6171 5.2003 1.8542 0.0000 21.1528 0.0000
# 6 0.0000 0.0000 0.0000 -2.8014 0.0000 36.1068
#
#
#
# Elastic Compliance Matrix: (Units=1/GPa)
#
#
# Indices 1 2 3 4 5 6 
#
# 1 0.009413 -0.002383 -0.001252 0.000000 -0.006699 0.000000
# 2 -0.002383 0.012918 -0.002961 0.000000 -0.001045 0.000000
# 3 -0.001252 -0.002961 0.018626 0.000000 0.000078 0.000000
# 4 0.000000 0.000000 0.000000 0.034279 0.000000 0.002660
# 5 -0.006699 -0.001045 0.000078 0.000000 0.052788 0.000000
# 6 0.000000 0.000000 0.000000 0.002660 0.000000 0.027902
#
#
# Mechanical properties :
#
#
# Convention : Reuss Voigt Hill
#
# Bulk Modulus (GPa) = 36.01185 42.49969 39.25577
# Shear Modulus (GPa) = 28.03118 31.60941 29.82029
#
# Velocity S-wave (km/s) = 3.59336 3.81582 3.70626
# Velocity P-wave (km/s) = 5.81418 6.24427 6.03306
#
# Compressibility (1/GPa) = 0.02776864
#
# Stress axis : x y z
#
# Youngs Moduli (GPa) = 106.23261 77.40894 53.68712
#
# Poissons Ratio (x) = 0.18443 0.06719
# Poissons Ratio (y) = 0.25311 0.15895
# Poissons Ratio (z) = 0.13296 0.22918
#
# Static dielectric constant tensor:
#      x y z
#    x 1.777760 0.000000 -0.000930 
#    y 0.000000 1.834990 0.000000 
#    z -0.000930 0.000000 1.814860 
# 
# From -- ./inp_files/20624.got.cif
#   From: 2010.05.17/outbox.cif.g08.bks.cpg/sg9_11_cif.got.tgz:20624.got - 2010.06.03 20:04:27.
