data_PCOD9140917
_publ_section_title
;
Structure prediction by ZEFSAII (Michael W. Deem and Ramdas Pophale) SiO2 
 PCOD9140917
Probable space group: C C
;
_chemical_formula_sum "Si O2"
_cell_formula_units_Z 32
_cell_length_a 28.237561
_cell_length_b 7.070586
_cell_length_c 9.390001
_cell_angle_alpha 90.000000
_cell_angle_beta 133.293456
_cell_angle_gamma 90.000000
_cell_volume 1364.554111
_symmetry_space_group_name_H-M "C C"
_symmetry_group_IT_number 9
_symmetry_cell_setting 'monoclinic'
loop_
_space_group_symop_operation_xyz
x,y,z
x,-y,1/2+z
1/2+x,1/2+y,z
1/2+x,1/2-y,1/2+z
loop_
_atom_site_type_symbol
_atom_site_label
_atom_site_fract_x
_atom_site_fract_y
_atom_site_fract_z
Si Si1 0.743980 0.913922 0.215160
Si Si2 0.783606 0.607693 0.477818
Si Si3 0.886030 0.070155 0.538809
Si Si4 0.873461 0.477511 0.415418
Si Si5 0.616318 0.919213 0.542224
Si Si6 0.674251 0.379090 0.353210
Si Si7 0.942460 0.173593 0.933466
Si Si8 0.584598 0.742734 0.191180
O O1 0.752170 0.808641 0.383573
O O2 0.687463 0.062657 0.117509
O O3 0.814541 0.005571 0.337909
O O4 0.715138 0.751569 0.049585
O O5 0.841029 0.583988 0.481776
O O6 0.813720 0.581498 0.692866
O O7 0.728124 0.450170 0.351288
O O8 0.903484 0.283069 0.529622
O O9 0.891960 0.074485 0.720954
O O10 0.937119 0.932326 0.571746
O O11 0.918971 0.614196 0.418207
O O12 0.601402 0.113129 0.596591
O O13 0.621739 0.756011 0.670900
O O14 0.574942 0.858343 0.319903
O O15 0.636570 0.428244 0.821250
O O16 0.013414 0.159899 0.014095
#
# Coordination Sequence:
#
# PCOD9140917 Si02
#       8
#     4   4   4   4   4   4   4   4
#     4  12  25  45  77 116 148 191 250 318 401 456
#     4  12  22  42  73 105 153 184 245 310 394 450
#     4  12  28  48  77 110 155 195 253 319 386 457
#     4  12  26  45  72 110 149 199 245 314 385 452
#     4  12  28  49  76 111 152 198 260 320 385 458
#     4  12  26  46  75 116 153 197 253 325 392 453
#     4  12  30  51  74 110 150 208 261 307 376 461
#     4  12  31  50  78 108 154 212 261 317 379 461
#
# _framework density 23.450883999999999
#
# number of rings (size 3 to 8) (size 9 to 14) (size 15 to 20)
#    0.000    0.000    6.250    2.250    8.750    1.000 
#    0.000    0.000    0.000    0.000    0.000    0.000 
#    0.000    0.000    0.000    0.000    0.000    0.000 
#
# Total GULP energy -89433.903389 kJ/mol
# GULP energy per Si atom -5589.618962 kJ/mol
# Density = 2.339751 g / cm^3
# Si number density = 23.450884 Si / 1000 Ang^3
#
#
#
# Elastic Constant Matrix: (Units=GPa)
#
#
# Indices 1 2 3 4 5 6 
#
# 1 81.1884 26.8926 23.6660 0.0000 6.1593 0.0000
# 2 26.8926 92.2298 25.2779 0.0000 -0.8101 0.0000
# 3 23.6660 25.2779 83.5492 0.0000 -6.3561 0.0000
# 4 0.0000 0.0000 0.0000 36.6924 0.0000 -8.2966
# 5 6.1593 -0.8101 -6.3561 0.0000 32.9794 0.0000
# 6 0.0000 0.0000 0.0000 -8.2966 0.0000 40.0732
#
#
#
# Elastic Compliance Matrix: (Units=1/GPa)
#
#
# Indices 1 2 3 4 5 6 
#
# 1 0.014694 -0.003382 -0.003404 0.000000 -0.003483 0.000000
# 2 -0.003382 0.012607 -0.002826 0.000000 0.000397 0.000000
# 3 -0.003404 -0.002826 0.014037 0.000000 0.003272 0.000000
# 4 0.000000 0.000000 0.000000 0.028592 0.000000 0.005920
# 5 -0.003483 0.000397 0.003272 0.000000 0.031613 0.000000
# 6 0.000000 0.000000 0.000000 0.005920 0.000000 0.026180
#
#
# Mechanical properties :
#
#
# Convention : Reuss Voigt Hill
#
# Bulk Modulus (GPa) = 45.22110 45.40451 45.31280
# Shear Modulus (GPa) = 32.40075 34.02440 33.21258
#
# Velocity S-wave (km/s) = 3.72108 3.81317 3.76741
# Velocity P-wave (km/s) = 6.14712 6.22821 6.18780
#
# Compressibility (1/GPa) = 0.02211357
#
# Stress axis : x y z
#
# Youngs Moduli (GPa) = 68.05597 79.32313 71.24000
#
# Poissons Ratio (x) = 0.26828 0.24249
# Poissons Ratio (y) = 0.23017 0.20132
# Poissons Ratio (z) = 0.23165 0.22416
#
# Static dielectric constant tensor:
#      x y z
#    x 1.827660 0.000000 -0.004200 
#    y 0.000000 1.927630 0.000000 
#    z -0.004200 0.000000 1.900840 
# 
# From -- ./inp_files/12705.got.cif
#   From: 2010.05.17/outbox.cif.g08.bks.cpg/sg9_7_cif.got.tgz:12705.got - 2010.06.03 20:04:27.
