data_PCOD9140030
_publ_section_title
;
Structure prediction by ZEFSAII (Michael W. Deem and Ramdas Pophale) SiO2 
 PCOD9140030
Probable space group: C C
;
_chemical_formula_sum "Si O2"
_cell_formula_units_Z 32
_cell_length_a 23.713865
_cell_length_b 5.071030
_cell_length_c 19.179545
_cell_angle_alpha 90.000000
_cell_angle_beta 30.801458
_cell_angle_gamma 90.000000
_cell_volume 1181.032042
_symmetry_space_group_name_H-M "C C"
_symmetry_group_IT_number 9
_symmetry_cell_setting 'monoclinic'
loop_
_space_group_symop_operation_xyz
x,y,z
x,-y,1/2+z
1/2+x,1/2+y,z
1/2+x,1/2-y,1/2+z
loop_
_atom_site_type_symbol
_atom_site_label
_atom_site_fract_x
_atom_site_fract_y
_atom_site_fract_z
Si Si1 0.897620 0.632092 0.307770
Si Si2 0.255437 0.582849 0.779141
Si Si3 0.653131 0.045048 0.659250
Si Si4 0.395011 0.084966 0.659759
Si Si5 0.141083 0.327185 0.538654
Si Si6 0.853479 0.327957 0.495292
Si Si7 0.517770 0.714782 0.426706
Si Si8 0.677840 0.696269 0.747898
O O1 0.914072 0.450425 0.221709
O O2 0.764480 0.716633 0.435880
O O3 0.902201 0.500126 0.379721
O O4 0.015988 0.801070 0.176360
O O5 0.294398 0.884376 0.746689
O O6 0.205410 0.457452 0.762477
O O7 0.357545 0.384630 0.686756
O O8 0.167497 0.565806 0.934624
O O9 0.778900 0.121260 0.534168
O O10 0.588060 0.216155 0.783191
O O11 0.625440 0.066377 0.609159
O O12 0.632151 0.766518 0.719049
O O13 0.485382 0.949216 0.513372
O O14 0.909755 0.155945 0.496557
O O15 0.786672 0.538054 0.612597
O O16 0.588929 0.481031 0.382811
#
# Coordination Sequence:
#
# PCOD9140030 Si02
#       8
#     4   4   4   4   4   4   4   4
#     4  11  25  48  77 112 160 211 274 338 413 490
#     4  11  26  48  76 112 155 207 266 336 408 488
#     4  11  24  43  70 107 149 204 265 324 411 485
#     4  11  26  48  75 111 156 208 266 332 409 487
#     4  11  25  48  77 115 157 216 271 340 408 493
#     4  11  22  46  71 109 151 204 265 339 407 492
#     4  11  25  41  74 110 151 206 270 336 411 490
#     4  11  25  42  76 108 155 206 267 339 411 495
#
# _framework density 27.094944000000002
#
# number of rings (size 3 to 8) (size 9 to 14) (size 15 to 20)
#    0.000    1.000    3.750    1.500    5.250    3.000 
#    0.000    5.000    0.000    0.000    0.000    0.000 
#    0.000    0.000    0.000    0.000    0.000    0.000 
#
# Total GULP energy -89093.713953 kJ/mol
# GULP energy per Si atom -5568.357122 kJ/mol
# Density = 2.703327 g / cm^3
# Si number density = 27.094944 Si / 1000 Ang^3
#
#
#
# Elastic Constant Matrix: (Units=GPa)
#
#
# Indices 1 2 3 4 5 6 
#
# 1 130.2647 13.1956 41.4567 0.0503 14.9459 0.0073
# 2 13.1956 57.9025 37.3449 0.2418 12.4106 -0.0996
# 3 41.4567 37.3449 168.1434 0.0890 -14.1841 -0.0792
# 4 0.0503 0.2418 0.0890 5.8757 -0.1383 -7.5486
# 5 14.9459 12.4106 -14.1841 -0.1383 39.7995 0.0696
# 6 0.0073 -0.0996 -0.0792 -7.5486 0.0696 38.2120
#
#
#
# Elastic Compliance Matrix: (Units=1/GPa)
#
#
# Indices 1 2 3 4 5 6 
#
# 1 0.009013 0.000718 -0.002769 -0.000227 -0.004596 -0.000042
# 2 0.000718 0.023141 -0.006132 -0.001353 -0.009675 -0.000202
# 3 -0.002769 -0.006132 0.008496 0.000371 0.005981 0.000065
# 4 -0.000227 -0.001353 0.000371 0.228179 0.001354 0.045071
# 5 -0.004596 -0.009675 0.005981 0.001354 0.032005 0.000197
# 6 -0.000042 -0.000202 0.000065 0.045071 0.000197 0.035073
#
#
# Mechanical properties :
#
#
# Convention : Reuss Voigt Hill
#
# Bulk Modulus (GPa) = 41.18058 60.03388 50.60723
# Shear Modulus (GPa) = 13.87469 34.39831 24.13650
#
# Velocity S-wave (km/s) = 2.26537 3.56694 2.98789
# Velocity P-wave (km/s) = 4.69831 6.25851 5.53368
#
# Compressibility (1/GPa) = 0.02428329
#
# Stress axis : x y z
#
# Youngs Moduli (GPa) = 110.95508 43.21340 117.69606
#
# Poissons Ratio (x) = -0.03103 0.32593
# Poissons Ratio (y) = -0.07968 0.72174
# Poissons Ratio (z) = 0.30726 0.26500
#
# Static dielectric constant tensor:
#      x y z
#    x 2.200760 -0.000040 -0.281830 
#    y -0.000040 2.320250 -0.000080 
#    z -0.281830 -0.000080 2.551240 
# 
# From -- ./inp_files/34439.got.cif
#   From: 2010.05.17/outbox.cif.g08.bks.cpg/sg9_18_cif.got.tgz:34439.got - 2010.06.03 20:04:27.
