data_PCOD9140937
_publ_section_title
;
Structure prediction by ZEFSAII (Michael W. Deem and Ramdas Pophale) SiO2 
 PCOD9140937
Probable space group: C C
;
_chemical_formula_sum "Si O2"
_cell_formula_units_Z 32
_cell_length_a 7.127309
_cell_length_b 12.260322
_cell_length_c 13.999151
_cell_angle_alpha 90.000000
_cell_angle_beta 69.394867
_cell_angle_gamma 90.000000
_cell_volume 1145.033012
_symmetry_space_group_name_H-M "C C"
_symmetry_group_IT_number 9
_symmetry_cell_setting 'monoclinic'
loop_
_space_group_symop_operation_xyz
x,y,z
x,-y,1/2+z
1/2+x,1/2+y,z
1/2+x,1/2-y,1/2+z
loop_
_atom_site_type_symbol
_atom_site_label
_atom_site_fract_x
_atom_site_fract_y
_atom_site_fract_z
Si Si1 0.224590 0.801368 0.100660
Si Si2 0.334176 0.375364 0.730858
Si Si3 0.075305 0.002142 0.930119
Si Si4 0.802668 0.165721 0.571393
Si Si5 0.861918 0.607883 0.006005
Si Si6 0.697646 0.874783 0.285276
Si Si7 0.976718 0.757193 0.378276
Si Si8 0.752998 0.471175 0.704487
O O1 0.289631 0.688614 0.140602
O O2 0.003050 0.806090 0.095978
O O3 0.232596 0.902710 0.173816
O O4 0.362512 0.806749 0.981911
O O5 0.279881 0.502920 0.753151
O O6 0.567831 0.388881 0.713421
O O7 0.183719 0.305296 0.823058
O O8 0.192351 0.022468 0.006574
O O9 0.006222 0.118676 0.905598
O O10 0.239515 0.966011 0.821210
O O11 0.882543 0.927999 0.986617
O O12 0.761945 0.273676 0.520774
O O13 0.641675 0.149534 0.684458
O O14 0.029182 0.612101 0.895702
O O15 0.923708 0.573709 0.102323
O O16 0.840516 0.781512 0.307692
#
# Coordination Sequence:
#
# PCOD9140937 Si02
#       8
#     4   4   4   4   4   4   4   4
#     4  12  23  48  76 110 162 205 259 338 395 467
#     4  12  23  45  81 106 157 207 260 330 411 464
#     4  12  27  51  76 116 164 204 266 343 391 490
#     4  12  26  48  75 109 165 206 256 342 396 472
#     4  12  29  46  78 113 156 216 261 323 419 474
#     4  12  25  49  72 119 157 203 275 327 400 489
#     4  12  25  45  82 114 151 214 267 328 408 471
#     4  12  26  52  76 119 164 203 276 339 394 491
#
# _framework density 27.946791999999999
#
# number of rings (size 3 to 8) (size 9 to 14) (size 15 to 20)
#    0.000    0.000    7.500    2.250    3.500    1.000 
#    4.500    0.000    0.000    0.000    0.000    0.000 
#    0.000    0.000    0.000    0.000    0.000    0.000 
#
# Total GULP energy -89559.736985 kJ/mol
# GULP energy per Si atom -5597.483562 kJ/mol
# Density = 2.788318 g / cm^3
# Si number density = 27.946792 Si / 1000 Ang^3
#
#
#
# Elastic Constant Matrix: (Units=GPa)
#
#
# Indices 1 2 3 4 5 6 
#
# 1 89.2597 23.2529 18.0238 0.0000 4.0229 0.0000
# 2 23.2529 187.4831 45.3733 0.0000 7.0177 0.0000
# 3 18.0238 45.3733 227.5475 0.0000 -11.8448 0.0000
# 4 0.0000 0.0000 0.0000 39.7401 0.0000 -15.4233
# 5 4.0229 7.0177 -11.8448 0.0000 36.1355 0.0000
# 6 0.0000 0.0000 0.0000 -15.4233 0.0000 30.3695
#
#
#
# Elastic Compliance Matrix: (Units=1/GPa)
#
#
# Indices 1 2 3 4 5 6 
#
# 1 0.011734 -0.001224 -0.000754 0.000000 -0.001316 0.000000
# 2 -0.001224 0.005811 -0.001133 0.000000 -0.001364 0.000000
# 3 -0.000754 -0.001133 0.004778 0.000000 0.001870 0.000000
# 4 0.000000 0.000000 0.000000 0.031341 0.000000 0.015917
# 5 -0.001316 -0.001364 0.001870 0.000000 0.028698 0.000000
# 6 0.000000 0.000000 0.000000 0.015917 0.000000 0.041011
#
#
# Mechanical properties :
#
#
# Convention : Reuss Voigt Hill
#
# Bulk Modulus (GPa) = 62.10606 75.28780 68.69693
# Shear Modulus (GPa) = 37.04820 49.09170 43.06995
#
# Velocity S-wave (km/s) = 3.64492 4.19574 3.93000
# Velocity P-wave (km/s) = 6.32338 7.10426 6.72517
#
# Compressibility (1/GPa) = 0.01610149
#
# Stress axis : x y z
#
# Youngs Moduli (GPa) = 85.22569 172.09501 209.30954
#
# Poissons Ratio (x) = 0.21057 0.15780
# Poissons Ratio (y) = 0.10428 0.23709
# Poissons Ratio (z) = 0.06425 0.19494
#
# Static dielectric constant tensor:
#      x y z
#    x 2.238380 0.000000 0.000020 
#    y 0.000000 2.162940 0.000000 
#    z 0.000020 0.000000 2.265730 
# 
# From -- ./inp_files/22860.got.cif
#   From: 2010.05.17/outbox.cif.g08.bks.cpg/sg9_12_cif.got.tgz:22860.got - 2010.06.03 20:04:27.
