data_PCOD9140724
_publ_section_title
;
Structure prediction by ZEFSAII (Michael W. Deem and Ramdas Pophale) SiO2 
 PCOD9140724
Probable space group: C C
;
_chemical_formula_sum "Si O2"
_cell_formula_units_Z 28
_cell_length_a 13.468207
_cell_length_b 5.129865
_cell_length_c 18.459104
_cell_angle_alpha 90.000000
_cell_angle_beta 54.203396
_cell_angle_gamma 90.000000
_cell_volume 1034.427191
_symmetry_space_group_name_H-M "C C"
_symmetry_group_IT_number 9
_symmetry_cell_setting 'monoclinic'
loop_
_space_group_symop_operation_xyz
x,y,z
x,-y,1/2+z
1/2+x,1/2+y,z
1/2+x,1/2-y,1/2+z
loop_
_atom_site_type_symbol
_atom_site_label
_atom_site_fract_x
_atom_site_fract_y
_atom_site_fract_z
Si Si1 0.646960 0.838350 0.984770
Si Si2 0.278340 0.733458 0.675496
Si Si3 0.304823 0.066549 0.803075
Si Si4 0.985779 0.031317 0.166470
Si Si5 0.352602 0.417762 0.995466
Si Si6 0.556554 0.818319 0.756238
Si Si7 0.475918 0.076646 0.440038
O O1 0.709547 0.613290 0.908533
O O2 0.574576 0.002009 0.957078
O O3 0.560866 0.730149 0.084851
O O4 0.751467 0.996133 0.980652
O O5 0.417768 0.660295 0.640389
O O6 0.302418 0.774448 0.580051
O O7 0.170202 0.517005 0.715273
O O8 0.251573 0.935874 0.752179
O O9 0.365813 0.341320 0.754749
O O10 0.426918 0.922911 0.779546
O O11 0.073792 0.911587 0.190585
O O12 0.397503 0.689072 0.009721
O O13 0.435140 0.196381 0.922793
O O14 0.526132 0.753737 0.851558
#
# Coordination Sequence:
#
# PCOD9140724 Si02
#       7
#     4   4   4   4   4   4   4
#     4  12  26  46  82 108 160 206 268 326 390 480
#     4  11  26  45  77 109 157 204 263 331 403 471
#     4  11  25  48  73 115 154 208 266 328 400 480
#     4  11  25  48  73 115 154 208 266 328 400 480
#     4  12  28  50  76 115 157 205 262 322 396 474
#     4  11  26  45  77 109 157 204 263 331 403 471
#     4  12  28  50  76 115 157 205 262 322 396 474
#
# _framework density 27.06812
#
# number of rings (size 3 to 8) (size 9 to 14) (size 15 to 20)
#    0.000    0.571    2.857    3.429    4.000    5.714 
#    0.000    0.000    0.000    0.000    0.000    0.000 
#    0.000    0.000    0.000    0.000    0.000    0.000 
#
# Total GULP energy -78212.784875 kJ/mol
# GULP energy per Si atom -5586.627491 kJ/mol
# Density = 2.700651 g / cm^3
# Si number density = 27.068120 Si / 1000 Ang^3
#
#
#
# Elastic Constant Matrix: (Units=GPa)
#
#
# Indices 1 2 3 4 5 6 
#
# 1 128.4802 28.6452 0.9162 0.0062 31.2786 0.0150
# 2 28.6452 96.0593 7.7620 0.0242 -2.1516 0.0273
# 3 0.9162 7.7620 48.1675 0.0012 19.1586 0.0025
# 4 0.0062 0.0242 0.0012 34.2320 0.0007 5.5405
# 5 31.2786 -2.1516 19.1586 0.0007 51.8597 0.0027
# 6 0.0150 0.0273 0.0025 5.5405 0.0027 42.8027
#
#
#
# Elastic Compliance Matrix: (Units=1/GPa)
#
#
# Indices 1 2 3 4 5 6 
#
# 1 0.010430 -0.003561 0.003442 0.000001 -0.007710 -0.000001
# 2 -0.003561 0.011833 -0.003386 -0.000007 0.003890 -0.000005
# 3 0.003442 -0.003386 0.025933 0.000001 -0.011797 0.000000
# 4 0.000001 -0.000007 0.000001 0.029838 -0.000001 -0.003862
# 5 -0.007710 0.003890 -0.011797 -0.000001 0.028453 -0.000001
# 6 -0.000001 -0.000005 0.000000 -0.003862 -0.000001 0.023863
#
#
# Mechanical properties :
#
#
# Convention : Reuss Voigt Hill
#
# Bulk Modulus (GPa) = 24.28026 38.59486 31.43756
# Shear Modulus (GPa) = 33.09334 41.47113 37.28223
#
# Velocity S-wave (km/s) = 3.50036 3.91845 3.71529
# Velocity P-wave (km/s) = 5.03251 5.89591 5.48124
#
# Compressibility (1/GPa) = 0.04118572
#
# Stress axis : x y z
#
# Youngs Moduli (GPa) = 95.88028 84.51023 38.56030
#
# Poissons Ratio (x) = 0.30094 -0.13273
# Poissons Ratio (y) = 0.34143 0.13057
# Poissons Ratio (z) = -0.33003 0.28617
#
# Static dielectric constant tensor:
#      x y z
#    x 2.223820 0.000010 -0.240380 
#    y 0.000010 3.111010 -0.000060 
#    z -0.240380 -0.000060 2.348790 
# 
# From -- ./inp_files/30337.got.cif
#   From: 2010.05.17/outbox.cif.g08.bks.cpg/sg9_16_cif.got.tgz:30337.got - 2010.06.03 20:04:27.
