data_PCOD9140121
_publ_section_title
;
Structure prediction by ZEFSAII (Michael W. Deem and Ramdas Pophale) SiO2 
 PCOD9140121
Probable space group: C C
;
_chemical_formula_sum "Si O2"
_cell_formula_units_Z 24
_cell_length_a 4.993997
_cell_length_b 24.714464
_cell_length_c 7.842112
_cell_angle_alpha 90.000000
_cell_angle_beta 79.958219
_cell_angle_gamma 90.000000
_cell_volume 953.077050
_symmetry_space_group_name_H-M "C C"
_symmetry_group_IT_number 9
_symmetry_cell_setting 'monoclinic'
loop_
_space_group_symop_operation_xyz
x,y,z
x,-y,1/2+z
1/2+x,1/2+y,z
1/2+x,1/2-y,1/2+z
loop_
_atom_site_type_symbol
_atom_site_label
_atom_site_fract_x
_atom_site_fract_y
_atom_site_fract_z
Si Si1 0.444110 0.635009 0.819860
Si Si2 0.821293 0.194844 0.352851
Si Si3 0.419023 0.085284 0.964072
Si Si4 0.244944 0.225724 0.575213
Si Si5 0.358685 0.578663 0.470698
Si Si6 0.389908 0.972378 0.828718
O O1 0.629156 0.608229 0.942796
O O2 0.586616 0.689106 0.733747
O O3 0.427831 0.597831 0.652238
O O4 0.134850 0.633094 0.915733
O O5 0.527736 0.199615 0.479277
O O6 0.806268 0.219046 0.166614
O O7 0.912341 0.132808 0.354029
O O8 0.041343 0.228308 0.438499
O O9 0.474372 0.034457 0.832422
O O10 0.439987 0.058041 0.146258
O O11 0.569932 0.532011 0.399925
O O12 0.059726 0.559767 0.452654
#
# Coordination Sequence:
#
# PCOD9140121 Si02
#       6
#     4   4   4   4   4   4
#     4  11  23  43  65  92 129 170 213 265 324 384
#     4  11  24  43  67  97 132 175 218 269 327 386
#     4  12  25  42  65  95 127 167 214 268 324 386
#     4  11  24  43  67  97 132 175 218 269 327 386
#     4  11  23  43  65  92 129 170 213 265 324 384
#     4  12  25  42  65  95 127 167 214 268 324 386
#
# _framework density 25.181594
#
# number of rings (size 3 to 8) (size 9 to 14) (size 15 to 20)
#    0.000    0.667    0.000   10.000    0.000    4.000 
#    0.000    0.000    0.000    0.000    0.000    0.000 
#    0.000    0.000    0.000    0.000    0.000    0.000 
#
# Total GULP energy -67265.811739 kJ/mol
# GULP energy per Si atom -5605.484312 kJ/mol
# Density = 2.512428 g / cm^3
# Si number density = 25.181594 Si / 1000 Ang^3
#
#
#
# Elastic Constant Matrix: (Units=GPa)
#
#
# Indices 1 2 3 4 5 6 
#
# 1 125.2826 17.3555 27.8456 0.0000 35.1331 0.0000
# 2 17.3555 84.9411 14.1520 0.0000 14.9350 0.0000
# 3 27.8456 14.1520 99.5253 0.0000 28.7851 0.0000
# 4 0.0000 0.0000 0.0000 -2.3965 0.0000 -23.5203
# 5 35.1331 14.9350 28.7851 0.0000 31.0763 0.0000
# 6 0.0000 0.0000 0.0000 -23.5203 0.0000 4.8737
#
#
#
# Elastic Compliance Matrix: (Units=1/GPa)
#
#
# Indices 1 2 3 4 5 6 
#
# 1 0.011729 -0.000074 0.000756 0.000000 -0.013925 0.000000
# 2 -0.000074 0.012860 -0.000061 0.000000 -0.006040 0.000000
# 3 0.000756 -0.000061 0.013774 0.000000 -0.013584 0.000000
# 4 0.000000 0.000000 0.000000 -0.008628 0.000000 -0.041637
# 5 -0.013925 -0.006040 -0.013584 0.000000 0.063408 0.000000
# 6 0.000000 0.000000 0.000000 -0.041637 0.000000 0.004242
#
#
# Mechanical properties :
#
#
# Convention : Reuss Voigt Hill
#
# Bulk Modulus (GPa) = 25.24880 47.60612 36.42746
# Shear Modulus (GPa) = 45.72710 23.40375 34.56543
#
# Velocity S-wave (km/s) = 4.26595 3.05191 3.70894
# Velocity P-wave (km/s) = 5.85772 5.60045 5.73053
#
# Compressibility (1/GPa) = 0.03960584
#
# Stress axis : x y z
#
# Youngs Moduli (GPa) = 85.25712 77.75921 72.60300
#
# Poissons Ratio (x) = 0.00576 -0.05492
# Poissons Ratio (y) = 0.00632 0.00442
# Poissons Ratio (z) = -0.06450 0.00474
#
# Static dielectric constant tensor:
#      x y z
#    x 1.893310 0.000000 -0.038290 
#    y 0.000000 1.936030 0.000000 
#    z -0.038290 0.000000 1.978310 
# 
# From -- ./inp_files/3954.got.cif
#   From: 2010.05.17/outbox.cif.g08.bks.cpg/sg9_2_cif.got.tgz:3954.got - 2010.06.03 20:04:27.
