data_PCOD9140900
_publ_section_title
;
Structure prediction by ZEFSAII (Michael W. Deem and Ramdas Pophale) SiO2 
 PCOD9140900
Probable space group: C C
;
_chemical_formula_sum "Si O2"
_cell_formula_units_Z 28
_cell_length_a 14.779793
_cell_length_b 16.656591
_cell_length_c 11.870481
_cell_angle_alpha 90.000000
_cell_angle_beta 25.759356
_cell_angle_gamma 90.000000
_cell_volume 1270.003294
_symmetry_space_group_name_H-M "C C"
_symmetry_group_IT_number 9
_symmetry_cell_setting 'monoclinic'
loop_
_space_group_symop_operation_xyz
x,y,z
x,-y,1/2+z
1/2+x,1/2+y,z
1/2+x,1/2-y,1/2+z
loop_
_atom_site_type_symbol
_atom_site_label
_atom_site_fract_x
_atom_site_fract_y
_atom_site_fract_z
Si Si1 0.996500 0.679382 0.324150
Si Si2 0.152832 0.877185 0.386713
Si Si3 0.088985 0.949486 0.036421
Si Si4 0.869441 0.856100 0.114226
Si Si5 0.431589 0.176398 0.132563
Si Si6 0.933349 0.133562 0.923455
Si Si7 0.605853 0.717669 0.161846
O O1 0.820020 0.646174 0.604627
O O2 0.969321 0.664661 0.222806
O O3 0.017677 0.775674 0.310666
O O4 0.202492 0.638120 0.137022
O O5 0.946848 0.882754 0.540443
O O6 0.145218 0.811070 0.491472
O O7 0.179647 0.963370 0.413600
O O8 0.894216 0.928822 0.173863
O O9 0.045670 0.929482 0.215218
O O10 0.241022 0.880262 0.820361
O O11 0.631734 0.852416 0.338901
O O12 0.890114 0.769688 0.154915
O O13 0.034596 0.851409 0.828589
O O14 0.352339 0.757219 0.429745
#
# Coordination Sequence:
#
# PCOD9140900 Si02
#       7
#     4   4   4   4   4   4   4
#     4  12  22  44  79 108 134 187 261 313 363 454
#     4  12  30  45  70 108 155 193 244 320 395 449
#     4  12  26  45  69 109 149 185 250 319 389 439
#     4  12  23  43  74 108 140 190 257 307 370 457
#     4  12  20  42  74 108 134 186 251 316 366 451
#     4  12  23  45  75 104 141 192 251 305 371 460
#     4  12  28  52  77 107 155 209 254 306 384 482
#
# _framework density 22.047187000000001
#
# number of rings (size 3 to 8) (size 9 to 14) (size 15 to 20)
#    0.000    0.000    8.571    0.857    4.000    1.143 
#    0.000    0.000    0.000    0.000    0.000    0.000 
#    0.000    0.000    0.000    0.000    0.000    0.000 
#
# Total GULP energy -77964.426709 kJ/mol
# GULP energy per Si atom -5568.887622 kJ/mol
# Density = 2.199701 g / cm^3
# Si number density = 22.047187 Si / 1000 Ang^3
#
#
#
# Elastic Constant Matrix: (Units=GPa)
#
#
# Indices 1 2 3 4 5 6 
#
# 1 95.6865 0.9042 8.1703 -0.0027 5.8252 0.0059
# 2 0.9042 51.2206 18.1771 0.0037 1.2148 0.0012
# 3 8.1703 18.1771 70.9246 -0.0014 -5.0151 0.0105
# 4 -0.0027 0.0037 -0.0014 46.6969 -0.0035 26.1253
# 5 5.8252 1.2148 -5.0151 -0.0035 31.8080 -0.0003
# 6 0.0059 0.0012 0.0105 26.1253 -0.0003 26.7331
#
#
#
# Elastic Compliance Matrix: (Units=1/GPa)
#
#
# Indices 1 2 3 4 5 6 
#
# 1 0.010709 0.000392 -0.001491 0.000003 -0.002211 -0.000005
# 2 0.000392 0.021583 -0.005704 -0.000006 -0.001795 0.000007
# 3 -0.001491 -0.005704 0.015945 0.000009 0.003005 -0.000015
# 4 0.000003 -0.000006 0.000009 0.047247 0.000006 -0.046172
# 5 -0.002211 -0.001795 0.003005 0.000006 0.032386 -0.000006
# 6 -0.000005 0.000007 -0.000015 -0.046172 -0.000006 0.082529
#
#
# Mechanical properties :
#
#
# Convention : Reuss Voigt Hill
#
# Bulk Modulus (GPa) = 28.87344 30.25941 29.56643
# Shear Modulus (GPa) = 21.22713 33.75295 27.49004
#
# Velocity S-wave (km/s) = 3.10628 3.91697 3.53494
# Velocity P-wave (km/s) = 5.09803 5.84906 5.48641
#
# Compressibility (1/GPa) = 0.03463390
#
# Stress axis : x y z
#
# Youngs Moduli (GPa) = 93.37968 46.33247 62.71384
#
# Poissons Ratio (x) = -0.01818 0.09348
# Poissons Ratio (y) = -0.03664 0.35770
# Poissons Ratio (z) = 0.13919 0.26426
#
# Static dielectric constant tensor:
#      x y z
#    x 1.902150 0.000000 -0.133990 
#    y 0.000000 1.772330 0.000000 
#    z -0.133990 0.000000 1.944860 
# 
# From -- ./inp_files/18439.got.cif
#   From: 2010.05.17/outbox.cif.g08.bks.cpg/sg9_10_cif.got.tgz:18439.got - 2010.06.03 20:04:27.
