data_PCOD9140270
_publ_section_title
;
Structure prediction by ZEFSAII (Michael W. Deem and Ramdas Pophale) SiO2 
 PCOD9140270
Probable space group: C C
;
_chemical_formula_sum "Si O2"
_cell_formula_units_Z 32
_cell_length_a 19.335711
_cell_length_b 8.871834
_cell_length_c 9.124836
_cell_angle_alpha 90.000000
_cell_angle_beta 104.009541
_cell_angle_gamma 90.000000
_cell_volume 1518.744443
_symmetry_space_group_name_H-M "C C"
_symmetry_group_IT_number 9
_symmetry_cell_setting 'monoclinic'
loop_
_space_group_symop_operation_xyz
x,y,z
x,-y,1/2+z
1/2+x,1/2+y,z
1/2+x,1/2-y,1/2+z
loop_
_atom_site_type_symbol
_atom_site_label
_atom_site_fract_x
_atom_site_fract_y
_atom_site_fract_z
Si Si1 0.461430 0.834964 0.736130
Si Si2 0.812817 0.183457 0.207892
Si Si3 0.751075 0.327947 0.908068
Si Si4 0.820612 0.164947 0.689792
Si Si5 0.583222 0.666485 0.303639
Si Si6 0.741770 0.322697 0.415912
Si Si7 0.083724 0.842539 0.450832
Si Si8 0.455760 0.152721 0.881127
O O1 0.402687 0.708659 0.742577
O O2 0.533923 0.778985 0.846911
O O3 0.464637 0.853696 0.561770
O O4 0.439791 0.989911 0.803439
O O5 0.748963 0.279317 0.250050
O O6 0.889050 0.242402 0.302447
O O7 0.805829 0.005596 0.224521
O O8 0.801388 0.224573 0.032863
O O9 0.774233 0.283977 0.757435
O O10 0.666475 0.298956 0.879552
O O11 0.764836 0.504094 0.945739
O O12 0.795150 0.202367 0.513543
O O13 0.567441 0.506075 0.372509
O O14 0.527716 0.784258 0.343120
O O15 0.575676 0.656107 0.122886
O O16 0.664412 0.307213 0.444732
#
# Coordination Sequence:
#
# PCOD9140270 Si02
#       8
#     4   4   4   4   4   4   4   4
#     4  12  27  46  72  99 141 187 236 296 353 427
#     4  12  27  42  72 104 141 185 232 294 347 415
#     4  11  25  43  75 101 141 187 228 289 344 425
#     4  12  25  46  68 104 142 178 238 289 351 415
#     4  11  25  46  71 104 139 185 236 286 356 418
#     4  11  23  47  69 103 140 182 236 279 354 417
#     4  11  25  45  74 101 140 185 232 293 350 425
#     4  12  27  47  69 102 140 187 240 290 357 422
#
# _framework density 21.070036999999999
#
# number of rings (size 3 to 8) (size 9 to 14) (size 15 to 20)
#    0.000    0.500    2.500    5.250   10.500    2.000 
#    0.000    0.000    0.000    0.000    0.000    0.000 
#    0.000    0.000    0.000    0.000    0.000    0.000 
#
# Total GULP energy -89476.335571 kJ/mol
# GULP energy per Si atom -5592.270973 kJ/mol
# Density = 2.102208 g / cm^3
# Si number density = 21.070037 Si / 1000 Ang^3
#
#
#
# Elastic Constant Matrix: (Units=GPa)
#
#
# Indices 1 2 3 4 5 6 
#
# 1 63.3242 39.7358 25.0582 0.0000 -6.1490 0.0000
# 2 39.7358 100.2589 24.8741 0.0000 6.8775 0.0000
# 3 25.0582 24.8741 86.1851 0.0000 11.1253 0.0000
# 4 0.0000 0.0000 0.0000 35.5076 0.0000 -1.7878
# 5 -6.1490 6.8775 11.1253 0.0000 33.2592 0.0000
# 6 0.0000 0.0000 0.0000 -1.7878 0.0000 33.0422
#
#
#
# Elastic Compliance Matrix: (Units=1/GPa)
#
#
# Indices 1 2 3 4 5 6 
#
# 1 0.024332 -0.008819 -0.005586 0.000000 0.008191 0.000000
# 2 -0.008819 0.013989 -0.000929 0.000000 -0.004212 0.000000
# 3 -0.005586 -0.000929 0.014218 0.000000 -0.005597 0.000000
# 4 0.000000 0.000000 0.000000 0.028240 0.000000 0.001528
# 5 0.008191 -0.004212 -0.005597 0.000000 0.034324 0.000000
# 6 0.000000 0.000000 0.000000 0.001528 0.000000 0.030347
#
#
# Mechanical properties :
#
#
# Convention : Reuss Voigt Hill
#
# Bulk Modulus (GPa) = 45.72814 47.67827 46.70320
# Shear Modulus (GPa) = 27.26132 31.03513 29.14822
#
# Velocity S-wave (km/s) = 3.60090 3.84207 3.72344
# Velocity P-wave (km/s) = 6.24810 6.50842 6.37959
#
# Compressibility (1/GPa) = 0.02186837
#
# Stress axis : x y z
#
# Youngs Moduli (GPa) = 41.09841 71.48405 70.33413
#
# Poissons Ratio (x) = 0.63045 0.39291
# Poissons Ratio (y) = 0.36246 0.06537
# Poissons Ratio (z) = 0.22959 0.06644
#
# Static dielectric constant tensor:
#      x y z
#    x 1.738500 0.000000 0.007570 
#    y 0.000000 1.705680 0.000000 
#    z 0.007570 0.000000 1.724690 
# 
# From -- ./inp_files/11359.got.cif
#   From: 2010.05.17/outbox.cif.g08.bks.cpg/sg9_6_cif.got.tgz:11359.got - 2010.06.03 20:04:27.
