data_PCOD9140412
_publ_section_title
;
Structure prediction by ZEFSAII (Michael W. Deem and Ramdas Pophale) SiO2 
 PCOD9140412
Probable space group: C C
;
_chemical_formula_sum "Si O2"
_cell_formula_units_Z 32
_cell_length_a 11.006722
_cell_length_b 14.105459
_cell_length_c 17.051791
_cell_angle_alpha 90.000000
_cell_angle_beta 34.223323
_cell_angle_gamma 90.000000
_cell_volume 1488.935832
_symmetry_space_group_name_H-M "C C"
_symmetry_group_IT_number 9
_symmetry_cell_setting 'monoclinic'
loop_
_space_group_symop_operation_xyz
x,y,z
x,-y,1/2+z
1/2+x,1/2+y,z
1/2+x,1/2-y,1/2+z
loop_
_atom_site_type_symbol
_atom_site_label
_atom_site_fract_x
_atom_site_fract_y
_atom_site_fract_z
Si Si1 0.466160 0.450121 0.211460
Si Si2 0.322820 0.685220 0.501628
Si Si3 0.708799 0.281602 0.044334
Si Si4 0.369669 0.090809 0.753713
Si Si5 0.555946 0.167379 0.981097
Si Si6 0.585105 0.632365 0.052549
Si Si7 0.168449 0.047498 0.242627
Si Si8 0.678847 0.753358 0.740219
O O1 0.605520 0.382916 0.080524
O O2 0.493876 0.555203 0.162002
O O3 0.565338 0.464234 0.245467
O O4 0.236520 0.397619 0.342996
O O5 0.484091 0.735452 0.477096
O O6 0.211552 0.776275 0.519581
O O7 0.476813 0.618712 0.367758
O O8 0.120285 0.618723 0.634791
O O9 0.632759 0.199554 0.026386
O O10 0.627720 0.268458 0.176750
O O11 0.965471 0.287619 0.898677
O O12 0.278541 0.171992 0.743007
O O13 0.304214 0.995584 0.742587
O O14 0.242883 0.091182 0.902766
O O15 0.342868 0.104482 0.099755
O O16 0.367534 0.670686 0.129985
#
# Coordination Sequence:
#
# PCOD9140412 Si02
#       8
#     4   4   4   4   4   4   4   4
#     4  12  27  45  71 110 144 193 252 305 369 448
#     4  11  26  48  74 103 149 194 241 311 380 440
#     4  12  24  47  70 105 142 195 241 305 375 441
#     4  11  24  46  72 107 142 188 249 305 366 443
#     4  12  26  47  72 104 149 192 243 305 381 441
#     4  11  26  45  72 108 143 194 246 305 376 443
#     4  12  25  46  69 105 143 192 246 305 368 440
#     4  11  24  44  76 100 144 188 246 301 369 444
#
# _framework density 21.491859999999999
#
# number of rings (size 3 to 8) (size 9 to 14) (size 15 to 20)
#    0.000    0.500    5.000    2.250    5.250    0.000 
#    2.250    0.000    0.000    0.000    0.000    0.000 
#    0.000    0.000    0.000    0.000    0.000    0.000 
#
# Total GULP energy -89299.180798 kJ/mol
# GULP energy per Si atom -5581.198800 kJ/mol
# Density = 2.144294 g / cm^3
# Si number density = 21.491860 Si / 1000 Ang^3
#
#
#
# Elastic Constant Matrix: (Units=GPa)
#
#
# Indices 1 2 3 4 5 6 
#
# 1 56.9560 27.2343 28.7743 -0.0002 -1.8342 0.0001
# 2 27.2343 92.1504 50.7241 -0.0024 -11.3087 0.0000
# 3 28.7743 50.7241 145.2776 -0.0057 -20.4345 0.0008
# 4 -0.0002 -0.0024 -0.0057 34.4655 0.0005 13.2710
# 5 -1.8342 -11.3087 -20.4345 0.0005 34.4278 0.0003
# 6 0.0001 0.0000 0.0008 13.2710 0.0003 17.1766
#
#
#
# Elastic Compliance Matrix: (Units=1/GPa)
#
#
# Indices 1 2 3 4 5 6 
#
# 1 0.021292 -0.005037 -0.002762 -0.000001 -0.002160 0.000001
# 2 -0.005037 0.014726 -0.003820 0.000000 0.002301 0.000000
# 3 -0.002762 -0.003820 0.009347 0.000002 0.004146 -0.000002
# 4 -0.000001 0.000000 0.000002 0.041302 0.000001 -0.031910
# 5 -0.002160 0.002301 0.004146 0.000001 0.032148 -0.000002
# 6 0.000001 0.000000 -0.000002 -0.031910 -0.000002 0.082873
#
#
# Mechanical properties :
#
#
# Convention : Reuss Voigt Hill
#
# Bulk Modulus (GPa) = 45.19573 56.42770 50.81172
# Shear Modulus (GPa) = 21.52366 29.72408 25.62387
#
# Velocity S-wave (km/s) = 3.16805 3.72296 3.45666
# Velocity P-wave (km/s) = 5.87000 6.69275 6.29483
#
# Compressibility (1/GPa) = 0.02212599
#
# Stress axis : x y z
#
# Youngs Moduli (GPa) = 46.96613 67.90832 106.98075
#
# Poissons Ratio (x) = 0.34207 0.29550
# Poissons Ratio (y) = 0.23658 0.40868
# Poissons Ratio (z) = 0.12973 0.25942
#
# Static dielectric constant tensor:
#      x y z
#    x 1.841510 0.000000 0.002790 
#    y 0.000000 1.814020 0.000000 
#    z 0.002790 0.000000 1.725800 
# 
# From -- ./inp_files/7422.got.cif
#   From: 2010.05.17/outbox.cif.g08.bks.cpg/sg9_4_cif.got.tgz:7422.got - 2010.06.03 20:04:27.
