data_PCOD9140841
_publ_section_title
;
Structure prediction by ZEFSAII (Michael W. Deem and Ramdas Pophale) SiO2 
 PCOD9140841
Probable space group: C C
;
_chemical_formula_sum "Si O2"
_cell_formula_units_Z 24
_cell_length_a 5.043565
_cell_length_b 13.639322
_cell_length_c 18.720019
_cell_angle_alpha 90.000000
_cell_angle_beta 130.123203
_cell_angle_gamma 90.000000
_cell_volume 984.703178
_symmetry_space_group_name_H-M "C C"
_symmetry_group_IT_number 9
_symmetry_cell_setting 'monoclinic'
loop_
_space_group_symop_operation_xyz
x,y,z
x,-y,1/2+z
1/2+x,1/2+y,z
1/2+x,1/2-y,1/2+z
loop_
_atom_site_type_symbol
_atom_site_label
_atom_site_fract_x
_atom_site_fract_y
_atom_site_fract_z
Si Si1 0.331270 0.224657 0.161770
Si Si2 0.621177 0.031455 0.284098
Si Si3 0.843987 0.786691 0.444019
Si Si4 0.321418 0.147711 0.656336
Si Si5 0.259942 0.910277 0.399225
Si Si6 0.164182 0.584263 0.457703
O O1 0.470047 0.129534 0.224736
O O2 0.642320 0.266127 0.168846
O O3 0.173526 0.308464 0.185400
O O4 0.023322 0.202593 0.052281
O O5 0.664385 0.052699 0.375344
O O6 0.372085 0.943171 0.217652
O O7 0.987632 0.988273 0.318892
O O8 0.458462 0.829730 0.385947
O O9 0.050874 0.852583 0.423264
O O10 0.906466 0.674766 0.430466
O O11 0.046349 0.117664 0.547681
O O12 0.548231 0.986068 0.479073
#
# Coordination Sequence:
#
# PCOD9140841 Si02
#       6
#     4   4   4   4   4   4
#     4  11  28  51  74 109 151 203 248 312 371 458
#     4  12  30  46  80 114 154 196 257 311 385 451
#     4  11  26  49  78 104 150 201 256 306 383 449
#     4  11  29  51  74 110 154 196 255 312 375 448
#     4  12  27  45  76 113 145 197 248 321 374 456
#     4  11  28  50  78 108 152 205 250 316 378 460
#
# _framework density 24.372827000000001
#
# number of rings (size 3 to 8) (size 9 to 14) (size 15 to 20)
#    0.000    0.667    1.667    3.000   14.000    0.000 
#    0.000    0.000    0.000    0.000    0.000    0.000 
#    0.000    0.000    0.000    0.000    0.000    0.000 
#
# Total GULP energy -67241.974302 kJ/mol
# GULP energy per Si atom -5603.497858 kJ/mol
# Density = 2.431735 g / cm^3
# Si number density = 24.372827 Si / 1000 Ang^3
#
#
#
# Elastic Constant Matrix: (Units=GPa)
#
#
# Indices 1 2 3 4 5 6 
#
# 1 130.0957 44.5640 41.5789 0.0001 1.4630 0.0005
# 2 44.5640 153.5295 59.4743 0.0000 -5.2140 0.0002
# 3 41.5789 59.4743 108.9754 0.0002 -13.3038 0.0002
# 4 0.0001 0.0000 0.0002 45.9245 0.0001 2.2103
# 5 1.4630 -5.2140 -13.3038 0.0001 31.8032 0.0002
# 6 0.0005 0.0002 0.0002 2.2103 0.0002 43.7363
#
#
#
# Elastic Compliance Matrix: (Units=1/GPa)
#
#
# Indices 1 2 3 4 5 6 
#
# 1 0.009173 -0.001625 -0.002842 0.000000 -0.001877 0.000000
# 2 -0.001625 0.008557 -0.004078 0.000000 -0.000228 0.000000
# 3 -0.002842 -0.004078 0.013089 0.000000 0.004938 0.000000
# 4 0.000000 0.000000 0.000000 0.021828 0.000000 -0.001103
# 5 -0.001877 -0.000228 0.004938 0.000000 0.033558 0.000000
# 6 0.000000 0.000000 0.000000 -0.001103 0.000000 0.022920
#
#
# Mechanical properties :
#
#
# Convention : Reuss Voigt Hill
#
# Bulk Modulus (GPa) = 72.84045 75.98168 74.41107
# Shear Modulus (GPa) = 38.22887 40.75836 39.49361
#
# Velocity S-wave (km/s) = 3.96473 4.09380 4.02978
# Velocity P-wave (km/s) = 7.13510 7.32038 7.22833
#
# Compressibility (1/GPa) = 0.01372864
#
# Stress axis : x y z
#
# Youngs Moduli (GPa) = 109.01763 116.86182 76.40001
#
# Poissons Ratio (x) = 0.18994 0.21713
# Poissons Ratio (y) = 0.17719 0.31155
# Poissons Ratio (z) = 0.30982 0.47654
#
# Static dielectric constant tensor:
#      x y z
#    x 1.923750 0.000000 0.038280 
#    y 0.000000 1.911140 0.000000 
#    z 0.038280 0.000000 1.993200 
# 
# From -- ./inp_files/32196.got.cif
#   From: 2010.05.17/outbox.cif.g08.bks.cpg/sg9_17_cif.got.tgz:32196.got - 2010.06.03 20:04:27.
