data_PCOD9140860
_publ_section_title
;
Structure prediction by ZEFSAII (Michael W. Deem and Ramdas Pophale) SiO2 
 PCOD9140860
Probable space group: C C
;
_chemical_formula_sum "Si O2"
_cell_formula_units_Z 24
_cell_length_a 4.922752
_cell_length_b 13.199447
_cell_length_c 13.385412
_cell_angle_alpha 90.000000
_cell_angle_beta 76.215065
_cell_angle_gamma 90.000000
_cell_volume 844.700504
_symmetry_space_group_name_H-M "C C"
_symmetry_group_IT_number 9
_symmetry_cell_setting 'monoclinic'
loop_
_space_group_symop_operation_xyz
x,y,z
x,-y,1/2+z
1/2+x,1/2+y,z
1/2+x,1/2-y,1/2+z
loop_
_atom_site_type_symbol
_atom_site_label
_atom_site_fract_x
_atom_site_fract_y
_atom_site_fract_z
Si Si1 0.505490 0.210584 0.894210
Si Si2 0.822304 0.240703 0.074064
Si Si3 0.956417 0.103051 0.724359
Si Si4 0.307472 0.992927 0.916927
Si Si5 0.708911 0.911278 0.035975
Si Si6 0.829373 0.891708 0.761541
O O1 0.789672 0.165031 0.819707
O O2 0.300992 0.113033 0.900387
O O3 0.625108 0.227954 0.996250
O O4 0.427223 0.299755 0.822950
O O5 0.690039 0.327041 0.156650
O O6 0.843828 0.145667 0.145544
O O7 0.111831 0.295514 0.017596
O O8 0.746264 0.083104 0.650198
O O9 0.026624 0.990778 0.755085
O O10 0.524424 0.930605 0.826745
O O11 0.474341 0.981088 0.007965
O O12 0.005058 0.945488 0.963962
#
# Coordination Sequence:
#
# PCOD9140860 Si02
#       6
#     4   4   4   4   4   4
#     4  11  27  55  89 131 175 235 299 365 451 531
#     4  12  27  52  89 129 176 233 297 369 450 534
#     4  11  26  53  85 126 174 224 297 358 444 523
#     4  11  28  53  87 125 182 228 298 361 445 526
#     4  12  25  55  84 128 177 230 287 365 440 531
#     4  11  27  54  90 123 174 230 298 366 440 531
#
# _framework density 28.412434999999999
#
# number of rings (size 3 to 8) (size 9 to 14) (size 15 to 20)
#    0.000    0.667    3.333    2.000    2.333    5.333 
#    9.000    1.667    0.000    0.000    0.000    0.000 
#    0.000    0.000    0.000    0.000    0.000    0.000 
#
# Total GULP energy -67371.877612 kJ/mol
# GULP energy per Si atom -5614.323134 kJ/mol
# Density = 2.834777 g / cm^3
# Si number density = 28.412435 Si / 1000 Ang^3
#
#
#
# Elastic Constant Matrix: (Units=GPa)
#
#
# Indices 1 2 3 4 5 6 
#
# 1 169.2494 67.6821 30.0149 0.0000 -2.4396 0.0000
# 2 67.6821 226.4022 37.6397 0.0000 7.4063 0.0000
# 3 30.0149 37.6397 108.4208 0.0000 18.2791 0.0000
# 4 0.0000 0.0000 0.0000 48.9223 0.0000 23.8181
# 5 -2.4396 7.4063 18.2791 0.0000 32.9560 0.0000
# 6 0.0000 0.0000 0.0000 23.8181 0.0000 28.2600
#
#
#
# Elastic Compliance Matrix: (Units=1/GPa)
#
#
# Indices 1 2 3 4 5 6 
#
# 1 0.006967 -0.001879 -0.001582 0.000000 0.001816 0.000000
# 2 -0.001879 0.005195 -0.001173 0.000000 -0.000656 0.000000
# 3 -0.001582 -0.001173 0.011080 0.000000 -0.005999 0.000000
# 4 0.000000 0.000000 0.000000 0.034665 0.000000 -0.029216
# 5 0.001816 -0.000656 -0.005999 0.000000 0.033953 0.000000
# 6 0.000000 0.000000 0.000000 -0.029216 0.000000 0.060010
#
#
# Mechanical properties :
#
#
# Convention : Reuss Voigt Hill
#
# Bulk Modulus (GPa) = 71.56476 86.08286 78.82381
# Shear Modulus (GPa) = 30.15778 46.61004 38.38391
#
# Velocity S-wave (km/s) = 3.26149 4.05468 3.67952
# Velocity P-wave (km/s) = 6.27898 7.23076 6.77162
#
# Compressibility (1/GPa) = 0.01397336
#
# Stress axis : x y z
#
# Youngs Moduli (GPa) = 143.54146 192.49052 90.25322
#
# Poissons Ratio (x) = 0.36168 0.14282
# Poissons Ratio (y) = 0.26971 0.10584
# Poissons Ratio (z) = 0.22714 0.22574
#
# Static dielectric constant tensor:
#      x y z
#    x 2.200520 0.000000 -0.048900 
#    y 0.000000 2.378000 0.000000 
#    z -0.048900 0.000000 2.299880 
# 
# From -- ./inp_files/12924.got.cif
#   From: 2010.05.17/outbox.cif.g08.bks.cpg/sg9_7_cif.got.tgz:12924.got - 2010.06.03 20:04:27.
