data_PCOD9140622
_publ_section_title
;
Structure prediction by ZEFSAII (Michael W. Deem and Ramdas Pophale) SiO2 
 PCOD9140622
Probable space group: C C
;
_chemical_formula_sum "Si O2"
_cell_formula_units_Z 24
_cell_length_a 7.195733
_cell_length_b 25.368781
_cell_length_c 5.424036
_cell_angle_alpha 90.000000
_cell_angle_beta 68.138568
_cell_angle_gamma 90.000000
_cell_volume 918.937441
_symmetry_space_group_name_H-M "C C"
_symmetry_group_IT_number 9
_symmetry_cell_setting 'monoclinic'
loop_
_space_group_symop_operation_xyz
x,y,z
x,-y,1/2+z
1/2+x,1/2+y,z
1/2+x,1/2-y,1/2+z
loop_
_atom_site_type_symbol
_atom_site_label
_atom_site_fract_x
_atom_site_fract_y
_atom_site_fract_z
Si Si1 0.760410 0.481527 0.791530
Si Si2 0.137421 0.438909 0.087530
Si Si3 0.499163 0.111652 0.162110
Si Si4 0.456173 0.365576 0.962458
Si Si5 0.567157 0.801523 0.966964
Si Si6 0.635922 0.321537 0.381400
O O1 0.666013 0.491368 0.573932
O O2 0.983821 0.511363 0.652976
O O3 0.795523 0.420047 0.825691
O O4 0.049201 0.407327 0.366000
O O5 0.371018 0.425901 0.024183
O O6 0.129831 0.414883 0.816138
O O7 0.528946 0.172360 0.214709
O O8 0.264719 0.326154 0.992977
O O9 0.532353 0.346097 0.190986
O O10 0.587333 0.352675 0.654668
O O11 0.371062 0.819494 0.210643
O O12 0.570968 0.739007 0.947563
#
# Coordination Sequence:
#
# PCOD9140622 Si02
#       6
#     4   4   4   4   4   4
#     4   8  14  27  50  87 111 143 197 243 296 367
#     4   9  17  32  58  84 118 150 198 251 300 366
#     4   9  18  32  56  87 116 152 202 246 300 369
#     4  11  25  43  61  93 123 167 213 259 310 378
#     4  11  25  43  63  90 128 170 210 263 309 374
#     4  12  27  39  64  89 128 168 216 256 315 366
#
# _framework density 26.117122999999999
#
# number of rings (size 3 to 8) (size 9 to 14) (size 15 to 20)
#    0.000    2.000    1.667    2.000    2.333    5.333 
#    0.000    0.000    0.000    0.000    0.000  112.000 
#    0.000    0.000    0.000    0.000    0.000    0.000 
#
# Total GULP energy -66948.686210 kJ/mol
# GULP energy per Si atom -5579.057184 kJ/mol
# Density = 2.605768 g / cm^3
# Si number density = 26.117123 Si / 1000 Ang^3
#
#
#
# Elastic Constant Matrix: (Units=GPa)
#
#
# Indices 1 2 3 4 5 6 
#
# 1 95.2272 26.0721 31.2236 0.0000 3.5109 0.0000
# 2 26.0721 130.9487 44.9062 0.0000 27.2698 0.0000
# 3 31.2236 44.9062 109.7057 0.0000 6.7360 0.0000
# 4 0.0000 0.0000 0.0000 49.2390 0.0000 6.0293
# 5 3.5109 27.2698 6.7360 0.0000 46.6199 0.0000
# 6 0.0000 0.0000 0.0000 6.0293 0.0000 46.7618
#
#
#
# Elastic Compliance Matrix: (Units=1/GPa)
#
#
# Indices 1 2 3 4 5 6 
#
# 1 0.011802 -0.001475 -0.002778 0.000000 0.000376 0.000000
# 2 -0.001475 0.010228 -0.003437 0.000000 -0.005375 0.000000
# 3 -0.002778 -0.003437 0.011277 0.000000 0.000590 0.000000
# 4 0.000000 0.000000 0.000000 0.020635 0.000000 -0.002661
# 5 0.000376 -0.005375 0.000590 0.000000 0.024481 0.000000
# 6 0.000000 0.000000 0.000000 -0.002661 0.000000 0.021728
#
#
# Mechanical properties :
#
#
# Convention : Reuss Voigt Hill
#
# Bulk Modulus (GPa) = 55.78388 60.03172 57.90780
# Shear Modulus (GPa) = 41.14993 44.10280 42.62637
#
# Velocity S-wave (km/s) = 3.97368 4.11378 4.04434
# Velocity P-wave (km/s) = 6.51606 6.75276 6.63546
#
# Compressibility (1/GPa) = 0.01792633
#
# Stress axis : x y z
#
# Youngs Moduli (GPa) = 84.72987 97.76798 88.67934
#
# Poissons Ratio (x) = 0.14424 0.24637
# Poissons Ratio (y) = 0.12500 0.30478
# Poissons Ratio (z) = 0.23540 0.33601
#
# Static dielectric constant tensor:
#      x y z
#    x 2.315010 0.000000 -0.080960 
#    y 0.000000 2.122320 0.000000 
#    z -0.080960 0.000000 2.005580 
# 
# From -- ./inp_files/1103.got.cif
#   From: 2010.05.17/outbox.cif.g08.bks.cpg/sg9_1_cif.got.tgz:1103.got - 2010.06.03 20:04:27.
