data_PCOD9140808
_publ_section_title
;
Structure prediction by ZEFSAII (Michael W. Deem and Ramdas Pophale) SiO2 
 PCOD9140808
Probable space group: C C
;
_chemical_formula_sum "Si O2"
_cell_formula_units_Z 32
_cell_length_a 7.600823
_cell_length_b 10.536999
_cell_length_c 19.604603
_cell_angle_alpha 90.000000
_cell_angle_beta 64.479974
_cell_angle_gamma 90.000000
_cell_volume 1416.939881
_symmetry_space_group_name_H-M "C C"
_symmetry_group_IT_number 9
_symmetry_cell_setting 'monoclinic'
loop_
_space_group_symop_operation_xyz
x,y,z
x,-y,1/2+z
1/2+x,1/2+y,z
1/2+x,1/2-y,1/2+z
loop_
_atom_site_type_symbol
_atom_site_label
_atom_site_fract_x
_atom_site_fract_y
_atom_site_fract_z
Si Si1 0.934910 0.632663 0.421620
Si Si2 0.509528 0.365381 0.314869
Si Si3 0.905741 0.639803 0.961614
Si Si4 0.872923 0.130810 0.683309
Si Si5 0.880300 0.868009 0.874034
Si Si6 0.642938 0.800486 0.550761
Si Si7 0.442618 0.208571 0.729823
Si Si8 0.975807 0.876063 0.592546
O O1 0.916523 0.483031 0.411144
O O2 0.763013 0.681584 0.499021
O O3 0.446516 0.231708 0.358009
O O4 0.147829 0.644727 0.419829
O O5 0.416477 0.371728 0.255911
O O6 0.441723 0.486479 0.369777
O O7 0.743470 0.368508 0.272073
O O8 0.966318 0.767981 0.912986
O O9 0.684549 0.646888 0.024219
O O10 0.041016 0.626794 0.005533
O O11 0.642742 0.134129 0.707454
O O12 0.976251 0.250272 0.629539
O O13 0.967538 0.007623 0.633840
O O14 0.935984 0.818324 0.789016
O O15 0.805057 0.876792 0.565187
O O16 0.437782 0.268252 0.655377
#
# Coordination Sequence:
#
# PCOD9140808 Si02
#       8
#     4   4   4   4   4   4   4   4
#     4  11  26  49  74 109 154 194 252 312 372 451
#     4  11  26  51  76 110 157 198 250 316 370 448
#     4  12  27  48  77 111 153 199 250 309 380 447
#     4  12  26  46  77 110 147 201 252 303 386 442
#     4  11  26  49  75 109 155 195 252 311 376 449
#     4  12  26  45  76 108 146 202 248 310 377 448
#     4  11  26  46  72 111 148 197 249 314 367 451
#     4  12  25  48  73 110 152 190 255 313 368 450
#
# _framework density 22.583881000000002
#
# number of rings (size 3 to 8) (size 9 to 14) (size 15 to 20)
#    0.000    0.500    6.250    0.750    3.500    7.000 
#    0.000    0.000    0.000    0.000    0.000    0.000 
#    0.000    0.000    0.000    0.000    0.000    0.000 
#
# Total GULP energy -89599.736309 kJ/mol
# GULP energy per Si atom -5599.983519 kJ/mol
# Density = 2.253248 g / cm^3
# Si number density = 22.583881 Si / 1000 Ang^3
#
#
#
# Elastic Constant Matrix: (Units=GPa)
#
#
# Indices 1 2 3 4 5 6 
#
# 1 126.3406 31.9979 59.9129 0.0000 1.6148 0.0000
# 2 31.9979 113.2582 59.2232 0.0000 16.3991 0.0000
# 3 59.9129 59.2232 91.8822 0.0000 1.4979 0.0000
# 4 0.0000 0.0000 0.0000 32.2314 0.0000 0.0322
# 5 1.6148 16.3991 1.4979 0.0000 44.8261 0.0000
# 6 0.0000 0.0000 0.0000 0.0322 0.0000 23.8205
#
#
#
# Elastic Compliance Matrix: (Units=1/GPa)
#
#
# Indices 1 2 3 4 5 6 
#
# 1 0.011548 0.001132 -0.008251 0.000000 -0.000554 0.000000
# 2 0.001132 0.014444 -0.009967 0.000000 -0.004992 0.000000
# 3 -0.008251 -0.009967 0.022636 0.000000 0.003187 0.000000
# 4 0.000000 0.000000 0.000000 0.031026 0.000000 -0.000042
# 5 -0.000554 -0.004992 0.003187 0.000000 0.024048 0.000000
# 6 0.000000 0.000000 0.000000 -0.000042 0.000000 0.041981
#
#
# Mechanical properties :
#
#
# Convention : Reuss Voigt Hill
#
# Bulk Modulus (GPa) = 69.17101 70.41654 69.79378
# Shear Modulus (GPa) = 27.07501 32.19874 29.63688
#
# Velocity S-wave (km/s) = 3.46622 3.77999 3.62650
# Velocity P-wave (km/s) = 6.83480 7.09217 6.96467
#
# Compressibility (1/GPa) = 0.01445692
#
# Stress axis : x y z
#
# Youngs Moduli (GPa) = 86.59412 69.23289 44.17813
#
# Poissons Ratio (x) = -0.07837 0.36450
# Poissons Ratio (y) = -0.09803 0.44031
# Poissons Ratio (z) = 0.71446 0.69003
#
# Static dielectric constant tensor:
#      x y z
#    x 1.807990 0.000000 -0.005160 
#    y 0.000000 1.843590 0.000000 
#    z -0.005160 0.000000 1.820510 
# 
# From -- ./inp_files/32008.got.cif
#   From: 2010.05.17/outbox.cif.g08.bks.cpg/sg9_17_cif.got.tgz:32008.got - 2010.06.03 20:04:27.
