data_PCOD9140939
_publ_section_title
;
Structure prediction by ZEFSAII (Michael W. Deem and Ramdas Pophale) SiO2 
 PCOD9140939
Probable space group: C C
;
_chemical_formula_sum "Si O2"
_cell_formula_units_Z 32
_cell_length_a 20.395161
_cell_length_b 16.960692
_cell_length_c 11.892706
_cell_angle_alpha 90.000000
_cell_angle_beta 160.539280
_cell_angle_gamma 90.000000
_cell_volume 1370.581747
_symmetry_space_group_name_H-M "C C"
_symmetry_group_IT_number 9
_symmetry_cell_setting 'monoclinic'
loop_
_space_group_symop_operation_xyz
x,y,z
x,-y,1/2+z
1/2+x,1/2+y,z
1/2+x,1/2-y,1/2+z
loop_
_atom_site_type_symbol
_atom_site_label
_atom_site_fract_x
_atom_site_fract_y
_atom_site_fract_z
Si Si1 0.698020 0.906309 0.308770
Si Si2 0.731401 0.581730 0.340088
Si Si3 0.339930 0.997072 0.213026
Si Si4 0.017961 0.654527 0.134200
Si Si5 0.746351 0.223078 0.299380
Si Si6 0.878853 0.161982 0.878974
Si Si7 0.554033 0.190152 0.754239
Si Si8 0.957830 0.056384 0.690170
O O1 0.777702 0.855972 0.334270
O O2 0.723752 0.860763 0.467356
O O3 0.789338 0.992508 0.437982
O O4 0.467944 0.926070 0.943471
O O5 0.874295 0.524553 0.638683
O O6 0.872185 0.643197 0.510290
O O7 0.585421 0.618192 0.195905
O O8 0.589422 0.551322 0.014863
O O9 0.409732 0.923124 0.405696
O O10 0.113942 0.023696 0.853973
O O11 0.085194 0.711682 0.138569
O O12 0.224390 0.637921 0.532557
O O13 0.888751 0.701065 0.018921
O O14 0.874342 0.142242 0.523168
O O15 0.645775 0.227670 0.014429
O O16 0.955393 0.251249 0.004844
#
# Coordination Sequence:
#
# PCOD9140939 Si02
#       8
#     4   4   4   4   4   4   4   4
#     4  12  27  46  76 107 148 192 248 306 373 450
#     4  12  23  46  72  99 148 184 242 304 365 440
#     4  12  26  47  74 111 145 193 247 309 377 438
#     4  12  28  49  73 107 149 193 248 306 371 449
#     4  12  28  49  73 107 149 193 248 306 371 449
#     4  12  27  46  74 106 147 193 246 304 376 447
#     4  12  27  46  74 106 147 193 246 304 376 447
#     4  12  26  47  74 111 145 193 247 309 377 438
#
# _framework density 23.347749
#
# number of rings (size 3 to 8) (size 9 to 14) (size 15 to 20)
#    0.000    0.000    6.250    2.250    7.000    2.000 
#    0.000    0.000    0.000    0.000    0.000    0.000 
#    0.000    0.000    0.000    0.000    0.000    0.000 
#
# Total GULP energy -89322.392111 kJ/mol
# GULP energy per Si atom -5582.649507 kJ/mol
# Density = 2.329461 g / cm^3
# Si number density = 23.347749 Si / 1000 Ang^3
#
#
#
# Elastic Constant Matrix: (Units=GPa)
#
#
# Indices 1 2 3 4 5 6 
#
# 1 38.0679 5.5294 -7.8266 0.0000 11.8800 0.0000
# 2 5.5294 61.4596 6.3125 0.0000 7.9278 0.0000
# 3 -7.8266 6.3125 64.1859 0.0000 -6.5767 0.0000
# 4 0.0000 0.0000 0.0000 27.5650 0.0000 6.5018
# 5 11.8800 7.9278 -6.5767 0.0000 40.5167 0.0000
# 6 0.0000 0.0000 0.0000 6.5018 0.0000 88.3346
#
#
#
# Elastic Compliance Matrix: (Units=1/GPa)
#
#
# Indices 1 2 3 4 5 6 
#
# 1 0.029609 -0.001965 0.003003 0.000000 -0.007810 0.000000
# 2 -0.001965 0.017081 -0.002240 0.000000 -0.003130 0.000000
# 3 0.003003 -0.002240 0.016394 0.000000 0.002219 0.000000
# 4 0.000000 0.000000 0.000000 0.036919 0.000000 -0.002717
# 5 -0.007810 -0.003130 0.002219 0.000000 0.027944 0.000000
# 6 0.000000 0.000000 0.000000 -0.002717 0.000000 0.011521
#
#
# Mechanical properties :
#
#
# Convention : Reuss Voigt Hill
#
# Bulk Modulus (GPa) = 16.47971 19.08266 17.78118
# Shear Modulus (GPa) = 30.84568 41.92983 36.38775
#
# Velocity S-wave (km/s) = 3.63869 4.24238 3.95208
# Velocity P-wave (km/s) = 4.97264 5.67345 5.33457
#
# Compressibility (1/GPa) = 0.06068067
#
# Stress axis : x y z
#
# Youngs Moduli (GPa) = 33.77355 58.54312 60.99929
#
# Poissons Ratio (x) = 0.11503 -0.18321
# Poissons Ratio (y) = 0.06636 0.13665
# Poissons Ratio (z) = -0.10144 0.13115
#
# Static dielectric constant tensor:
#      x y z
#    x 1.922520 0.000000 0.101740 
#    y 0.000000 1.901800 0.000000 
#    z 0.101740 0.000000 2.069640 
# 
# From -- ./inp_files/20383.got.cif
#   From: 2010.05.17/outbox.cif.g08.bks.cpg/sg9_11_cif.got.tgz:20383.got - 2010.06.03 20:04:27.
