data_PCOD9140146
_publ_section_title
;
Structure prediction by ZEFSAII (Michael W. Deem and Ramdas Pophale) SiO2 
 PCOD9140146
Probable space group: C C
;
_chemical_formula_sum "Si O2"
_cell_formula_units_Z 28
_cell_length_a 8.439695
_cell_length_b 17.125318
_cell_length_c 14.947685
_cell_angle_alpha 90.000000
_cell_angle_beta 39.354229
_cell_angle_gamma 90.000000
_cell_volume 1369.954038
_symmetry_space_group_name_H-M "C C"
_symmetry_group_IT_number 9
_symmetry_cell_setting 'monoclinic'
loop_
_space_group_symop_operation_xyz
x,y,z
x,-y,1/2+z
1/2+x,1/2+y,z
1/2+x,1/2-y,1/2+z
loop_
_atom_site_type_symbol
_atom_site_label
_atom_site_fract_x
_atom_site_fract_y
_atom_site_fract_z
Si Si1 0.703720 0.119444 0.837100
Si Si2 0.483156 0.924252 0.093139
Si Si3 0.015604 0.291259 0.937148
Si Si4 0.513829 0.777197 0.727516
Si Si5 0.787385 0.343662 0.656809
Si Si6 0.964937 0.014006 0.307811
Si Si7 0.512132 0.806945 0.244071
O O1 0.885677 0.192009 0.777562
O O2 0.563090 0.138649 0.807000
O O3 0.852310 0.038595 0.777504
O O4 0.506515 0.120100 0.003285
O O5 0.503029 0.859450 0.160902
O O6 0.477067 0.873805 0.003951
O O7 0.737371 0.975359 0.977416
O O8 0.225494 0.971573 0.220590
O O9 0.023502 0.301178 0.826584
O O10 0.261978 0.244536 0.860512
O O11 0.784779 0.235979 0.066135
O O12 0.358422 0.833857 0.729883
O O13 0.550541 0.398965 0.746891
O O14 0.733384 0.256776 0.644647
#
# Coordination Sequence:
#
# PCOD9140146 Si02
#       7
#     4   4   4   4   4   4   4
#     4  11  23  44  66  99 142 182 224 291 355 424
#     4  12  26  47  69 103 145 187 231 298 352 430
#     4  12  21  43  73 106 134 180 237 301 343 422
#     4  11  24  40  75 102 136 181 240 289 358 411
#     4  11  24  43  69 104 135 181 234 295 346 419
#     4  12  25  47  67  95 149 185 226 292 367 412
#     4  11  25  42  73 103 133 184 242 286 345 420
#
# _framework density 20.438641000000001
#
# number of rings (size 3 to 8) (size 9 to 14) (size 15 to 20)
#    0.000    0.571    7.143    0.857    2.000    0.000 
#    5.143    0.000    0.000    0.000    0.000    0.000 
#    0.000    0.000    0.000    0.000    0.000    0.000 
#
# Total GULP energy -78201.158611 kJ/mol
# GULP energy per Si atom -5585.797044 kJ/mol
# Density = 2.039212 g / cm^3
# Si number density = 20.438641 Si / 1000 Ang^3
#
#
#
# Elastic Constant Matrix: (Units=GPa)
#
#
# Indices 1 2 3 4 5 6 
#
# 1 86.7910 42.9003 40.7632 -0.0001 2.0735 -0.0002
# 2 42.9003 89.6312 35.0675 -0.0004 -1.2513 0.0000
# 3 40.7632 35.0675 95.9383 -0.0021 -12.7882 -0.0013
# 4 -0.0001 -0.0004 -0.0021 22.7466 0.0004 -17.0443
# 5 2.0735 -1.2513 -12.7882 0.0004 37.3993 0.0006
# 6 -0.0002 0.0000 -0.0013 -17.0443 0.0006 26.5865
#
#
#
# Elastic Compliance Matrix: (Units=1/GPa)
#
#
# Indices 1 2 3 4 5 6 
#
# 1 0.017193 -0.006133 -0.005467 -0.000001 -0.003028 -0.000001
# 2 -0.006133 0.015262 -0.002996 0.000000 -0.000174 0.000000
# 3 -0.005467 -0.002996 0.014531 0.000003 0.005171 0.000003
# 4 -0.000001 0.000000 0.000003 0.084604 -0.000001 0.054239
# 5 -0.003028 -0.000174 0.005171 -0.000001 0.028669 -0.000001
# 6 -0.000001 0.000000 0.000003 0.054239 -0.000001 0.072385
#
#
# Mechanical properties :
#
#
# Convention : Reuss Voigt Hill
#
# Bulk Modulus (GPa) = 56.19796 56.64694 56.42245
# Shear Modulus (GPa) = 18.67291 27.58844 23.13068
#
# Velocity S-wave (km/s) = 3.02587 3.67797 3.36774
# Velocity P-wave (km/s) = 6.30583 6.76849 6.54125
#
# Compressibility (1/GPa) = 0.01779424
#
# Stress axis : x y z
#
# Youngs Moduli (GPa) = 58.16199 65.52308 68.81917
#
# Poissons Ratio (x) = 0.40182 0.37626
# Poissons Ratio (y) = 0.35668 0.20619
# Poissons Ratio (z) = 0.31799 0.19631
#
# Static dielectric constant tensor:
#      x y z
#    x 1.738380 0.000000 -0.047960 
#    y 0.000000 1.731370 0.000000 
#    z -0.047960 0.000000 1.740140 
# 
# From -- ./inp_files/5332.got.cif
#   From: 2010.05.17/outbox.cif.g08.bks.cpg/sg9_3_cif.got.tgz:5332.got - 2010.06.03 20:04:27.
