data_PCOD9140915
_publ_section_title
;
Structure prediction by ZEFSAII (Michael W. Deem and Ramdas Pophale) SiO2 
 PCOD9140915
Probable space group: C C
;
_chemical_formula_sum "Si O2"
_cell_formula_units_Z 32
_cell_length_a 14.995802
_cell_length_b 12.354234
_cell_length_c 8.688093
_cell_angle_alpha 90.000000
_cell_angle_beta 73.633121
_cell_angle_gamma 90.000000
_cell_volume 1544.345840
_symmetry_space_group_name_H-M "C C"
_symmetry_group_IT_number 9
_symmetry_cell_setting 'monoclinic'
loop_
_space_group_symop_operation_xyz
x,y,z
x,-y,1/2+z
1/2+x,1/2+y,z
1/2+x,1/2-y,1/2+z
loop_
_atom_site_type_symbol
_atom_site_label
_atom_site_fract_x
_atom_site_fract_y
_atom_site_fract_z
Si Si1 0.655740 0.641706 0.533170
Si Si2 0.399630 0.412171 0.866501
Si Si3 0.794570 0.072880 0.734677
Si Si4 0.525068 0.854140 0.591961
Si Si5 0.580718 0.934296 0.244453
Si Si6 0.858091 0.276993 0.880893
Si Si7 0.572848 0.550385 0.873409
Si Si8 0.491170 0.252944 0.603719
O O1 0.594989 0.751655 0.548933
O O2 0.763385 0.657065 0.443321
O O3 0.640138 0.597825 0.712197
O O4 0.614110 0.551931 0.440585
O O5 0.322890 0.455874 0.784952
O O6 0.479913 0.503736 0.837517
O O7 0.442418 0.303390 0.777845
O O8 0.355466 0.401768 0.055035
O O9 0.687296 0.079326 0.743214
O O10 0.822180 0.157589 0.853220
O O11 0.520422 0.907644 0.425619
O O12 0.427851 0.816252 0.712940
O O13 0.564832 0.946270 0.686255
O O14 0.553140 0.847358 0.127288
O O15 0.916480 0.278244 0.010030
O O16 0.547535 0.647175 0.001518
#
# Coordination Sequence:
#
# PCOD9140915 Si02
#       8
#     4   4   4   4   4   4   4   4
#     4  12  27  45  76 107 144 189 247 307 365 436
#     4  12  22  40  74 106 142 186 252 313 362 424
#     4  12  23  42  71 111 139 189 253 308 357 442
#     4  12  26  50  72 104 156 194 237 306 374 443
#     4  12  28  46  73 104 154 197 239 299 378 443
#     4  12  26  47  72 107 149 195 246 301 371 447
#     4  12  23  45  73 104 143 187 242 311 367 421
#     4  12  25  45  71 107 145 199 242 301 378 434
#
# _framework density 20.720745999999998
#
# number of rings (size 3 to 8) (size 9 to 14) (size 15 to 20)
#    0.000    0.000    6.250    3.750    1.750    3.000 
#    0.000    0.000    0.000    0.000    0.000    0.000 
#    0.000    0.000    0.000    0.000    0.000    0.000 
#
# Total GULP energy -89570.367553 kJ/mol
# GULP energy per Si atom -5598.147972 kJ/mol
# Density = 2.067358 g / cm^3
# Si number density = 20.720746 Si / 1000 Ang^3
#
#
#
# Elastic Constant Matrix: (Units=GPa)
#
#
# Indices 1 2 3 4 5 6 
#
# 1 131.4664 54.9348 19.9004 0.0000 -5.7521 0.0000
# 2 54.9348 104.7534 15.0415 0.0000 8.5061 0.0000
# 3 19.9004 15.0415 77.1532 0.0000 -0.3895 0.0000
# 4 0.0000 0.0000 0.0000 45.1162 0.0000 6.4586
# 5 -5.7521 8.5061 -0.3895 0.0000 31.3588 0.0000
# 6 0.0000 0.0000 0.0000 6.4586 0.0000 34.5129
#
#
#
# Elastic Compliance Matrix: (Units=1/GPa)
#
#
# Indices 1 2 3 4 5 6 
#
# 1 0.010257 -0.005424 -0.001571 0.000000 0.003333 0.000000
# 2 -0.005424 0.012921 -0.001143 0.000000 -0.004514 0.000000
# 3 -0.001571 -0.001143 0.013590 0.000000 0.000191 0.000000
# 4 0.000000 0.000000 0.000000 0.022775 0.000000 -0.004262
# 5 0.003333 -0.004514 0.000191 0.000000 0.033727 0.000000
# 6 0.000000 0.000000 0.000000 -0.004262 0.000000 0.029772
#
#
# Mechanical properties :
#
#
# Convention : Reuss Voigt Hill
#
# Bulk Modulus (GPa) = 48.79912 54.79182 51.79547
# Shear Modulus (GPa) = 34.21161 37.09735 35.65448
#
# Velocity S-wave (km/s) = 4.06776 4.23584 4.15265
# Velocity P-wave (km/s) = 6.75753 7.10095 6.93137
#
# Compressibility (1/GPa) = 0.02049217
#
# Stress axis : x y z
#
# Youngs Moduli (GPa) = 97.49838 77.39204 73.58199
#
# Poissons Ratio (x) = 0.41976 0.11562
# Poissons Ratio (y) = 0.52881 0.08410
# Poissons Ratio (z) = 0.15320 0.08845
#
# Static dielectric constant tensor:
#      x y z
#    x 1.725430 0.000000 0.004610 
#    y 0.000000 1.729560 0.000000 
#    z 0.004610 0.000000 1.741610 
# 
# From -- ./inp_files/9078.got.cif
#   From: 2010.05.17/outbox.cif.g08.bks.cpg/sg9_5_cif.got.tgz:9078.got - 2010.06.03 20:04:27.
