data_PCOD9140518
_publ_section_title
;
Structure prediction by ZEFSAII (Michael W. Deem and Ramdas Pophale) SiO2 
 PCOD9140518
Probable space group: C C
;
_chemical_formula_sum "Si O2"
_cell_formula_units_Z 24
_cell_length_a 7.549998
_cell_length_b 12.375746
_cell_length_c 10.853009
_cell_angle_alpha 90.000000
_cell_angle_beta 93.736424
_cell_angle_gamma 90.000000
_cell_volume 1011.915539
_symmetry_space_group_name_H-M "C C"
_symmetry_group_IT_number 9
_symmetry_cell_setting 'monoclinic'
loop_
_space_group_symop_operation_xyz
x,y,z
x,-y,1/2+z
1/2+x,1/2+y,z
1/2+x,1/2-y,1/2+z
loop_
_atom_site_type_symbol
_atom_site_label
_atom_site_fract_x
_atom_site_fract_y
_atom_site_fract_z
Si Si1 0.755620 0.472973 0.892380
Si Si2 0.351642 0.436252 0.609793
Si Si3 0.898485 0.275276 0.232181
Si Si4 0.016523 0.125963 0.739194
Si Si5 0.224527 0.719587 0.887911
Si Si6 0.961360 0.507904 0.643477
O O1 0.582597 0.543127 0.849329
O O2 0.733884 0.346090 0.917542
O O3 0.866384 0.481222 0.768591
O O4 0.851534 0.523230 0.016938
O O5 0.441877 0.346534 0.699743
O O6 0.464908 0.546728 0.622937
O O7 0.301909 0.364964 0.489107
O O8 0.159598 0.465534 0.655296
O O9 0.688170 0.297809 0.228450
O O10 0.970644 0.361721 0.138190
O O11 0.016785 0.302339 0.355931
O O12 0.847359 0.194315 0.774387
#
# Coordination Sequence:
#
# PCOD9140518 Si02
#       6
#     4   4   4   4   4   4
#     4  11  25  47  76 106 149 188 246 298 364 430
#     4  12  24  44  74 103 143 190 242 293 362 429
#     4  11  24  47  67 105 142 182 242 295 355 429
#     4  11  26  43  70 101 138 190 237 290 359 428
#     4  12  25  46  73 105 145 192 242 302 359 433
#     4  11  24  47  74 108 143 194 237 302 359 429
#
# _framework density 23.717395
#
# number of rings (size 3 to 8) (size 9 to 14) (size 15 to 20)
#    0.000    0.667    5.000    3.000    4.667    0.000 
#    0.000    0.000    0.000    0.000    0.000    0.000 
#    0.000    0.000    0.000    0.000    0.000    0.000 
#
# Total GULP energy -66990.305111 kJ/mol
# GULP energy per Si atom -5582.525426 kJ/mol
# Density = 2.366341 g / cm^3
# Si number density = 23.717395 Si / 1000 Ang^3
#
#
#
# Elastic Constant Matrix: (Units=GPa)
#
#
# Indices 1 2 3 4 5 6 
#
# 1 92.0642 16.4718 18.0303 0.0000 2.3077 0.0000
# 2 16.4718 80.9579 -5.4000 0.0000 -6.2640 0.0000
# 3 18.0303 -5.4000 100.8042 0.0000 19.0684 0.0000
# 4 0.0000 0.0000 0.0000 22.4125 0.0000 16.4911
# 5 2.3077 -6.2640 19.0684 0.0000 33.8327 0.0000
# 6 0.0000 0.0000 0.0000 16.4911 0.0000 29.4835
#
#
#
# Elastic Compliance Matrix: (Units=1/GPa)
#
#
# Indices 1 2 3 4 5 6 
#
# 1 0.011755 -0.002542 -0.002236 0.000000 -0.000012 0.000000
# 2 -0.002542 0.013087 0.000744 0.000000 0.002177 0.000000
# 3 -0.002236 0.000744 0.011535 0.000000 -0.006211 0.000000
# 4 0.000000 0.000000 0.000000 0.075824 0.000000 -0.042411
# 5 -0.000012 0.002177 -0.006211 0.000000 0.033462 0.000000
# 6 0.000000 0.000000 0.000000 -0.042411 0.000000 0.057639
#
#
# Mechanical properties :
#
#
# Convention : Reuss Voigt Hill
#
# Bulk Modulus (GPa) = 35.32501 36.89229 36.10865
# Shear Modulus (GPa) = 22.64424 33.46069 28.05246
#
# Velocity S-wave (km/s) = 3.09326 3.76015 3.44289
# Velocity P-wave (km/s) = 5.26157 5.86859 5.57335
#
# Compressibility (1/GPa) = 0.02830856
#
# Stress axis : x y z
#
# Youngs Moduli (GPa) = 85.06974 76.40973 86.69290
#
# Poissons Ratio (x) = 0.19422 0.19389
# Poissons Ratio (y) = 0.21623 -0.06449
# Poissons Ratio (z) = 0.19026 -0.05684
#
# Static dielectric constant tensor:
#      x y z
#    x 1.892720 0.000000 0.003430 
#    y 0.000000 1.897860 0.000000 
#    z 0.003430 0.000000 2.001270 
# 
# From -- ./inp_files/14123.got.cif
#   From: 2010.05.17/outbox.cif.g08.bks.cpg/sg9_8_cif.got.tgz:14123.got - 2010.06.03 20:04:27.
