data_PCOD9140675
_publ_section_title
;
Structure prediction by ZEFSAII (Michael W. Deem and Ramdas Pophale) SiO2 
 PCOD9140675
Probable space group: C C
;
_chemical_formula_sum "Si O2"
_cell_formula_units_Z 28
_cell_length_a 18.707312
_cell_length_b 4.646465
_cell_length_c 16.644491
_cell_angle_alpha 90.000000
_cell_angle_beta 131.006795
_cell_angle_gamma 90.000000
_cell_volume 1091.791385
_symmetry_space_group_name_H-M "C C"
_symmetry_group_IT_number 9
_symmetry_cell_setting 'monoclinic'
loop_
_space_group_symop_operation_xyz
x,y,z
x,-y,1/2+z
1/2+x,1/2+y,z
1/2+x,1/2-y,1/2+z
loop_
_atom_site_type_symbol
_atom_site_label
_atom_site_fract_x
_atom_site_fract_y
_atom_site_fract_z
Si Si1 0.250000 0.853467 0.620410
Si Si2 0.937493 0.470775 0.449245
Si Si3 0.835291 0.767365 0.022498
Si Si4 0.424965 0.528113 0.831816
Si Si5 0.026091 0.851758 0.249405
Si Si6 0.163595 0.448905 0.809203
Si Si7 0.651318 0.102385 0.121509
O O1 0.290428 0.913935 0.562460
O O2 0.332704 0.669473 0.724125
O O3 0.164675 0.624956 0.559745
O O4 0.209531 0.120962 0.638413
O O5 0.943557 0.799013 0.427336
O O6 0.865259 0.411125 0.466751
O O7 0.040025 0.354608 0.550084
O O8 0.911348 0.296870 0.349220
O O9 0.630594 0.598862 0.789117
O O10 0.752467 0.979889 0.931511
O O11 0.932234 0.904737 0.129054
O O12 0.506312 0.562556 0.825366
O O13 0.056673 0.504257 0.264424
O O14 0.183337 0.515719 0.732091
#
# Coordination Sequence:
#
# PCOD9140675 Si02
#       7
#     4   4   4   4   4   4   4
#     4  11  26  47  73 108 148 194 257 307 371 457
#     4  12  26  46  75 108 151 197 249 310 380 444
#     4  11  28  49  78 113 151 202 254 315 382 445
#     4  11  25  46  74 104 152 195 247 309 380 439
#     4  11  27  48  73 118 150 192 254 318 368 458
#     4  12  26  47  79 107 155 200 248 312 382 442
#     4  12  26  47  72 112 149 196 253 309 373 453
#
# _framework density 25.645924999999998
#
# number of rings (size 3 to 8) (size 9 to 14) (size 15 to 20)
#    0.000    0.571    1.429    5.143    8.000    6.857 
#    0.000    0.000    0.000    0.000    0.000    0.000 
#    0.000    0.000    0.000    0.000    0.000    0.000 
#
# Total GULP energy -78091.936007 kJ/mol
# GULP energy per Si atom -5577.995429 kJ/mol
# Density = 2.558755 g / cm^3
# Si number density = 25.645925 Si / 1000 Ang^3
#
#
#
# Elastic Constant Matrix: (Units=GPa)
#
#
# Indices 1 2 3 4 5 6 
#
# 1 173.9563 16.5392 20.3355 -0.0003 -4.5292 -0.0002
# 2 16.5392 53.7853 -2.9904 0.0006 4.0836 0.0016
# 3 20.3355 -2.9904 116.7693 -0.0001 15.3195 0.0001
# 4 -0.0003 0.0006 -0.0001 17.4521 0.0003 4.3383
# 5 -4.5292 4.0836 15.3195 0.0003 33.2017 -0.0001
# 6 -0.0002 0.0016 0.0001 4.3383 -0.0001 27.9517
#
#
#
# Elastic Compliance Matrix: (Units=1/GPa)
#
#
# Indices 1 2 3 4 5 6 
#
# 1 0.006151 -0.002097 -0.001351 0.000000 0.001720 0.000000
# 2 -0.002097 0.019559 0.001298 0.000000 -0.003291 -0.000001
# 3 -0.001351 0.001298 0.009449 0.000000 -0.004704 0.000000
# 4 0.000000 0.000000 0.000000 0.059599 -0.000001 -0.009250
# 5 0.001720 -0.003291 -0.004704 -0.000001 0.032929 0.000000
# 6 0.000000 -0.000001 0.000000 -0.009250 0.000000 0.037212
#
#
# Mechanical properties :
#
#
# Convention : Reuss Voigt Hill
#
# Bulk Modulus (GPa) = 32.40454 45.80883 39.10669
# Shear Modulus (GPa) = 27.85749 36.42954 32.14352
#
# Velocity S-wave (km/s) = 3.29938 3.77302 3.54412
# Velocity P-wave (km/s) = 5.21319 6.07303 5.65946
#
# Compressibility (1/GPa) = 0.03085987
#
# Stress axis : x y z
#
# Youngs Moduli (GPa) = 162.58563 51.12664 105.82635
#
# Poissons Ratio (x) = 0.10721 0.14292
# Poissons Ratio (y) = 0.34094 -0.13734
# Poissons Ratio (z) = 0.21957 -0.06635
#
# Static dielectric constant tensor:
#      x y z
#    x 1.940720 0.000000 0.030730 
#    y 0.000000 2.066540 0.000000 
#    z 0.030730 0.000000 2.041990 
# 
# From -- ./inp_files/34238.got.cif
#   From: 2010.05.17/outbox.cif.g08.bks.cpg/sg9_18_cif.got.tgz:34238.got - 2010.06.03 20:04:27.
