data_PCOD9140645
_publ_section_title
;
Structure prediction by ZEFSAII (Michael W. Deem and Ramdas Pophale) SiO2 
 PCOD9140645
Probable space group: C C
;
_chemical_formula_sum "Si O2"
_cell_formula_units_Z 24
_cell_length_a 7.247036
_cell_length_b 13.235603
_cell_length_c 12.056323
_cell_angle_alpha 90.000000
_cell_angle_beta 108.819129
_cell_angle_gamma 90.000000
_cell_volume 1094.608302
_symmetry_space_group_name_H-M "C C"
_symmetry_group_IT_number 9
_symmetry_cell_setting 'monoclinic'
loop_
_space_group_symop_operation_xyz
x,y,z
x,-y,1/2+z
1/2+x,1/2+y,z
1/2+x,1/2-y,1/2+z
loop_
_atom_site_type_symbol
_atom_site_label
_atom_site_fract_x
_atom_site_fract_y
_atom_site_fract_z
Si Si1 0.428400 0.822410 0.938610
Si Si2 0.546010 0.896604 0.188991
Si Si3 0.015849 0.246566 0.376032
Si Si4 0.743930 0.558777 0.199204
Si Si5 0.930224 0.974643 0.801498
Si Si6 0.205311 0.857866 0.456832
O O1 0.234652 0.776070 0.958754
O O2 0.354399 0.893745 0.825954
O O3 0.553454 0.732566 0.912383
O O4 0.546471 0.877846 0.057984
O O5 0.543887 0.793742 0.258994
O O6 0.351714 0.957282 0.183535
O O7 0.730417 0.964334 0.259668
O O8 0.912214 0.137359 0.348936
O O9 0.895795 0.326648 0.424796
O O10 0.524233 0.539374 0.197606
O O11 0.752637 0.631220 0.095307
O O12 0.094381 0.040814 0.897032
#
# Coordination Sequence:
#
# PCOD9140645 Si02
#       6
#     4   4   4   4   4   4
#     4  11  25  45  71 105 140 188 239 286 352 418
#     4  12  25  46  73 103 145 184 233 295 351 419
#     4  11  25  47  72 108 140 184 236 289 353 415
#     4  11  25  45  71 105 140 188 239 286 352 418
#     4  11  25  47  72 108 140 184 236 289 353 415
#     4  12  25  46  73 103 145 184 233 295 351 419
#
# _framework density 21.925650999999998
#
# number of rings (size 3 to 8) (size 9 to 14) (size 15 to 20)
#    0.000    0.667    3.333    5.000    0.000    8.000 
#    0.000    0.000    0.000    0.000    0.000    0.000 
#    0.000    0.000    0.000    0.000    0.000    0.000 
#
# Total GULP energy -67143.246335 kJ/mol
# GULP energy per Si atom -5595.270528 kJ/mol
# Density = 2.187575 g / cm^3
# Si number density = 21.925651 Si / 1000 Ang^3
#
#
#
# Elastic Constant Matrix: (Units=GPa)
#
#
# Indices 1 2 3 4 5 6 
#
# 1 52.1339 2.8932 9.5049 0.0000 -3.8086 0.0000
# 2 2.8932 73.8946 3.9834 0.0000 -4.0151 0.0000
# 3 9.5049 3.9834 69.2575 0.0000 -13.2438 0.0000
# 4 0.0000 0.0000 0.0000 26.7572 0.0000 -7.9551
# 5 -3.8086 -4.0151 -13.2438 0.0000 28.5477 0.0000
# 6 0.0000 0.0000 0.0000 -7.9551 0.0000 37.8195
#
#
#
# Elastic Compliance Matrix: (Units=1/GPa)
#
#
# Indices 1 2 3 4 5 6 
#
# 1 0.019756 -0.000566 -0.002403 0.000000 0.001441 0.000000
# 2 -0.000566 0.013666 -0.000390 0.000000 0.001666 0.000000
# 3 -0.002403 -0.000390 0.016152 0.000000 0.007118 0.000000
# 4 0.000000 0.000000 0.000000 0.039866 0.000000 0.008386
# 5 0.001441 0.001666 0.007118 0.000000 0.038758 0.000000
# 6 0.000000 0.000000 0.000000 0.008386 0.000000 0.028205
#
#
# Mechanical properties :
#
#
# Convention : Reuss Voigt Hill
#
# Bulk Modulus (GPa) = 23.33317 25.33877 24.33597
# Shear Modulus (GPa) = 28.18371 30.55183 29.36777
#
# Velocity S-wave (km/s) = 3.58917 3.73692 3.66379
# Velocity P-wave (km/s) = 5.27648 5.49556 5.38713
#
# Compressibility (1/GPa) = 0.04285745
#
# Stress axis : x y z
#
# Youngs Moduli (GPa) = 50.61703 73.17180 61.91106
#
# Poissons Ratio (x) = 0.04139 0.14878
# Poissons Ratio (y) = 0.02863 0.02414
# Poissons Ratio (z) = 0.12164 0.02853
#
# Static dielectric constant tensor:
#      x y z
#    x 1.806120 0.000000 0.000540 
#    y 0.000000 1.825830 0.000000 
#    z 0.000540 0.000000 1.791940 
# 
# From -- ./inp_files/14257.got.cif
#   From: 2010.05.17/outbox.cif.g08.bks.cpg/sg9_8_cif.got.tgz:14257.got - 2010.06.03 20:04:27.
