data_PCOD9140755
_publ_section_title
;
Structure prediction by ZEFSAII (Michael W. Deem and Ramdas Pophale) SiO2 
 PCOD9140755
Probable space group: C C
;
_chemical_formula_sum "Si O2"
_cell_formula_units_Z 20
_cell_length_a 25.512436
_cell_length_b 7.272063
_cell_length_c 9.513960
_cell_angle_alpha 90.000000
_cell_angle_beta 151.055031
_cell_angle_gamma 90.000000
_cell_volume 854.257380
_symmetry_space_group_name_H-M "C C"
_symmetry_group_IT_number 9
_symmetry_cell_setting 'monoclinic'
loop_
_space_group_symop_operation_xyz
x,y,z
x,-y,1/2+z
1/2+x,1/2+y,z
1/2+x,1/2-y,1/2+z
loop_
_atom_site_type_symbol
_atom_site_label
_atom_site_fract_x
_atom_site_fract_y
_atom_site_fract_z
Si Si1 0.937340 0.103910 0.035890
Si Si2 0.668795 0.359504 0.016776
Si Si3 0.208747 0.282280 0.075256
Si Si4 0.121625 0.423129 0.162354
Si Si5 0.402310 0.736264 0.644864
O O1 0.058323 0.178881 0.342942
O O2 0.925126 0.899526 0.068317
O O3 0.838867 0.216631 0.872012
O O4 0.919820 0.118604 0.827468
O O5 0.666863 0.575829 0.981132
O O6 0.781167 0.311530 0.354455
O O7 0.662896 0.243745 0.859347
O O8 0.170834 0.391576 0.124741
O O9 0.162385 0.396360 0.835987
O O10 0.992358 0.395612 0.854853
#
# Coordination Sequence:
#
# PCOD9140755 Si02
#       5
#     4   4   4   4   4
#     4  11  25  49  78 108 155 196 250 315 366 453
#     4  11  27  50  78 109 152 201 252 306 381 446
#     4  12  26  50  79 108 157 196 250 319 367 450
#     4  11  27  50  78 116 149 202 256 303 386 448
#     4  11  25  51  75 115 151 199 256 305 382 449
#
# _framework density 23.412147999999998
#
# number of rings (size 3 to 8) (size 9 to 14) (size 15 to 20)
#    0.000    0.800    4.000    1.200    2.800    3.200 
#   14.400    0.000    0.000    0.000    0.000    0.000 
#    0.000    0.000    0.000    0.000    0.000    0.000 
#
# Total GULP energy -56054.041015 kJ/mol
# GULP energy per Si atom -5605.404102 kJ/mol
# Density = 2.335886 g / cm^3
# Si number density = 23.412148 Si / 1000 Ang^3
#
#
#
# Elastic Constant Matrix: (Units=GPa)
#
#
# Indices 1 2 3 4 5 6 
#
# 1 140.7680 53.2191 88.1750 0.0000 16.6587 0.0000
# 2 53.2191 85.6416 51.1953 0.0000 -19.2880 0.0000
# 3 88.1750 51.1953 183.0950 0.0000 30.1728 0.0000
# 4 0.0000 0.0000 0.0000 30.4830 0.0000 9.0493
# 5 16.6587 -19.2880 30.1728 0.0000 40.8029 0.0000
# 6 0.0000 0.0000 0.0000 9.0493 0.0000 20.9346
#
#
#
# Elastic Compliance Matrix: (Units=1/GPa)
#
#
# Indices 1 2 3 4 5 6 
#
# 1 0.012519 -0.007583 -0.002819 0.000000 -0.006611 0.000000
# 2 -0.007583 0.024644 -0.006455 0.000000 0.019519 0.000000
# 3 -0.002819 -0.006455 0.010178 0.000000 -0.009427 0.000000
# 4 0.000000 0.000000 0.000000 0.037634 0.000000 -0.016268
# 5 -0.006611 0.019519 -0.009427 0.000000 0.043405 0.000000
# 6 0.000000 0.000000 0.000000 -0.016268 0.000000 0.054800
#
#
# Mechanical properties :
#
#
# Convention : Reuss Voigt Hill
#
# Bulk Modulus (GPa) = 73.39327 88.29816 80.84571
# Shear Modulus (GPa) = 22.57977 32.90514 27.74246
#
# Velocity S-wave (km/s) = 3.10892 3.75303 3.44606
# Velocity P-wave (km/s) = 6.65610 7.52176 7.10213
#
# Compressibility (1/GPa) = 0.01362523
#
# Stress axis : x y z
#
# Youngs Moduli (GPa) = 79.87818 40.57798 98.25409
#
# Poissons Ratio (x) = 0.30772 0.27699
# Poissons Ratio (y) = 0.60574 0.63426
# Poissons Ratio (z) = 0.22518 0.26194
#
# Static dielectric constant tensor:
#      x y z
#    x 1.850350 0.000000 0.019050 
#    y 0.000000 1.857130 0.000000 
#    z 0.019050 0.000000 1.884740 
# 
# From -- ./inp_files/6677.got.cif
#   From: 2010.05.17/outbox.cif.g08.bks.cpg/sg9_4_cif.got.tgz:6677.got - 2010.06.03 20:04:27.
