data_PCOD9140801
_publ_section_title
;
Structure prediction by ZEFSAII (Michael W. Deem and Ramdas Pophale) SiO2 
 PCOD9140801
Probable space group: C C
;
_chemical_formula_sum "Si O2"
_cell_formula_units_Z 32
_cell_length_a 29.871056
_cell_length_b 8.209349
_cell_length_c 9.688426
_cell_angle_alpha 90.000000
_cell_angle_beta 144.688702
_cell_angle_gamma 90.000000
_cell_volume 1373.264818
_symmetry_space_group_name_H-M "C C"
_symmetry_group_IT_number 9
_symmetry_cell_setting 'monoclinic'
loop_
_space_group_symop_operation_xyz
x,y,z
x,-y,1/2+z
1/2+x,1/2+y,z
1/2+x,1/2-y,1/2+z
loop_
_atom_site_type_symbol
_atom_site_label
_atom_site_fract_x
_atom_site_fract_y
_atom_site_fract_z
Si Si1 0.428040 0.846606 0.215170
Si Si2 0.906256 0.044037 0.968808
Si Si3 0.152450 0.605785 0.930948
Si Si4 0.042489 0.153521 0.703160
Si Si5 0.778955 0.510578 0.898072
Si Si6 0.180103 0.025713 0.404739
Si Si7 0.562199 0.041635 0.439486
Si Si8 0.313622 0.389189 0.968644
O O1 0.484955 0.753763 0.461003
O O2 0.353497 0.902398 0.113227
O O3 0.476471 0.998228 0.276099
O O4 0.406116 0.721116 0.038812
O O5 0.877864 0.919390 0.014150
O O6 0.846537 0.033750 0.691248
O O7 0.992035 0.994442 0.137021
O O8 0.122051 0.519699 0.716330
O O9 0.087162 0.581100 0.881793
O O10 0.232725 0.544435 0.201347
O O11 0.163028 0.792530 0.914292
O O12 0.067498 0.278341 0.886716
O O13 0.110843 0.088539 0.778655
O O14 0.705617 0.478238 0.811032
O O15 0.754964 0.472668 0.680985
O O16 0.800167 0.699431 0.962442
#
# Coordination Sequence:
#
# PCOD9140801 Si02
#       8
#     4   4   4   4   4   4   4   4
#     4  12  28  46  76 110 149 196 250 307 376 443
#     4  12  26  47  74 108 151 191 251 307 374 440
#     4  11  26  45  74 106 149 192 249 305 376 437
#     4  12  28  46  76 110 149 196 250 307 376 443
#     4  11  27  47  74 103 145 196 248 299 374 442
#     4  11  27  47  74 103 145 196 248 299 374 442
#     4  12  26  47  74 108 151 191 251 307 374 440
#     4  11  26  45  74 106 149 192 249 305 376 437
#
# _framework density 23.302133000000001
#
# number of rings (size 3 to 8) (size 9 to 14) (size 15 to 20)
#    0.000    0.500    2.500    3.750   14.000    5.000 
#    0.000    0.000    0.000    0.000    0.000    0.000 
#    0.000    0.000    0.000    0.000    0.000    0.000 
#
# Total GULP energy -89615.841973 kJ/mol
# GULP energy per Si atom -5600.990123 kJ/mol
# Density = 2.324910 g / cm^3
# Si number density = 23.302133 Si / 1000 Ang^3
#
#
#
# Elastic Constant Matrix: (Units=GPa)
#
#
# Indices 1 2 3 4 5 6 
#
# 1 111.8747 43.3384 29.0084 0.0000 3.1445 0.0000
# 2 43.3384 76.6152 19.5876 0.0000 8.9553 0.0000
# 3 29.0084 19.5876 73.3794 0.0000 -22.5479 0.0000
# 4 0.0000 0.0000 0.0000 37.0647 0.0000 10.1745
# 5 3.1445 8.9553 -22.5479 0.0000 46.1428 0.0000
# 6 0.0000 0.0000 0.0000 10.1745 0.0000 42.0118
#
#
#
# Elastic Compliance Matrix: (Units=1/GPa)
#
#
# Indices 1 2 3 4 5 6 
#
# 1 0.012184 -0.005750 -0.003758 0.000000 -0.001551 0.000000
# 2 -0.005750 0.017942 -0.004078 0.000000 -0.005083 0.000000
# 3 -0.003758 -0.004078 0.019444 0.000000 0.010549 0.000000
# 4 0.000000 0.000000 0.000000 0.028901 0.000000 -0.006999
# 5 -0.001551 -0.005083 0.010549 0.000000 0.027919 0.000000
# 6 0.000000 0.000000 0.000000 -0.006999 0.000000 0.025498
#
#
# Mechanical properties :
#
#
# Convention : Reuss Voigt Hill
#
# Bulk Modulus (GPa) = 44.64981 49.52646 47.08813
# Shear Modulus (GPa) = 30.02548 36.37284 33.19916
#
# Velocity S-wave (km/s) = 3.59350 3.95514 3.77865
# Velocity P-wave (km/s) = 6.03494 6.49289 6.26810
#
# Compressibility (1/GPa) = 0.02239651
#
# Stress axis : x y z
#
# Youngs Moduli (GPa) = 82.07406 55.73669 51.43102
#
# Poissons Ratio (x) = 0.32048 0.19329
# Poissons Ratio (y) = 0.47192 0.20974
# Poissons Ratio (z) = 0.30846 0.22730
#
# Static dielectric constant tensor:
#      x y z
#    x 1.830570 0.000000 0.004670 
#    y 0.000000 1.858270 0.000000 
#    z 0.004670 0.000000 1.898510 
# 
# From -- ./inp_files/12399.got.cif
#   From: 2010.05.17/outbox.cif.g08.bks.cpg/sg9_7_cif.got.tgz:12399.got - 2010.06.03 20:04:27.
