data_PCOD9140568
_publ_section_title
;
Structure prediction by ZEFSAII (Michael W. Deem and Ramdas Pophale) SiO2 
 PCOD9140568
Probable space group: C C
;
_chemical_formula_sum "Si O2"
_cell_formula_units_Z 28
_cell_length_a 12.476436
_cell_length_b 5.658081
_cell_length_c 18.906546
_cell_angle_alpha 90.000000
_cell_angle_beta 125.146351
_cell_angle_gamma 90.000000
_cell_volume 1091.333658
_symmetry_space_group_name_H-M "C C"
_symmetry_group_IT_number 9
_symmetry_cell_setting 'monoclinic'
loop_
_space_group_symop_operation_xyz
x,y,z
x,-y,1/2+z
1/2+x,1/2+y,z
1/2+x,1/2-y,1/2+z
loop_
_atom_site_type_symbol
_atom_site_label
_atom_site_fract_x
_atom_site_fract_y
_atom_site_fract_z
Si Si1 0.856960 0.225047 0.011690
Si Si2 0.333235 0.870672 0.841799
Si Si3 0.392746 0.945515 0.173131
Si Si4 0.613237 0.879951 0.926322
Si Si5 0.298759 0.433142 0.733765
Si Si6 0.134876 0.199480 0.090554
Si Si7 0.619188 0.669879 0.776736
O O1 0.869067 0.396479 0.082351
O O2 0.998852 0.096927 0.067267
O O3 0.852654 0.340284 0.933061
O O4 0.730604 0.066063 0.972871
O O5 0.469343 0.005773 0.870942
O O6 0.359889 0.642068 0.803506
O O7 0.173076 0.906463 0.779131
O O8 0.401398 0.696855 0.219976
O O9 0.255235 0.031332 0.153106
O O10 0.493122 0.164991 0.214516
O O11 0.639325 0.722465 0.867103
O O12 0.622110 0.732939 0.001888
O O13 0.182477 0.550954 0.642244
O O14 0.234042 0.280819 0.771289
#
# Coordination Sequence:
#
# PCOD9140568 Si02
#       7
#     4   4   4   4   4   4   4
#     4  11  24  51  74 108 149 201 249 315 383 458
#     4  11  27  49  74 110 152 198 263 315 382 472
#     4  12  27  48  77 111 151 201 253 322 390 458
#     4  11  24  48  74 107 148 199 253 317 393 450
#     4  12  24  47  72 109 152 193 253 315 384 469
#     4  11  25  46  74 109 145 194 252 311 376 469
#     4  12  25  47  75 108 147 204 251 319 386 460
#
# _framework density 25.656679
#
# number of rings (size 3 to 8) (size 9 to 14) (size 15 to 20)
#    0.000    0.571    4.286    3.429    0.000    5.714 
#   12.857    0.000    0.000    0.000    0.000    0.000 
#    0.000    0.000    0.000    0.000    0.000    0.000 
#
# Total GULP energy -78101.485164 kJ/mol
# GULP energy per Si atom -5578.677512 kJ/mol
# Density = 2.559828 g / cm^3
# Si number density = 25.656679 Si / 1000 Ang^3
#
#
#
# Elastic Constant Matrix: (Units=GPa)
#
#
# Indices 1 2 3 4 5 6 
#
# 1 207.0184 39.5106 49.1850 0.0000 33.7873 0.0000
# 2 39.5106 126.3274 132.7838 0.0000 20.3641 0.0000
# 3 49.1850 132.7838 243.6281 0.0000 -1.4331 0.0000
# 4 0.0000 0.0000 0.0000 26.0432 0.0000 25.4694
# 5 33.7873 20.3641 -1.4331 0.0000 65.5227 0.0000
# 6 0.0000 0.0000 0.0000 25.4694 0.0000 -155.1401
#
#
#
# Elastic Compliance Matrix: (Units=1/GPa)
#
#
# Indices 1 2 3 4 5 6 
#
# 1 0.005577 -0.000202 -0.001033 0.000000 -0.002836 0.000000
# 2 -0.000202 0.021224 -0.011567 0.000000 -0.006745 0.000000
# 3 -0.001033 -0.011567 0.010643 0.000000 0.004360 0.000000
# 4 0.000000 0.000000 0.000000 0.033086 0.000000 0.005432
# 5 -0.002836 -0.006745 0.004360 0.000000 0.018916 0.000000
# 6 0.000000 0.000000 0.000000 0.005432 0.000000 -0.005554
#
#
# Mechanical properties :
#
#
# Convention : Reuss Voigt Hill
#
# Bulk Modulus (GPa) = 84.44478 113.32586 98.88532
# Shear Modulus (GPa) = 44.07543 10.98479 27.53011
#
# Velocity S-wave (km/s) = 4.14924 2.07141 3.27925
# Velocity P-wave (km/s) = 7.47929 7.07015 7.27760
#
# Compressibility (1/GPa) = 0.01184206
#
# Stress axis : x y z
#
# Youngs Moduli (GPa) = 179.30237 47.11571 93.95894
#
# Poissons Ratio (x) = 0.00951 0.09703
# Poissons Ratio (y) = 0.03617 1.08680
# Poissons Ratio (z) = 0.18516 0.54498
#
# Static dielectric constant tensor:
#      x y z
#    x 2.009670 0.000000 0.062390 
#    y 0.000000 4.071480 0.000000 
#    z 0.062390 0.000000 2.034640 
# 
# From -- ./inp_files/24087.got.cif
#   From: 2010.05.17/outbox.cif.g08.bks.cpg/sg9_13_cif.got.tgz:24087.got - 2010.06.03 20:04:27.
