data_PCOD9140211
_publ_section_title
;
Structure prediction by ZEFSAII (Michael W. Deem and Ramdas Pophale) SiO2 
 PCOD9140211
Probable space group: C C
;
_chemical_formula_sum "Si O2"
_cell_formula_units_Z 28
_cell_length_a 10.433009
_cell_length_b 23.305850
_cell_length_c 6.497445
_cell_angle_alpha 90.000000
_cell_angle_beta 117.608084
_cell_angle_gamma 90.000000
_cell_volume 1399.969587
_symmetry_space_group_name_H-M "C C"
_symmetry_group_IT_number 9
_symmetry_cell_setting 'monoclinic'
loop_
_space_group_symop_operation_xyz
x,y,z
x,-y,1/2+z
1/2+x,1/2+y,z
1/2+x,1/2-y,1/2+z
loop_
_atom_site_type_symbol
_atom_site_label
_atom_site_fract_x
_atom_site_fract_y
_atom_site_fract_z
Si Si1 0.036220 0.726065 0.290020
Si Si2 0.123450 0.823139 0.030856
Si Si3 0.111295 0.444404 0.739985
Si Si4 0.433782 0.130778 0.883207
Si Si5 0.342206 0.371722 0.642698
Si Si6 0.751163 0.235456 0.813939
Si Si7 0.149803 0.578887 0.727414
O O1 0.077644 0.782557 0.187631
O O2 0.995544 0.678888 0.086313
O O3 0.163814 0.712405 0.548669
O O4 0.896629 0.738608 0.325967
O O5 0.272727 0.854029 0.200744
O O6 0.156491 0.783544 0.857028
O O7 0.993886 0.864815 0.866486
O O8 0.959035 0.428830 0.521840
O O9 0.132387 0.512111 0.772967
O O10 0.234621 0.409918 0.704167
O O11 0.115700 0.418190 0.966339
O O12 0.537404 0.120458 0.763177
O O13 0.292387 0.308224 0.530900
O O14 0.314572 0.404029 0.405539
#
# Coordination Sequence:
#
# PCOD9140211 Si02
#       7
#     4   4   4   4   4   4   4
#     4  12  26  44  68  99 142 182 221 274 336 404
#     4  12  26  44  60 108 140 174 230 268 334 422
#     4  11  23  45  73  96 126 174 235 286 335 393
#     4  11  25  41  70  99 134 179 223 278 336 396
#     4  11  25  41  70  99 134 179 223 278 336 396
#     4  12  26  44  68  99 142 182 221 274 336 404
#     4  11  23  45  73  96 126 174 235 286 335 393
#
# _framework density 20.000435
#
# number of rings (size 3 to 8) (size 9 to 14) (size 15 to 20)
#    0.000    0.571    5.714    3.429   12.000    0.000 
#    0.000    1.429    0.000    0.000    0.000    0.000 
#    0.000    0.000    0.000    0.000    0.000    0.000 
#
# Total GULP energy -78082.384113 kJ/mol
# GULP energy per Si atom -5577.313151 kJ/mol
# Density = 1.995491 g / cm^3
# Si number density = 20.000435 Si / 1000 Ang^3
#
#
#
# Elastic Constant Matrix: (Units=GPa)
#
#
# Indices 1 2 3 4 5 6 
#
# 1 78.8764 30.5649 28.7897 0.0000 0.2827 0.0000
# 2 30.5649 81.7919 20.3855 0.0000 17.7623 0.0000
# 3 28.7897 20.3855 128.7605 0.0000 22.9265 0.0000
# 4 0.0000 0.0000 0.0000 42.5637 0.0000 -9.3602
# 5 0.2827 17.7623 22.9265 0.0000 45.3979 0.0000
# 6 0.0000 0.0000 0.0000 -9.3602 0.0000 21.3830
#
#
#
# Elastic Compliance Matrix: (Units=1/GPa)
#
#
# Indices 1 2 3 4 5 6 
#
# 1 0.016262 -0.006102 -0.003381 0.000000 0.003994 0.000000
# 2 -0.006102 0.015852 -0.000053 0.000000 -0.006138 0.000000
# 3 -0.003381 -0.000053 0.009365 0.000000 -0.004688 0.000000
# 4 0.000000 0.000000 0.000000 0.025997 0.000000 0.011380
# 5 0.003994 -0.006138 -0.004688 0.000000 0.026772 0.000000
# 6 0.000000 0.000000 0.000000 0.011380 0.000000 0.051747
#
#
# Mechanical properties :
#
#
# Convention : Reuss Voigt Hill
#
# Bulk Modulus (GPa) = 44.62461 49.87879 47.25170
# Shear Modulus (GPa) = 28.97942 35.84815 32.41379
#
# Velocity S-wave (km/s) = 3.81062 4.23823 4.03010
# Velocity P-wave (km/s) = 6.45921 6.99594 6.73292
#
# Compressibility (1/GPa) = 0.02240916
#
# Stress axis : x y z
#
# Youngs Moduli (GPa) = 61.49198 63.08231 106.77588
#
# Poissons Ratio (x) = 0.38490 0.36103
# Poissons Ratio (y) = 0.37520 0.00562
# Poissons Ratio (z) = 0.20791 0.00332
#
# Static dielectric constant tensor:
#      x y z
#    x 1.706340 0.000000 -0.018670 
#    y 0.000000 1.767640 0.000000 
#    z -0.018670 0.000000 1.744770 
# 
# From -- ./inp_files/1340.got.cif
#   From: 2010.05.17/outbox.cif.g08.bks.cpg/sg9_1_cif.got.tgz:1340.got - 2010.06.03 20:04:27.
