data_PCOD9140731
_publ_section_title
;
Structure prediction by ZEFSAII (Michael W. Deem and Ramdas Pophale) SiO2 
 PCOD9140731
Probable space group: C C
;
_chemical_formula_sum "Si O2"
_cell_formula_units_Z 20
_cell_length_a 5.674988
_cell_length_b 15.966915
_cell_length_c 10.369805
_cell_angle_alpha 90.000000
_cell_angle_beta 51.988855
_cell_angle_gamma 90.000000
_cell_volume 740.325452
_symmetry_space_group_name_H-M "C C"
_symmetry_group_IT_number 9
_symmetry_cell_setting 'monoclinic'
loop_
_space_group_symop_operation_xyz
x,y,z
x,-y,1/2+z
1/2+x,1/2+y,z
1/2+x,1/2-y,1/2+z
loop_
_atom_site_type_symbol
_atom_site_label
_atom_site_fract_x
_atom_site_fract_y
_atom_site_fract_z
Si Si1 0.072590 0.509597 0.891720
Si Si2 0.001418 0.728870 0.567270
Si Si3 0.531557 0.358846 0.775664
Si Si4 0.254300 0.943555 0.252454
Si Si5 0.707736 0.149206 0.005153
O O1 0.352950 0.447275 0.826344
O O2 0.136889 0.609611 0.887400
O O3 0.956909 0.506443 0.786099
O O4 0.836331 0.482386 0.081910
O O5 0.338205 0.697102 0.437842
O O6 0.986368 0.811642 0.656641
O O7 0.838895 0.652419 0.690333
O O8 0.843189 0.759862 0.489030
O O9 0.884167 0.354545 0.682191
O O10 0.961185 0.922475 0.441306
#
# Coordination Sequence:
#
# PCOD9140731 Si02
#       5
#     4   4   4   4   4
#     4  11  26  51  82 118 171 222 279 350 418 506
#     4  11  25  48  75 118 168 215 270 345 419 493
#     4  11  26  47  80 115 165 217 279 341 417 497
#     4  11  26  50  81 121 166 221 281 341 426 490
#     4  12  25  46  80 120 162 217 275 341 408 504
#
# _framework density 27.015143999999999
#
# number of rings (size 3 to 8) (size 9 to 14) (size 15 to 20)
#    0.000    0.800    2.000    3.600    2.800    1.600 
#    0.000   16.000    0.000    0.000    0.000    0.000 
#    0.000    0.000    0.000    0.000    0.000    0.000 
#
# Total GULP energy -55695.431858 kJ/mol
# GULP energy per Si atom -5569.543186 kJ/mol
# Density = 2.695366 g / cm^3
# Si number density = 27.015144 Si / 1000 Ang^3
#
#
#
# Elastic Constant Matrix: (Units=GPa)
#
#
# Indices 1 2 3 4 5 6 
#
# 1 63.4257 27.9860 54.2571 0.0000 -12.0367 0.0000
# 2 27.9860 97.7944 57.4972 0.0000 -2.9917 0.0000
# 3 54.2571 57.4972 173.8756 0.0000 -36.2229 0.0000
# 4 0.0000 0.0000 0.0000 68.4587 0.0000 6.9306
# 5 -12.0367 -2.9917 -36.2229 0.0000 68.9884 0.0000
# 6 0.0000 0.0000 0.0000 6.9306 0.0000 35.6488
#
#
#
# Elastic Compliance Matrix: (Units=1/GPa)
#
#
# Indices 1 2 3 4 5 6 
#
# 1 0.022145 -0.002902 -0.005807 0.000000 0.000689 0.000000
# 2 -0.002902 0.013289 -0.003901 0.000000 -0.001978 0.000000
# 3 -0.005807 -0.003901 0.009664 0.000000 0.003892 0.000000
# 4 0.000000 0.000000 0.000000 0.014901 0.000000 -0.002897
# 5 0.000689 -0.001978 0.003892 0.000000 0.016573 0.000000
# 6 0.000000 0.000000 0.000000 -0.002897 0.000000 0.028615
#
#
# Mechanical properties :
#
#
# Convention : Reuss Voigt Hill
#
# Bulk Modulus (GPa) = 50.30662 68.28627 59.29645
# Shear Modulus (GPa) = 36.48743 47.64288 42.06515
#
# Velocity S-wave (km/s) = 3.67908 4.20403 3.95029
# Velocity P-wave (km/s) = 6.05884 6.99265 6.54243
#
# Compressibility (1/GPa) = 0.01987810
#
# Stress axis : x y z
#
# Youngs Moduli (GPa) = 45.15591 75.24994 103.47555
#
# Poissons Ratio (x) = 0.21838 0.60091
# Poissons Ratio (y) = 0.13104 0.40366
# Poissons Ratio (z) = 0.26223 0.29355
#
# Static dielectric constant tensor:
#      x y z
#    x 2.561820 0.000000 -0.134310 
#    y 0.000000 2.174450 0.000000 
#    z -0.134310 0.000000 2.100730 
# 
# From -- ./inp_files/12981.got.cif
#   From: 2010.05.17/outbox.cif.g08.bks.cpg/sg9_7_cif.got.tgz:12981.got - 2010.06.03 20:04:27.
