data_PCOD9140761
_publ_section_title
;
Structure prediction by ZEFSAII (Michael W. Deem and Ramdas Pophale) SiO2 
 PCOD9140761
Probable space group: C C
;
_chemical_formula_sum "Si O2"
_cell_formula_units_Z 28
_cell_length_a 16.677047
_cell_length_b 8.813602
_cell_length_c 13.491153
_cell_angle_alpha 90.000000
_cell_angle_beta 36.005334
_cell_angle_gamma 90.000000
_cell_volume 1165.724660
_symmetry_space_group_name_H-M "C C"
_symmetry_group_IT_number 9
_symmetry_cell_setting 'monoclinic'
loop_
_space_group_symop_operation_xyz
x,y,z
x,-y,1/2+z
1/2+x,1/2+y,z
1/2+x,1/2-y,1/2+z
loop_
_atom_site_type_symbol
_atom_site_label
_atom_site_fract_x
_atom_site_fract_y
_atom_site_fract_z
Si Si1 0.596100 0.918685 0.200880
Si Si2 0.596100 0.918685 0.433844
Si Si3 0.062656 0.999999 0.600806
Si Si4 0.716192 0.255430 0.080374
Si Si5 0.216191 0.244571 0.814167
Si Si6 0.365416 0.263491 0.249514
Si Si7 0.365415 0.736508 0.346580
O O1 0.590468 0.891317 0.322994
O O2 0.447469 0.879414 0.305743
O O3 0.639947 0.906447 0.905367
O O4 0.717409 0.810856 0.036295
O O5 0.639947 0.906447 0.641661
O O6 0.447470 0.879413 0.626241
O O7 0.717408 0.810855 0.355813
O O8 0.148653 0.107337 0.587052
O O9 0.966431 0.098733 0.626173
O O10 0.148653 0.892661 0.442567
O O11 0.966432 0.901265 0.767890
O O12 0.730520 0.282543 0.182943
O O13 0.855083 0.238584 0.879158
O O14 0.355082 0.261417 0.737602
#
# Coordination Sequence:
#
# PCOD9140761 Si02
#       7
#     4   4   4   4   4   4   4
#     4  11  25  49  81 115 155 201 254 316 385 454
#     4  11  25  49  81 115 155 201 254 316 385 454
#     4  12  26  46  78 108 160 198 254 312 380 452
#     4  11  27  51  80 113 154 205 256 315 386 455
#     4  11  27  51  80 113 154 205 256 315 386 455
#     4  12  24  50  77 112 155 200 253 320 377 450
#     4  12  24  50  77 112 155 200 253 320 377 450
#
# _framework density 24.019394999999999
#
# number of rings (size 3 to 8) (size 9 to 14) (size 15 to 20)
#    0.000    0.571    5.714    0.857    0.000    5.714 
#    0.000    2.857    0.000    1.714    0.000    0.000 
#    0.000    0.000    0.000    0.000    0.000    0.000 
#
# Total GULP energy -78303.487562 kJ/mol
# GULP energy per Si atom -5593.106254 kJ/mol
# Density = 2.396473 g / cm^3
# Si number density = 24.019395 Si / 1000 Ang^3
#
#
#
# Elastic Constant Matrix: (Units=GPa)
#
#
# Indices 1 2 3 4 5 6 
#
# 1 148.6216 75.5945 83.4918 0.0000 23.9965 0.0000
# 2 75.5945 105.8516 75.6305 0.0000 13.4057 0.0000
# 3 83.4918 75.6305 148.7559 0.0000 24.0177 0.0000
# 4 0.0000 0.0000 0.0000 46.4712 0.0000 -4.4200
# 5 23.9965 13.4057 24.0177 0.0000 40.5683 0.0000
# 6 0.0000 0.0000 0.0000 -4.4200 0.0000 46.4828
#
#
#
# Elastic Compliance Matrix: (Units=1/GPa)
#
#
# Indices 1 2 3 4 5 6 
#
# 1 0.012081 -0.005883 -0.003262 0.000000 -0.003271 0.000000
# 2 -0.005883 0.017711 -0.005881 0.000000 0.001110 0.000000
# 3 -0.003262 -0.005881 0.012072 0.000000 -0.003274 0.000000
# 4 0.000000 0.000000 0.000000 0.021715 0.000000 0.002065
# 5 -0.003271 0.001110 -0.003274 0.000000 0.028156 0.000000
# 6 0.000000 0.000000 0.000000 0.002065 0.000000 0.021710
#
#
# Mechanical properties :
#
#
# Convention : Reuss Voigt Hill
#
# Bulk Modulus (GPa) = 84.66525 96.96253 90.81389
# Shear Modulus (GPa) = 33.91330 37.93860 35.92595
#
# Velocity S-wave (km/s) = 3.76162 3.97860 3.87163
# Velocity P-wave (km/s) = 7.36149 7.84613 7.60767
#
# Compressibility (1/GPa) = 0.01181122
#
# Stress axis : x y z
#
# Youngs Moduli (GPa) = 82.77185 56.46352 82.83715
#
# Poissons Ratio (x) = 0.33220 0.27017
# Poissons Ratio (y) = 0.48698 0.48720
# Poissons Ratio (z) = 0.26996 0.33208
#
# Static dielectric constant tensor:
#      x y z
#    x 1.915660 0.000000 -0.020800 
#    y 0.000000 2.015610 0.000000 
#    z -0.020800 0.000000 1.915590 
# 
# From -- ./inp_files/19265.got.cif
#   From: 2010.05.17/outbox.cif.g08.bks.cpg/sg9_10_cif.got.tgz:19265.got - 2010.06.03 20:04:27.
