data_PCOD9140661
_publ_section_title
;
Structure prediction by ZEFSAII (Michael W. Deem and Ramdas Pophale) SiO2 
 PCOD9140661
Probable space group: C C
;
_chemical_formula_sum "Si O2"
_cell_formula_units_Z 32
_cell_length_a 23.556012
_cell_length_b 8.142529
_cell_length_c 21.562427
_cell_angle_alpha 90.000000
_cell_angle_beta 18.338137
_cell_angle_gamma 90.000000
_cell_volume 1301.220928
_symmetry_space_group_name_H-M "C C"
_symmetry_group_IT_number 9
_symmetry_cell_setting 'monoclinic'
loop_
_space_group_symop_operation_xyz
x,y,z
x,-y,1/2+z
1/2+x,1/2+y,z
1/2+x,1/2-y,1/2+z
loop_
_atom_site_type_symbol
_atom_site_label
_atom_site_fract_x
_atom_site_fract_y
_atom_site_fract_z
Si Si1 0.154540 0.757412 0.526820
Si Si2 0.738801 0.742586 0.357613
Si Si3 0.412811 0.446116 0.470080
Si Si4 0.464177 0.091661 0.216162
Si Si5 0.980552 0.446107 0.914330
Si Si6 0.151690 0.969005 0.836842
Si Si7 0.241668 0.968999 0.547574
Si Si8 0.429168 0.408342 0.668267
O O1 0.104347 0.267335 0.555041
O O2 0.064612 0.579195 0.624317
O O3 0.231999 0.812616 0.512072
O O4 0.027774 0.901952 0.632806
O O5 0.661356 0.687379 0.372346
O O6 0.788996 0.232661 0.329390
O O7 0.865572 0.598048 0.251621
O O8 0.196681 0.476638 0.692206
O O9 0.446693 0.250007 0.442193
O O10 0.512951 0.539237 0.423268
O O11 0.539821 0.496329 0.280591
O O12 0.330707 0.109880 0.412029
O O13 0.828733 0.079197 0.760112
O O14 0.880409 0.539229 0.961146
O O15 0.853534 0.496312 0.103827
O O16 0.062639 0.109880 0.972400
#
# Coordination Sequence:
#
# PCOD9140661 Si02
#       8
#     4   4   4   4   4   4   4   4
#     4  11  25  46  73 119 156 210 251 327 392 476
#     4  11  25  46  73 119 156 210 251 327 392 476
#     4  11  25  48  78 115 152 214 266 326 392 464
#     4  11  25  45  77 112 160 203 260 315 405 465
#     4  11  25  48  78 115 152 214 266 326 392 464
#     4  11  25  47  77 113 160 199 268 322 386 474
#     4  11  25  47  77 113 160 199 268 322 386 474
#     4  11  25  45  77 112 160 203 260 315 405 465
#
# _framework density 24.592289000000001
#
# number of rings (size 3 to 8) (size 9 to 14) (size 15 to 20)
#    0.000    1.000    5.000    0.750    3.500    4.000 
#    0.000    5.000    0.000    0.000    0.000    0.000 
#    0.000    0.000    0.000    0.000    0.000    0.000 
#
# Total GULP energy -89236.125152 kJ/mol
# GULP energy per Si atom -5577.257822 kJ/mol
# Density = 2.453632 g / cm^3
# Si number density = 24.592289 Si / 1000 Ang^3
#
#
#
# Elastic Constant Matrix: (Units=GPa)
#
#
# Indices 1 2 3 4 5 6 
#
# 1 133.2616 56.2185 78.3990 -0.0020 3.1312 0.0006
# 2 56.2185 104.6977 48.3036 -0.0093 -3.1098 0.0047
# 3 78.3990 48.3036 226.4598 -0.0064 11.0406 0.0043
# 4 -0.0020 -0.0093 -0.0064 11.2931 0.0039 13.5890
# 5 3.1312 -3.1098 11.0406 0.0039 49.0140 -0.0019
# 6 0.0006 0.0047 0.0043 13.5890 -0.0019 22.4224
#
#
#
# Elastic Compliance Matrix: (Units=1/GPa)
#
#
# Indices 1 2 3 4 5 6 
#
# 1 0.011168 -0.004694 -0.002847 -0.000018 -0.000370 0.000012
# 2 -0.004694 0.012637 -0.001136 0.000041 0.001358 -0.000027
# 3 -0.002847 -0.001136 0.005701 0.000012 -0.001174 -0.000008
# 4 -0.000018 0.000041 0.000012 0.327054 -0.000033 -0.198209
# 5 -0.000370 0.001358 -0.001174 -0.000033 0.020777 0.000022
# 6 0.000012 -0.000027 -0.000008 -0.198209 0.000022 0.164722
#
#
# Mechanical properties :
#
#
# Convention : Reuss Voigt Hill
#
# Bulk Modulus (GPa) = 82.30260 92.25127 87.27694
# Shear Modulus (GPa) = 8.87368 35.31243 22.09306
#
# Velocity S-wave (km/s) = 1.90162 3.79346 3.00054
# Velocity P-wave (km/s) = 6.19363 7.53530 6.89717
#
# Compressibility (1/GPa) = 0.01215028
#
# Stress axis : x y z
#
# Youngs Moduli (GPa) = 89.54164 79.13533 175.40621
#
# Poissons Ratio (x) = 0.37148 0.49938
# Poissons Ratio (y) = 0.42033 0.19934
# Poissons Ratio (z) = 0.25492 0.08993
#
# Static dielectric constant tensor:
#      x y z
#    x 2.009190 0.000000 -0.128160 
#    y 0.000000 1.945620 0.000010 
#    z -0.128160 0.000010 2.204660 
# 
# From -- ./inp_files/34523.got.cif
#   From: 2010.05.17/outbox.cif.g08.bks.cpg/sg9_18_cif.got.tgz:34523.got - 2010.06.03 20:04:27.
