data_PCOD9140348
_publ_section_title
;
Structure prediction by ZEFSAII (Michael W. Deem and Ramdas Pophale) SiO2 
 PCOD9140348
Probable space group: C C
;
_chemical_formula_sum "Si O2"
_cell_formula_units_Z 20
_cell_length_a 9.774159
_cell_length_b 14.213523
_cell_length_c 5.463316
_cell_angle_alpha 90.000000
_cell_angle_beta 115.181390
_cell_angle_gamma 90.000000
_cell_volume 686.861833
_symmetry_space_group_name_H-M "C C"
_symmetry_group_IT_number 9
_symmetry_cell_setting 'monoclinic'
loop_
_space_group_symop_operation_xyz
x,y,z
x,-y,1/2+z
1/2+x,1/2+y,z
1/2+x,1/2-y,1/2+z
loop_
_atom_site_type_symbol
_atom_site_label
_atom_site_fract_x
_atom_site_fract_y
_atom_site_fract_z
Si Si1 0.321850 0.962219 0.438890
Si Si2 0.781563 0.246258 0.549681
Si Si3 0.449151 0.732826 0.194940
Si Si4 0.610713 0.903561 0.171620
Si Si5 0.458478 0.545101 0.000125
O O1 0.488790 0.014279 0.535520
O O2 0.256887 0.015389 0.625009
O O3 0.286924 0.853820 0.465913
O O4 0.877281 0.202998 0.396863
O O5 0.643498 0.171535 0.474418
O O6 0.841737 0.252043 0.876804
O O7 0.539593 0.828721 0.306583
O O8 0.533452 0.641951 0.152100
O O9 0.773978 0.941094 0.372063
O O10 0.486149 0.528385 0.736583
#
# Coordination Sequence:
#
# PCOD9140348 Si02
#       5
#     4   4   4   4   4
#     4  12  22  41  68 101 139 182 240 295 350 441
#     4  11  24  42  64 111 139 180 247 295 353 444
#     4  11  24  43  66  99 149 178 236 306 352 437
#     4  11  24  42  74 100 139 192 229 298 372 408
#     4  11  24  42  66 103 130 182 242 288 351 442
#
# _framework density 29.117937000000001
#
# number of rings (size 3 to 8) (size 9 to 14) (size 15 to 20)
#    0.000    0.800    4.000    3.600    0.000    6.400 
#    0.000    2.000    0.000    0.000    0.000    0.000 
#    0.000    0.000    0.000    0.000    0.000    0.000 
#
# Total GULP energy -55914.561866 kJ/mol
# GULP energy per Si atom -5591.456187 kJ/mol
# Density = 2.905166 g / cm^3
# Si number density = 29.117937 Si / 1000 Ang^3
#
#
#
# Elastic Constant Matrix: (Units=GPa)
#
#
# Indices 1 2 3 4 5 6 
#
# 1 131.6309 37.6561 80.8112 0.0000 -19.6489 0.0000
# 2 37.6561 223.3052 83.3133 0.0000 -13.6673 0.0000
# 3 80.8112 83.3133 174.9643 0.0000 -12.2971 0.0000
# 4 0.0000 0.0000 0.0000 60.4565 0.0000 -12.5215
# 5 -19.6489 -13.6673 -12.2971 0.0000 56.3983 0.0000
# 6 0.0000 0.0000 0.0000 -12.5215 0.0000 63.5178
#
#
#
# Elastic Compliance Matrix: (Units=1/GPa)
#
#
# Indices 1 2 3 4 5 6 
#
# 1 0.011019 0.000168 -0.004973 0.000000 0.002796 0.000000
# 2 0.000168 0.005481 -0.002630 0.000000 0.000813 0.000000
# 3 -0.004973 -0.002630 0.009240 0.000000 -0.000355 0.000000
# 4 0.000000 0.000000 0.000000 0.017245 0.000000 0.003400
# 5 0.002796 0.000813 -0.000355 0.000000 0.018825 0.000000
# 6 0.000000 0.000000 0.000000 0.003400 0.000000 0.016414
#
#
# Mechanical properties :
#
#
# Convention : Reuss Voigt Hill
#
# Bulk Modulus (GPa) = 91.99937 103.71794 97.85865
# Shear Modulus (GPa) = 51.69700 57.94919 54.82310
#
# Velocity S-wave (km/s) = 4.21816 4.46595 4.34383
# Velocity P-wave (km/s) = 7.44230 7.89242 7.67066
#
# Compressibility (1/GPa) = 0.01086964
#
# Stress axis : x y z
#
# Youngs Moduli (GPa) = 90.74999 182.44913 108.22485
#
# Poissons Ratio (x) = -0.03072 0.53822
# Poissons Ratio (y) = -0.01528 0.28468
# Poissons Ratio (z) = 0.45132 0.47993
#
# Static dielectric constant tensor:
#      x y z
#    x 2.526500 0.000000 0.026970 
#    y 0.000000 2.351650 0.000000 
#    z 0.026970 0.000000 2.186190 
# 
# From -- ./inp_files/1520.got.cif
#   From: 2010.05.17/outbox.cif.g08.bks.cpg/sg9_1_cif.got.tgz:1520.got - 2010.06.03 20:04:27.
