data_PCOD9140114
_publ_section_title
;
Structure prediction by ZEFSAII (Michael W. Deem and Ramdas Pophale) SiO2 
 PCOD9140114
Probable space group: C C
;
_chemical_formula_sum "Si O2"
_cell_formula_units_Z 32
_cell_length_a 21.188256
_cell_length_b 8.714023
_cell_length_c 24.950392
_cell_angle_alpha 90.000000
_cell_angle_beta 18.168790
_cell_angle_gamma 90.000000
_cell_volume 1436.453729
_symmetry_space_group_name_H-M "C C"
_symmetry_group_IT_number 9
_symmetry_cell_setting 'monoclinic'
loop_
_space_group_symop_operation_xyz
x,y,z
x,-y,1/2+z
1/2+x,1/2+y,z
1/2+x,1/2-y,1/2+z
loop_
_atom_site_type_symbol
_atom_site_label
_atom_site_fract_x
_atom_site_fract_y
_atom_site_fract_z
Si Si1 0.496810 0.559584 0.956490
Si Si2 0.768093 0.428765 0.543986
Si Si3 0.242463 0.382813 0.513024
Si Si4 0.708549 0.921183 0.941991
Si Si5 0.169258 0.824721 0.212806
Si Si6 0.178298 0.391774 0.160467
Si Si7 0.251610 0.080908 0.856962
Si Si8 0.063368 0.915303 0.108208
O O1 0.656318 0.608214 0.782732
O O2 0.590438 0.568366 0.939083
O O3 0.313212 0.680331 0.099861
O O4 0.392223 0.406670 0.018405
O O5 0.746179 0.549811 0.609122
O O6 0.667192 0.269020 0.640224
O O7 0.676874 0.485549 0.561777
O O8 0.003201 0.402521 0.344376
O O9 0.303704 0.512703 0.420638
O O10 0.441434 0.296312 0.374711
O O11 0.156205 0.476273 0.632914
O O12 0.100586 0.258851 0.598274
O O13 0.744539 0.747066 0.892834
O O14 0.470678 0.936006 0.150799
O O15 0.828239 0.028697 0.801909
O O16 0.177349 0.956896 0.961079
#
# Coordination Sequence:
#
# PCOD9140114 Si02
#       8
#     4   4   4   4   4   4   4   4
#     4  11  24  46  70 100 138 191 240 295 342 444
#     4  12  24  42  71 110 138 182 233 307 379 430
#     4  11  25  45  69 112 144 182 237 303 382 428
#     4  12  26  44  74 104 145 191 239 301 357 435
#     4  11  23  42  74 103 138 180 238 301 369 426
#     4  11  24  42  72 104 145 182 237 305 370 433
#     4  12  27  49  70 106 145 203 248 286 359 439
#     4  12  27  44  72 107 149 187 234 302 362 437
#
# _framework density 22.277085
#
# number of rings (size 3 to 8) (size 9 to 14) (size 15 to 20)
#    0.000    0.500    2.500    6.750    5.250    0.000 
#    2.250    3.750    0.000    0.000    0.000    0.000 
#    0.000    0.000    0.000    0.000    0.000    0.000 
#
# Total GULP energy -89448.682192 kJ/mol
# GULP energy per Si atom -5590.542637 kJ/mol
# Density = 2.222638 g / cm^3
# Si number density = 22.277085 Si / 1000 Ang^3
#
#
#
# Elastic Constant Matrix: (Units=GPa)
#
#
# Indices 1 2 3 4 5 6 
#
# 1 135.7571 53.0138 28.9632 0.0024 7.8463 0.0027
# 2 53.0138 113.2985 46.8440 -0.0245 -3.7882 -0.0020
# 3 28.9632 46.8440 133.6128 -0.0412 18.0279 -0.0107
# 4 0.0024 -0.0245 -0.0412 33.8040 0.0015 -0.7767
# 5 7.8463 -3.7882 18.0279 0.0015 25.9361 0.0049
# 6 0.0027 -0.0020 -0.0107 -0.7767 0.0049 11.9822
#
#
#
# Elastic Compliance Matrix: (Units=1/GPa)
#
#
# Indices 1 2 3 4 5 6 
#
# 1 0.009314 -0.004485 0.000024 -0.000004 -0.003490 -0.000002
# 2 -0.004485 0.012967 -0.004428 0.000004 0.006329 -0.000003
# 3 0.000024 -0.004428 0.010064 0.000010 -0.007649 0.000012
# 4 -0.000004 0.000004 0.000010 0.029626 -0.000007 0.001920
# 5 -0.003490 0.006329 -0.007649 -0.000007 0.045853 -0.000024
# 6 -0.000002 -0.000003 0.000012 0.001920 -0.000024 0.083582
#
#
# Mechanical properties :
#
#
# Convention : Reuss Voigt Hill
#
# Bulk Modulus (GPa) = 68.64566 71.14558 69.89562
# Shear Modulus (GPa) = 23.36025 31.26762 27.31393
#
# Velocity S-wave (km/s) = 3.24176 3.75050 3.50537
# Velocity P-wave (km/s) = 6.70025 7.12468 6.91572
#
# Compressibility (1/GPa) = 0.01456756
#
# Stress axis : x y z
#
# Youngs Moduli (GPa) = 107.36580 77.11829 99.36845
#
# Poissons Ratio (x) = 0.34586 -0.00241
# Poissons Ratio (y) = 0.48151 0.44000
# Poissons Ratio (z) = -0.00260 0.34147
#
# Static dielectric constant tensor:
#      x y z
#    x 1.778740 0.000000 -0.018530 
#    y 0.000000 1.860910 0.000010 
#    z -0.018530 0.000010 1.899060 
# 
# From -- ./inp_files/35973.got.cif
#   From: 2010.05.17/outbox.cif.g08.bks.cpg/sg9_18_cif.got.tgz:35973.got - 2010.06.03 20:04:27.
