data_PCOD9140579
_publ_section_title
;
Structure prediction by ZEFSAII (Michael W. Deem and Ramdas Pophale) SiO2 
 PCOD9140579
Probable space group: C C
;
_chemical_formula_sum "Si O2"
_cell_formula_units_Z 24
_cell_length_a 11.601487
_cell_length_b 11.318421
_cell_length_c 9.690195
_cell_angle_alpha 90.000000
_cell_angle_beta 50.457871
_cell_angle_gamma 90.000000
_cell_volume 981.238634
_symmetry_space_group_name_H-M "C C"
_symmetry_group_IT_number 9
_symmetry_cell_setting 'monoclinic'
loop_
_space_group_symop_operation_xyz
x,y,z
x,-y,1/2+z
1/2+x,1/2+y,z
1/2+x,1/2-y,1/2+z
loop_
_atom_site_type_symbol
_atom_site_label
_atom_site_fract_x
_atom_site_fract_y
_atom_site_fract_z
Si Si1 0.322450 0.327942 0.230360
Si Si2 0.481440 0.186496 0.344618
Si Si3 0.578455 0.366100 0.826289
Si Si4 0.120624 0.502742 0.051835
Si Si5 0.305411 0.068529 0.692785
Si Si6 0.141440 0.231230 0.995120
O O1 0.433923 0.269175 0.256629
O O2 0.191800 0.235629 0.293127
O O3 0.243528 0.438617 0.361737
O O4 0.422982 0.357241 0.022482
O O5 0.595484 0.085501 0.204458
O O6 0.333660 0.126883 0.522613
O O7 0.550309 0.254180 0.422324
O O8 0.661877 0.487082 0.798291
O O9 0.569413 0.347441 0.669259
O O10 0.955686 0.505424 0.107374
O O11 0.154775 0.364487 0.041736
O O12 0.289087 0.164016 0.828055
#
# Coordination Sequence:
#
# PCOD9140579 Si02
#       6
#     4   4   4   4   4   4
#     4  12  26  49  79 111 153 206 255 316 391 460
#     4  11  24  48  78 110 152 203 258 315 385 455
#     4  12  27  48  76 112 153 201 260 319 385 458
#     4  11  25  50  80 112 152 204 260 321 385 464
#     4  11  25  49  79 108 154 202 258 323 386 456
#     4  11  29  46  78 119 152 204 261 320 386 459
#
# _framework density 24.458881999999999
#
# number of rings (size 3 to 8) (size 9 to 14) (size 15 to 20)
#    0.000    0.667    3.333    2.000   11.667    2.667 
#    3.000    0.000    0.000    0.000    0.000    0.000 
#    0.000    0.000    0.000    0.000    0.000    0.000 
#
# Total GULP energy -67260.608976 kJ/mol
# GULP energy per Si atom -5605.050748 kJ/mol
# Density = 2.440321 g / cm^3
# Si number density = 24.458882 Si / 1000 Ang^3
#
#
#
# Elastic Constant Matrix: (Units=GPa)
#
#
# Indices 1 2 3 4 5 6 
#
# 1 91.0310 26.9212 38.6814 0.0000 10.8586 0.0000
# 2 26.9212 108.1504 57.4231 0.0000 -9.7514 0.0000
# 3 38.6814 57.4231 218.9713 0.0000 -10.2840 0.0000
# 4 0.0000 0.0000 0.0000 45.9352 0.0000 -13.1677
# 5 10.8586 -9.7514 -10.2840 0.0000 44.3384 0.0000
# 6 0.0000 0.0000 0.0000 -13.1677 0.0000 -138.5768
#
#
#
# Elastic Compliance Matrix: (Units=1/GPa)
#
#
# Indices 1 2 3 4 5 6 
#
# 1 0.013040 -0.002668 -0.001801 0.000000 -0.004198 0.000000
# 2 -0.002668 0.011421 -0.002401 0.000000 0.002608 0.000000
# 3 -0.001801 -0.002401 0.005571 0.000000 0.001205 0.000000
# 4 0.000000 0.000000 0.000000 0.021193 0.000000 -0.002014
# 5 -0.004198 0.002608 0.001205 0.000000 0.024435 0.000000
# 6 0.000000 0.000000 0.000000 -0.002014 0.000000 -0.007025
#
#
# Mechanical properties :
#
#
# Convention : Reuss Voigt Hill
#
# Bulk Modulus (GPa) = 61.38201 73.80046 67.59124
# Shear Modulus (GPa) = 56.94328 10.01449 33.47888
#
# Velocity S-wave (km/s) = 4.83030 2.02566 3.70372
# Velocity P-wave (km/s) = 7.50063 5.97577 6.78120
#
# Compressibility (1/GPa) = 0.01629142
#
# Stress axis : x y z
#
# Youngs Moduli (GPa) = 76.68422 87.56060 179.49364
#
# Poissons Ratio (x) = 0.23364 0.32327
# Poissons Ratio (y) = 0.20462 0.43098
# Poissons Ratio (z) = 0.13811 0.21024
#
# Static dielectric constant tensor:
#      x y z
#    x 1.943410 0.000000 0.006710 
#    y 0.000000 2.174860 0.000000 
#    z 0.006710 0.000000 1.912450 
# 
# From -- ./inp_files/6933.got.cif
#   From: 2010.05.17/outbox.cif.g08.bks.cpg/sg9_4_cif.got.tgz:6933.got - 2010.06.03 20:04:27.
