data_PCOD9140290
_publ_section_title
;
Structure prediction by ZEFSAII (Michael W. Deem and Ramdas Pophale) SiO2 
 PCOD9140290
Probable space group: C C
;
_chemical_formula_sum "Si O2"
_cell_formula_units_Z 28
_cell_length_a 6.268100
_cell_length_b 27.286669
_cell_length_c 8.795352
_cell_angle_alpha 90.000000
_cell_angle_beta 54.415838
_cell_angle_gamma 90.000000
_cell_volume 1223.404163
_symmetry_space_group_name_H-M "C C"
_symmetry_group_IT_number 9
_symmetry_cell_setting 'monoclinic'
loop_
_space_group_symop_operation_xyz
x,y,z
x,-y,1/2+z
1/2+x,1/2+y,z
1/2+x,1/2-y,1/2+z
loop_
_atom_site_type_symbol
_atom_site_label
_atom_site_fract_x
_atom_site_fract_y
_atom_site_fract_z
Si Si1 0.957170 0.806381 0.700650
Si Si2 0.965688 0.294783 0.322909
Si Si3 0.938159 0.342556 0.008408
Si Si4 0.134576 0.546639 0.409282
Si Si5 0.540794 0.597424 0.064007
Si Si6 0.584225 0.948779 0.275976
Si Si7 0.858021 0.138183 0.823639
O O1 0.029703 0.762513 0.782957
O O2 0.047008 0.862052 0.696539
O O3 0.151792 0.795501 0.479654
O O4 0.641211 0.811568 0.819480
O O5 0.022782 0.323132 0.141386
O O6 0.126363 0.323437 0.384524
O O7 0.624289 0.338837 0.142454
O O8 0.994833 0.400241 0.955479
O O9 0.392601 0.552339 0.199325
O O10 0.006190 0.497828 0.397647
O O11 0.179329 0.539205 0.568345
O O12 0.819629 0.583257 0.883011
O O13 0.388008 0.622242 0.986798
O O14 0.792660 0.913620 0.270434
#
# Coordination Sequence:
#
# PCOD9140290 Si02
#       7
#     4   4   4   4   4   4   4
#     4  11  23  48  71 100 147 193 233 303 369 415
#     4  12  23  48  73 102 151 189 244 306 360 436
#     4  11  24  48  70 102 150 188 241 305 359 436
#     4  11  25  46  72 104 142 200 233 301 368 421
#     4  11  25  49  71 106 151 188 244 310 355 438
#     4  12  25  47  73 105 152 188 249 304 360 437
#     4  12  23  48  74 105 145 192 246 305 363 435
#
# _framework density 22.886959999999998
#
# number of rings (size 3 to 8) (size 9 to 14) (size 15 to 20)
#    0.000    0.571    7.143    0.857    2.000    1.143 
#   15.429    0.000    0.000    0.000    0.000    0.000 
#    0.000    0.000    0.000    0.000    0.000    0.000 
#
# Total GULP energy -78056.603293 kJ/mol
# GULP energy per Si atom -5575.471664 kJ/mol
# Density = 2.283487 g / cm^3
# Si number density = 22.886960 Si / 1000 Ang^3
#
#
#
# Elastic Constant Matrix: (Units=GPa)
#
#
# Indices 1 2 3 4 5 6 
#
# 1 77.1544 41.3429 51.1619 0.0000 -1.5191 0.0000
# 2 41.3429 125.7536 22.1440 0.0000 9.9438 0.0000
# 3 51.1619 22.1440 127.6033 0.0000 -13.4179 0.0000
# 4 0.0000 0.0000 0.0000 45.0409 0.0000 -0.4223
# 5 -1.5191 9.9438 -13.4179 0.0000 27.5081 0.0000
# 6 0.0000 0.0000 0.0000 -0.4223 0.0000 28.9531
#
#
#
# Elastic Compliance Matrix: (Units=1/GPa)
#
#
# Indices 1 2 3 4 5 6 
#
# 1 0.020841 -0.005500 -0.007454 0.000000 -0.000497 0.000000
# 2 -0.005500 0.010062 0.000047 0.000000 -0.003918 0.000000
# 3 -0.007454 0.000047 0.011355 0.000000 0.005110 0.000000
# 4 0.000000 0.000000 0.000000 0.022205 0.000000 0.000324
# 5 -0.000497 -0.003918 0.005110 0.000000 0.040234 0.000000
# 6 0.000000 0.000000 0.000000 0.000324 0.000000 0.034543
#
#
# Mechanical properties :
#
#
# Convention : Reuss Voigt Hill
#
# Bulk Modulus (GPa) = 60.81284 62.20097 61.50691
# Shear Modulus (GPa) = 29.31949 34.69125 32.00537
#
# Velocity S-wave (km/s) = 3.58307 3.89751 3.74359
# Velocity P-wave (km/s) = 6.61411 6.89134 6.75415
#
# Compressibility (1/GPa) = 0.01644390
#
# Stress axis : x y z
#
# Youngs Moduli (GPa) = 47.98205 99.38653 88.07037
#
# Poissons Ratio (x) = 0.54662 0.65647
# Poissons Ratio (y) = 0.26390 -0.00415
# Poissons Ratio (z) = 0.35766 -0.00468
#
# Static dielectric constant tensor:
#      x y z
#    x 1.869380 0.000000 -0.028070 
#    y 0.000000 1.924800 0.000000 
#    z -0.028070 0.000000 1.867960 
# 
# From -- ./inp_files/4283.got.cif
#   From: 2010.05.17/outbox.cif.g08.bks.cpg/sg9_3_cif.got.tgz:4283.got - 2010.06.03 20:04:27.
