data_PCOD9140480
_publ_section_title
;
Structure prediction by ZEFSAII (Michael W. Deem and Ramdas Pophale) SiO2 
 PCOD9140480
Probable space group: C C
;
_chemical_formula_sum "Si O2"
_cell_formula_units_Z 28
_cell_length_a 6.662884
_cell_length_b 23.161559
_cell_length_c 8.700231
_cell_angle_alpha 90.000000
_cell_angle_beta 103.047902
_cell_angle_gamma 90.000000
_cell_volume 1307.979000
_symmetry_space_group_name_H-M "C C"
_symmetry_group_IT_number 9
_symmetry_cell_setting 'monoclinic'
loop_
_space_group_symop_operation_xyz
x,y,z
x,-y,1/2+z
1/2+x,1/2+y,z
1/2+x,1/2-y,1/2+z
loop_
_atom_site_type_symbol
_atom_site_label
_atom_site_fract_x
_atom_site_fract_y
_atom_site_fract_z
Si Si1 0.971580 0.019127 0.269490
Si Si2 0.064876 0.312535 0.319169
Si Si3 0.801287 0.636215 0.027003
Si Si4 0.264532 0.992741 0.558795
Si Si5 0.432384 0.296314 0.619968
Si Si6 0.206184 0.624103 0.293431
Si Si7 0.657025 0.922411 0.129444
O O1 0.807832 0.069999 0.219963
O O2 0.184364 0.024824 0.212908
O O3 0.850232 0.960507 0.217286
O O4 0.059676 0.022031 0.455799
O O5 0.244450 0.292956 0.467198
O O6 0.024573 0.265129 0.182128
O O7 0.122507 0.372268 0.246822
O O8 0.867795 0.326036 0.392187
O O9 0.790630 0.568693 0.978754
O O10 0.598912 0.661676 0.070432
O O11 0.984357 0.637574 0.183815
O O12 0.460505 0.034055 0.589466
O O13 0.351858 0.323526 0.766891
O O14 0.188993 0.606324 0.467560
#
# Coordination Sequence:
#
# PCOD9140480 Si02
#       7
#     4   4   4   4   4   4   4
#     4  12  24  41  65 106 144 184 230 292 360 435
#     4  11  29  47  76 104 141 190 244 306 351 434
#     4  11  24  46  72 101 145 187 236 291 366 423
#     4  12  24  41  70 104 143 190 229 292 367 430
#     4  11  27  51  73 102 144 190 248 295 365 420
#     4  11  25  44  69 103 144 188 234 301 352 432
#     4  12  27  44  71 108 147 183 247 297 365 430
#
# _framework density 21.407070999999998
#
# number of rings (size 3 to 8) (size 9 to 14) (size 15 to 20)
#    0.000    0.571    4.286    2.571    8.000    1.143 
#    2.571    0.000    0.000    0.000    0.000    0.000 
#    0.000    0.000    0.000    0.000    0.000    0.000 
#
# Total GULP energy -78241.408935 kJ/mol
# GULP energy per Si atom -5588.672067 kJ/mol
# Density = 2.135835 g / cm^3
# Si number density = 21.407071 Si / 1000 Ang^3
#
#
#
# Elastic Constant Matrix: (Units=GPa)
#
#
# Indices 1 2 3 4 5 6 
#
# 1 94.0810 27.6962 30.6294 0.0000 -2.3292 0.0000
# 2 27.6962 94.3616 19.9249 0.0000 5.4354 0.0000
# 3 30.6294 19.9249 66.6349 0.0000 -5.1469 0.0000
# 4 0.0000 0.0000 0.0000 30.7654 0.0000 -0.8926
# 5 -2.3292 5.4354 -5.1469 0.0000 30.7130 0.0000
# 6 0.0000 0.0000 0.0000 -0.8926 0.0000 30.5319
#
#
#
# Elastic Compliance Matrix: (Units=1/GPa)
#
#
# Indices 1 2 3 4 5 6 
#
# 1 0.013150 -0.002807 -0.005156 0.000000 0.000630 0.000000
# 2 -0.002807 0.012120 -0.002549 0.000000 -0.002785 0.000000
# 3 -0.005156 -0.002549 0.018382 0.000000 0.003141 0.000000
# 4 0.000000 0.000000 0.000000 0.032532 0.000000 0.000951
# 5 0.000630 -0.002785 0.003141 0.000000 0.033626 0.000000
# 6 0.000000 0.000000 0.000000 0.000951 0.000000 0.032780
#
#
# Mechanical properties :
#
#
# Convention : Reuss Voigt Hill
#
# Bulk Modulus (GPa) = 44.19467 45.73092 44.96280
# Shear Modulus (GPa) = 29.21281 30.19053 29.70167
#
# Velocity S-wave (km/s) = 3.69810 3.75948 3.72892
# Velocity P-wave (km/s) = 6.23894 6.34459 6.29198
#
# Compressibility (1/GPa) = 0.02262716
#
# Stress axis : x y z
#
# Youngs Moduli (GPa) = 76.04651 82.50771 54.40077
#
# Poissons Ratio (x) = 0.23161 0.28051
# Poissons Ratio (y) = 0.21347 0.13866
# Poissons Ratio (z) = 0.39213 0.21030
#
# Static dielectric constant tensor:
#      x y z
#    x 1.754630 0.000000 -0.027390 
#    y 0.000000 1.784050 0.000000 
#    z -0.027390 0.000000 1.789780 
# 
# From -- ./inp_files/3975.got.cif
#   From: 2010.05.17/outbox.cif.g08.bks.cpg/sg9_2_cif.got.tgz:3975.got - 2010.06.03 20:04:27.
