data_PCOD9140667
_publ_section_title
;
Structure prediction by ZEFSAII (Michael W. Deem and Ramdas Pophale) SiO2 
 PCOD9140667
Probable space group: C C
;
_chemical_formula_sum "Si O2"
_cell_formula_units_Z 28
_cell_length_a 8.841293
_cell_length_b 11.555769
_cell_length_c 12.824104
_cell_angle_alpha 90.000000
_cell_angle_beta 104.687438
_cell_angle_gamma 90.000000
_cell_volume 1267.398955
_symmetry_space_group_name_H-M "C C"
_symmetry_group_IT_number 9
_symmetry_cell_setting 'monoclinic'
loop_
_space_group_symop_operation_xyz
x,y,z
x,-y,1/2+z
1/2+x,1/2+y,z
1/2+x,1/2-y,1/2+z
loop_
_atom_site_type_symbol
_atom_site_label
_atom_site_fract_x
_atom_site_fract_y
_atom_site_fract_z
Si Si1 0.917050 0.220565 0.096970
Si Si2 0.846144 0.909199 0.802194
Si Si3 0.635900 0.723357 0.861136
Si Si4 0.075948 0.964736 0.497644
Si Si5 0.296269 0.192526 0.378040
Si Si6 0.609201 0.116718 0.741195
Si Si7 0.258919 0.036157 0.733377
O O1 0.073476 0.298000 0.138072
O O2 0.814305 0.306138 0.006573
O O3 0.938414 0.107570 0.030251
O O4 0.877189 0.169527 0.204520
O O5 0.745916 0.832128 0.864349
O O6 0.737486 0.017436 0.748925
O O7 0.993255 0.956248 0.895211
O O8 0.460574 0.765141 0.854967
O O9 0.661650 0.642246 0.765351
O O10 0.679205 0.633665 0.959401
O O11 0.175065 0.011081 0.610344
O O12 0.171921 0.292847 0.336108
O O13 0.257371 0.074505 0.310396
O O14 0.440465 0.067406 0.745199
#
# Coordination Sequence:
#
# PCOD9140667 Si02
#       7
#     4   4   4   4   4   4   4
#     4  11  25  46  72 108 146 193 242 299 372 430
#     4  12  25  48  72 107 148 190 246 301 369 439
#     4  11  25  46  71 104 142 189 241 295 365 431
#     4  11  26  46  72 104 151 193 236 315 359 433
#     4  11  26  48  71 105 150 187 242 305 361 435
#     4  12  25  44  75 106 141 192 240 296 366 434
#     4  12  26  46  73 108 144 192 247 299 366 440
#
# _framework density 22.092490000000002
#
# number of rings (size 3 to 8) (size 9 to 14) (size 15 to 20)
#    0.000    0.571    7.143    0.857    2.000    4.571 
#    0.000    0.000    0.000    0.000    0.000    0.000 
#    0.000    0.000    0.000    0.000    0.000    0.000 
#
# Total GULP energy -78105.253598 kJ/mol
# GULP energy per Si atom -5578.946686 kJ/mol
# Density = 2.204221 g / cm^3
# Si number density = 22.092490 Si / 1000 Ang^3
#
#
#
# Elastic Constant Matrix: (Units=GPa)
#
#
# Indices 1 2 3 4 5 6 
#
# 1 93.1885 46.3919 45.8248 0.0000 2.8326 0.0000
# 2 46.3919 132.0103 65.8875 0.0000 3.5723 0.0000
# 3 45.8248 65.8875 155.3865 0.0000 11.3425 0.0000
# 4 0.0000 0.0000 0.0000 33.2191 0.0000 -12.9135
# 5 2.8326 3.5723 11.3425 0.0000 31.6922 0.0000
# 6 0.0000 0.0000 0.0000 -12.9135 0.0000 28.3652
#
#
#
# Elastic Compliance Matrix: (Units=1/GPa)
#
#
# Indices 1 2 3 4 5 6 
#
# 1 0.013757 -0.003563 -0.002553 0.000000 0.000086 0.000000
# 2 -0.003563 0.010536 -0.003443 0.000000 0.000363 0.000000
# 3 -0.002553 -0.003443 0.008834 0.000000 -0.002545 0.000000
# 4 0.000000 0.000000 0.000000 0.036576 0.000000 0.016652
# 5 0.000086 0.000363 -0.002545 0.000000 0.032416 0.000000
# 6 0.000000 0.000000 0.000000 0.016652 0.000000 0.042835
#
#
# Mechanical properties :
#
#
# Convention : Reuss Voigt Hill
#
# Bulk Modulus (GPa) = 71.37856 77.42151 74.40004
# Shear Modulus (GPa) = 29.63090 33.48737 31.55913
#
# Velocity S-wave (km/s) = 3.66624 3.89753 3.78365
# Velocity P-wave (km/s) = 7.09231 7.44141 7.26896
#
# Compressibility (1/GPa) = 0.01400981
#
# Stress axis : x y z
#
# Youngs Moduli (GPa) = 72.68861 94.91242 113.19659
#
# Poissons Ratio (x) = 0.33817 0.28895
# Poissons Ratio (y) = 0.25899 0.38977
# Poissons Ratio (z) = 0.18555 0.32681
#
# Static dielectric constant tensor:
#      x y z
#    x 1.846830 0.000000 -0.010380 
#    y 0.000000 1.840510 0.000000 
#    z -0.010380 0.000000 1.848960 
# 
# From -- ./inp_files/22935.got.cif
#   From: 2010.05.17/outbox.cif.g08.bks.cpg/sg9_12_cif.got.tgz:22935.got - 2010.06.03 20:04:27.
