data_PCOD9140507
_publ_section_title
;
Structure prediction by ZEFSAII (Michael W. Deem and Ramdas Pophale) SiO2 
 PCOD9140507
Probable space group: C C
;
_chemical_formula_sum "Si O2"
_cell_formula_units_Z 24
_cell_length_a 5.289721
_cell_length_b 16.721199
_cell_length_c 14.176011
_cell_angle_alpha 90.000000
_cell_angle_beta 125.401029
_cell_angle_gamma 90.000000
_cell_volume 1022.055273
_symmetry_space_group_name_H-M "C C"
_symmetry_group_IT_number 9
_symmetry_cell_setting 'monoclinic'
loop_
_space_group_symop_operation_xyz
x,y,z
x,-y,1/2+z
1/2+x,1/2+y,z
1/2+x,1/2-y,1/2+z
loop_
_atom_site_type_symbol
_atom_site_label
_atom_site_fract_x
_atom_site_fract_y
_atom_site_fract_z
Si Si1 0.730980 0.634244 0.205200
Si Si2 0.635620 0.854215 0.319147
Si Si3 0.714623 0.253369 0.369612
Si Si4 0.321108 0.209373 0.580444
Si Si5 0.980443 0.990008 0.500255
Si Si6 0.409291 0.913808 0.948555
O O1 0.482250 0.705876 0.137589
O O2 0.736270 0.596269 0.310813
O O3 0.059623 0.681585 0.276326
O O4 0.663326 0.568295 0.111629
O O5 0.433540 0.854842 0.181146
O O6 0.424417 0.807924 0.348147
O O7 0.746946 0.936086 0.387424
O O8 0.941909 0.804853 0.356352
O O9 0.415834 0.172158 0.500838
O O10 0.955427 0.221113 0.497953
O O11 0.748376 0.049168 0.505154
O O12 0.210611 0.031818 0.476705
#
# Coordination Sequence:
#
# PCOD9140507 Si02
#       6
#     4   4   4   4   4   4
#     4  11  28  51  84 112 163 207 268 331 382 470
#     4  11  26  44  76 113 151 206 250 328 388 459
#     4  11  24  46  77 119 145 197 273 318 383 447
#     4  11  25  49  83 111 156 198 278 320 386 459
#     4  12  29  52  76 113 164 208 256 319 410 462
#     4  12  30  50  76 118 157 206 263 316 401 475
#
# _framework density 23.482098000000001
#
# number of rings (size 3 to 8) (size 9 to 14) (size 15 to 20)
#    0.000    0.667    1.667    4.000    7.000    6.667 
#    0.000    0.000    0.000    0.000    0.000    0.000 
#    0.000    0.000    0.000    0.000    0.000    0.000 
#
# Total GULP energy -67238.002308 kJ/mol
# GULP energy per Si atom -5603.166859 kJ/mol
# Density = 2.342865 g / cm^3
# Si number density = 23.482098 Si / 1000 Ang^3
#
#
#
# Elastic Constant Matrix: (Units=GPa)
#
#
# Indices 1 2 3 4 5 6 
#
# 1 160.7387 56.9973 25.7321 0.0000 8.8468 0.0000
# 2 56.9973 100.4439 37.8625 0.0000 -2.5925 0.0000
# 3 25.7321 37.8625 129.9178 0.0000 12.5282 0.0000
# 4 0.0000 0.0000 0.0000 60.4654 0.0000 -2.8955
# 5 8.8468 -2.5925 12.5282 0.0000 43.4779 0.0000
# 6 0.0000 0.0000 0.0000 -2.8955 0.0000 73.9089
#
#
#
# Elastic Compliance Matrix: (Units=1/GPa)
#
#
# Indices 1 2 3 4 5 6 
#
# 1 0.007941 -0.004526 -0.000074 0.000000 -0.001864 0.000000
# 2 -0.004526 0.013881 -0.003412 0.000000 0.002732 0.000000
# 3 -0.000074 -0.003412 0.008974 0.000000 -0.002774 0.000000
# 4 0.000000 0.000000 0.000000 0.016569 0.000000 0.000649
# 5 -0.001864 0.002732 -0.002774 0.000000 0.024342 0.000000
# 6 0.000000 0.000000 0.000000 0.000649 0.000000 0.013556
#
#
# Mechanical properties :
#
#
# Convention : Reuss Voigt Hill
#
# Bulk Modulus (GPa) = 67.70224 70.25380 68.97802
# Shear Modulus (GPa) = 47.07606 53.60433 50.34020
#
# Velocity S-wave (km/s) = 4.48232 4.78302 4.63511
# Velocity P-wave (km/s) = 7.46205 7.77728 7.62130
#
# Compressibility (1/GPa) = 0.01477056
#
# Stress axis : x y z
#
# Youngs Moduli (GPa) = 125.93336 72.04057 111.43531
#
# Poissons Ratio (x) = 0.32607 0.00823
# Poissons Ratio (y) = 0.57001 0.38026
# Poissons Ratio (z) = 0.00930 0.24583
#
# Static dielectric constant tensor:
#      x y z
#    x 1.860220 0.000000 -0.019960 
#    y 0.000000 1.853000 0.000000 
#    z -0.019960 0.000000 1.896180 
# 
# From -- ./inp_files/21881.got.cif
#   From: 2010.05.17/outbox.cif.g08.bks.cpg/sg9_11_cif.got.tgz:21881.got - 2010.06.03 20:04:27.
