data_PCOD9140548
_publ_section_title
;
Structure prediction by ZEFSAII (Michael W. Deem and Ramdas Pophale) SiO2 
 PCOD9140548
Probable space group: C C
;
_chemical_formula_sum "Si O2"
_cell_formula_units_Z 16
_cell_length_a 4.977940
_cell_length_b 13.320168
_cell_length_c 8.531048
_cell_angle_alpha 90.000000
_cell_angle_beta 86.927197
_cell_angle_gamma 90.000000
_cell_volume 564.854873
_symmetry_space_group_name_H-M "C C"
_symmetry_group_IT_number 9
_symmetry_cell_setting 'monoclinic'
loop_
_space_group_symop_operation_xyz
x,y,z
x,-y,1/2+z
1/2+x,1/2+y,z
1/2+x,1/2-y,1/2+z
loop_
_atom_site_type_symbol
_atom_site_label
_atom_site_fract_x
_atom_site_fract_y
_atom_site_fract_z
Si Si1 0.998920 0.642722 0.086460
Si Si2 0.818702 0.826549 0.263796
Si Si3 0.085403 0.574646 0.494888
Si Si4 0.583225 0.543435 0.278829
O O1 0.999855 0.732174 0.211969
O O2 0.688324 0.604004 0.123165
O O3 0.129515 0.531195 0.084925
O O4 0.136083 0.683673 0.923907
O O5 0.607952 0.843055 0.127641
O O6 0.007729 0.926184 0.260832
O O7 0.333495 0.591896 0.373138
O O8 0.828069 0.557188 0.395001
#
# Coordination Sequence:
#
# PCOD9140548 Si02
#       4
#     4   4   4   4
#     4  11  24  47  79 115 160 207 259 324 397 470
#     4  11  26  48  80 119 159 207 262 325 398 472
#     4  11  25  48  77 109 153 205 260 320 382 458
#     4  11  25  49  76 109 154 205 261 319 381 460
#
# _framework density 28.325862000000001
#
# number of rings (size 3 to 8) (size 9 to 14) (size 15 to 20)
#    0.000    1.000    0.000    6.000    0.000    6.000 
#    0.000   30.000    0.000    0.000    0.000    0.000 
#    0.000    0.000    0.000    0.000    0.000    0.000 
#
# Total GULP energy -44779.918692 kJ/mol
# GULP energy per Si atom -5597.489837 kJ/mol
# Density = 2.826139 g / cm^3
# Si number density = 28.325862 Si / 1000 Ang^3
#
#
#
# Elastic Constant Matrix: (Units=GPa)
#
#
# Indices 1 2 3 4 5 6 
#
# 1 191.8162 65.9572 85.9105 0.0000 -18.9908 0.0000
# 2 65.9572 205.5452 79.2763 0.0000 -21.5132 0.0000
# 3 85.9105 79.2763 198.6919 0.0000 -51.9696 0.0000
# 4 0.0000 0.0000 0.0000 57.4314 0.0000 -6.4196
# 5 -18.9908 -21.5132 -51.9696 0.0000 64.3366 0.0000
# 6 0.0000 0.0000 0.0000 -6.4196 0.0000 42.7512
#
#
#
# Elastic Compliance Matrix: (Units=1/GPa)
#
#
# Indices 1 2 3 4 5 6 
#
# 1 0.006728 -0.001228 -0.002545 0.000000 -0.000480 0.000000
# 2 -0.001228 0.005974 -0.001807 0.000000 0.000176 0.000000
# 3 -0.002545 -0.001807 0.008241 0.000000 0.005301 0.000000
# 4 0.000000 0.000000 0.000000 0.017709 0.000000 0.002659
# 5 -0.000480 0.000176 0.005301 0.000000 0.019743 0.000000
# 6 0.000000 0.000000 0.000000 0.002659 0.000000 0.023790
#
#
# Mechanical properties :
#
#
# Convention : Reuss Voigt Hill
#
# Bulk Modulus (GPa) = 102.20520 117.59346 109.89933
# Shear Modulus (GPa) = 51.75716 57.23113 54.49415
#
# Velocity S-wave (km/s) = 4.27922 4.49982 4.39091
# Velocity P-wave (km/s) = 7.78305 8.28266 8.03674
#
# Compressibility (1/GPa) = 0.00978424
#
# Stress axis : x y z
#
# Youngs Moduli (GPa) = 148.64103 167.38215 121.34823
#
# Poissons Ratio (x) = 0.20548 0.30879
# Poissons Ratio (y) = 0.18248 0.21927
# Poissons Ratio (z) = 0.37824 0.30245
#
# Static dielectric constant tensor:
#      x y z
#    x 2.239030 0.000000 0.112650 
#    y 0.000000 2.182180 0.000000 
#    z 0.112650 0.000000 2.303400 
# 
# From -- ./inp_files/3537.got.cif
#   From: 2010.05.17/outbox.cif.g08.bks.cpg/sg9_2_cif.got.tgz:3537.got - 2010.06.03 20:04:27.
