data_PCOD9140711
_publ_section_title
;
Structure prediction by ZEFSAII (Michael W. Deem and Ramdas Pophale) SiO2 
 PCOD9140711
Probable space group: C C
;
_chemical_formula_sum "Si O2"
_cell_formula_units_Z 28
_cell_length_a 5.591708
_cell_length_b 22.764290
_cell_length_c 12.026942
_cell_angle_alpha 90.000000
_cell_angle_beta 51.466367
_cell_angle_gamma 90.000000
_cell_volume 1197.554467
_symmetry_space_group_name_H-M "C C"
_symmetry_group_IT_number 9
_symmetry_cell_setting 'monoclinic'
loop_
_space_group_symop_operation_xyz
x,y,z
x,-y,1/2+z
1/2+x,1/2+y,z
1/2+x,1/2-y,1/2+z
loop_
_atom_site_type_symbol
_atom_site_label
_atom_site_fract_x
_atom_site_fract_y
_atom_site_fract_z
Si Si1 0.258220 0.080604 0.380660
Si Si2 0.053155 0.697439 0.360193
Si Si3 0.713923 0.868174 0.167462
Si Si4 0.091736 0.753613 0.579112
Si Si5 0.579307 0.905913 0.563440
Si Si6 0.752662 0.445737 0.427809
Si Si7 0.225137 0.306620 0.374535
O O1 0.461641 0.130234 0.381420
O O2 0.325788 0.093017 0.232400
O O3 0.922384 0.094644 0.524446
O O4 0.333709 0.013557 0.383565
O O5 0.880475 0.743349 0.329328
O O6 0.966548 0.724210 0.503768
O O7 0.395038 0.706128 0.217758
O O8 0.675177 0.804044 0.125831
O O9 0.413845 0.904542 0.288208
O O10 0.860615 0.851369 0.244932
O O11 0.372739 0.792058 0.453687
O O12 0.410435 0.928862 0.500309
O O13 0.709622 0.841260 0.495256
O O14 0.885234 0.938644 0.520262
#
# Coordination Sequence:
#
# PCOD9140711 Si02
#       7
#     4   4   4   4   4   4   4
#     4  12  27  46  79 113 147 204 267 316 378 465
#     4  12  26  41  72 107 148 194 252 315 385 460
#     4  11  25  48  73 106 150 197 253 317 383 451
#     4  12  25  43  71 108 149 195 251 317 392 462
#     4  11  28  49  81 107 154 202 261 316 388 451
#     4  11  28  55  75 112 156 209 253 325 381 457
#     4  11  25  48  67 107 150 199 243 320 391 456
#
# _framework density 23.380980999999998
#
# number of rings (size 3 to 8) (size 9 to 14) (size 15 to 20)
#    0.000    0.571    2.857    3.429   10.000    6.857 
#    0.000    0.000    0.000    0.000    0.000    0.000 
#    0.000    0.000    0.000    0.000    0.000    0.000 
#
# Total GULP energy -78231.328271 kJ/mol
# GULP energy per Si atom -5587.952019 kJ/mol
# Density = 2.332776 g / cm^3
# Si number density = 23.380981 Si / 1000 Ang^3
#
#
#
# Elastic Constant Matrix: (Units=GPa)
#
#
# Indices 1 2 3 4 5 6 
#
# 1 69.8496 21.4339 34.9046 0.0000 6.2015 0.0000
# 2 21.4339 131.5516 25.4775 0.0000 9.0061 0.0000
# 3 34.9046 25.4775 161.8325 0.0000 2.3937 0.0000
# 4 0.0000 0.0000 0.0000 32.8614 0.0000 -3.6609
# 5 6.2015 9.0061 2.3937 0.0000 24.6417 0.0000
# 6 0.0000 0.0000 0.0000 -3.6609 0.0000 28.8289
#
#
#
# Elastic Compliance Matrix: (Units=1/GPa)
#
#
# Indices 1 2 3 4 5 6 
#
# 1 0.016822 -0.001884 -0.003284 0.000000 -0.003226 0.000000
# 2 -0.001884 0.008242 -0.000855 0.000000 -0.002455 0.000000
# 3 -0.003284 -0.000855 0.007015 0.000000 0.000457 0.000000
# 4 0.000000 0.000000 0.000000 0.030868 0.000000 0.003920
# 5 -0.003226 -0.002455 0.000457 0.000000 0.042246 0.000000
# 6 0.000000 0.000000 0.000000 0.003920 0.000000 0.035185
#
#
# Mechanical properties :
#
#
# Convention : Reuss Voigt Hill
#
# Bulk Modulus (GPa) = 49.91540 58.54062 54.22801
# Shear Modulus (GPa) = 31.42632 36.02756 33.72694
#
# Velocity S-wave (km/s) = 3.67017 3.92968 3.80214
# Velocity P-wave (km/s) = 6.27338 6.75884 6.52063
#
# Compressibility (1/GPa) = 0.02003390
#
# Stress axis : x y z
#
# Youngs Moduli (GPa) = 59.44593 121.32686 142.54474
#
# Poissons Ratio (x) = 0.22858 0.46810
# Poissons Ratio (y) = 0.11200 0.12186
# Poissons Ratio (z) = 0.19522 0.10372
#
# Static dielectric constant tensor:
#      x y z
#    x 1.979950 0.000000 -0.001960 
#    y 0.000000 1.855480 0.000000 
#    z -0.001960 0.000000 1.916330 
# 
# From -- ./inp_files/13687.got.cif
#   From: 2010.05.17/outbox.cif.g08.bks.cpg/sg9_7_cif.got.tgz:13687.got - 2010.06.03 20:04:27.
