data_PCOD9140636
_publ_section_title
;
Structure prediction by ZEFSAII (Michael W. Deem and Ramdas Pophale) SiO2 
 PCOD9140636
Probable space group: C C
;
_chemical_formula_sum "Si O2"
_cell_formula_units_Z 24
_cell_length_a 13.275184
_cell_length_b 4.664636
_cell_length_c 17.631726
_cell_angle_alpha 90.000000
_cell_angle_beta 56.026977
_cell_angle_gamma 90.000000
_cell_volume 905.451527
_symmetry_space_group_name_H-M "C C"
_symmetry_group_IT_number 9
_symmetry_cell_setting 'monoclinic'
loop_
_space_group_symop_operation_xyz
x,y,z
x,-y,1/2+z
1/2+x,1/2+y,z
1/2+x,1/2-y,1/2+z
loop_
_atom_site_type_symbol
_atom_site_label
_atom_site_fract_x
_atom_site_fract_y
_atom_site_fract_z
Si Si1 0.361130 0.220651 0.504580
Si Si2 0.771711 0.818248 0.385057
Si Si3 0.700159 0.864118 0.172942
Si Si4 0.606279 0.635929 0.935184
Si Si5 0.445314 0.220714 0.103542
Si Si6 0.034731 0.181715 0.723063
O O1 0.295813 0.144306 0.453990
O O2 0.273776 0.465573 0.575673
O O3 0.493984 0.333805 0.425621
O O4 0.403226 0.999951 0.554054
O O5 0.707660 0.576788 0.361619
O O6 0.674126 0.075029 0.431666
O O7 0.903218 0.924189 0.304061
O O8 0.812452 0.833821 0.182507
O O9 0.598775 0.076829 0.246509
O O10 0.632311 0.575079 0.176458
O O11 0.532658 0.465679 0.032464
O O12 0.510631 0.144341 0.154129
#
# Coordination Sequence:
#
# PCOD9140636 Si02
#       6
#     4   4   4   4   4   4
#     4  11  25  44  76 101 136 187 240 287 342 417
#     4  12  27  44  69 102 146 183 229 292 357 410
#     4  11  25  45  70 102 136 183 238 285 346 422
#     4  11  25  45  70 102 136 183 238 285 346 422
#     4  11  25  44  76 101 136 187 240 287 342 417
#     4  12  27  44  69 102 146 183 229 292 357 410
#
# _framework density 26.506115999999999
#
# number of rings (size 3 to 8) (size 9 to 14) (size 15 to 20)
#    0.000    0.667    3.333    3.000    9.333    2.667 
#    0.000    0.000    0.000    0.000    0.000    0.000 
#    0.000    0.000    0.000    0.000    0.000    0.000 
#
# Total GULP energy -66981.401401 kJ/mol
# GULP energy per Si atom -5581.783450 kJ/mol
# Density = 2.644579 g / cm^3
# Si number density = 26.506116 Si / 1000 Ang^3
#
#
#
# Elastic Constant Matrix: (Units=GPa)
#
#
# Indices 1 2 3 4 5 6 
#
# 1 135.4914 40.6109 69.4778 -0.0018 -58.9782 0.0119
# 2 40.6109 122.8414 21.9482 0.0019 -24.3375 0.0157
# 3 69.4778 21.9482 85.8973 -0.0002 -31.1440 -0.0021
# 4 -0.0018 0.0019 -0.0002 38.0997 -0.0012 -16.5404
# 5 -58.9782 -24.3375 -31.1440 -0.0012 54.8304 -0.0012
# 6 0.0119 0.0157 -0.0021 -16.5404 -0.0012 42.4205
#
#
#
# Elastic Compliance Matrix: (Units=1/GPa)
#
#
# Indices 1 2 3 4 5 6 
#
# 1 0.019176 -0.001752 -0.009906 -0.000001 0.014223 -0.000005
# 2 -0.001752 0.009163 -0.000167 -0.000002 0.002088 -0.000004
# 3 -0.009906 -0.000167 0.019907 0.000002 0.000577 0.000004
# 4 -0.000001 -0.000002 0.000002 0.031595 0.000000 0.012320
# 5 0.014223 0.002088 0.000577 0.000000 0.034791 -0.000004
# 6 -0.000005 -0.000004 0.000004 0.012320 -0.000004 0.028377
#
#
# Mechanical properties :
#
#
# Convention : Reuss Voigt Hill
#
# Bulk Modulus (GPa) = 40.65894 67.58933 54.12414
# Shear Modulus (GPa) = 28.59438 41.21630 34.90534
#
# Velocity S-wave (km/s) = 3.28805 3.94759 3.63282
# Velocity P-wave (km/s) = 5.45782 6.80683 6.16930
#
# Compressibility (1/GPa) = 0.02459484
#
# Stress axis : x y z
#
# Youngs Moduli (GPa) = 52.14718 109.13109 50.23460
#
# Poissons Ratio (x) = 0.19118 0.49765
# Poissons Ratio (y) = 0.09136 0.00841
# Poissons Ratio (z) = 0.51660 0.01827
#
# Static dielectric constant tensor:
#      x y z
#    x 1.976330 0.000000 -0.010580 
#    y 0.000000 2.133330 -0.000010 
#    z -0.010580 -0.000010 2.235290 
# 
# From -- ./inp_files/21336.got.cif
#   From: 2010.05.17/outbox.cif.g08.bks.cpg/sg9_11_cif.got.tgz:21336.got - 2010.06.03 20:04:27.
