data_PCOD9140094
_publ_section_title
;
Structure prediction by ZEFSAII (Michael W. Deem and Ramdas Pophale) SiO2 
 PCOD9140094
Probable space group: C C
;
_chemical_formula_sum "Si O2"
_cell_formula_units_Z 24
_cell_length_a 21.040627
_cell_length_b 5.494707
_cell_length_c 9.045391
_cell_angle_alpha 90.000000
_cell_angle_beta 99.542292
_cell_angle_gamma 90.000000
_cell_volume 1031.286868
_symmetry_space_group_name_H-M "C C"
_symmetry_group_IT_number 9
_symmetry_cell_setting 'monoclinic'
loop_
_space_group_symop_operation_xyz
x,y,z
x,-y,1/2+z
1/2+x,1/2+y,z
1/2+x,1/2-y,1/2+z
loop_
_atom_site_type_symbol
_atom_site_label
_atom_site_fract_x
_atom_site_fract_y
_atom_site_fract_z
Si Si1 0.633380 0.761656 0.122280
Si Si2 0.734766 0.135886 0.069780
Si Si3 0.802005 0.781462 0.889065
Si Si4 0.174967 0.022963 0.882389
Si Si5 0.494565 0.774671 0.205773
Si Si6 0.951118 0.765201 0.026726
O O1 0.659578 0.513052 0.207551
O O2 0.568058 0.810048 0.180228
O O3 0.692543 0.946200 0.150694
O O4 0.626385 0.699302 0.946640
O O5 0.784612 0.237834 0.210022
O O6 0.676974 0.262193 0.957304
O O7 0.779883 0.029468 0.958558
O O8 0.748644 0.602025 0.939086
O O9 0.875898 0.750835 0.953857
O O10 0.487687 0.750179 0.381228
O O11 0.468716 0.521292 0.117875
O O12 0.462875 0.025380 0.132466
#
# Coordination Sequence:
#
# PCOD9140094 Si02
#       6
#     4   4   4   4   4   4
#     4  11  25  41  73  97 142 175 238 286 360 422
#     4  11  23  42  67 104 130 178 222 299 353 412
#     4  11  25  41  73  97 142 175 238 286 360 422
#     4  11  23  42  67 104 130 178 222 299 353 412
#     4  12  29  50  75 108 148 201 246 299 359 439
#     4  12  29  50  75 108 148 201 246 299 359 439
#
# _framework density 23.271892999999999
#
# number of rings (size 3 to 8) (size 9 to 14) (size 15 to 20)
#    0.000    0.667    3.333    3.000    9.333    0.000 
#    0.000    0.000    0.000    0.000    0.000    0.000 
#    0.000    0.000    0.000    0.000    0.000    0.000 
#
# Total GULP energy -66888.608563 kJ/mol
# GULP energy per Si atom -5574.050714 kJ/mol
# Density = 2.321892 g / cm^3
# Si number density = 23.271893 Si / 1000 Ang^3
#
#
#
# Elastic Constant Matrix: (Units=GPa)
#
#
# Indices 1 2 3 4 5 6 
#
# 1 60.7109 -17.1747 -33.4602 0.0000 -1.1142 0.0000
# 2 -17.1747 74.4218 21.5935 0.0000 7.5882 0.0000
# 3 -33.4602 21.5935 82.3360 0.0000 -4.0231 0.0000
# 4 0.0000 0.0000 0.0000 40.3718 0.0000 6.2980
# 5 -1.1142 7.5882 -4.0231 0.0000 35.2692 0.0000
# 6 0.0000 0.0000 0.0000 6.2980 0.0000 18.8720
#
#
#
# Elastic Compliance Matrix: (Units=1/GPa)
#
#
# Indices 1 2 3 4 5 6 
#
# 1 0.021738 0.002519 0.008226 0.000000 0.001083 0.000000
# 2 0.002519 0.015301 -0.003164 0.000000 -0.003573 0.000000
# 3 0.008226 -0.003164 0.016456 0.000000 0.002818 0.000000
# 4 0.000000 0.000000 0.000000 0.026130 0.000000 -0.008720
# 5 0.001083 -0.003573 0.002818 0.000000 0.029478 0.000000
# 6 0.000000 0.000000 0.000000 -0.008720 0.000000 0.055899
#
#
# Mechanical properties :
#
#
# Convention : Reuss Voigt Hill
#
# Bulk Modulus (GPa) = 14.56492 17.70952 16.13722
# Shear Modulus (GPa) = 28.94812 35.33661 32.14237
#
# Velocity S-wave (km/s) = 3.53074 3.90092 3.72044
# Velocity P-wave (km/s) = 4.78473 5.28356 5.04032
#
# Compressibility (1/GPa) = 0.06865810
#
# Stress axis : x y z
#
# Youngs Moduli (GPa) = 46.00266 65.35714 60.76923
#
# Poissons Ratio (x) = -0.16466 -0.49990
# Poissons Ratio (y) = -0.11590 0.19224
# Poissons Ratio (z) = -0.37843 0.20676
#
# Static dielectric constant tensor:
#      x y z
#    x 1.828860 0.000000 -0.008440 
#    y 0.000000 2.141360 0.000000 
#    z -0.008440 0.000000 1.875820 
# 
# From -- ./inp_files/11093.got.cif
#   From: 2010.05.17/outbox.cif.g08.bks.cpg/sg9_6_cif.got.tgz:11093.got - 2010.06.03 20:04:27.
