data_PCOD9140317
_publ_section_title
;
Structure prediction by ZEFSAII (Michael W. Deem and Ramdas Pophale) SiO2 
 PCOD9140317
Probable space group: C C
;
_chemical_formula_sum "Si O2"
_cell_formula_units_Z 32
_cell_length_a 8.772044
_cell_length_b 18.950328
_cell_length_c 11.391982
_cell_angle_alpha 90.000000
_cell_angle_beta 130.106919
_cell_angle_gamma 90.000000
_cell_volume 1448.403169
_symmetry_space_group_name_H-M "C C"
_symmetry_group_IT_number 9
_symmetry_cell_setting 'monoclinic'
loop_
_space_group_symop_operation_xyz
x,y,z
x,-y,1/2+z
1/2+x,1/2+y,z
1/2+x,1/2-y,1/2+z
loop_
_atom_site_type_symbol
_atom_site_label
_atom_site_fract_x
_atom_site_fract_y
_atom_site_fract_z
Si Si1 0.303320 0.089981 0.524270
Si Si2 0.582364 0.181797 0.817513
Si Si3 0.618653 0.097800 0.067386
Si Si4 0.929551 0.187017 0.353849
Si Si5 0.007139 0.806407 0.409011
Si Si6 0.073852 0.553381 0.440228
Si Si7 0.833895 0.189153 0.572796
Si Si8 0.781352 0.564050 0.073588
O O1 0.471314 0.118728 0.695456
O O2 0.413712 0.077450 0.457420
O O3 0.138046 0.148934 0.436386
O O4 0.208516 0.015557 0.516373
O O5 0.632674 0.152864 0.970064
O O6 0.433791 0.246650 0.768277
O O7 0.785806 0.201404 0.851661
O O8 0.657650 0.021378 0.028159
O O9 0.763723 0.129223 0.238016
O O10 0.401925 0.090670 0.018931
O O11 0.911876 0.208063 0.481890
O O12 0.985637 0.807054 0.256517
O O13 0.152093 0.741990 0.511915
O O14 0.109763 0.878292 0.507512
O O15 0.248627 0.610342 0.523337
O O16 0.947976 0.555362 0.257665
#
# Coordination Sequence:
#
# PCOD9140317 Si02
#       8
#     4   4   4   4   4   4   4   4
#     4  11  26  45  72 107 144 190 240 293 363 424
#     4  12  26  48  71 107 147 192 240 299 354 431
#     4  11  26  45  74 107 145 188 239 298 361 420
#     4  12  28  44  75 104 149 189 240 296 363 421
#     4  12  29  46  77 107 144 192 242 295 364 422
#     4  11  23  49  72 103 149 184 239 296 353 434
#     4  12  27  47  75 105 143 190 241 293 361 428
#     4  11  25  48  72 106 147 189 239 298 355 434
#
# _framework density 22.093295999999999
#
# number of rings (size 3 to 8) (size 9 to 14) (size 15 to 20)
#    0.000    0.500    3.750    3.000   10.500    1.000 
#    0.000    0.000    0.000    0.000    0.000    0.000 
#    0.000    0.000    0.000    0.000    0.000    0.000 
#
# Total GULP energy -89509.327944 kJ/mol
# GULP energy per Si atom -5594.332997 kJ/mol
# Density = 2.204301 g / cm^3
# Si number density = 22.093296 Si / 1000 Ang^3
#
#
#
# Elastic Constant Matrix: (Units=GPa)
#
#
# Indices 1 2 3 4 5 6 
#
# 1 59.2017 46.5842 8.5251 0.0000 -8.0504 0.0000
# 2 46.5842 108.4910 24.5255 0.0000 -0.9062 0.0000
# 3 8.5251 24.5255 59.4230 0.0000 -13.3576 0.0000
# 4 0.0000 0.0000 0.0000 31.8525 0.0000 9.1705
# 5 -8.0504 -0.9062 -13.3576 0.0000 29.0029 0.0000
# 6 0.0000 0.0000 0.0000 9.1705 0.0000 25.6087
#
#
#
# Elastic Compliance Matrix: (Units=1/GPa)
#
#
# Indices 1 2 3 4 5 6 
#
# 1 0.027361 -0.012384 0.003130 0.000000 0.008649 0.000000
# 2 -0.012384 0.015856 -0.006056 0.000000 -0.005731 0.000000
# 3 0.003130 -0.006056 0.021229 0.000000 0.010457 0.000000
# 4 0.000000 0.000000 0.000000 0.035004 0.000000 -0.012535
# 5 0.008649 -0.005731 0.010457 0.000000 0.041517 0.000000
# 6 0.000000 0.000000 0.000000 -0.012535 0.000000 0.043538
#
#
# Mechanical properties :
#
#
# Convention : Reuss Voigt Hill
#
# Bulk Modulus (GPa) = 29.56171 42.93170 36.24671
# Shear Modulus (GPa) = 22.08479 27.12490 24.60484
#
# Velocity S-wave (km/s) = 3.16510 3.50772 3.34080
# Velocity P-wave (km/s) = 5.17364 5.98996 5.59671
#
# Compressibility (1/GPa) = 0.03382754
#
# Stress axis : x y z
#
# Youngs Moduli (GPa) = 36.54796 63.06816 47.10432
#
# Poissons Ratio (x) = 0.78102 -0.14744
# Poissons Ratio (y) = 0.45260 0.28525
# Poissons Ratio (z) = -0.11440 0.38193
#
# Static dielectric constant tensor:
#      x y z
#    x 1.782880 0.000000 -0.021000 
#    y 0.000000 1.810820 0.000000 
#    z -0.021000 0.000000 1.853850 
# 
# From -- ./inp_files/5409.got.cif
#   From: 2010.05.17/outbox.cif.g08.bks.cpg/sg9_3_cif.got.tgz:5409.got - 2010.06.03 20:04:27.
