data_PCOD9140861
_publ_section_title
;
Structure prediction by ZEFSAII (Michael W. Deem and Ramdas Pophale) SiO2 
 PCOD9140861
Probable space group: C C
;
_chemical_formula_sum "Si O2"
_cell_formula_units_Z 24
_cell_length_a 8.705108
_cell_length_b 17.067022
_cell_length_c 7.836396
_cell_angle_alpha 90.000000
_cell_angle_beta 132.702996
_cell_angle_gamma 90.000000
_cell_volume 855.587049
_symmetry_space_group_name_H-M "C C"
_symmetry_group_IT_number 9
_symmetry_cell_setting 'monoclinic'
loop_
_space_group_symop_operation_xyz
x,y,z
x,-y,1/2+z
1/2+x,1/2+y,z
1/2+x,1/2-y,1/2+z
loop_
_atom_site_type_symbol
_atom_site_label
_atom_site_fract_x
_atom_site_fract_y
_atom_site_fract_z
Si Si1 0.986380 0.078735 0.204240
Si Si2 0.533382 0.263919 0.235284
Si Si3 0.529708 0.034908 0.760350
Si Si4 0.870601 0.673279 0.438012
Si Si5 0.860668 0.771774 0.789176
Si Si6 0.266314 0.928437 0.397346
O O1 0.142325 0.137038 0.221351
O O2 0.086294 0.265317 0.564924
O O3 0.770969 0.045472 0.975735
O O4 0.123081 0.002080 0.336134
O O5 0.446039 0.225601 0.341146
O O6 0.628310 0.352215 0.310667
O O7 0.791477 0.226260 0.450714
O O8 0.377077 0.065714 0.796181
O O9 0.495904 0.094070 0.576411
O O10 0.921922 0.137621 0.305137
O O11 0.884553 0.723103 0.625705
O O12 0.963274 0.554013 0.168094
#
# Coordination Sequence:
#
# PCOD9140861 Si02
#       6
#     4   4   4   4   4   4
#     4  11  27  55  87 121 182 226 290 378 440 529
#     4  12  28  50  89 127 172 236 296 362 453 530
#     4  11  26  54  85 121 179 236 288 367 452 530
#     4  11  27  54  84 130 172 227 300 368 440 541
#     4  12  25  52  83 125 176 225 287 371 442 527
#     4  11  27  55  84 128 175 230 299 364 445 545
#
# _framework density 28.050915
#
# number of rings (size 3 to 8) (size 9 to 14) (size 15 to 20)
#    0.000    0.667    3.333    2.000    4.667    5.333 
#    6.000    0.000    0.000    0.000    0.000    0.000 
#    0.000    0.000    0.000    0.000    0.000    0.000 
#
# Total GULP energy -67100.738003 kJ/mol
# GULP energy per Si atom -5591.728167 kJ/mol
# Density = 2.798707 g / cm^3
# Si number density = 28.050915 Si / 1000 Ang^3
#
#
#
# Elastic Constant Matrix: (Units=GPa)
#
#
# Indices 1 2 3 4 5 6 
#
# 1 186.5603 75.3966 113.7425 0.0000 -8.9481 0.0000
# 2 75.3966 185.0000 79.8568 0.0000 0.2397 0.0000
# 3 113.7425 79.8568 242.0839 0.0000 8.9382 0.0000
# 4 0.0000 0.0000 0.0000 63.0679 0.0000 23.2203
# 5 -8.9481 0.2397 8.9382 0.0000 59.6969 0.0000
# 6 0.0000 0.0000 0.0000 23.2203 0.0000 46.3453
#
#
#
# Elastic Compliance Matrix: (Units=1/GPa)
#
#
# Indices 1 2 3 4 5 6 
#
# 1 0.008234 -0.001936 -0.003294 0.000000 0.001735 0.000000
# 2 -0.001936 0.006763 -0.001317 0.000000 -0.000120 0.000000
# 3 -0.003294 -0.001317 0.006165 0.000000 -0.001412 0.000000
# 4 0.000000 0.000000 0.000000 0.019442 0.000000 -0.009741
# 5 0.001735 -0.000120 -0.001412 0.000000 0.017223 0.000000
# 6 0.000000 0.000000 0.000000 -0.009741 0.000000 0.026458
#
#
# Mechanical properties :
#
#
# Convention : Reuss Voigt Hill
#
# Bulk Modulus (GPa) = 123.94592 127.95957 125.95275
# Shear Modulus (GPa) = 49.96513 56.79858 53.38185
#
# Velocity S-wave (km/s) = 4.22504 4.50470 4.36711
# Velocity P-wave (km/s) = 8.25126 8.53067 8.39213
#
# Compressibility (1/GPa) = 0.00806803
#
# Stress axis : x y z
#
# Youngs Moduli (GPa) = 121.44221 147.86224 162.20320
#
# Poissons Ratio (x) = 0.28628 0.53434
# Poissons Ratio (y) = 0.23513 0.21359
# Poissons Ratio (z) = 0.40006 0.19471
#
# Static dielectric constant tensor:
#      x y z
#    x 2.203030 0.000000 0.021080 
#    y 0.000000 2.068620 0.000000 
#    z 0.021080 0.000000 2.455120 
# 
# From -- ./inp_files/25978.got.cif
#   From: 2010.05.17/outbox.cif.g08.bks.cpg/sg9_13_cif.got.tgz:25978.got - 2010.06.03 20:04:27.
