data_PCOD9140927
_publ_section_title
;
Structure prediction by ZEFSAII (Michael W. Deem and Ramdas Pophale) SiO2 
 PCOD9140927
Probable space group: C C
;
_chemical_formula_sum "Si O2"
_cell_formula_units_Z 32
_cell_length_a 13.696307
_cell_length_b 11.683505
_cell_length_c 8.696910
_cell_angle_alpha 90.000000
_cell_angle_beta 113.447528
_cell_angle_gamma 90.000000
_cell_volume 1276.768368
_symmetry_space_group_name_H-M "C C"
_symmetry_group_IT_number 9
_symmetry_cell_setting 'monoclinic'
loop_
_space_group_symop_operation_xyz
x,y,z
x,-y,1/2+z
1/2+x,1/2+y,z
1/2+x,1/2-y,1/2+z
loop_
_atom_site_type_symbol
_atom_site_label
_atom_site_fract_x
_atom_site_fract_y
_atom_site_fract_z
Si Si1 0.230860 0.304545 0.622690
Si Si2 0.287650 0.567062 0.706313
Si Si3 0.945313 0.419563 0.369327
Si Si4 0.107340 0.112523 0.393836
Si Si5 0.324007 0.757767 0.498597
Si Si6 0.551395 0.130200 0.610516
Si Si7 0.230507 0.946216 0.669313
Si Si8 0.925478 0.157117 0.055770
O O1 0.244783 0.442172 0.631336
O O2 0.134153 0.232489 0.493159
O O3 0.245541 0.270011 0.808565
O O4 0.331989 0.271785 0.580986
O O5 0.339202 0.640851 0.601648
O O6 0.178418 0.630322 0.687600
O O7 0.369551 0.574176 0.899176
O O8 0.924283 0.318957 0.479939
O O9 0.827605 0.466059 0.254061
O O10 0.006902 0.525400 0.484161
O O11 0.006728 0.388914 0.253160
O O12 0.192050 0.097461 0.309180
O O13 0.994087 0.105378 0.238746
O O14 0.132725 0.012757 0.529501
O O15 0.273628 0.848195 0.584773
O O16 0.502859 0.250583 0.523835
#
# Coordination Sequence:
#
# PCOD9140927 Si02
#       8
#     4   4   4   4   4   4   4   4
#     4  12  26  51  75 115 165 210 268 343 417 496
#     4  12  31  52  77 117 173 214 272 343 421 503
#     4  12  23  44  81 117 148 201 273 343 400 480
#     4  12  26  47  83 113 159 219 273 344 416 493
#     4  12  24  47  83 113 154 210 263 346 412 478
#     4  12  27  48  81 113 157 213 273 340 411 487
#     4  12  22  48  77 119 157 194 280 348 404 475
#     4  12  27  49  75 109 163 219 264 333 421 496
#
# _framework density 25.063276999999999
#
# number of rings (size 3 to 8) (size 9 to 14) (size 15 to 20)
#    0.000    0.000    5.000    4.500    7.000    0.000 
#    0.000    1.250    0.000    0.000    0.000    0.000 
#    0.000    0.000    0.000    0.000    0.000    0.000 
#
# Total GULP energy -89703.567132 kJ/mol
# GULP energy per Si atom -5606.472946 kJ/mol
# Density = 2.500623 g / cm^3
# Si number density = 25.063277 Si / 1000 Ang^3
#
#
#
# Elastic Constant Matrix: (Units=GPa)
#
#
# Indices 1 2 3 4 5 6 
#
# 1 74.4396 21.5489 26.1831 0.0000 10.0767 0.0000
# 2 21.5489 150.4444 61.8514 0.0000 -1.1579 0.0000
# 3 26.1831 61.8514 151.3841 0.0000 8.4890 0.0000
# 4 0.0000 0.0000 0.0000 59.0901 0.0000 -3.3412
# 5 10.0767 -1.1579 8.4890 0.0000 43.4246 0.0000
# 6 0.0000 0.0000 0.0000 -3.3412 0.0000 33.4170
#
#
#
# Elastic Compliance Matrix: (Units=1/GPa)
#
#
# Indices 1 2 3 4 5 6 
#
# 1 0.014909 -0.001409 -0.001827 0.000000 -0.003140 0.000000
# 2 -0.001409 0.008154 -0.003153 0.000000 0.001161 0.000000
# 3 -0.001827 -0.003153 0.008282 0.000000 -0.001279 0.000000
# 4 0.000000 0.000000 0.000000 0.017020 0.000000 0.001702
# 5 -0.003140 0.001161 -0.001279 0.000000 0.024038 0.000000
# 6 0.000000 0.000000 0.000000 0.001702 0.000000 0.030095
#
#
# Mechanical properties :
#
#
# Convention : Reuss Voigt Hill
#
# Bulk Modulus (GPa) = 53.85716 66.15943 60.00830
# Shear Modulus (GPa) = 41.16456 44.96531 43.06493
#
# Velocity S-wave (km/s) = 4.05708 4.24024 4.14967
# Velocity P-wave (km/s) = 6.59406 7.10121 6.85233
#
# Compressibility (1/GPa) = 0.01856763
#
# Stress axis : x y z
#
# Youngs Moduli (GPa) = 67.07282 122.64069 120.74892
#
# Poissons Ratio (x) = 0.17274 0.22062
# Poissons Ratio (y) = 0.09447 0.38071
# Poissons Ratio (z) = 0.12255 0.38668
#
# Static dielectric constant tensor:
#      x y z
#    x 1.954730 0.000000 0.032670 
#    y 0.000000 2.029820 0.000000 
#    z 0.032670 0.000000 1.967410 
# 
# From -- ./inp_files/9324.got.cif
#   From: 2010.05.17/outbox.cif.g08.bks.cpg/sg9_5_cif.got.tgz:9324.got - 2010.06.03 20:04:27.
