data_PCOD9140316
_publ_section_title
;
Structure prediction by ZEFSAII (Michael W. Deem and Ramdas Pophale) SiO2 
 PCOD9140316
Probable space group: C C
;
_chemical_formula_sum "Si O2"
_cell_formula_units_Z 32
_cell_length_a 11.254102
_cell_length_b 13.914551
_cell_length_c 15.667769
_cell_angle_alpha 90.000000
_cell_angle_beta 145.031060
_cell_angle_gamma 90.000000
_cell_volume 1406.183770
_symmetry_space_group_name_H-M "C C"
_symmetry_group_IT_number 9
_symmetry_cell_setting 'monoclinic'
loop_
_space_group_symop_operation_xyz
x,y,z
x,-y,1/2+z
1/2+x,1/2+y,z
1/2+x,1/2-y,1/2+z
loop_
_atom_site_type_symbol
_atom_site_label
_atom_site_fract_x
_atom_site_fract_y
_atom_site_fract_z
Si Si1 0.676120 0.500440 0.617540
Si Si2 0.939130 0.941251 0.628853
Si Si3 0.078794 0.599147 0.407069
Si Si4 0.177728 0.647505 0.104064
Si Si5 0.048312 0.184192 0.835651
Si Si6 0.627788 0.927894 0.123770
Si Si7 0.725444 0.488410 0.961586
Si Si8 0.227120 0.186133 0.764620
O O1 0.536296 0.428521 0.592316
O O2 0.616287 0.532983 0.487600
O O3 0.687723 0.594370 0.682618
O O4 0.900628 0.450866 0.746724
O O5 0.814140 0.853529 0.597760
O O6 0.776720 0.029029 0.520981
O O7 0.102452 0.966472 0.801001
O O8 0.100575 0.709515 0.396009
O O9 0.014596 0.598395 0.468502
O O10 0.192503 0.538960 0.148263
O O11 0.240649 0.721706 0.212983
O O12 0.945096 0.669950 0.939193
O O13 0.330811 0.640659 0.744449
O O14 0.221671 0.104865 0.961313
O O15 0.054518 0.191607 0.736645
O O16 0.446993 0.935079 0.087565
#
# Coordination Sequence:
#
# PCOD9140316 Si02
#       8
#     4   4   4   4   4   4   4   4
#     4  12  26  47  74 109 146 200 250 307 391 450
#     4  11  23  52  69 100 160 190 240 326 374 441
#     4  11  24  45  76 107 148 193 249 319 378 439
#     4  11  24  43  73 104 147 198 241 319 374 440
#     4  12  26  44  79 112 146 200 257 319 370 462
#     4  11  23  49  68 104 158 188 238 322 382 431
#     4  12  25  43  78 104 145 201 246 302 388 455
#     4  12  25  45  73 112 146 192 263 310 371 460
#
# _framework density 22.756627000000002
#
# number of rings (size 3 to 8) (size 9 to 14) (size 15 to 20)
#    0.000    0.500    8.750    0.000    8.750    1.000 
#    2.250    0.000    0.000    0.000    0.000    0.000 
#    0.000    0.000    0.000    0.000    0.000    0.000 
#
# Total GULP energy -89344.964367 kJ/mol
# GULP energy per Si atom -5584.060273 kJ/mol
# Density = 2.270483 g / cm^3
# Si number density = 22.756627 Si / 1000 Ang^3
#
#
#
# Elastic Constant Matrix: (Units=GPa)
#
#
# Indices 1 2 3 4 5 6 
#
# 1 144.5445 18.9762 64.6279 0.0001 1.4431 0.0000
# 2 18.9762 86.2095 33.0252 0.0005 6.3146 0.0001
# 3 64.6279 33.0252 87.0903 0.0019 0.0191 0.0006
# 4 0.0001 0.0005 0.0019 35.5994 0.0012 -12.2082
# 5 1.4431 6.3146 0.0191 0.0012 28.1806 0.0003
# 6 0.0000 0.0001 0.0006 -12.2082 0.0003 31.8498
#
#
#
# Elastic Compliance Matrix: (Units=1/GPa)
#
#
# Indices 1 2 3 4 5 6 
#
# 1 0.010412 0.000843 -0.008046 0.000001 -0.000717 0.000000
# 2 0.000843 0.013904 -0.005897 0.000000 -0.003155 0.000000
# 3 -0.008046 -0.005897 0.019689 -0.000001 0.001720 -0.000001
# 4 0.000001 0.000000 -0.000001 0.032342 -0.000002 0.012397
# 5 -0.000717 -0.003155 0.001720 -0.000002 0.036228 -0.000001
# 6 0.000000 0.000000 -0.000001 0.012397 -0.000001 0.036149
#
#
# Mechanical properties :
#
#
# Convention : Reuss Voigt Hill
#
# Bulk Modulus (GPa) = 56.16581 61.23363 58.69972
# Shear Modulus (GPa) = 27.64553 32.54031 30.09292
#
# Velocity S-wave (km/s) = 3.48923 3.78554 3.64040
# Velocity P-wave (km/s) = 6.40059 6.78775 6.59701
#
# Compressibility (1/GPa) = 0.01780442
#
# Stress axis : x y z
#
# Youngs Moduli (GPa) = 96.03943 71.91967 50.78897
#
# Poissons Ratio (x) = -0.06062 0.40866
# Poissons Ratio (y) = -0.08095 0.29953
# Poissons Ratio (z) = 0.77276 0.42414
#
# Static dielectric constant tensor:
#      x y z
#    x 1.979070 0.000000 0.013390 
#    y 0.000000 1.822550 0.000000 
#    z 0.013390 0.000000 1.865180 
# 
# From -- ./inp_files/24856.got.cif
#   From: 2010.05.17/outbox.cif.g08.bks.cpg/sg9_13_cif.got.tgz:24856.got - 2010.06.03 20:04:27.
