data_PCOD9140052
_publ_section_title
;
Structure prediction by ZEFSAII (Michael W. Deem and Ramdas Pophale) SiO2 
 PCOD9140052
Probable space group: C C
;
_chemical_formula_sum "Si O2"
_cell_formula_units_Z 32
_cell_length_a 6.333111
_cell_length_b 16.887767
_cell_length_c 15.065623
_cell_angle_alpha 90.000000
_cell_angle_beta 121.245999
_cell_angle_gamma 90.000000
_cell_volume 1377.577918
_symmetry_space_group_name_H-M "C C"
_symmetry_group_IT_number 9
_symmetry_cell_setting 'monoclinic'
loop_
_space_group_symop_operation_xyz
x,y,z
x,-y,1/2+z
1/2+x,1/2+y,z
1/2+x,1/2-y,1/2+z
loop_
_atom_site_type_symbol
_atom_site_label
_atom_site_fract_x
_atom_site_fract_y
_atom_site_fract_z
Si Si1 0.940880 0.597152 0.220490
Si Si2 0.675595 0.135896 0.093588
Si Si3 0.457050 0.227572 0.886884
Si Si4 0.973802 0.866276 0.234840
Si Si5 0.637787 0.259298 0.740952
Si Si6 0.484341 0.597542 0.413698
Si Si7 0.293374 0.988990 0.847602
Si Si8 0.343009 0.519610 0.549720
O O1 0.816968 0.673254 0.239953
O O2 0.823218 0.523217 0.247816
O O3 0.969609 0.612094 0.121860
O O4 0.224012 0.587095 0.309178
O O5 0.863408 0.205713 0.163731
O O6 0.845876 0.060670 0.107339
O O7 0.546284 0.163531 0.975847
O O8 0.196722 0.198245 0.788586
O O9 0.644196 0.240399 0.846544
O O10 0.462560 0.311464 0.938811
O O11 0.730420 0.822398 0.217630
O O12 0.891000 0.906178 0.124591
O O13 0.101113 0.938753 0.317053
O O14 0.677238 0.582805 0.377963
O O15 0.513669 0.536785 0.501254
O O16 0.568193 0.989142 0.947655
#
# Coordination Sequence:
#
# PCOD9140052 Si02
#       8
#     4   4   4   4   4   4   4   4
#     4  11  22  47  75 101 151 202 251 310 385 456
#     4  12  27  49  76 112 148 205 260 310 394 461
#     4  12  27  48  74 109 152 196 256 313 384 460
#     4  12  27  48  73 114 150 193 261 315 384 458
#     4  12  26  45  77 108 147 203 243 324 378 458
#     4  11  24  45  74 110 152 193 250 308 384 455
#     4  11  25  48  76 108 150 205 247 320 384 455
#     4  11  28  46  75 112 152 203 252 320 383 463
#
# _framework density 23.229177
#
# number of rings (size 3 to 8) (size 9 to 14) (size 15 to 20)
#    0.000    0.500    5.000    1.500    7.000    4.000 
#    0.000    0.000    0.000    0.000    0.000    0.000 
#    0.000    0.000    0.000    0.000    0.000    0.000 
#
# Total GULP energy -89234.246032 kJ/mol
# GULP energy per Si atom -5577.140377 kJ/mol
# Density = 2.317631 g / cm^3
# Si number density = 23.229177 Si / 1000 Ang^3
#
#
#
# Elastic Constant Matrix: (Units=GPa)
#
#
# Indices 1 2 3 4 5 6 
#
# 1 74.4919 50.1542 55.6208 0.0000 -11.9883 0.0000
# 2 50.1542 107.0160 29.8712 0.0000 -15.6400 0.0000
# 3 55.6208 29.8712 97.6477 0.0000 -23.6760 0.0000
# 4 0.0000 0.0000 0.0000 30.9255 0.0000 1.6472
# 5 -11.9883 -15.6400 -23.6760 0.0000 36.2865 0.0000
# 6 0.0000 0.0000 0.0000 1.6472 0.0000 37.5054
#
#
#
# Elastic Compliance Matrix: (Units=1/GPa)
#
#
# Indices 1 2 3 4 5 6 
#
# 1 0.032302 -0.011340 -0.016070 0.000000 -0.004701 0.000000
# 2 -0.011340 0.014445 0.003138 0.000000 0.004527 0.000000
# 3 -0.016070 0.003138 0.020759 0.000000 0.009588 0.000000
# 4 0.000000 0.000000 0.000000 0.032412 0.000000 -0.001423
# 5 -0.004701 0.004527 0.009588 0.000000 0.034213 0.000000
# 6 0.000000 0.000000 0.000000 -0.001423 0.000000 0.026725
#
#
# Mechanical properties :
#
#
# Convention : Reuss Voigt Hill
#
# Bulk Modulus (GPa) = 52.73732 61.16088 56.94910
# Shear Modulus (GPa) = 23.17814 30.51077 26.84446
#
# Velocity S-wave (km/s) = 3.16223 3.62811 3.40315
# Velocity P-wave (km/s) = 6.00710 6.62853 6.32545
#
# Compressibility (1/GPa) = 0.01896191
#
# Stress axis : x y z
#
# Youngs Moduli (GPa) = 30.95791 69.22980 48.17077
#
# Poissons Ratio (x) = 0.78507 0.77412
# Poissons Ratio (y) = 0.35106 -0.15117
# Poissons Ratio (z) = 0.49750 -0.21726
#
# Static dielectric constant tensor:
#      x y z
#    x 1.866580 0.000000 0.001180 
#    y 0.000000 1.956020 0.000000 
#    z 0.001180 0.000000 1.922260 
# 
# From -- ./inp_files/22006.got.cif
#   From: 2010.05.17/outbox.cif.g08.bks.cpg/sg9_12_cif.got.tgz:22006.got - 2010.06.03 20:04:27.
