data_PCOD9140866
_publ_section_title
;
Structure prediction by ZEFSAII (Michael W. Deem and Ramdas Pophale) SiO2 
 PCOD9140866
Probable space group: C C
;
_chemical_formula_sum "Si O2"
_cell_formula_units_Z 32
_cell_length_a 15.298922
_cell_length_b 12.003054
_cell_length_c 9.915840
_cell_angle_alpha 90.000000
_cell_angle_beta 140.483189
_cell_angle_gamma 90.000000
_cell_volume 1158.636375
_symmetry_space_group_name_H-M "C C"
_symmetry_group_IT_number 9
_symmetry_cell_setting 'monoclinic'
loop_
_space_group_symop_operation_xyz
x,y,z
x,-y,1/2+z
1/2+x,1/2+y,z
1/2+x,1/2-y,1/2+z
loop_
_atom_site_type_symbol
_atom_site_label
_atom_site_fract_x
_atom_site_fract_y
_atom_site_fract_z
Si Si1 0.294330 0.033118 0.260480
Si Si2 0.340935 0.223540 0.116363
Si Si3 0.288917 0.452172 0.173944
Si Si4 0.041097 0.564591 0.723115
Si Si5 0.558222 0.297828 0.173944
Si Si6 0.639344 0.283118 0.760479
Si Si7 0.948623 0.973540 0.616363
Si Si8 0.355211 0.185409 0.723115
O O1 0.331306 0.104135 0.172368
O O2 0.428362 0.997282 0.505514
O O3 0.206966 0.125000 0.240739
O O4 0.252482 0.910429 0.161907
O O5 0.308908 0.319624 0.186996
O O6 0.486406 0.249425 0.223708
O O7 0.216422 0.237946 0.860650
O O8 0.317422 0.487946 0.360650
O O9 0.410496 0.500575 0.223708
O O10 0.155381 0.494215 0.936585
O O11 0.082619 0.660428 0.661907
O O12 0.958102 0.625000 0.743010
O O13 0.551282 0.430376 0.186996
O O14 0.454398 0.255785 0.936585
O O15 0.514256 0.354135 0.672368
O O16 0.750346 0.247282 0.005514
#
# Coordination Sequence:
#
# PCOD9140866 Si02
#       8
#     4   4   4   4   4   4   4   4
#     4  11  27  45  73 104 142 189 238 301 366 445
#     4  11  27  45  73 104 142 189 238 301 366 445
#     4  11  27  45  73 104 142 189 238 301 366 445
#     4  11  27  45  73 104 142 189 238 301 366 445
#     4  11  27  45  73 104 142 189 238 301 366 445
#     4  11  27  45  73 104 142 189 238 301 366 445
#     4  11  27  45  73 104 142 189 238 301 366 445
#     4  11  27  45  73 104 142 189 238 301 366 445
#
# _framework density 27.618673999999999
#
# number of rings (size 3 to 8) (size 9 to 14) (size 15 to 20)
#    0.000    1.000    0.000    3.000   28.000    0.000 
#    0.000    0.000    0.000    0.000    0.000    0.000 
#    0.000    0.000    0.000    0.000    0.000    0.000 
#
# Total GULP energy -89666.668314 kJ/mol
# GULP energy per Si atom -5604.166770 kJ/mol
# Density = 2.755581 g / cm^3
# Si number density = 27.618674 Si / 1000 Ang^3
#
#
#
# Elastic Constant Matrix: (Units=GPa)
#
#
# Indices 1 2 3 4 5 6 
#
# 1 68.4451 18.7839 15.9664 0.0000 0.1732 0.0000
# 2 18.7839 115.7923 6.3931 0.0000 -0.0911 0.0000
# 3 15.9664 6.3931 116.7432 0.0000 0.1817 0.0000
# 4 0.0000 0.0000 0.0000 32.4810 0.0000 -0.0976
# 5 0.1732 -0.0911 0.1817 0.0000 38.0247 0.0000
# 6 0.0000 0.0000 0.0000 -0.0976 0.0000 45.7603
#
#
#
# Elastic Compliance Matrix: (Units=1/GPa)
#
#
# Indices 1 2 3 4 5 6 
#
# 1 0.015752 -0.002444 -0.002020 0.000000 -0.000068 0.000000
# 2 -0.002444 0.009042 -0.000161 0.000000 0.000034 0.000000
# 3 -0.002020 -0.000161 0.008851 0.000000 -0.000033 0.000000
# 4 0.000000 0.000000 0.000000 0.030787 0.000000 0.000066
# 5 -0.000068 0.000034 -0.000033 0.000000 0.026299 0.000000
# 6 0.000000 0.000000 0.000000 0.000066 0.000000 0.021853
#
#
# Mechanical properties :
#
#
# Convention : Reuss Voigt Hill
#
# Bulk Modulus (GPa) = 40.99300 42.58528 41.78914
# Shear Modulus (GPa) = 38.47139 40.57570 39.52355
#
# Velocity S-wave (km/s) = 3.73627 3.83709 3.78702
# Velocity P-wave (km/s) = 5.78685 5.92314 5.85539
#
# Compressibility (1/GPa) = 0.02439441
#
# Stress axis : x y z
#
# Youngs Moduli (GPa) = 63.48225 110.60095 112.98158
#
# Poissons Ratio (x) = 0.27029 0.22827
# Poissons Ratio (y) = 0.15514 0.01818
# Poissons Ratio (z) = 0.12826 0.01780
#
# Static dielectric constant tensor:
#      x y z
#    x 2.194150 0.000000 0.000070 
#    y 0.000000 2.062800 0.000000 
#    z 0.000070 0.000000 2.203710 
# 
# From -- ./inp_files/20317.got.cif
#   From: 2010.05.17/outbox.cif.g08.bks.cpg/sg9_11_cif.got.tgz:20317.got - 2010.06.03 20:04:27.
