data_PCOD9140875
_publ_section_title
;
Structure prediction by ZEFSAII (Michael W. Deem and Ramdas Pophale) SiO2 
 PCOD9140875
Probable space group: C C
;
_chemical_formula_sum "Si O2"
_cell_formula_units_Z 20
_cell_length_a 9.742041
_cell_length_b 12.555915
_cell_length_c 8.260283
_cell_angle_alpha 90.000000
_cell_angle_beta 49.900170
_cell_angle_gamma 90.000000
_cell_volume 772.878353
_symmetry_space_group_name_H-M "C C"
_symmetry_group_IT_number 9
_symmetry_cell_setting 'monoclinic'
loop_
_space_group_symop_operation_xyz
x,y,z
x,-y,1/2+z
1/2+x,1/2+y,z
1/2+x,1/2-y,1/2+z
loop_
_atom_site_type_symbol
_atom_site_label
_atom_site_fract_x
_atom_site_fract_y
_atom_site_fract_z
Si Si1 0.475080 0.453707 0.924270
Si Si2 0.505412 0.344619 0.242493
Si Si3 0.147619 0.324203 0.038263
Si Si4 0.822398 0.608373 0.959158
Si Si5 0.410650 0.125161 0.407870
O O1 0.428699 0.579283 0.941471
O O2 0.678176 0.428262 0.706689
O O3 0.467299 0.412336 0.111641
O O4 0.325855 0.390625 0.937494
O O5 0.453294 0.222777 0.257311
O O6 0.715065 0.343372 0.115988
O O7 0.018087 0.334463 0.295864
O O8 0.202730 0.201624 0.971177
O O9 0.042826 0.367377 0.960602
O O10 0.888815 0.491468 0.849066
#
# Coordination Sequence:
#
# PCOD9140875 Si02
#       5
#     4   4   4   4   4
#     4  11  29  51  81 115 170 216 279 345 413 497
#     4  11  29  51  80 120 168 215 281 344 416 495
#     4  12  26  50  86 112 166 224 275 342 425 483
#     4  11  27  48  82 121 165 210 281 335 418 487
#     4  11  29  48  83 120 167 213 280 342 414 498
#
# _framework density 25.877293000000002
#
# number of rings (size 3 to 8) (size 9 to 14) (size 15 to 20)
#    0.000    0.800    2.000    1.200   25.200    0.000 
#    0.000    0.000    0.000    0.000    0.000    0.000 
#    0.000    0.000    0.000    0.000    0.000    0.000 
#
# Total GULP energy -55811.122813 kJ/mol
# GULP energy per Si atom -5581.112281 kJ/mol
# Density = 2.581839 g / cm^3
# Si number density = 25.877293 Si / 1000 Ang^3
#
#
#
# Elastic Constant Matrix: (Units=GPa)
#
#
# Indices 1 2 3 4 5 6 
#
# 1 130.4128 59.8582 31.5389 0.0000 1.0301 0.0000
# 2 59.8582 215.3361 46.2337 0.0000 -11.2650 0.0000
# 3 31.5389 46.2337 74.7685 0.0000 -4.2731 0.0000
# 4 0.0000 0.0000 0.0000 44.3503 0.0000 -10.3409
# 5 1.0301 -11.2650 -4.2731 0.0000 25.5983 0.0000
# 6 0.0000 0.0000 0.0000 -10.3409 0.0000 18.7188
#
#
#
# Elastic Compliance Matrix: (Units=1/GPa)
#
#
# Indices 1 2 3 4 5 6 
#
# 1 0.009302 -0.002091 -0.002731 0.000000 -0.001750 0.000000
# 2 -0.002091 0.005910 -0.002644 0.000000 0.002244 0.000000
# 3 -0.002731 -0.002644 0.016257 0.000000 0.001660 0.000000
# 4 0.000000 0.000000 0.000000 0.025881 0.000000 0.014298
# 5 -0.001750 0.002244 0.001660 0.000000 0.040400 0.000000
# 6 0.000000 0.000000 0.000000 0.014298 0.000000 0.061321
#
#
# Mechanical properties :
#
#
# Convention : Reuss Voigt Hill
#
# Bulk Modulus (GPa) = 60.47267 77.30878 68.89072
# Shear Modulus (GPa) = 27.85276 36.59260 32.22268
#
# Velocity S-wave (km/s) = 3.28432 3.76451 3.53258
# Velocity P-wave (km/s) = 6.14834 6.98823 6.58170
#
# Compressibility (1/GPa) = 0.01653640
#
# Stress axis : x y z
#
# Youngs Moduli (GPa) = 107.50451 169.19660 61.51343
#
# Poissons Ratio (x) = 0.35378 0.16798
# Poissons Ratio (y) = 0.22479 0.16267
# Poissons Ratio (z) = 0.29358 0.44743
#
# Static dielectric constant tensor:
#      x y z
#    x 2.011600 0.000000 0.053420 
#    y 0.000000 2.149850 0.000000 
#    z 0.053420 0.000000 2.127710 
# 
# From -- ./inp_files/4750.got.cif
#   From: 2010.05.17/outbox.cif.g08.bks.cpg/sg9_3_cif.got.tgz:4750.got - 2010.06.03 20:04:27.
