data_PCOD9140988
_publ_section_title
;
Structure prediction by ZEFSAII (Michael W. Deem and Ramdas Pophale) SiO2 
 PCOD9140988
Probable space group: C C
;
_chemical_formula_sum "Si O2"
_cell_formula_units_Z 20
_cell_length_a 16.562863
_cell_length_b 6.608595
_cell_length_c 14.322991
_cell_angle_alpha 90.000000
_cell_angle_beta 145.035668
_cell_angle_gamma 90.000000
_cell_volume 898.427836
_symmetry_space_group_name_H-M "C C"
_symmetry_group_IT_number 9
_symmetry_cell_setting 'monoclinic'
loop_
_space_group_symop_operation_xyz
x,y,z
x,-y,1/2+z
1/2+x,1/2+y,z
1/2+x,1/2-y,1/2+z
loop_
_atom_site_type_symbol
_atom_site_label
_atom_site_fract_x
_atom_site_fract_y
_atom_site_fract_z
Si Si1 0.276760 0.231642 0.963810
Si Si2 0.120698 0.877472 0.717295
Si Si3 0.847546 0.058149 0.874233
Si Si4 0.440712 0.865498 0.200857
Si Si5 0.706562 0.938353 0.547848
O O1 0.331008 0.389480 0.938619
O O2 0.164241 0.087311 0.806168
O O3 0.219177 0.364913 0.994193
O O4 0.393761 0.081197 0.116459
O O5 0.261060 0.757148 0.822886
O O6 0.014496 0.900607 0.529402
O O7 0.032819 0.747583 0.709508
O O8 0.773329 0.982520 0.710689
O O9 0.542628 0.880051 0.387193
O O10 0.302229 0.737555 0.093199
#
# Coordination Sequence:
#
# PCOD9140988 Si02
#       5
#     4   4   4   4   4
#     4  12  24  46  76  94 146 188 234 286 362 408
#     4  12  24  49  70 104 142 184 239 289 351 426
#     4  12  29  44  73 108 141 186 239 296 352 420
#     4  12  24  49  70 104 142 184 239 289 351 426
#     4  12  29  44  73 108 141 186 239 296 352 420
#
# _framework density 22.261106999999999
#
# number of rings (size 3 to 8) (size 9 to 14) (size 15 to 20)
#    0.000    0.000    8.000    1.200    5.600    1.600 
#    0.000    0.000    0.000    0.000    0.000    0.000 
#    0.000    0.000    0.000    0.000    0.000    0.000 
#
# Total GULP energy -55998.472232 kJ/mol
# GULP energy per Si atom -5599.847223 kJ/mol
# Density = 2.221044 g / cm^3
# Si number density = 22.261107 Si / 1000 Ang^3
#
#
#
# Elastic Constant Matrix: (Units=GPa)
#
#
# Indices 1 2 3 4 5 6 
#
# 1 15.2441 1.7075 12.7598 0.0000 4.0002 0.0000
# 2 1.7075 81.7163 27.6583 0.0000 15.1619 0.0000
# 3 12.7598 27.6583 203.1256 0.0000 16.5710 0.0000
# 4 0.0000 0.0000 0.0000 54.0069 0.0000 3.6957
# 5 4.0002 15.1619 16.5710 0.0000 40.4532 0.0000
# 6 0.0000 0.0000 0.0000 3.6957 0.0000 17.8117
#
#
#
# Elastic Compliance Matrix: (Units=1/GPa)
#
#
# Indices 1 2 3 4 5 6 
#
# 1 0.070398 0.000962 -0.004093 0.000000 -0.005645 0.000000
# 2 0.000962 0.013583 -0.001538 0.000000 -0.004556 0.000000
# 3 -0.004093 -0.001538 0.005493 0.000000 -0.001269 0.000000
# 4 0.000000 0.000000 0.000000 0.018783 0.000000 -0.003897
# 5 -0.005645 -0.004556 -0.001269 0.000000 0.027506 0.000000
# 6 0.000000 0.000000 0.000000 -0.003897 0.000000 0.056952
#
#
# Mechanical properties :
#
#
# Convention : Reuss Voigt Hill
#
# Bulk Modulus (GPa) = 12.47872 42.70414 27.59143
# Shear Modulus (GPa) = 21.85645 39.65173 30.75409
#
# Velocity S-wave (km/s) = 3.13680 4.22502 3.72091
# Velocity P-wave (km/s) = 4.32865 6.55942 5.55712
#
# Compressibility (1/GPa) = 0.08013642
#
# Stress axis : x y z
#
# Youngs Moduli (GPa) = 14.20487 73.61951 182.04565
#
# Poissons Ratio (x) = -0.07080 0.74505
# Poissons Ratio (y) = -0.01366 0.28004
# Poissons Ratio (z) = 0.05814 0.11325
#
# Static dielectric constant tensor:
#      x y z
#    x 1.795720 0.000000 0.007590 
#    y 0.000000 1.802320 0.000000 
#    z 0.007590 0.000000 1.869630 
# 
# From -- ./inp_files/8648.got.cif
#   From: 2010.05.17/outbox.cif.g08.bks.cpg/sg9_5_cif.got.tgz:8648.got - 2010.06.03 20:04:27.
