data_PCOD9140387
_publ_section_title
;
Structure prediction by ZEFSAII (Michael W. Deem and Ramdas Pophale) SiO2 
 PCOD9140387
Probable space group: C C
;
_chemical_formula_sum "Si O2"
_cell_formula_units_Z 32
_cell_length_a 18.352764
_cell_length_b 5.753658
_cell_length_c 13.480015
_cell_angle_alpha 90.000000
_cell_angle_beta 70.360109
_cell_angle_gamma 90.000000
_cell_volume 1340.619406
_symmetry_space_group_name_H-M "C C"
_symmetry_group_IT_number 9
_symmetry_cell_setting 'monoclinic'
loop_
_space_group_symop_operation_xyz
x,y,z
x,-y,1/2+z
1/2+x,1/2+y,z
1/2+x,1/2-y,1/2+z
loop_
_atom_site_type_symbol
_atom_site_label
_atom_site_fract_x
_atom_site_fract_y
_atom_site_fract_z
Si Si1 0.470680 0.347953 0.478130
Si Si2 0.592833 0.302533 0.965540
Si Si3 0.317770 0.625861 0.554672
Si Si4 0.581497 0.039520 0.310746
Si Si5 0.840250 0.434494 0.737386
Si Si6 0.746348 0.502338 0.959659
Si Si7 0.724473 0.746327 0.678468
Si Si8 0.013087 0.443797 0.148429
O O1 0.521251 0.578496 0.443111
O O2 0.382406 0.426881 0.508777
O O3 0.502963 0.148555 0.391698
O O4 0.494322 0.254138 0.576576
O O5 0.658254 0.491356 0.960632
O O6 0.623839 0.109231 0.875610
O O7 0.557984 0.156249 0.073438
O O8 0.346566 0.784660 0.633237
O O9 0.242691 0.507121 0.636365
O O10 0.292859 0.763053 0.467086
O O11 0.637886 0.251511 0.257135
O O12 0.562508 0.889011 0.222653
O O13 0.795852 0.355540 0.857069
O O14 0.786747 0.653153 0.728582
O O15 0.928104 0.484853 0.723083
O O16 0.736232 0.394876 0.072953
#
# Coordination Sequence:
#
# PCOD9140387 Si02
#       8
#     4   4   4   4   4   4   4   4
#     4  11  25  46  71 103 146 187 241 300 361 429
#     4  11  24  47  71 104 143 187 238 302 356 439
#     4  11  25  44  71 101 145 185 237 296 361 431
#     4  11  26  43  76 105 146 189 245 295 368 435
#     4  11  24  44  68 100 145 185 238 295 353 428
#     4  11  26  43  73 104 141 184 242 292 361 430
#     4  11  24  47  67 102 143 186 235 300 354 436
#     4  11  24  44  69 105 143 187 240 298 360 430
#
# _framework density 23.869565000000001
#
# number of rings (size 3 to 8) (size 9 to 14) (size 15 to 20)
#    0.000    1.000    3.750    1.500    5.250    4.000 
#    0.000    0.000    0.000    0.000    0.000    0.000 
#    0.000    0.000    0.000    0.000    0.000    0.000 
#
# Total GULP energy -89370.341392 kJ/mol
# GULP energy per Si atom -5585.646337 kJ/mol
# Density = 2.381524 g / cm^3
# Si number density = 23.869565 Si / 1000 Ang^3
#
#
#
# Elastic Constant Matrix: (Units=GPa)
#
#
# Indices 1 2 3 4 5 6 
#
# 1 119.1163 21.2676 54.0324 0.0000 0.2274 0.0000
# 2 21.2676 46.8534 15.3611 0.0000 6.0823 0.0000
# 3 54.0324 15.3611 106.7453 0.0000 2.5291 0.0000
# 4 0.0000 0.0000 0.0000 23.5258 0.0000 -1.7140
# 5 0.2274 6.0823 2.5291 0.0000 33.3783 0.0000
# 6 0.0000 0.0000 0.0000 -1.7140 0.0000 34.6663
#
#
#
# Elastic Compliance Matrix: (Units=1/GPa)
#
#
# Indices 1 2 3 4 5 6 
#
# 1 0.011435 -0.003581 -0.005296 0.000000 0.000976 0.000000
# 2 -0.003581 0.024025 -0.001544 0.000000 -0.004237 0.000000
# 3 -0.005296 -0.001544 0.012286 0.000000 -0.000613 0.000000
# 4 0.000000 0.000000 0.000000 0.042660 0.000000 0.002109
# 5 0.000976 -0.004237 -0.000613 0.000000 0.030771 0.000000
# 6 0.000000 0.000000 0.000000 0.002109 0.000000 0.028951
#
#
# Mechanical properties :
#
#
# Convention : Reuss Voigt Hill
#
# Bulk Modulus (GPa) = 37.17054 50.44856 43.80955
# Shear Modulus (GPa) = 27.78739 30.45101 29.11920
#
# Velocity S-wave (km/s) = 3.41564 3.57560 3.49654
# Velocity P-wave (km/s) = 5.58226 6.18285 5.89021
#
# Compressibility (1/GPa) = 0.02690303
#
# Stress axis : x y z
#
# Youngs Moduli (GPa) = 87.45116 41.62353 81.39630
#
# Poissons Ratio (x) = 0.14905 0.43107
# Poissons Ratio (y) = 0.31316 0.12570
# Poissons Ratio (z) = 0.46314 0.06428
#
# Static dielectric constant tensor:
#      x y z
#    x 1.881340 0.000000 -0.005670 
#    y 0.000000 1.966680 0.000000 
#    z -0.005670 0.000000 1.924660 
# 
# From -- ./inp_files/26336.got.cif
#   From: 2010.05.17/outbox.cif.g08.bks.cpg/sg9_14_cif.got.tgz:26336.got - 2010.06.03 20:04:27.
