data_PCOD9140431
_publ_section_title
;
Structure prediction by ZEFSAII (Michael W. Deem and Ramdas Pophale) SiO2 
 PCOD9140431
Probable space group: C C
;
_chemical_formula_sum "Si O2"
_cell_formula_units_Z 32
_cell_length_a 5.748272
_cell_length_b 21.565940
_cell_length_c 10.091523
_cell_angle_alpha 90.000000
_cell_angle_beta 90.140339
_cell_angle_gamma 90.000000
_cell_volume 1251.010959
_symmetry_space_group_name_H-M "C C"
_symmetry_group_IT_number 9
_symmetry_cell_setting 'monoclinic'
loop_
_space_group_symop_operation_xyz
x,y,z
x,-y,1/2+z
1/2+x,1/2+y,z
1/2+x,1/2-y,1/2+z
loop_
_atom_site_type_symbol
_atom_site_label
_atom_site_fract_x
_atom_site_fract_y
_atom_site_fract_z
Si Si1 0.536870 0.214759 0.387950
Si Si2 0.762171 0.450335 0.230265
Si Si3 0.896349 0.876356 0.875120
Si Si4 0.438998 0.450464 0.617218
Si Si5 0.491385 0.802783 0.609602
Si Si6 0.493985 0.339010 0.488021
Si Si7 0.213689 0.167504 0.601915
Si Si8 0.541739 0.982998 0.967837
O O1 0.802589 0.194217 0.368269
O O2 0.436241 0.178162 0.261453
O O3 0.455142 0.285345 0.379624
O O4 0.450238 0.188870 0.528953
O O5 0.528906 0.488382 0.194079
O O6 0.739451 0.375553 0.231432
O O7 0.904001 0.484632 0.346897
O O8 0.892614 0.458868 0.089851
O O9 0.974747 0.900125 0.733161
O O10 0.698749 0.926662 0.913214
O O11 0.079264 0.873513 0.992412
O O12 0.551202 0.412633 0.492817
O O13 0.201670 0.468931 0.547608
O O14 0.243614 0.811718 0.539875
O O15 0.572944 0.731242 0.616785
O O16 0.728352 0.835143 0.553507
#
# Coordination Sequence:
#
# PCOD9140431 Si02
#       8
#     4   4   4   4   4   4   4   4
#     4  11  24  45  72 102 146 195 249 311 387 461
#     4  12  27  47  74 112 152 201 257 322 397 467
#     4  12  22  47  75  99 145 201 249 312 388 472
#     4  12  27  46  75 110 153 199 257 323 392 480
#     4  11  25  46  72 109 144 197 253 315 375 468
#     4  11  26  45  71 108 146 190 256 308 382 453
#     4  11  24  46  74 108 149 195 260 320 393 468
#     4  12  27  46  73 110 153 198 259 321 390 473
#
# _framework density 25.579312999999999
#
# number of rings (size 3 to 8) (size 9 to 14) (size 15 to 20)
#    0.000    0.500    6.250    1.500    3.500    1.000 
#    6.750    0.000    0.000    0.000    0.000    0.000 
#    0.000    0.000    0.000    0.000    0.000    0.000 
#
# Total GULP energy -89117.642361 kJ/mol
# GULP energy per Si atom -5569.852648 kJ/mol
# Density = 2.552109 g / cm^3
# Si number density = 25.579313 Si / 1000 Ang^3
#
#
#
# Elastic Constant Matrix: (Units=GPa)
#
#
# Indices 1 2 3 4 5 6 
#
# 1 94.4117 26.1359 22.6051 0.0000 11.3483 0.0000
# 2 26.1359 124.1779 -3.2499 0.0000 -4.6193 0.0000
# 3 22.6051 -3.2499 40.8586 0.0000 1.9427 0.0000
# 4 0.0000 0.0000 0.0000 41.3997 0.0000 -4.1835
# 5 11.3483 -4.6193 1.9427 0.0000 27.1922 0.0000
# 6 0.0000 0.0000 0.0000 -4.1835 0.0000 48.6478
#
#
#
# Elastic Compliance Matrix: (Units=1/GPa)
#
#
# Indices 1 2 3 4 5 6 
#
# 1 0.014107 -0.003393 -0.007794 0.000000 -0.005907 0.000000
# 2 -0.003393 0.008934 0.002457 0.000000 0.002758 0.000000
# 3 -0.007794 0.002457 0.028906 0.000000 0.001605 0.000000
# 4 0.000000 0.000000 0.000000 0.024367 0.000000 0.002095
# 5 -0.005907 0.002758 0.001605 0.000000 0.039594 0.000000
# 6 0.000000 0.000000 0.000000 0.002095 0.000000 0.020736
#
#
# Mechanical properties :
#
#
# Convention : Reuss Voigt Hill
#
# Bulk Modulus (GPa) = 28.99678 38.93672 33.96675
# Shear Modulus (GPa) = 30.19323 37.71174 33.95249
#
# Velocity S-wave (km/s) = 3.43939 3.84383 3.64722
# Velocity P-wave (km/s) = 5.20895 5.91228 5.57173
#
# Compressibility (1/GPa) = 0.03448658
#
# Stress axis : x y z
#
# Youngs Moduli (GPa) = 70.88531 111.93246 34.59518
#
# Poissons Ratio (x) = 0.37977 0.26963
# Poissons Ratio (y) = 0.24051 -0.08499
# Poissons Ratio (z) = 0.55247 -0.27497
#
# Static dielectric constant tensor:
#      x y z
#    x 2.100530 0.000000 -0.063420 
#    y 0.000000 2.365430 0.000000 
#    z -0.063420 0.000000 2.190780 
# 
# From -- ./inp_files/13730.got.cif
#   From: 2010.05.17/outbox.cif.g08.bks.cpg/sg9_7_cif.got.tgz:13730.got - 2010.06.03 20:04:27.
