data_PCOD9140303
_publ_section_title
;
Structure prediction by ZEFSAII (Michael W. Deem and Ramdas Pophale) SiO2 
 PCOD9140303
Probable space group: C C
;
_chemical_formula_sum "Si O2"
_cell_formula_units_Z 32
_cell_length_a 8.967611
_cell_length_b 11.154162
_cell_length_c 13.836782
_cell_angle_alpha 90.000000
_cell_angle_beta 113.126556
_cell_angle_gamma 90.000000
_cell_volume 1272.818414
_symmetry_space_group_name_H-M "C C"
_symmetry_group_IT_number 9
_symmetry_cell_setting 'monoclinic'
loop_
_space_group_symop_operation_xyz
x,y,z
x,-y,1/2+z
1/2+x,1/2+y,z
1/2+x,1/2-y,1/2+z
loop_
_atom_site_type_symbol
_atom_site_label
_atom_site_fract_x
_atom_site_fract_y
_atom_site_fract_z
Si Si1 0.871580 0.821030 0.496700
Si Si2 0.884923 0.980309 0.136830
Si Si3 0.219485 0.101052 0.736644
Si Si4 0.677552 0.788930 0.884517
Si Si5 0.739177 0.284192 0.598887
Si Si6 0.825603 0.008454 0.328084
Si Si7 0.387061 0.079891 0.428323
Si Si8 0.956913 0.490744 0.161057
O O1 0.885600 0.892776 0.399467
O O2 0.790652 0.695879 0.446419
O O3 0.052118 0.793709 0.583523
O O4 0.797164 0.917863 0.551382
O O5 0.798222 0.852006 0.129164
O O6 0.916500 0.029939 0.252172
O O7 0.062893 0.950922 0.142180
O O8 0.158889 0.217514 0.779929
O O9 0.359402 0.114247 0.692282
O O10 0.291470 0.011208 0.836166
O O11 0.530206 0.861104 0.898468
O O12 0.821678 0.882130 0.900677
O O13 0.733178 0.699844 0.981969
O O14 0.857670 0.388246 0.664103
O O15 0.637588 0.995692 0.248059
O O16 0.454299 0.022909 0.544856
#
# Coordination Sequence:
#
# PCOD9140303 Si02
#       8
#     4   4   4   4   4   4   4   4
#     4  11  26  47  75 108 151 200 253 310 387 456
#     4  12  26  45  77 108 152 201 259 312 389 457
#     4  12  26  47  77 114 147 207 260 314 386 461
#     4  11  23  48  75 103 154 198 248 316 389 445
#     4  11  23  50  77 103 153 205 247 319 384 450
#     4  12  26  44  73 114 151 197 255 320 380 458
#     4  11  26  49  75 107 157 198 250 318 383 452
#     4  12  26  46  79 113 149 202 264 311 386 461
#
# _framework density 25.141055999999999
#
# number of rings (size 3 to 8) (size 9 to 14) (size 15 to 20)
#    0.000    0.500    5.000    3.750    3.500    1.000 
#    0.000    0.000    0.000    0.000    0.000    0.000 
#    0.000    0.000    0.000    0.000    0.000    0.000 
#
# Total GULP energy -89450.143834 kJ/mol
# GULP energy per Si atom -5590.633990 kJ/mol
# Density = 2.508383 g / cm^3
# Si number density = 25.141056 Si / 1000 Ang^3
#
#
#
# Elastic Constant Matrix: (Units=GPa)
#
#
# Indices 1 2 3 4 5 6 
#
# 1 93.6191 26.9735 26.4359 0.0000 -0.3035 0.0000
# 2 26.9735 99.1042 18.5314 0.0000 -0.3676 0.0000
# 3 26.4359 18.5314 105.3422 0.0000 -9.4084 0.0000
# 4 0.0000 0.0000 0.0000 49.0956 0.0000 -4.2858
# 5 -0.3035 -0.3676 -9.4084 0.0000 39.3551 0.0000
# 6 0.0000 0.0000 0.0000 -4.2858 0.0000 38.3771
#
#
#
# Elastic Compliance Matrix: (Units=1/GPa)
#
#
# Indices 1 2 3 4 5 6 
#
# 1 0.012239 -0.002843 -0.002621 0.000000 -0.000559 0.000000
# 2 -0.002843 0.011099 -0.001259 0.000000 -0.000219 0.000000
# 3 -0.002621 -0.001259 0.010595 0.000000 0.002501 0.000000
# 4 0.000000 0.000000 0.000000 0.020569 0.000000 0.002297
# 5 -0.000559 -0.000219 0.002501 0.000000 0.026001 0.000000
# 6 0.000000 0.000000 0.000000 0.002297 0.000000 0.026314
#
#
# Mechanical properties :
#
#
# Convention : Reuss Voigt Hill
#
# Bulk Modulus (GPa) = 48.81000 49.10524 48.95762
# Shear Modulus (GPa) = 39.34158 40.44054 39.89106
#
# Velocity S-wave (km/s) = 3.96009 4.01502 3.98765
# Velocity P-wave (km/s) = 6.35345 6.40844 6.38101
#
# Compressibility (1/GPa) = 0.02048760
#
# Stress axis : x y z
#
# Youngs Moduli (GPa) = 81.70541 90.10052 94.38025
#
# Poissons Ratio (x) = 0.25616 0.24739
# Poissons Ratio (y) = 0.23230 0.11878
# Poissons Ratio (z) = 0.21417 0.11339
#
# Static dielectric constant tensor:
#      x y z
#    x 1.988220 0.000000 -0.013430 
#    y 0.000000 2.030970 0.000000 
#    z -0.013430 0.000000 2.012890 
# 
# From -- ./inp_files/22790.got.cif
#   From: 2010.05.17/outbox.cif.g08.bks.cpg/sg9_12_cif.got.tgz:22790.got - 2010.06.03 20:04:27.
