data_PCOD9140961
_publ_section_title
;
Structure prediction by ZEFSAII (Michael W. Deem and Ramdas Pophale) SiO2 
 PCOD9140961
Probable space group: C C
;
_chemical_formula_sum "Si O2"
_cell_formula_units_Z 24
_cell_length_a 4.968669
_cell_length_b 20.499222
_cell_length_c 10.374643
_cell_angle_alpha 90.000000
_cell_angle_beta 91.492978
_cell_angle_gamma 90.000000
_cell_volume 1056.338599
_symmetry_space_group_name_H-M "C C"
_symmetry_group_IT_number 9
_symmetry_cell_setting 'monoclinic'
loop_
_space_group_symop_operation_xyz
x,y,z
x,-y,1/2+z
1/2+x,1/2+y,z
1/2+x,1/2-y,1/2+z
loop_
_atom_site_type_symbol
_atom_site_label
_atom_site_fract_x
_atom_site_fract_y
_atom_site_fract_z
Si Si1 0.663160 0.083404 0.094600
Si Si2 0.086401 0.640456 0.657777
Si Si3 0.482422 0.192091 0.920835
Si Si4 0.827925 0.438205 0.359075
Si Si5 0.562151 0.336583 0.988910
Si Si6 0.659942 0.565653 0.262066
O O1 0.460733 0.076284 0.212156
O O2 0.959793 0.065897 0.139510
O O3 0.648643 0.156788 0.036427
O O4 0.536919 0.043282 0.974045
O O5 0.122074 0.688214 0.781917
O O6 0.359180 0.629727 0.585772
O O7 0.979770 0.575165 0.726141
O O8 0.853237 0.666566 0.560757
O O9 0.246959 0.136619 0.896552
O O10 0.436872 0.265613 0.958354
O O11 0.630526 0.496787 0.334023
O O12 0.587419 0.377140 0.858976
#
# Coordination Sequence:
#
# PCOD9140961 Si02
#       6
#     4   4   4   4   4   4
#     4   9  25  42  67  96 141 175 231 280 348 415
#     4   9  25  44  66 101 140 182 227 284 351 413
#     4   8  24  44  70  99 142 187 222 291 358 402
#     4   8  24  47  66  99 140 189 217 293 357 402
#     4  12  24  41  75 102 138 180 241 286 338 423
#     4  12  24  44  70 103 133 183 236 284 340 419
#
# _framework density 22.719987
#
# number of rings (size 3 to 8) (size 9 to 14) (size 15 to 20)
#    2.000    0.000    0.000    1.000    7.000    9.333 
#    0.000    0.000    0.000    0.000    0.000    0.000 
#    0.000    0.000    0.000    0.000    0.000    0.000 
#
# Total GULP energy -66904.309145 kJ/mol
# GULP energy per Si atom -5575.359095 kJ/mol
# Density = 2.266828 g / cm^3
# Si number density = 22.719987 Si / 1000 Ang^3
#
#
#
# Elastic Constant Matrix: (Units=GPa)
#
#
# Indices 1 2 3 4 5 6 
#
# 1 63.4792 13.8593 5.8533 0.0000 -6.6375 0.0000
# 2 13.8593 119.3317 33.6844 0.0000 16.2415 0.0000
# 3 5.8533 33.6844 75.9946 0.0000 8.4602 0.0000
# 4 0.0000 0.0000 0.0000 9.9322 0.0000 7.7513
# 5 -6.6375 16.2415 8.4602 0.0000 27.2763 0.0000
# 6 0.0000 0.0000 0.0000 7.7513 0.0000 -3.9346
#
#
#
# Elastic Compliance Matrix: (Units=1/GPa)
#
#
# Indices 1 2 3 4 5 6 
#
# 1 0.017004 -0.002542 -0.000841 0.000000 0.005912 0.000000
# 2 -0.002542 0.010535 -0.003839 0.000000 -0.005701 0.000000
# 3 -0.000841 -0.003839 0.015219 0.000000 -0.002639 0.000000
# 4 0.000000 0.000000 0.000000 0.039678 0.000000 0.078168
# 5 0.005912 -0.005701 -0.002639 0.000000 0.042314 0.000000
# 6 0.000000 0.000000 0.000000 0.078168 0.000000 -0.100161
#
#
# Mechanical properties :
#
#
# Convention : Reuss Voigt Hill
#
# Bulk Modulus (GPa) = 35.31917 40.62218 37.97068
# Shear Modulus (GPa) = 103.15329 20.34867 61.75098
#
# Velocity S-wave (km/s) = 6.74541 2.99595 5.21902
# Velocity P-wave (km/s) = 8.73193 5.46680 7.28466
#
# Compressibility (1/GPa) = 0.02831323
#
# Stress axis : x y z
#
# Youngs Moduli (GPa) = 58.80973 94.92328 65.70695
#
# Poissons Ratio (x) = 0.24131 0.05527
# Poissons Ratio (y) = 0.14950 0.25226
# Poissons Ratio (z) = 0.04946 0.36442
#
# Static dielectric constant tensor:
#      x y z
#    x 1.817600 0.000000 -0.000750 
#    y 0.000000 1.887840 0.000000 
#    z -0.000750 0.000000 1.852900 
# 
# From -- ./inp_files/13153.got.cif
#   From: 2010.05.17/outbox.cif.g08.bks.cpg/sg9_7_cif.got.tgz:13153.got - 2010.06.03 20:04:27.
