data_PCOD9140956
_publ_section_title
;
Structure prediction by ZEFSAII (Michael W. Deem and Ramdas Pophale) SiO2 
 PCOD9140956
Probable space group: C C
;
_chemical_formula_sum "Si O2"
_cell_formula_units_Z 28
_cell_length_a 8.807765
_cell_length_b 13.924314
_cell_length_c 14.958599
_cell_angle_alpha 90.000000
_cell_angle_beta 38.272445
_cell_angle_gamma 90.000000
_cell_volume 1136.325437
_symmetry_space_group_name_H-M "C C"
_symmetry_group_IT_number 9
_symmetry_cell_setting 'monoclinic'
loop_
_space_group_symop_operation_xyz
x,y,z
x,-y,1/2+z
1/2+x,1/2+y,z
1/2+x,1/2-y,1/2+z
loop_
_atom_site_type_symbol
_atom_site_label
_atom_site_fract_x
_atom_site_fract_y
_atom_site_fract_z
Si Si1 0.520030 0.277492 0.844110
Si Si2 0.821687 0.420124 0.811450
Si Si3 0.686126 0.111051 0.901274
Si Si4 0.041467 0.402105 0.017297
Si Si5 0.769842 0.821373 0.555328
Si Si6 0.124287 0.123385 0.585401
Si Si7 0.811578 0.352892 0.302455
O O1 0.723552 0.358432 0.772195
O O2 0.534268 0.191927 0.914466
O O3 0.519175 0.209716 0.755960
O O4 0.289814 0.348308 0.929683
O O5 0.804827 0.534231 0.825962
O O6 0.111282 0.398043 0.682428
O O7 0.638934 0.384135 0.973455
O O8 0.900562 0.069950 0.736456
O O9 0.798856 0.159663 0.936616
O O10 0.567268 0.017458 0.003763
O O11 0.904442 0.393297 0.986137
O O12 0.856346 0.357664 0.176098
O O13 0.595228 0.729565 0.636860
O O14 0.049312 0.812911 0.456703
#
# Coordination Sequence:
#
# PCOD9140956 Si02
#       7
#     4   4   4   4   4   4   4
#     4  12  28  47  79 116 152 199 266 325 388 458
#     4  12  28  48  78 112 155 202 263 324 389 464
#     4  12  26  50  77 110 158 205 258 317 396 466
#     4  12  28  48  76 114 158 200 261 326 389 466
#     4  12  23  51  74 102 159 205 249 321 392 461
#     4  12  25  50  73 111 155 210 254 315 401 467
#     4  12  28  48  77 115 151 207 263 322 393 464
#
# _framework density 24.640827000000002
#
# number of rings (size 3 to 8) (size 9 to 14) (size 15 to 20)
#    0.000    0.000    7.143    1.714    4.000    1.143 
#    2.571    0.000    0.000    0.000    0.000    0.000 
#    0.000    0.000    0.000    0.000    0.000    0.000 
#
# Total GULP energy -77962.010183 kJ/mol
# GULP energy per Si atom -5568.715013 kJ/mol
# Density = 2.458474 g / cm^3
# Si number density = 24.640827 Si / 1000 Ang^3
#
#
#
# Elastic Constant Matrix: (Units=GPa)
#
#
# Indices 1 2 3 4 5 6 
#
# 1 70.2587 28.2773 23.5335 0.0013 -1.8028 -0.0016
# 2 28.2773 110.8414 14.8503 -0.0021 0.8581 -0.0008
# 3 23.5335 14.8503 106.3807 -0.0055 0.2668 -0.0021
# 4 0.0013 -0.0021 -0.0055 13.8349 -0.0002 5.4275
# 5 -1.8028 0.8581 0.2668 -0.0002 37.0203 0.0021
# 6 -0.0016 -0.0008 -0.0021 5.4275 0.0021 24.0672
#
#
#
# Elastic Compliance Matrix: (Units=1/GPa)
#
#
# Indices 1 2 3 4 5 6 
#
# 1 0.016893 -0.003889 -0.003197 -0.000004 0.000936 0.000002
# 2 -0.003889 0.010091 -0.000547 0.000002 -0.000419 0.000000
# 3 -0.003197 -0.000547 0.010184 0.000004 -0.000216 0.000000
# 4 -0.000004 0.000002 0.000004 0.079296 0.000001 -0.017882
# 5 0.000936 -0.000419 -0.000216 0.000001 0.027069 -0.000003
# 6 0.000002 0.000000 0.000000 -0.017882 -0.000003 0.045583
#
#
# Mechanical properties :
#
#
# Convention : Reuss Voigt Hill
#
# Bulk Modulus (GPa) = 45.65636 46.75590 46.20613
# Shear Modulus (GPa) = 23.62037 29.70580 26.66308
#
# Velocity S-wave (km/s) = 3.09946 3.47587 3.29305
# Velocity P-wave (km/s) = 5.60160 5.92664 5.76641
#
# Compressibility (1/GPa) = 0.02190276
#
# Stress axis : x y z
#
# Youngs Moduli (GPa) = 59.19654 99.10294 98.19051
#
# Poissons Ratio (x) = 0.38537 0.31387
# Poissons Ratio (y) = 0.23019 0.05374
# Poissons Ratio (z) = 0.18922 0.05424
#
# Static dielectric constant tensor:
#      x y z
#    x 2.005660 0.000000 -0.037620 
#    y 0.000000 2.144420 0.000000 
#    z -0.037620 0.000000 1.966840 
# 
# From -- ./inp_files/14521.got.cif
#   From: 2010.05.17/outbox.cif.g08.bks.cpg/sg9_8_cif.got.tgz:14521.got - 2010.06.03 20:04:27.
