data_PCOD9140285
_publ_section_title
;
Structure prediction by ZEFSAII (Michael W. Deem and Ramdas Pophale) SiO2 
 PCOD9140285
Probable space group: C C
;
_chemical_formula_sum "Si O2"
_cell_formula_units_Z 32
_cell_length_a 15.577522
_cell_length_b 10.515692
_cell_length_c 19.474696
_cell_angle_alpha 90.000000
_cell_angle_beta 28.100204
_cell_angle_gamma 90.000000
_cell_volume 1502.594088
_symmetry_space_group_name_H-M "C C"
_symmetry_group_IT_number 9
_symmetry_cell_setting 'monoclinic'
loop_
_space_group_symop_operation_xyz
x,y,z
x,-y,1/2+z
1/2+x,1/2+y,z
1/2+x,1/2-y,1/2+z
loop_
_atom_site_type_symbol
_atom_site_label
_atom_site_fract_x
_atom_site_fract_y
_atom_site_fract_z
Si Si1 0.063390 0.900096 0.446380
Si Si2 0.468721 0.153467 0.290747
Si Si3 0.420969 0.972153 0.107619
Si Si4 0.333979 0.377409 0.140276
Si Si5 0.175889 0.293203 0.398207
Si Si6 0.551258 0.143847 0.723125
Si Si7 0.668435 0.242087 0.495328
Si Si8 0.841416 0.683603 0.533287
O O1 0.246198 0.957435 0.281733
O O2 0.104365 0.863546 0.496398
O O3 0.002206 0.779930 0.443688
O O4 0.878816 0.979722 0.586066
O O5 0.326815 0.229429 0.341468
O O6 0.651059 0.239449 0.167423
O O7 0.381375 0.141291 0.427918
O O8 0.513322 0.007389 0.238330
O O9 0.348186 0.932220 0.083246
O O10 0.575168 0.869710 0.018063
O O11 0.536608 0.101736 0.028270
O O12 0.271840 0.351153 0.262309
O O13 0.179059 0.334112 0.197975
O O14 0.528162 0.314499 0.986041
O O15 0.622317 0.204100 0.603849
O O16 0.377309 0.230509 0.854869
#
# Coordination Sequence:
#
# PCOD9140285 Si02
#       8
#     4   4   4   4   4   4   4   4
#     4  11  23  47  76 106 145 194 244 299 366 440
#     4  12  26  48  73 111 146 193 248 305 360 444
#     4  11  25  46  73 109 148 192 245 296 374 434
#     4  12  26  47  74 103 154 192 241 303 372 434
#     4  12  28  45  73 111 149 197 242 305 374 433
#     4  12  26  48  73 107 150 187 250 299 364 435
#     4  11  26  43  73 107 143 189 240 301 359 434
#     4  11  24  46  77 106 143 192 246 300 363 442
#
# _framework density 21.296503000000001
#
# number of rings (size 3 to 8) (size 9 to 14) (size 15 to 20)
#    0.000    0.500    3.750    3.750    5.250    0.000 
#    2.250    0.000    0.000    0.000    0.000    0.000 
#    0.000    0.000    0.000    0.000    0.000    0.000 
#
# Total GULP energy -89236.943342 kJ/mol
# GULP energy per Si atom -5577.308959 kJ/mol
# Density = 2.124803 g / cm^3
# Si number density = 21.296503 Si / 1000 Ang^3
#
#
#
# Elastic Constant Matrix: (Units=GPa)
#
#
# Indices 1 2 3 4 5 6 
#
# 1 180.1824 53.3259 80.1682 0.0001 23.2405 0.0000
# 2 53.3259 41.1148 103.2175 0.0000 50.4837 0.0001
# 3 80.1682 103.2175 57.4363 -0.0006 -19.1050 0.0001
# 4 0.0001 0.0000 -0.0006 -1.1582 0.0011 12.3622
# 5 23.2405 50.4837 -19.1050 0.0011 67.2994 -0.0006
# 6 0.0000 0.0001 0.0001 12.3622 -0.0006 14.7526
#
#
#
# Elastic Compliance Matrix: (Units=1/GPa)
#
#
# Indices 1 2 3 4 5 6 
#
# 1 0.007986 -0.004875 -0.002304 0.000000 0.000245 0.000000
# 2 -0.004875 -0.000834 0.010019 0.000000 0.005154 0.000000
# 3 -0.002304 0.010019 0.000427 -0.000001 -0.006599 0.000001
# 4 0.000000 0.000000 -0.000001 -0.086826 0.000002 0.072757
# 5 0.000245 0.005154 -0.006599 0.000002 0.009035 -0.000001
# 6 0.000000 0.000000 0.000001 0.072757 -0.000001 0.006817
#
#
# Mechanical properties :
#
#
# Convention : Reuss Voigt Hill
#
# Bulk Modulus (GPa) = 75.42832 83.57299 79.50066
# Shear Modulus (GPa) = -77.33347 18.98020 -29.17663
#
# Velocity S-wave (km/s) = -6.03254 2.98860 -3.70539
# Velocity P-wave (km/s) = 3.60930 7.15798 4.37091
#
# Compressibility (1/GPa) = 0.01325762
#
# Stress axis : x y z
#
# Youngs Moduli (GPa) = 125.21455 -1198.43403 2342.51816
#
# Poissons Ratio (x) = -5.84289 5.39702
# Poissons Ratio (y) = 0.61048 -23.46923
# Poissons Ratio (z) = 0.28849 12.00688
#
# Static dielectric constant tensor:
#      x y z
#    x 1.733670 0.000000 0.036290 
#    y 0.000000 1.960730 0.000000 
#    z 0.036290 0.000000 1.693600 
# 
# From -- ./inp_files/30699.got.cif
#   From: 2010.05.17/outbox.cif.g08.bks.cpg/sg9_16_cif.got.tgz:30699.got - 2010.06.03 20:04:27.
