data_PCOD9140368
_publ_section_title
;
Structure prediction by ZEFSAII (Michael W. Deem and Ramdas Pophale) SiO2 
 PCOD9140368
Probable space group: C C
;
_chemical_formula_sum "Si O2"
_cell_formula_units_Z 28
_cell_length_a 5.220702
_cell_length_b 23.570848
_cell_length_c 9.047831
_cell_angle_alpha 90.000000
_cell_angle_beta 88.787587
_cell_angle_gamma 90.000000
_cell_volume 1113.144006
_symmetry_space_group_name_H-M "C C"
_symmetry_group_IT_number 9
_symmetry_cell_setting 'monoclinic'
loop_
_space_group_symop_operation_xyz
x,y,z
x,-y,1/2+z
1/2+x,1/2+y,z
1/2+x,1/2-y,1/2+z
loop_
_atom_site_type_symbol
_atom_site_label
_atom_site_fract_x
_atom_site_fract_y
_atom_site_fract_z
Si Si1 0.288980 0.385963 0.441280
Si Si2 0.356047 0.789151 0.720973
Si Si3 0.360588 0.763633 0.068278
Si Si4 0.101168 0.091110 0.208814
Si Si5 0.766500 0.018978 0.418675
Si Si6 0.416437 0.991968 0.180460
Si Si7 0.784235 0.631400 0.772194
O O1 0.365081 0.386620 0.611722
O O2 0.311264 0.452203 0.397827
O O3 0.516672 0.354857 0.352714
O O4 0.014976 0.365002 0.388522
O O5 0.620041 0.771551 0.637520
O O6 0.124437 0.761181 0.630299
O O7 0.287198 0.856070 0.729213
O O8 0.356090 0.767952 0.891199
O O9 0.334538 0.826453 0.137765
O O10 0.979370 0.060907 0.354153
O O11 0.235136 0.039968 0.112771
O O12 0.513803 0.026237 0.321680
O O13 0.667380 0.024578 0.585082
O O14 0.281865 0.933448 0.217586
#
# Coordination Sequence:
#
# PCOD9140368 Si02
#       7
#     4   4   4   4   4   4   4
#     4  11  24  45  74 116 149 211 246 338 383 492
#     4  12  32  53  88 114 163 212 281 340 410 481
#     4  12  30  57  80 121 154 218 275 347 400 485
#     4  12  27  46  78 114 162 207 269 325 413 478
#     4  11  24  43  69 112 160 199 257 306 405 478
#     4  11  25  44  72 113 156 202 256 323 394 491
#     4  11  26  48  81 104 160 201 266 317 415 463
#
# _framework density 25.153976
#
# number of rings (size 3 to 8) (size 9 to 14) (size 15 to 20)
#    0.000    0.571    2.857    3.429   10.000    3.429 
#    0.000    0.000    0.000    0.000    0.000    0.000 
#    0.000    0.000    0.000    0.000    0.000    0.000 
#
# Total GULP energy -78450.756361 kJ/mol
# GULP energy per Si atom -5603.625454 kJ/mol
# Density = 2.509672 g / cm^3
# Si number density = 25.153976 Si / 1000 Ang^3
#
#
#
# Elastic Constant Matrix: (Units=GPa)
#
#
# Indices 1 2 3 4 5 6 
#
# 1 146.5945 34.4256 40.1430 0.0000 2.9181 0.0000
# 2 34.4256 123.6466 31.1189 0.0000 -6.0439 0.0000
# 3 40.1430 31.1189 136.0589 0.0000 0.0587 0.0000
# 4 0.0000 0.0000 0.0000 36.1386 0.0000 -4.1392
# 5 2.9181 -6.0439 0.0587 0.0000 41.1787 0.0000
# 6 0.0000 0.0000 0.0000 -4.1392 0.0000 40.4310
#
#
#
# Elastic Compliance Matrix: (Units=1/GPa)
#
#
# Indices 1 2 3 4 5 6 
#
# 1 0.007761 -0.001723 -0.001895 0.000000 -0.000800 0.000000
# 2 -0.001723 0.009030 -0.001558 0.000000 0.001450 0.000000
# 3 -0.001895 -0.001558 0.008265 0.000000 -0.000106 0.000000
# 4 0.000000 0.000000 0.000000 0.028000 0.000000 0.002866
# 5 -0.000800 0.001450 -0.000106 0.000000 0.024554 0.000000
# 6 0.000000 0.000000 0.000000 0.002866 0.000000 0.025027
#
#
# Mechanical properties :
#
#
# Convention : Reuss Voigt Hill
#
# Bulk Modulus (GPa) = 68.00615 68.63056 68.31835
# Shear Modulus (GPa) = 42.41219 43.59048 43.00133
#
# Velocity S-wave (km/s) = 4.11067 4.16738 4.13912
# Velocity P-wave (km/s) = 7.04449 7.10630 7.07546
#
# Compressibility (1/GPa) = 0.01470455
#
# Stress axis : x y z
#
# Youngs Moduli (GPa) = 128.84755 110.74024 120.98776
#
# Poissons Ratio (x) = 0.19080 0.22933
# Poissons Ratio (y) = 0.22199 0.18846
# Poissons Ratio (z) = 0.24422 0.17249
#
# Static dielectric constant tensor:
#      x y z
#    x 2.015330 0.000000 0.031200 
#    y 0.000000 1.994370 0.000000 
#    z 0.031200 0.000000 1.996600 
# 
# From -- ./inp_files/3999.got.cif
#   From: 2010.05.17/outbox.cif.g08.bks.cpg/sg9_2_cif.got.tgz:3999.got - 2010.06.03 20:04:27.
