data_PCOD9140244
_publ_section_title
;
Structure prediction by ZEFSAII (Michael W. Deem and Ramdas Pophale) SiO2 
 PCOD9140244
Probable space group: C C
;
_chemical_formula_sum "Si O2"
_cell_formula_units_Z 32
_cell_length_a 22.620245
_cell_length_b 13.510630
_cell_length_c 9.778716
_cell_angle_alpha 90.000000
_cell_angle_beta 25.969301
_cell_angle_gamma 90.000000
_cell_volume 1308.637258
_symmetry_space_group_name_H-M "C C"
_symmetry_group_IT_number 9
_symmetry_cell_setting 'monoclinic'
loop_
_space_group_symop_operation_xyz
x,y,z
x,-y,1/2+z
1/2+x,1/2+y,z
1/2+x,1/2-y,1/2+z
loop_
_atom_site_type_symbol
_atom_site_label
_atom_site_fract_x
_atom_site_fract_y
_atom_site_fract_z
Si Si1 0.745570 0.096321 0.586610
Si Si2 0.654142 0.782951 0.856162
Si Si3 0.827596 0.556587 0.751195
Si Si4 0.814359 0.223323 0.793672
Si Si5 0.052377 0.918888 0.690154
Si Si6 0.859465 0.295694 0.429826
Si Si7 0.939207 0.612977 0.217814
Si Si8 0.324388 0.445564 0.631297
O O1 0.852245 0.181854 0.397021
O O2 0.799932 0.042454 0.341269
O O3 0.733483 0.020764 0.735388
O O4 0.596920 0.137619 0.875551
O O5 0.681618 0.816611 0.642600
O O6 0.766549 0.837581 0.714377
O O7 0.627879 0.666357 0.943182
O O8 0.503881 0.826584 0.191204
O O9 0.822094 0.643907 0.874878
O O10 0.900203 0.582488 0.454881
O O11 0.898838 0.471228 0.691767
O O12 0.671241 0.537909 0.036789
O O13 0.772633 0.287790 0.748823
O O14 0.864623 0.291116 0.813721
O O15 0.932702 0.145867 0.511673
O O16 0.974193 0.012742 0.786434
#
# Coordination Sequence:
#
# PCOD9140244 Si02
#       8
#     4   4   4   4   4   4   4   4
#     4  12  25  46  71 115 148 205 269 322 403 484
#     4  11  23  46  76 111 152 199 262 328 403 473
#     4  12  26  47  70 110 153 206 260 337 392 485
#     4  11  23  46  72 105 153 204 249 337 395 471
#     4  11  25  50  72 117 155 198 275 316 401 486
#     4  11  25  46  74 109 157 201 263 333 389 490
#     4  12  26  43  76 104 152 207 256 329 407 469
#     4  12  25  44  79 105 156 204 256 340 390 480
#
# _framework density 24.452918
#
# number of rings (size 3 to 8) (size 9 to 14) (size 15 to 20)
#    0.000    0.500    3.750    6.000    1.750    3.000 
#    0.000    1.250    0.000    0.000    0.000    0.000 
#    0.000    0.000    0.000    0.000    0.000    0.000 
#
# Total GULP energy -89305.796620 kJ/mol
# GULP energy per Si atom -5581.612289 kJ/mol
# Density = 2.439726 g / cm^3
# Si number density = 24.452918 Si / 1000 Ang^3
#
#
#
# Elastic Constant Matrix: (Units=GPa)
#
#
# Indices 1 2 3 4 5 6 
#
# 1 118.2427 44.4906 24.5671 0.0000 5.1684 0.0000
# 2 44.4906 84.0232 33.0825 0.0000 3.0122 0.0000
# 3 24.5671 33.0825 76.4015 0.0000 9.4232 0.0000
# 4 0.0000 0.0000 0.0000 30.9805 0.0000 -4.5322
# 5 5.1684 3.0122 9.4232 0.0000 32.8105 0.0000
# 6 0.0000 0.0000 0.0000 -4.5322 0.0000 50.0436
#
#
#
# Elastic Compliance Matrix: (Units=1/GPa)
#
#
# Indices 1 2 3 4 5 6 
#
# 1 0.010675 -0.005199 -0.001071 0.000000 -0.000897 0.000000
# 2 -0.005199 0.016887 -0.005754 0.000000 0.000921 0.000000
# 3 -0.001071 -0.005754 0.016420 0.000000 -0.004019 0.000000
# 4 0.000000 0.000000 0.000000 0.032712 0.000000 0.002963
# 5 -0.000897 0.000921 -0.004019 0.000000 0.031689 0.000000
# 6 0.000000 0.000000 0.000000 0.002963 0.000000 0.020251
#
#
# Mechanical properties :
#
#
# Convention : Reuss Voigt Hill
#
# Bulk Modulus (GPa) = 50.16355 53.66088 51.91222
# Shear Modulus (GPa) = 31.38224 34.53540 32.95882
#
# Velocity S-wave (km/s) = 3.58631 3.76216 3.67529
# Velocity P-wave (km/s) = 6.14066 6.39250 6.26784
#
# Compressibility (1/GPa) = 0.01993479
#
# Stress axis : x y z
#
# Youngs Moduli (GPa) = 93.67735 59.21823 60.89997
#
# Poissons Ratio (x) = 0.30785 0.06522
# Poissons Ratio (y) = 0.48699 0.35042
# Poissons Ratio (z) = 0.10032 0.34075
#
# Static dielectric constant tensor:
#      x y z
#    x 1.970280 0.000000 0.020550 
#    y 0.000000 2.029510 0.000000 
#    z 0.020550 0.000000 2.129090 
# 
# From -- ./inp_files/11779.got.cif
#   From: 2010.05.17/outbox.cif.g08.bks.cpg/sg9_6_cif.got.tgz:11779.got - 2010.06.03 20:04:27.
