data_PCOD9140566
_publ_section_title
;
Structure prediction by ZEFSAII (Michael W. Deem and Ramdas Pophale) SiO2 
 PCOD9140566
Probable space group: C C
;
_chemical_formula_sum "Si O2"
_cell_formula_units_Z 28
_cell_length_a 18.345712
_cell_length_b 5.304744
_cell_length_c 13.439504
_cell_angle_alpha 90.000000
_cell_angle_beta 57.109876
_cell_angle_gamma 90.000000
_cell_volume 1098.280738
_symmetry_space_group_name_H-M "C C"
_symmetry_group_IT_number 9
_symmetry_cell_setting 'monoclinic'
loop_
_space_group_symop_operation_xyz
x,y,z
x,-y,1/2+z
1/2+x,1/2+y,z
1/2+x,1/2-y,1/2+z
loop_
_atom_site_type_symbol
_atom_site_label
_atom_site_fract_x
_atom_site_fract_y
_atom_site_fract_z
Si Si1 0.323240 0.903302 0.814850
Si Si2 0.337820 0.569282 0.996925
Si Si3 0.149929 0.361924 0.192992
Si Si4 0.961513 0.751436 0.766017
Si Si5 0.651012 0.433581 0.503950
Si Si6 0.584972 0.920636 0.460405
Si Si7 0.425965 0.584304 0.614293
O O1 0.331642 0.780394 0.917395
O O2 0.334635 0.696906 0.721336
O O3 0.409073 0.061871 0.737432
O O4 0.241716 0.084071 0.877442
O O5 0.394038 0.348877 0.899606
O O6 0.238285 0.507891 0.099275
O O7 0.396825 0.612456 0.050896
O O8 0.137536 0.375491 0.319783
O O9 0.047220 0.393758 0.238470
O O10 0.162774 0.116953 0.112409
O O11 0.972960 0.984501 0.680586
O O12 0.628735 0.725690 0.504723
O O13 0.595611 0.206318 0.492476
O O14 0.490609 0.791074 0.518851
#
# Coordination Sequence:
#
# PCOD9140566 Si02
#       7
#     4   4   4   4   4   4   4
#     4  11  26  46  77 107 162 213 269 343 416 485
#     4  11  25  47  73 114 155 209 277 338 407 495
#     4  12  25  49  78 115 159 210 274 336 414 486
#     4  11  24  48  73 110 155 209 262 337 414 483
#     4  12  27  50  75 116 164 206 270 338 407 486
#     4  12  28  48  79 119 157 215 271 335 414 494
#     4  11  25  48  77 113 160 210 271 341 410 501
#
# _framework density 25.494394
#
# number of rings (size 3 to 8) (size 9 to 14) (size 15 to 20)
#    0.000    0.571    4.286    2.571    4.000    4.571 
#    0.000    0.000    0.000    0.000    0.000    0.000 
#    0.000    0.000    0.000    0.000    0.000    0.000 
#
# Total GULP energy -78037.390778 kJ/mol
# GULP energy per Si atom -5574.099341 kJ/mol
# Density = 2.543637 g / cm^3
# Si number density = 25.494394 Si / 1000 Ang^3
#
#
#
# Elastic Constant Matrix: (Units=GPa)
#
#
# Indices 1 2 3 4 5 6 
#
# 1 94.1950 22.4644 22.8949 0.0000 -22.5311 0.0012
# 2 22.4644 55.7279 26.1578 0.0002 2.7090 0.0046
# 3 22.8949 26.1578 163.6317 -0.0005 -4.2471 0.0004
# 4 0.0000 0.0002 -0.0005 41.5530 -0.0001 -9.0793
# 5 -22.5311 2.7090 -4.2471 -0.0001 42.4937 -0.0002
# 6 0.0012 0.0046 0.0004 -9.0793 -0.0002 28.2114
#
#
#
# Elastic Compliance Matrix: (Units=1/GPa)
#
#
# Indices 1 2 3 4 5 6 
#
# 1 0.014007 -0.005616 -0.000862 0.000000 0.007698 0.000000
# 2 -0.005616 0.021754 -0.002812 -0.000001 -0.004645 -0.000004
# 3 -0.000862 -0.002812 0.006692 0.000000 0.000391 0.000000
# 4 0.000000 -0.000001 0.000000 0.025886 0.000000 0.008331
# 5 0.007698 -0.004645 0.000391 0.000000 0.027950 0.000001
# 6 0.000000 -0.000004 0.000000 0.008331 0.000001 0.038128
#
#
# Mechanical properties :
#
#
# Convention : Reuss Voigt Hill
#
# Bulk Modulus (GPa) = 41.89077 50.73208 46.31143
# Shear Modulus (GPa) = 31.06484 38.58745 34.82615
#
# Velocity S-wave (km/s) = 3.49448 3.89468 3.70000
# Velocity P-wave (km/s) = 5.72267 6.33776 6.03805
#
# Compressibility (1/GPa) = 0.02387161
#
# Stress axis : x y z
#
# Youngs Moduli (GPa) = 71.39514 45.96866 149.43989
#
# Poissons Ratio (x) = 0.25814 0.12885
# Poissons Ratio (y) = 0.40093 0.42028
# Poissons Ratio (z) = 0.06156 0.12928
#
# Static dielectric constant tensor:
#      x y z
#    x 2.125190 0.000000 -0.080750 
#    y 0.000000 2.068250 0.000000 
#    z -0.080750 0.000000 2.044810 
# 
# From -- ./inp_files/27007.got.cif
#   From: 2010.05.17/outbox.cif.g08.bks.cpg/sg9_14_cif.got.tgz:27007.got - 2010.06.03 20:04:27.
