data_PCOD9140588
_publ_section_title
;
Structure prediction by ZEFSAII (Michael W. Deem and Ramdas Pophale) SiO2 
 PCOD9140588
Probable space group: C C
;
_chemical_formula_sum "Si O2"
_cell_formula_units_Z 32
_cell_length_a 11.886660
_cell_length_b 14.302541
_cell_length_c 9.291779
_cell_angle_alpha 90.000000
_cell_angle_beta 126.128198
_cell_angle_gamma 90.000000
_cell_volume 1275.915451
_symmetry_space_group_name_H-M "C C"
_symmetry_group_IT_number 9
_symmetry_cell_setting 'monoclinic'
loop_
_space_group_symop_operation_xyz
x,y,z
x,-y,1/2+z
1/2+x,1/2+y,z
1/2+x,1/2-y,1/2+z
loop_
_atom_site_type_symbol
_atom_site_label
_atom_site_fract_x
_atom_site_fract_y
_atom_site_fract_z
Si Si1 0.884970 0.892548 0.587370
Si Si2 0.036662 0.770236 0.501169
Si Si3 0.702492 0.393086 0.163099
Si Si4 0.424944 0.876921 0.122955
Si Si5 0.899159 0.930671 0.934809
Si Si6 0.459521 0.921035 0.569354
Si Si7 0.342207 0.731921 0.608065
Si Si8 0.627761 0.804591 0.504355
O O1 0.902179 0.921152 0.765786
O O2 0.759354 0.817637 0.500886
O O3 0.018455 0.844091 0.616339
O O4 0.830882 0.978642 0.452161
O O5 0.189184 0.749732 0.556188
O O6 0.964151 0.675411 0.506288
O O7 0.940816 0.812465 0.303261
O O8 0.767065 0.397447 0.051741
O O9 0.826883 0.426151 0.360332
O O10 0.562690 0.445649 0.095433
O O11 0.651683 0.284750 0.122866
O O12 0.493029 0.811201 0.299222
O O13 0.485279 0.981570 0.166015
O O14 0.845662 0.836856 0.973704
O O15 0.414238 0.831403 0.627979
O O16 0.596702 0.891802 0.584816
#
# Coordination Sequence:
#
# PCOD9140588 Si02
#       8
#     4   4   4   4   4   4   4   4
#     4  12  28  47  77 108 152 204 262 326 395 476
#     4  12  28  47  74 111 154 203 263 329 397 477
#     4  11  24  49  74 105 150 207 262 312 400 470
#     4  11  27  45  75 110 152 203 260 326 389 471
#     4  12  28  47  77 108 152 204 262 326 395 476
#     4  11  27  45  75 110 152 203 260 326 389 471
#     4  12  28  47  74 111 154 203 263 329 397 477
#     4  11  24  49  74 105 150 207 262 312 400 470
#
# _framework density 25.080030000000001
#
# number of rings (size 3 to 8) (size 9 to 14) (size 15 to 20)
#    0.000    0.500    2.500    3.750   14.000    0.000 
#    0.000    0.000    0.000    0.000    0.000    0.000 
#    0.000    0.000    0.000    0.000    0.000    0.000 
#
# Total GULP energy -89497.709720 kJ/mol
# GULP energy per Si atom -5593.606857 kJ/mol
# Density = 2.502295 g / cm^3
# Si number density = 25.080030 Si / 1000 Ang^3
#
#
#
# Elastic Constant Matrix: (Units=GPa)
#
#
# Indices 1 2 3 4 5 6 
#
# 1 159.0438 23.0762 26.4923 0.0000 -3.1027 0.0000
# 2 23.0762 117.2216 7.4929 0.0000 -22.6195 0.0000
# 3 26.4923 7.4929 90.1656 0.0000 -12.2482 0.0000
# 4 0.0000 0.0000 0.0000 30.0103 0.0000 -9.5665
# 5 -3.1027 -22.6195 -12.2482 0.0000 44.1239 0.0000
# 6 0.0000 0.0000 0.0000 -9.5665 0.0000 27.3644
#
#
#
# Elastic Compliance Matrix: (Units=1/GPa)
#
#
# Indices 1 2 3 4 5 6 
#
# 1 0.006801 -0.001361 -0.001990 0.000000 -0.000772 0.000000
# 2 -0.001361 0.009741 0.000266 0.000000 0.004972 0.000000
# 3 -0.001990 0.000266 0.012109 0.000000 0.003358 0.000000
# 4 0.000000 0.000000 0.000000 0.037501 0.000000 0.013110
# 5 -0.000772 0.004972 0.003358 0.000000 0.026090 0.000000
# 6 0.000000 0.000000 0.000000 0.013110 0.000000 0.041127
#
#
# Mechanical properties :
#
#
# Convention : Reuss Voigt Hill
#
# Bulk Modulus (GPa) = 44.48055 53.39486 48.93770
# Shear Modulus (GPa) = 34.00573 40.92439 37.46506
#
# Velocity S-wave (km/s) = 3.68623 4.04388 3.86919
# Velocity P-wave (km/s) = 5.99097 6.56810 6.28616
#
# Compressibility (1/GPa) = 0.02248174
#
# Stress axis : x y z
#
# Youngs Moduli (GPa) = 147.02760 102.65806 82.57994
#
# Poissons Ratio (x) = 0.13968 0.16435
# Poissons Ratio (y) = 0.20005 -0.02194
# Poissons Ratio (z) = 0.29261 -0.02727
#
# Static dielectric constant tensor:
#      x y z
#    x 1.968830 0.000000 -0.005770 
#    y 0.000000 1.997540 0.000000 
#    z -0.005770 0.000000 2.083800 
# 
# From -- ./inp_files/7650.got.cif
#   From: 2010.05.17/outbox.cif.g08.bks.cpg/sg9_4_cif.got.tgz:7650.got - 2010.06.03 20:04:27.
