data_PCOD9140115
_publ_section_title
;
Structure prediction by ZEFSAII (Michael W. Deem and Ramdas Pophale) SiO2 
 PCOD9140115
Probable space group: C C
;
_chemical_formula_sum "Si O2"
_cell_formula_units_Z 24
_cell_length_a 8.542680
_cell_length_b 19.106477
_cell_length_c 8.334978
_cell_angle_alpha 90.000000
_cell_angle_beta 130.917359
_cell_angle_gamma 90.000000
_cell_volume 1028.022951
_symmetry_space_group_name_H-M "C C"
_symmetry_group_IT_number 9
_symmetry_cell_setting 'monoclinic'
loop_
_space_group_symop_operation_xyz
x,y,z
x,-y,1/2+z
1/2+x,1/2+y,z
1/2+x,1/2-y,1/2+z
loop_
_atom_site_type_symbol
_atom_site_label
_atom_site_fract_x
_atom_site_fract_y
_atom_site_fract_z
Si Si1 0.330490 0.806995 0.106450
Si Si2 0.848302 0.597665 0.364043
Si Si3 0.106006 0.424809 0.425370
Si Si4 0.736216 0.457609 0.432956
Si Si5 0.885907 0.840627 0.816126
Si Si6 0.765762 0.071820 0.510698
O O1 0.522384 0.855527 0.282936
O O2 0.352755 0.731256 0.198362
O O3 0.298890 0.824462 0.895526
O O4 0.117876 0.836755 0.034680
O O5 0.759299 0.541944 0.433807
O O6 0.096049 0.589229 0.529015
O O7 0.771117 0.574815 0.134602
O O8 0.319643 0.402028 0.652559
O O9 0.171962 0.497396 0.384407
O O10 0.919901 0.436290 0.431279
O O11 0.502267 0.438806 0.222691
O O12 0.752278 0.862959 0.879896
#
# Coordination Sequence:
#
# PCOD9140115 Si02
#       6
#     4   4   4   4   4   4
#     4  12  26  48  74 106 155 206 253 308 386 452
#     4  11  25  43  69 114 152 188 249 317 374 449
#     4  11  24  44  77 114 149 198 253 314 374 453
#     4  11  23  42  74 114 150 187 252 320 375 440
#     4  12  25  49  76 107 150 208 248 309 384 453
#     4  11  25  42  78 113 146 197 255 312 371 447
#
# _framework density 23.345783999999998
#
# number of rings (size 3 to 8) (size 9 to 14) (size 15 to 20)
#    0.000    0.667    5.000    3.000    4.667    1.333 
#    0.000    3.333    0.000    0.000    0.000    0.000 
#    0.000    0.000    0.000    0.000    0.000    0.000 
#
# Total GULP energy -66868.006993 kJ/mol
# GULP energy per Si atom -5572.333916 kJ/mol
# Density = 2.329265 g / cm^3
# Si number density = 23.345784 Si / 1000 Ang^3
#
#
#
# Elastic Constant Matrix: (Units=GPa)
#
#
# Indices 1 2 3 4 5 6 
#
# 1 105.8744 76.4793 56.8512 0.0000 6.3689 0.0000
# 2 76.4793 134.7418 55.8258 0.0000 -15.7455 0.0000
# 3 56.8512 55.8258 104.2365 0.0000 8.4384 0.0000
# 4 0.0000 0.0000 0.0000 37.8724 0.0000 -2.5701
# 5 6.3689 -15.7455 8.4384 0.0000 47.9258 0.0000
# 6 0.0000 0.0000 0.0000 -2.5701 0.0000 33.7627
#
#
#
# Elastic Compliance Matrix: (Units=1/GPa)
#
#
# Indices 1 2 3 4 5 6 
#
# 1 0.019219 -0.009352 -0.005090 0.000000 -0.004730 0.000000
# 2 -0.009352 0.014951 -0.003454 0.000000 0.006763 0.000000
# 3 -0.005090 -0.003454 0.014463 0.000000 -0.003005 0.000000
# 4 0.000000 0.000000 0.000000 0.026542 0.000000 0.002020
# 5 -0.004730 0.006763 -0.003005 0.000000 0.024245 0.000000
# 6 0.000000 0.000000 0.000000 0.002020 0.000000 0.029772
#
#
# Mechanical properties :
#
#
# Convention : Reuss Voigt Hill
#
# Bulk Modulus (GPa) = 77.88383 80.35169 79.11776
# Shear Modulus (GPa) = 29.53934 34.29193 31.91563
#
# Velocity S-wave (km/s) = 3.56096 3.83674 3.70142
# Velocity P-wave (km/s) = 7.09511 7.35665 7.22706
#
# Compressibility (1/GPa) = 0.01283964
#
# Stress axis : x y z
#
# Youngs Moduli (GPa) = 52.03254 66.88322 69.14170
#
# Poissons Ratio (x) = 0.62551 0.35195
# Poissons Ratio (y) = 0.48663 0.23883
# Poissons Ratio (z) = 0.26486 0.23103
#
# Static dielectric constant tensor:
#      x y z
#    x 1.868740 0.000000 -0.027130 
#    y 0.000000 1.900180 0.000000 
#    z -0.027130 0.000000 1.974310 
# 
# From -- ./inp_files/5416.got.cif
#   From: 2010.05.17/outbox.cif.g08.bks.cpg/sg9_3_cif.got.tgz:5416.got - 2010.06.03 20:04:27.
