data_PCOD9140749
_publ_section_title
;
Structure prediction by ZEFSAII (Michael W. Deem and Ramdas Pophale) SiO2 
 PCOD9140749
Probable space group: C C
;
_chemical_formula_sum "Si O2"
_cell_formula_units_Z 24
_cell_length_a 8.909301
_cell_length_b 18.113954
_cell_length_c 11.059525
_cell_angle_alpha 90.000000
_cell_angle_beta 27.630358
_cell_angle_gamma 90.000000
_cell_volume 827.735965
_symmetry_space_group_name_H-M "C C"
_symmetry_group_IT_number 9
_symmetry_cell_setting 'monoclinic'
loop_
_space_group_symop_operation_xyz
x,y,z
x,-y,1/2+z
1/2+x,1/2+y,z
1/2+x,1/2-y,1/2+z
loop_
_atom_site_type_symbol
_atom_site_label
_atom_site_fract_x
_atom_site_fract_y
_atom_site_fract_z
Si Si1 0.128800 0.509659 0.216230
Si Si2 0.020664 0.801521 0.766616
Si Si3 0.100797 0.206448 0.609612
Si Si4 0.794523 0.363211 0.379834
Si Si5 0.526388 0.130267 0.491213
Si Si6 0.216866 0.907944 0.832312
O O1 0.071558 0.555865 0.379200
O O2 0.886627 0.438212 0.384611
O O3 0.035821 0.557121 0.163558
O O4 0.472756 0.470655 0.965331
O O5 0.932792 0.841792 0.694045
O O6 0.212932 0.847476 0.728957
O O7 0.871337 0.720555 0.918752
O O8 0.641913 0.841271 0.059744
O O9 0.375983 0.193370 0.512752
O O10 0.055978 0.133709 0.561966
O O11 0.772816 0.235381 0.898833
O O12 0.694916 0.382838 0.311629
#
# Coordination Sequence:
#
# PCOD9140749 Si02
#       6
#     4   4   4   4   4   4
#     4  11  26  52  74 115 164 211 272 337 435 499
#     4  12  25  45  81 113 154 209 286 341 414 503
#     4  11  28  50  82 123 172 217 288 358 427 501
#     4  12  25  44  78 112 156 210 277 339 419 499
#     4  11  25  49  74 115 158 220 267 342 420 507
#     4  11  27  52  81 122 162 227 272 357 421 517
#
# _framework density 28.994755000000001
#
# number of rings (size 3 to 8) (size 9 to 14) (size 15 to 20)
#    0.000    0.667    3.333    2.000    9.333    0.000 
#    3.000    0.000    0.000    0.000    0.000    0.000 
#    0.000    0.000    0.000    0.000    0.000    0.000 
#
# Total GULP energy -67016.950598 kJ/mol
# GULP energy per Si atom -5584.745883 kJ/mol
# Density = 2.892876 g / cm^3
# Si number density = 28.994755 Si / 1000 Ang^3
#
#
#
# Elastic Constant Matrix: (Units=GPa)
#
#
# Indices 1 2 3 4 5 6 
#
# 1 213.6664 115.0201 108.9269 -0.0253 -1.9822 0.0112
# 2 115.0201 188.9141 87.0769 -0.0115 13.5315 0.0089
# 3 108.9269 87.0769 217.3248 -0.0427 35.2317 0.0052
# 4 -0.0253 -0.0115 -0.0427 46.2109 0.0279 -0.1712
# 5 -1.9822 13.5315 35.2317 0.0279 58.0597 0.0020
# 6 0.0112 0.0089 0.0052 -0.1712 0.0020 83.6479
#
#
#
# Elastic Compliance Matrix: (Units=1/GPa)
#
#
# Indices 1 2 3 4 5 6 
#
# 1 0.008416 -0.003888 -0.003165 -0.000001 0.003114 -0.000001
# 2 -0.003888 0.008289 -0.001151 0.000000 -0.001366 0.000000
# 3 -0.003165 -0.001151 0.007346 0.000007 -0.004297 0.000000
# 4 -0.000001 0.000000 0.000007 0.021640 -0.000015 0.000044
# 5 0.003114 -0.001366 -0.004297 -0.000015 0.020256 -0.000001
# 6 -0.000001 0.000000 0.000000 0.000044 -0.000001 0.011955
#
#
# Mechanical properties :
#
#
# Convention : Reuss Voigt Hill
#
# Bulk Modulus (GPa) = 130.85386 137.99479 134.42432
# Shear Modulus (GPa) = 51.62260 58.17579 54.89919
#
# Velocity S-wave (km/s) = 4.22407 4.48417 4.35606
# Velocity P-wave (km/s) = 8.30774 8.63173 8.47128
#
# Compressibility (1/GPa) = 0.00764211
#
# Stress axis : x y z
#
# Youngs Moduli (GPa) = 118.82695 120.64178 136.13554
#
# Poissons Ratio (x) = 0.46906 0.43088
# Poissons Ratio (y) = 0.46200 0.15669
# Poissons Ratio (z) = 0.37609 0.13886
#
# Static dielectric constant tensor:
#      x y z
#    x 2.204470 0.000000 0.058540 
#    y 0.000000 2.330410 0.000020 
#    z 0.058540 0.000020 2.345920 
# 
# From -- ./inp_files/15003.got.cif
#   From: 2010.05.17/outbox.cif.g08.bks.cpg/sg9_8_cif.got.tgz:15003.got - 2010.06.03 20:04:27.
