data_PCOD9140683
_publ_section_title
;
Structure prediction by ZEFSAII (Michael W. Deem and Ramdas Pophale) SiO2 
 PCOD9140683
Probable space group: C C
;
_chemical_formula_sum "Si O2"
_cell_formula_units_Z 24
_cell_length_a 5.079989
_cell_length_b 17.609791
_cell_length_c 11.549063
_cell_angle_alpha 90.000000
_cell_angle_beta 82.482850
_cell_angle_gamma 90.000000
_cell_volume 1024.271659
_symmetry_space_group_name_H-M "C C"
_symmetry_group_IT_number 9
_symmetry_cell_setting 'monoclinic'
loop_
_space_group_symop_operation_xyz
x,y,z
x,-y,1/2+z
1/2+x,1/2+y,z
1/2+x,1/2-y,1/2+z
loop_
_atom_site_type_symbol
_atom_site_label
_atom_site_fract_x
_atom_site_fract_y
_atom_site_fract_z
Si Si1 0.338590 0.460177 0.463830
Si Si2 0.943685 0.835692 0.884025
Si Si3 0.655166 0.590139 0.152139
Si Si4 0.997837 0.663902 0.942499
Si Si5 0.919254 0.404366 0.002771
Si Si6 0.785933 0.449574 0.258840
O O1 0.507479 0.468270 0.572266
O O2 0.085781 0.516422 0.477046
O O3 0.502826 0.466913 0.335683
O O4 0.270749 0.370913 0.472260
O O5 0.967814 0.866045 0.752120
O O6 0.160242 0.885615 0.942129
O O7 0.013674 0.747759 0.894288
O O8 0.651589 0.846620 0.953330
O O9 0.858264 0.535627 0.213602
O O10 0.805442 0.649881 0.062292
O O11 0.922992 0.603162 0.846871
O O12 0.823450 0.401564 0.140264
#
# Coordination Sequence:
#
# PCOD9140683 Si02
#       6
#     4   4   4   4   4   4
#     4  11  25  46  78 111 148 204 262 316 373 454
#     4  12  30  48  76 115 158 199 250 316 402 446
#     4  11  25  48  76 112 153 199 260 319 372 457
#     4  11  28  46  76 112 152 204 252 319 387 459
#     4  12  27  50  77 112 151 206 253 315 383 457
#     4  11  25  46  77 108 148 200 263 313 369 455
#
# _framework density 23.431284000000002
#
# number of rings (size 3 to 8) (size 9 to 14) (size 15 to 20)
#    0.000    0.667    3.333    2.000   14.000    0.000 
#    0.000    0.000    0.000    0.000    0.000    0.000 
#    0.000    0.000    0.000    0.000    0.000    0.000 
#
# Total GULP energy -66982.287472 kJ/mol
# GULP energy per Si atom -5581.857289 kJ/mol
# Density = 2.337795 g / cm^3
# Si number density = 23.431284 Si / 1000 Ang^3
#
#
#
# Elastic Constant Matrix: (Units=GPa)
#
#
# Indices 1 2 3 4 5 6 
#
# 1 66.9104 -2.6478 48.9274 0.0000 -16.9873 0.0000
# 2 -2.6478 115.8297 35.1874 0.0000 2.9346 0.0000
# 3 48.9274 35.1874 171.4989 0.0000 -4.0017 0.0000
# 4 0.0000 0.0000 0.0000 26.9709 0.0000 0.5452
# 5 -16.9873 2.9346 -4.0017 0.0000 15.8788 0.0000
# 6 0.0000 0.0000 0.0000 0.5452 0.0000 29.1117
#
#
#
# Elastic Compliance Matrix: (Units=1/GPa)
#
#
# Indices 1 2 3 4 5 6 
#
# 1 0.027542 0.002280 -0.007693 0.000000 0.027105 0.000000
# 2 0.002280 0.009472 -0.002593 0.000000 0.000035 0.000000
# 3 -0.007693 -0.002593 0.008426 0.000000 -0.005627 0.000000
# 4 0.000000 0.000000 0.000000 0.037091 0.000000 -0.000695
# 5 0.027105 0.000035 -0.005627 0.000000 0.090549 0.000000
# 6 0.000000 0.000000 0.000000 -0.000695 0.000000 0.034363
#
#
# Mechanical properties :
#
#
# Convention : Reuss Voigt Hill
#
# Bulk Modulus (GPa) = 33.98036 57.46366 45.72201
# Shear Modulus (GPa) = 21.43468 32.57711 27.00589
#
# Velocity S-wave (km/s) = 3.02783 3.73275 3.39862
# Velocity P-wave (km/s) = 5.17274 6.56928 5.91239
#
# Compressibility (1/GPa) = 0.02942876
#
# Stress axis : x y z
#
# Youngs Moduli (GPa) = 36.30771 105.57049 118.67433
#
# Poissons Ratio (x) = -0.24069 0.91296
# Poissons Ratio (y) = -0.08278 0.30774
# Poissons Ratio (z) = 0.27931 0.27376
#
# Static dielectric constant tensor:
#      x y z
#    x 2.018240 0.000000 0.043350 
#    y 0.000000 1.887860 0.000000 
#    z 0.043350 0.000000 1.902320 
# 
# From -- ./inp_files/12993.got.cif
#   From: 2010.05.17/outbox.cif.g08.bks.cpg/sg9_7_cif.got.tgz:12993.got - 2010.06.03 20:04:27.
