data_PCOD9140459
_publ_section_title
;
Structure prediction by ZEFSAII (Michael W. Deem and Ramdas Pophale) SiO2 
 PCOD9140459
Probable space group: C C
;
_chemical_formula_sum "Si O2"
_cell_formula_units_Z 28
_cell_length_a 5.128359
_cell_length_b 20.406812
_cell_length_c 11.435327
_cell_angle_alpha 90.000000
_cell_angle_beta 56.787229
_cell_angle_gamma 90.000000
_cell_volume 1001.248688
_symmetry_space_group_name_H-M "C C"
_symmetry_group_IT_number 9
_symmetry_cell_setting 'monoclinic'
loop_
_space_group_symop_operation_xyz
x,y,z
x,-y,1/2+z
1/2+x,1/2+y,z
1/2+x,1/2-y,1/2+z
loop_
_atom_site_type_symbol
_atom_site_label
_atom_site_fract_x
_atom_site_fract_y
_atom_site_fract_z
Si Si1 0.357750 0.557726 0.638850
Si Si2 0.446796 0.527159 0.322945
Si Si3 0.052636 0.189032 0.686413
Si Si4 0.821243 0.593997 0.375538
Si Si5 0.675394 0.604810 0.869171
Si Si6 0.039704 0.221665 0.355872
Si Si7 0.499056 0.704915 0.099096
O O1 0.489196 0.497257 0.673771
O O2 0.576219 0.622955 0.606093
O O3 0.459009 0.557733 0.477610
O O4 0.015942 0.573562 0.765626
O O5 0.799424 0.561243 0.252151
O O6 0.442751 0.450726 0.376826
O O7 0.107988 0.566145 0.379538
O O8 0.175645 0.166460 0.780804
O O9 0.211235 0.256598 0.610173
O O10 0.701895 0.209186 0.794920
O O11 0.769117 0.670077 0.360945
O O12 0.581592 0.638095 0.013741
O O13 0.758259 0.238574 0.510714
O O14 0.953818 0.195602 0.248386
#
# Coordination Sequence:
#
# PCOD9140459 Si02
#       7
#     4   4   4   4   4   4   4
#     4  11  25  52  80 105 158 213 265 342 413 478
#     4  11  28  51  73 113 149 211 272 330 399 471
#     4  11  24  45  78 111 159 206 262 330 423 483
#     4  12  29  49  81 111 157 211 274 332 397 494
#     4  11  24  50  79 111 157 215 268 335 410 488
#     4  12  28  46  75 121 163 208 266 342 412 495
#     4  12  26  47  76 124 163 208 273 337 422 497
#
# _framework density 27.965081000000001
#
# number of rings (size 3 to 8) (size 9 to 14) (size 15 to 20)
#    0.000    0.571    4.286    1.714   12.000    1.143 
#    5.143    0.000    0.000    0.000    0.000    0.000 
#    0.000    0.000    0.000    0.000    0.000    0.000 
#
# Total GULP energy -78114.864839 kJ/mol
# GULP energy per Si atom -5579.633203 kJ/mol
# Density = 2.790143 g / cm^3
# Si number density = 27.965081 Si / 1000 Ang^3
#
#
#
# Elastic Constant Matrix: (Units=GPa)
#
#
# Indices 1 2 3 4 5 6 
#
# 1 174.7197 44.7202 49.6723 0.0000 21.7471 0.0000
# 2 44.7202 130.3924 37.1940 0.0000 -2.8722 0.0000
# 3 49.6723 37.1940 77.0296 0.0000 9.4358 0.0000
# 4 0.0000 0.0000 0.0000 39.3065 0.0000 4.5899
# 5 21.7471 -2.8722 9.4358 0.0000 42.2908 0.0000
# 6 0.0000 0.0000 0.0000 4.5899 0.0000 64.1595
#
#
#
# Elastic Compliance Matrix: (Units=1/GPa)
#
#
# Indices 1 2 3 4 5 6 
#
# 1 0.007591 -0.001610 -0.003728 0.000000 -0.003181 0.000000
# 2 -0.001610 0.009343 -0.003755 0.000000 0.002300 0.000000
# 3 -0.003728 -0.003755 0.017473 0.000000 -0.002236 0.000000
# 4 0.000000 0.000000 0.000000 0.025655 0.000000 -0.001835
# 5 -0.003181 0.002300 -0.002236 0.000000 0.025937 0.000000
# 6 0.000000 0.000000 0.000000 -0.001835 0.000000 0.015717
#
#
# Mechanical properties :
#
#
# Convention : Reuss Voigt Hill
#
# Bulk Modulus (GPa) = 61.64717 71.70162 66.67440
# Shear Modulus (GPa) = 39.90077 45.85504 42.87791
#
# Velocity S-wave (km/s) = 3.78141 4.05374 3.91994
# Velocity P-wave (km/s) = 6.41542 6.89970 6.66196
#
# Compressibility (1/GPa) = 0.01622134
#
# Stress axis : x y z
#
# Youngs Moduli (GPa) = 131.72684 107.03046 57.23101
#
# Poissons Ratio (x) = 0.17235 0.21336
# Poissons Ratio (y) = 0.21211 0.21489
# Poissons Ratio (z) = 0.49109 0.40188
#
# Static dielectric constant tensor:
#      x y z
#    x 2.263850 0.000000 -0.095460 
#    y 0.000000 2.229860 0.000000 
#    z -0.095460 0.000000 4.190730 
# 
# From -- ./inp_files/13281.got.cif
#   From: 2010.05.17/outbox.cif.g08.bks.cpg/sg9_7_cif.got.tgz:13281.got - 2010.06.03 20:04:27.
