data_PCOD9140558
_publ_section_title
;
Structure prediction by ZEFSAII (Michael W. Deem and Ramdas Pophale) SiO2 
 PCOD9140558
Probable space group: C C
;
_chemical_formula_sum "Si O2"
_cell_formula_units_Z 28
_cell_length_a 10.455742
_cell_length_b 9.228578
_cell_length_c 12.123876
_cell_angle_alpha 90.000000
_cell_angle_beta 90.601530
_cell_angle_gamma 90.000000
_cell_volume 1169.788093
_symmetry_space_group_name_H-M "C C"
_symmetry_group_IT_number 9
_symmetry_cell_setting 'monoclinic'
loop_
_space_group_symop_operation_xyz
x,y,z
x,-y,1/2+z
1/2+x,1/2+y,z
1/2+x,1/2-y,1/2+z
loop_
_atom_site_type_symbol
_atom_site_label
_atom_site_fract_x
_atom_site_fract_y
_atom_site_fract_z
Si Si1 0.675650 0.448939 0.603220
Si Si2 0.372919 0.163092 0.285096
Si Si3 0.853934 0.307081 0.031893
Si Si4 0.990654 0.386702 0.249883
Si Si5 0.257242 0.452788 0.293879
Si Si6 0.303759 0.258959 0.927158
Si Si7 0.384407 0.503272 0.580244
O O1 0.752563 0.387129 0.709163
O O2 0.733475 0.607831 0.579790
O O3 0.710173 0.345586 0.497331
O O4 0.526387 0.467185 0.622590
O O5 0.374984 0.121521 0.413853
O O6 0.374877 0.336411 0.287352
O O7 0.482077 0.061071 0.237758
O O8 0.961701 0.329406 0.126894
O O9 0.845383 0.136643 0.007497
O O10 0.884645 0.322207 0.332898
O O11 0.128638 0.359664 0.303167
O O12 0.248909 0.596467 0.367446
O O13 0.272989 0.504671 0.168695
O O14 0.388538 0.342012 0.020208
#
# Coordination Sequence:
#
# PCOD9140558 Si02
#       7
#     4   4   4   4   4   4   4
#     4  11  27  47  72 105 146 182 243 292 357 429
#     4  11  24  48  71 102 142 190 231 295 355 416
#     4  11  24  48  71 102 142 190 231 295 355 416
#     4  11  27  47  72 105 146 182 243 292 357 429
#     4  12  27  45  73 107 144 188 238 293 353 423
#     4  12  26  44  72 110 140 190 234 294 362 418
#     4  12  27  45  73 107 144 188 238 293 353 423
#
# _framework density 23.935959
#
# number of rings (size 3 to 8) (size 9 to 14) (size 15 to 20)
#    0.000    0.571    5.714    0.857    4.000    1.143 
#    0.000    0.000    0.000    0.000    0.000    0.000 
#    0.000    0.000    0.000    0.000    0.000    0.000 
#
# Total GULP energy -78017.001504 kJ/mol
# GULP energy per Si atom -5572.642965 kJ/mol
# Density = 2.388148 g / cm^3
# Si number density = 23.935959 Si / 1000 Ang^3
#
#
#
# Elastic Constant Matrix: (Units=GPa)
#
#
# Indices 1 2 3 4 5 6 
#
# 1 64.9402 24.1380 14.6733 0.0000 -10.0095 0.0000
# 2 24.1380 97.3796 -11.3549 0.0000 -0.6299 0.0000
# 3 14.6733 -11.3549 94.6074 0.0000 -0.6539 0.0000
# 4 0.0000 0.0000 0.0000 19.6306 0.0000 -0.6805
# 5 -10.0095 -0.6299 -0.6539 0.0000 9.9799 0.0000
# 6 0.0000 0.0000 0.0000 -0.6805 0.0000 14.3234
#
#
#
# Elastic Compliance Matrix: (Units=1/GPa)
#
#
# Indices 1 2 3 4 5 6 
#
# 1 0.021641 -0.005682 -0.003893 0.000000 0.021092 0.000000
# 2 -0.005682 0.011912 0.002278 0.000000 -0.004798 0.000000
# 3 -0.003893 0.002278 0.011426 0.000000 -0.003012 0.000000
# 4 0.000000 0.000000 0.000000 0.051025 0.000000 0.002424
# 5 0.021092 -0.004798 -0.003012 0.000000 0.120856 0.000000
# 6 0.000000 0.000000 0.000000 0.002424 0.000000 0.069931
#
#
# Mechanical properties :
#
#
# Convention : Reuss Voigt Hill
#
# Bulk Modulus (GPa) = 32.90964 34.64887 33.77926
# Shear Modulus (GPa) = 16.05064 24.08483 20.06773
#
# Velocity S-wave (km/s) = 2.59234 3.17554 2.89864
# Velocity P-wave (km/s) = 4.76856 5.28701 5.03446
#
# Compressibility (1/GPa) = 0.03038623
#
# Stress axis : x y z
#
# Youngs Moduli (GPa) = 46.20812 83.94874 87.51745
#
# Poissons Ratio (x) = 0.47698 0.34067
# Poissons Ratio (y) = 0.26254 -0.19934
# Poissons Ratio (z) = 0.17987 -0.19122
#
# Static dielectric constant tensor:
#      x y z
#    x 1.896860 0.000000 0.054000 
#    y 0.000000 1.927100 0.000000 
#    z 0.054000 0.000000 1.983720 
# 
# From -- ./inp_files/15937.got.cif
#   From: 2010.05.17/outbox.cif.g08.bks.cpg/sg9_8_cif.got.tgz:15937.got - 2010.06.03 20:04:27.
