data_PCOD9140741
_publ_section_title
;
Structure prediction by ZEFSAII (Michael W. Deem and Ramdas Pophale) SiO2 
 PCOD9140741
Probable space group: C C
;
_chemical_formula_sum "Si O2"
_cell_formula_units_Z 32
_cell_length_a 11.250726
_cell_length_b 15.144598
_cell_length_c 9.494259
_cell_angle_alpha 90.000000
_cell_angle_beta 59.371219
_cell_angle_gamma 90.000000
_cell_volume 1392.012997
_symmetry_space_group_name_H-M "C C"
_symmetry_group_IT_number 9
_symmetry_cell_setting 'monoclinic'
loop_
_space_group_symop_operation_xyz
x,y,z
x,-y,1/2+z
1/2+x,1/2+y,z
1/2+x,1/2-y,1/2+z
loop_
_atom_site_type_symbol
_atom_site_label
_atom_site_fract_x
_atom_site_fract_y
_atom_site_fract_z
Si Si1 0.028500 0.616909 0.568840
Si Si2 0.214171 0.686829 0.222794
Si Si3 0.927042 0.952547 0.706601
Si Si4 0.654305 0.479185 0.948716
Si Si5 0.171497 0.841607 0.718017
Si Si6 0.172813 0.438555 0.481999
Si Si7 0.247132 0.892705 0.172029
Si Si8 0.976992 0.680592 0.905338
O O1 0.109792 0.681845 0.417463
O O2 0.111634 0.532005 0.567632
O O3 0.904396 0.582058 0.548767
O O4 0.971714 0.662402 0.741809
O O5 0.341192 0.631286 0.206861
O O6 0.234110 0.788137 0.172517
O O7 0.174582 0.631015 0.108274
O O8 0.059613 0.902478 0.699896
O O9 0.823487 0.025710 0.837542
O O10 0.990994 0.004747 0.534570
O O11 0.721544 0.405430 0.811819
O O12 0.713472 0.568717 0.846296
O O13 0.665471 0.441525 0.099200
O O14 0.316999 0.811422 0.556909
O O15 0.077258 0.766290 0.847127
O O16 0.068826 0.394655 0.429507
#
# Coordination Sequence:
#
# PCOD9140741 Si02
#       8
#     4   4   4   4   4   4   4   4
#     4  11  26  44  77 106 151 201 253 321 395 462
#     4  11  27  47  76 114 149 204 263 325 390 470
#     4  11  25  48  80 111 157 207 262 319 402 475
#     4  12  27  48  76 109 153 206 258 323 398 471
#     4  12  28  49  80 117 156 208 265 327 397 471
#     4  11  26  50  77 113 157 205 260 328 399 468
#     4  12  28  46  75 108 151 198 260 326 385 473
#     4  12  29  48  81 114 162 203 269 327 398 474
#
# _framework density 22.988292000000001
#
# number of rings (size 3 to 8) (size 9 to 14) (size 15 to 20)
#    0.000    0.500    1.250    5.250   15.750    0.000 
#    0.000    0.000    0.000    0.000    0.000    0.000 
#    0.000    0.000    0.000    0.000    0.000    0.000 
#
# Total GULP energy -89150.892236 kJ/mol
# GULP energy per Si atom -5571.930765 kJ/mol
# Density = 2.293597 g / cm^3
# Si number density = 22.988292 Si / 1000 Ang^3
#
#
#
# Elastic Constant Matrix: (Units=GPa)
#
#
# Indices 1 2 3 4 5 6 
#
# 1 79.1308 14.9568 46.9710 0.0000 -17.2462 0.0000
# 2 14.9568 85.3867 53.9172 0.0000 1.8965 0.0000
# 3 46.9710 53.9172 98.1777 0.0000 -16.5634 0.0000
# 4 0.0000 0.0000 0.0000 36.7997 0.0000 5.4235
# 5 -17.2462 1.8965 -16.5634 0.0000 33.4726 0.0000
# 6 0.0000 0.0000 0.0000 5.4235 0.0000 -18.2989
#
#
#
# Elastic Compliance Matrix: (Units=1/GPa)
#
#
# Indices 1 2 3 4 5 6 
#
# 1 0.018960 0.002743 -0.009771 0.000000 0.004778 0.000000
# 2 0.002743 0.019688 -0.013174 0.000000 -0.006221 0.000000
# 3 -0.009771 -0.013174 0.023319 0.000000 0.007251 0.000000
# 4 0.000000 0.000000 0.000000 0.026037 0.000000 0.007717
# 5 0.004778 -0.006221 0.007251 0.000000 0.036278 0.000000
# 6 0.000000 0.000000 0.000000 0.007717 0.000000 -0.052361
#
#
# Mechanical properties :
#
#
# Convention : Reuss Voigt Hill
#
# Bulk Modulus (GPa) = 46.37817 54.93169 50.65493
# Shear Modulus (GPa) = 41.83648 20.18468 31.01058
#
# Velocity S-wave (km/s) = 4.27066 2.96639 3.67682
# Velocity P-wave (km/s) = 6.67357 5.97328 6.33311
#
# Compressibility (1/GPa) = 0.02156187
#
# Stress axis : x y z
#
# Youngs Moduli (GPa) = 52.74131 50.79276 42.88416
#
# Poissons Ratio (x) = -0.13931 0.41903
# Poissons Ratio (y) = -0.14466 0.56495
# Poissons Ratio (z) = 0.51535 0.66914
#
# Static dielectric constant tensor:
#      x y z
#    x 1.995610 0.000000 -0.003480 
#    y 0.000000 1.937960 0.000000 
#    z -0.003480 0.000000 1.944550 
# 
# From -- ./inp_files/7563.got.cif
#   From: 2010.05.17/outbox.cif.g08.bks.cpg/sg9_4_cif.got.tgz:7563.got - 2010.06.03 20:04:27.
