data_PCOD9140838
_publ_section_title
;
Structure prediction by ZEFSAII (Michael W. Deem and Ramdas Pophale) SiO2 
 PCOD9140838
Probable space group: C C
;
_chemical_formula_sum "Si O2"
_cell_formula_units_Z 24
_cell_length_a 6.500067
_cell_length_b 17.272628
_cell_length_c 9.815597
_cell_angle_alpha 90.000000
_cell_angle_beta 59.575095
_cell_angle_gamma 90.000000
_cell_volume 950.272473
_symmetry_space_group_name_H-M "C C"
_symmetry_group_IT_number 9
_symmetry_cell_setting 'monoclinic'
loop_
_space_group_symop_operation_xyz
x,y,z
x,-y,1/2+z
1/2+x,1/2+y,z
1/2+x,1/2-y,1/2+z
loop_
_atom_site_type_symbol
_atom_site_label
_atom_site_fract_x
_atom_site_fract_y
_atom_site_fract_z
Si Si1 0.478120 0.578394 0.626430
Si Si2 0.392931 0.010787 0.080978
Si Si3 0.751222 0.240525 0.228112
Si Si4 0.239386 0.780447 0.946458
Si Si5 0.975629 0.344878 0.386826
Si Si6 0.188801 0.561658 0.238785
O O1 0.676334 0.550358 0.670928
O O2 0.619128 0.635837 0.479688
O O3 0.229971 0.619395 0.751413
O O4 0.387848 0.495136 0.610275
O O5 0.589969 0.966438 0.919662
O O6 0.338200 0.084955 0.003758
O O7 0.486461 0.046415 0.191267
O O8 0.470356 0.243082 0.283925
O O9 0.784890 0.148352 0.226591
O O10 0.842901 0.295687 0.316032
O O11 0.862036 0.273676 0.053167
O O12 0.044654 0.717231 0.977411
#
# Coordination Sequence:
#
# PCOD9140838 Si02
#       6
#     4   4   4   4   4   4
#     4  11  27  45  75 109 155 200 257 318 392 463
#     4  11  26  49  73 113 156 199 257 320 395 467
#     4  12  28  48  78 110 156 206 263 323 395 462
#     4  12  26  48  73 114 152 202 267 320 384 470
#     4  11  28  47  77 113 155 205 263 326 387 466
#     4  11  27  47  76 113 152 204 253 321 397 466
#
# _framework density 25.255911000000001
#
# number of rings (size 3 to 8) (size 9 to 14) (size 15 to 20)
#    0.000    0.667    5.000    0.000   11.667    4.000 
#    0.000    0.000    0.000    0.000    0.000    0.000 
#    0.000    0.000    0.000    0.000    0.000    0.000 
#
# Total GULP energy -66951.831876 kJ/mol
# GULP energy per Si atom -5579.319323 kJ/mol
# Density = 2.519843 g / cm^3
# Si number density = 25.255911 Si / 1000 Ang^3
#
#
#
# Elastic Constant Matrix: (Units=GPa)
#
#
# Indices 1 2 3 4 5 6 
#
# 1 85.6765 51.1811 37.7458 0.0000 -14.3985 0.0000
# 2 51.1811 166.4762 5.0794 0.0000 -12.5548 0.0000
# 3 37.7458 5.0794 62.9498 0.0000 9.0967 0.0000
# 4 0.0000 0.0000 0.0000 29.8850 0.0000 -11.2450
# 5 -14.3985 -12.5548 9.0967 0.0000 33.0698 0.0000
# 6 0.0000 0.0000 0.0000 -11.2450 0.0000 62.8723
#
#
#
# Elastic Compliance Matrix: (Units=1/GPa)
#
#
# Indices 1 2 3 4 5 6 
#
# 1 0.024541 -0.006089 -0.016072 0.000000 0.012794 0.000000
# 2 -0.006089 0.007741 0.003109 0.000000 -0.000567 0.000000
# 3 -0.016072 0.003109 0.027194 0.000000 -0.013298 0.000000
# 4 0.000000 0.000000 0.000000 0.035876 0.000000 0.006417
# 5 0.012794 -0.000567 -0.013298 0.000000 0.039252 0.000000
# 6 0.000000 0.000000 0.000000 0.006417 0.000000 0.017053
#
#
# Mechanical properties :
#
#
# Convention : Reuss Voigt Hill
#
# Bulk Modulus (GPa) = 46.79601 55.90167 51.34884
# Shear Modulus (GPa) = 25.39539 39.90517 32.65028
#
# Velocity S-wave (km/s) = 3.17444 3.97928 3.59942
# Velocity P-wave (km/s) = 5.65730 6.57989 6.13596
#
# Compressibility (1/GPa) = 0.02136934
#
# Stress axis : x y z
#
# Youngs Moduli (GPa) = 40.74896 129.17673 36.77307
#
# Poissons Ratio (x) = 0.78661 0.59103
# Poissons Ratio (y) = 0.24814 -0.11432
# Poissons Ratio (z) = 0.65493 -0.40157
#
# Static dielectric constant tensor:
#      x y z
#    x 2.048130 0.000000 -0.072400 
#    y 0.000000 2.009710 0.000000 
#    z -0.072400 0.000000 2.001200 
# 
# From -- ./inp_files/3677.got.cif
#   From: 2010.05.17/outbox.cif.g08.bks.cpg/sg9_2_cif.got.tgz:3677.got - 2010.06.03 20:04:27.
