data_PCOD9140704
_publ_section_title
;
Structure prediction by ZEFSAII (Michael W. Deem and Ramdas Pophale) SiO2 
 PCOD9140704
Probable space group: C C
;
_chemical_formula_sum "Si O2"
_cell_formula_units_Z 28
_cell_length_a 16.071692
_cell_length_b 6.319349
_cell_length_c 21.236555
_cell_angle_alpha 90.000000
_cell_angle_beta 150.862233
_cell_angle_gamma 90.000000
_cell_volume 1050.189807
_symmetry_space_group_name_H-M "C C"
_symmetry_group_IT_number 9
_symmetry_cell_setting 'monoclinic'
loop_
_space_group_symop_operation_xyz
x,y,z
x,-y,1/2+z
1/2+x,1/2+y,z
1/2+x,1/2-y,1/2+z
loop_
_atom_site_type_symbol
_atom_site_label
_atom_site_fract_x
_atom_site_fract_y
_atom_site_fract_z
Si Si1 0.370460 0.634895 0.855110
Si Si2 0.034132 0.793838 0.053049
Si Si3 0.643871 0.936540 0.052006
Si Si4 0.701243 0.588440 0.888308
Si Si5 0.166244 0.693384 0.937490
Si Si6 0.923493 0.367388 0.755612
Si Si7 0.056465 0.872199 0.668465
O O1 0.447668 0.420374 0.936274
O O2 0.412677 0.728421 0.813302
O O3 0.168275 0.660448 0.733636
O O4 0.463794 0.830827 0.953057
O O5 0.885587 0.675175 0.992924
O O6 0.168536 0.616899 0.120629
O O7 0.115566 0.969333 0.152070
O O8 0.754646 0.725970 0.113571
O O9 0.664532 0.075002 0.002974
O O10 0.681391 0.442067 0.936751
O O11 0.584041 0.787740 0.822860
O O12 0.613454 0.461112 0.773409
O O13 0.976412 0.612470 0.790764
O O14 0.351058 0.634753 0.028486
#
# Coordination Sequence:
#
# PCOD9140704 Si02
#       7
#     4   4   4   4   4   4   4
#     4  11  26  47  72 111 152 199 256 323 386 471
#     4  12  27  47  75 113 152 202 263 321 393 469
#     4  11  25  48  75 109 151 206 256 315 394 458
#     4  12  26  46  73 108 148 199 254 318 393 460
#     4  11  26  50  70 109 153 198 258 316 387 465
#     4  11  25  47  76 107 148 198 258 310 387 457
#     4  12  25  47  73 107 148 200 253 319 392 452
#
# _framework density 26.661847999999999
#
# number of rings (size 3 to 8) (size 9 to 14) (size 15 to 20)
#    0.000    0.571    4.286    2.571    4.000    3.429 
#    5.143    0.000    0.000    0.000    0.000    0.000 
#    0.000    0.000    0.000    0.000    0.000    0.000 
#
# Total GULP energy -78136.943858 kJ/mol
# GULP energy per Si atom -5581.210276 kJ/mol
# Density = 2.660116 g / cm^3
# Si number density = 26.661848 Si / 1000 Ang^3
#
#
#
# Elastic Constant Matrix: (Units=GPa)
#
#
# Indices 1 2 3 4 5 6 
#
# 1 69.4051 55.8670 19.2057 0.0000 26.2472 0.0001
# 2 55.8670 96.4962 51.2830 0.0002 21.9366 0.0003
# 3 19.2057 51.2830 77.9458 -0.0003 27.5569 0.0001
# 4 0.0000 0.0002 -0.0003 101.8733 0.0003 -1.3716
# 5 26.2472 21.9366 27.5569 0.0003 47.4136 -0.0002
# 6 0.0001 0.0003 0.0001 -1.3716 -0.0002 65.0413
#
#
#
# Elastic Compliance Matrix: (Units=1/GPa)
#
#
# Indices 1 2 3 4 5 6 
#
# 1 0.036601 -0.024216 0.012732 0.000000 -0.016458 0.000000
# 2 -0.024216 0.032054 -0.018400 0.000000 0.009269 0.000000
# 3 0.012732 -0.018400 0.026784 0.000000 -0.014102 0.000000
# 4 0.000000 0.000000 0.000000 0.009819 0.000000 0.000207
# 5 -0.016458 0.009269 -0.014102 0.000000 0.034110 0.000000
# 6 0.000000 0.000000 0.000000 0.000207 0.000000 0.015379
#
#
# Mechanical properties :
#
#
# Convention : Reuss Voigt Hill
#
# Bulk Modulus (GPa) = 28.03253 55.17316 41.60285
# Shear Modulus (GPa) = 22.08446 50.69840 36.39143
#
# Velocity S-wave (km/s) = 2.88117 4.36539 3.69850
# Velocity P-wave (km/s) = 4.64813 6.79319 5.82033
#
# Compressibility (1/GPa) = 0.03567284
#
# Stress axis : x y z
#
# Youngs Moduli (GPa) = 27.32172 31.19705 37.33618
#
# Poissons Ratio (x) = 0.75545 -0.47537
# Poissons Ratio (y) = 0.66161 0.68698
# Poissons Ratio (z) = -0.34787 0.57402
#
# Static dielectric constant tensor:
#      x y z
#    x 2.075100 0.000000 -0.143810 
#    y 0.000000 0.932990 0.000000 
#    z -0.143810 0.000000 2.354810 
# 
# From -- ./inp_files/20643.got.cif
#   From: 2010.05.17/outbox.cif.g08.bks.cpg/sg9_11_cif.got.tgz:20643.got - 2010.06.03 20:04:27.
