data_PCOD9140029
_publ_section_title
;
Structure prediction by ZEFSAII (Michael W. Deem and Ramdas Pophale) SiO2 
 PCOD9140029
Probable space group: C C
;
_chemical_formula_sum "Si O2"
_cell_formula_units_Z 32
_cell_length_a 15.370851
_cell_length_b 4.868964
_cell_length_c 18.194721
_cell_angle_alpha 90.000000
_cell_angle_beta 63.537711
_cell_angle_gamma 90.000000
_cell_volume 1219.027378
_symmetry_space_group_name_H-M "C C"
_symmetry_group_IT_number 9
_symmetry_cell_setting 'monoclinic'
loop_
_space_group_symop_operation_xyz
x,y,z
x,-y,1/2+z
1/2+x,1/2+y,z
1/2+x,1/2-y,1/2+z
loop_
_atom_site_type_symbol
_atom_site_label
_atom_site_fract_x
_atom_site_fract_y
_atom_site_fract_z
Si Si1 0.581320 0.538444 0.393150
Si Si2 0.289271 0.230563 0.805815
Si Si3 0.280996 0.940958 0.516275
Si Si4 0.618341 0.249182 0.736488
Si Si5 0.968286 0.494874 0.185280
Si Si6 0.874059 0.937468 0.409880
Si Si7 0.551885 0.507316 0.071058
Si Si8 0.242439 0.277117 0.665733
O O1 0.680085 0.362542 0.365539
O O2 0.610416 0.789064 0.327501
O O3 0.488830 0.417013 0.383150
O O4 0.546581 0.594349 0.489033
O O5 0.359389 0.977487 0.756154
O O6 0.336615 0.420441 0.849493
O O7 0.289291 0.362167 0.724736
O O8 0.326124 0.141747 0.437566
O O9 0.165233 0.938105 0.546666
O O10 0.301604 0.107743 0.583667
O O11 0.330936 0.649104 0.486964
O O12 0.521201 0.155527 0.733599
O O13 0.655349 0.560882 0.716168
O O14 0.694271 0.062769 0.662451
O O15 0.012610 0.778394 0.141604
O O16 0.992029 0.283811 0.109741
#
# Coordination Sequence:
#
# PCOD9140029 Si02
#       8
#     4   4   4   4   4   4   4   4
#     4  11  28  50  75 112 152 203 254 317 380 464
#     4  11  28  50  77 111 151 203 255 315 384 459
#     4  12  25  48  73 112 149 199 246 319 385 455
#     4  11  22  46  71 102 143 193 239 306 366 449
#     4  12  25  49  73 112 148 198 249 314 379 455
#     4  12  28  47  75 108 152 199 257 311 384 458
#     4  12  27  46  78 110 151 193 254 311 383 456
#     4  11  25  42  72 105 146 188 244 301 377 442
#
# _framework density 26.250432
#
# number of rings (size 3 to 8) (size 9 to 14) (size 15 to 20)
#    0.000    0.500    5.000    1.500    5.250    6.000 
#    0.000    0.000    0.000    0.000    0.000    0.000 
#    0.000    0.000    0.000    0.000    0.000    0.000 
#
# Total GULP energy -89513.180056 kJ/mol
# GULP energy per Si atom -5594.573753 kJ/mol
# Density = 2.619069 g / cm^3
# Si number density = 26.250432 Si / 1000 Ang^3
#
#
#
# Elastic Constant Matrix: (Units=GPa)
#
#
# Indices 1 2 3 4 5 6 
#
# 1 146.8280 19.5744 42.2638 0.0036 -11.0303 0.0036
# 2 19.5744 117.3340 24.4817 0.0137 -16.9792 0.0041
# 3 42.2638 24.4817 104.0750 0.0058 6.2169 0.0021
# 4 0.0036 0.0137 0.0058 41.8123 0.0006 -3.2713
# 5 -11.0303 -16.9792 6.2169 0.0006 66.5602 0.0021
# 6 0.0036 0.0041 0.0021 -3.2713 0.0021 13.3312
#
#
#
# Elastic Compliance Matrix: (Units=1/GPa)
#
#
# Indices 1 2 3 4 5 6 
#
# 1 0.007901 -0.000435 -0.003196 0.000000 0.001497 -0.000002
# 2 -0.000435 0.009419 -0.002191 -0.000003 0.002535 -0.000004
# 3 -0.003196 -0.002191 0.011551 -0.000001 -0.002167 0.000000
# 4 0.000000 -0.000003 -0.000001 0.024385 -0.000001 0.005984
# 5 0.001497 0.002535 -0.002167 -0.000001 0.016121 -0.000004
# 6 -0.000002 -0.000004 0.000000 0.005984 -0.000004 0.076480
#
#
# Mechanical properties :
#
#
# Convention : Reuss Voigt Hill
#
# Bulk Modulus (GPa) = 58.04125 60.09743 59.06934
# Shear Modulus (GPa) = 30.62934 43.13520 36.88227
#
# Velocity S-wave (km/s) = 3.41957 4.05806 3.75242
# Velocity P-wave (km/s) = 6.14409 6.70080 6.42848
#
# Compressibility (1/GPa) = 0.01722913
#
# Stress axis : x y z
#
# Youngs Moduli (GPa) = 126.56695 106.16673 86.57307
#
# Poissons Ratio (x) = 0.04615 0.27666
# Poissons Ratio (y) = 0.05502 0.18965
# Poissons Ratio (z) = 0.40447 0.23257
#
# Static dielectric constant tensor:
#      x y z
#    x 2.186020 0.000000 -0.022220 
#    y 0.000000 2.025760 0.000000 
#    z -0.022220 0.000000 2.181490 
# 
# From -- ./inp_files/33533.got.cif
#   From: 2010.05.17/outbox.cif.g08.bks.cpg/sg9_17_cif.got.tgz:33533.got - 2010.06.03 20:04:27.
