data_PCOD9140881
_publ_section_title
;
Structure prediction by ZEFSAII (Michael W. Deem and Ramdas Pophale) SiO2 
 PCOD9140881
Probable space group: C C
;
_chemical_formula_sum "Si O2"
_cell_formula_units_Z 28
_cell_length_a 15.516847
_cell_length_b 9.896674
_cell_length_c 14.274667
_cell_angle_alpha 90.000000
_cell_angle_beta 153.432119
_cell_angle_gamma 90.000000
_cell_volume 980.430071
_symmetry_space_group_name_H-M "C C"
_symmetry_group_IT_number 9
_symmetry_cell_setting 'monoclinic'
loop_
_space_group_symop_operation_xyz
x,y,z
x,-y,1/2+z
1/2+x,1/2+y,z
1/2+x,1/2-y,1/2+z
loop_
_atom_site_type_symbol
_atom_site_label
_atom_site_fract_x
_atom_site_fract_y
_atom_site_fract_z
Si Si1 0.044730 0.439725 0.322290
Si Si2 0.588397 0.404045 0.243764
Si Si3 0.675757 0.775765 0.001618
Si Si4 0.411040 0.265844 0.377362
Si Si5 0.110789 0.131211 0.417753
Si Si6 0.350245 0.577430 0.345766
Si Si7 0.964306 0.510369 0.031031
O O1 0.128050 0.288623 0.407229
O O2 0.157756 0.561157 0.481475
O O3 0.031174 0.492482 0.202892
O O4 0.825054 0.426780 0.147302
O O5 0.546695 0.538600 0.266397
O O6 0.755298 0.427259 0.330671
O O7 0.417292 0.361337 0.009751
O O8 0.664993 0.730846 0.104950
O O9 0.672138 0.699264 0.900271
O O10 0.920912 0.758158 0.267681
O O11 0.381969 0.415788 0.387985
O O12 0.430508 0.140671 0.464109
O O13 0.970642 0.118697 0.371150
O O14 0.119023 0.590624 0.119531
#
# Coordination Sequence:
#
# PCOD9140881 Si02
#       7
#     4   4   4   4   4   4   4
#     4  11  29  51  82 117 168 223 275 351 426 507
#     4  11  27  53  81 121 168 216 281 351 417 505
#     4  12  27  50  80 119 167 217 275 342 428 498
#     4  12  24  46  83 118 161 218 282 333 413 507
#     4  11  27  54  80 118 167 222 278 344 428 505
#     4  12  27  49  83 124 165 219 280 351 417 501
#     4  11  27  49  81 125 160 215 289 348 409 503
#
# _framework density 28.558896000000001
#
# number of rings (size 3 to 8) (size 9 to 14) (size 15 to 20)
#    0.000    0.571    2.857    3.429   12.000    0.000 
#    7.714    0.000    0.000    0.000    0.000    0.000 
#    0.000    0.000    0.000    0.000    0.000    0.000 
#
# Total GULP energy -78537.872209 kJ/mol
# GULP energy per Si atom -5609.848015 kJ/mol
# Density = 2.849390 g / cm^3
# Si number density = 28.558896 Si / 1000 Ang^3
#
#
#
# Elastic Constant Matrix: (Units=GPa)
#
#
# Indices 1 2 3 4 5 6 
#
# 1 132.9491 26.1349 51.5615 0.0005 27.0013 0.0000
# 2 26.1349 137.5872 14.4771 0.0004 6.4260 0.0002
# 3 51.5615 14.4771 133.6439 0.0009 9.3755 0.0005
# 4 0.0005 0.0004 0.0009 51.8278 0.0008 -2.2038
# 5 27.0013 6.4260 9.3755 0.0008 68.4923 0.0002
# 6 0.0000 0.0002 0.0005 -2.2038 0.0002 54.9961
#
#
#
# Elastic Compliance Matrix: (Units=1/GPa)
#
#
# Indices 1 2 3 4 5 6 
#
# 1 0.009764 -0.001345 -0.003393 0.000000 -0.003258 0.000000
# 2 -0.001345 0.007561 -0.000290 0.000000 -0.000139 0.000000
# 3 -0.003393 -0.000290 0.008812 0.000000 0.000158 0.000000
# 4 0.000000 0.000000 0.000000 0.019328 0.000000 0.000774
# 5 -0.003258 -0.000139 0.000158 0.000000 0.015876 0.000000
# 6 0.000000 0.000000 0.000000 0.000774 0.000000 0.018214
#
#
# Mechanical properties :
#
#
# Convention : Reuss Voigt Hill
#
# Bulk Modulus (GPa) = 62.19006 65.39190 63.79098
# Shear Modulus (GPa) = 52.64794 55.86368 54.25581
#
# Velocity S-wave (km/s) = 4.29824 4.42757 4.36338
# Velocity P-wave (km/s) = 6.81590 7.00605 6.91163
#
# Compressibility (1/GPa) = 0.01607974
#
# Stress axis : x y z
#
# Youngs Moduli (GPa) = 102.42021 132.26245 113.48420
#
# Poissons Ratio (x) = 0.17795 0.38501
# Poissons Ratio (y) = 0.13780 0.03293
# Poissons Ratio (z) = 0.34747 0.03838
#
# Static dielectric constant tensor:
#      x y z
#    x 2.162200 0.000000 0.184420 
#    y 0.000000 2.063380 0.000000 
#    z 0.184420 0.000000 2.527240 
# 
# From -- ./inp_files/25988.got.cif
#   From: 2010.05.17/outbox.cif.g08.bks.cpg/sg9_13_cif.got.tgz:25988.got - 2010.06.03 20:04:27.
