data_PCOD9140519
_publ_section_title
;
Structure prediction by ZEFSAII (Michael W. Deem and Ramdas Pophale) SiO2 
 PCOD9140519
Probable space group: C C
;
_chemical_formula_sum "Si O2"
_cell_formula_units_Z 32
_cell_length_a 15.476390
_cell_length_b 11.704214
_cell_length_c 8.502184
_cell_angle_alpha 90.000000
_cell_angle_beta 66.953133
_cell_angle_gamma 90.000000
_cell_volume 1417.155599
_symmetry_space_group_name_H-M "C C"
_symmetry_group_IT_number 9
_symmetry_cell_setting 'monoclinic'
loop_
_space_group_symop_operation_xyz
x,y,z
x,-y,1/2+z
1/2+x,1/2+y,z
1/2+x,1/2-y,1/2+z
loop_
_atom_site_type_symbol
_atom_site_label
_atom_site_fract_x
_atom_site_fract_y
_atom_site_fract_z
Si Si1 0.851270 0.744648 0.737910
Si Si2 0.461098 0.649562 0.664972
Si Si3 0.508372 0.408339 0.491175
Si Si4 0.919605 0.500435 0.740385
Si Si5 0.649416 0.246365 0.503596
Si Si6 0.612259 0.207308 0.893468
Si Si7 0.053599 0.464294 0.896774
Si Si8 0.296963 0.788620 0.912031
O O1 0.890315 0.630627 0.792637
O O2 0.814880 0.721901 0.585432
O O3 0.935360 0.833601 0.648803
O O4 0.758751 0.779873 0.899066
O O5 0.480310 0.537875 0.547168
O O6 0.514926 0.751006 0.537549
O O7 0.356059 0.692304 0.774972
O O8 0.498039 0.622983 0.815064
O O9 0.612619 0.368607 0.466889
O O10 0.839510 0.409466 0.828715
O O11 0.020932 0.462687 0.740240
O O12 0.949505 0.508732 0.537326
O O13 0.623527 0.242818 0.704499
O O14 0.592055 0.151377 0.443586
O O15 0.690379 0.268015 0.943192
O O16 0.620803 0.070364 0.879605
#
# Coordination Sequence:
#
# PCOD9140519 Si02
#       8
#     4   4   4   4   4   4   4   4
#     4  11  26  45  70 102 140 181 230 288 347 416
#     4  11  25  46  70  96 140 182 226 286 346 415
#     4  11  24  47  68  97 139 183 226 284 349 407
#     4  12  23  47  75  99 135 184 233 292 346 408
#     4  12  27  44  70 104 139 182 232 286 347 416
#     4  12  27  43  71 105 137 182 233 285 348 415
#     4  12  24  46  74 101 135 181 236 289 348 411
#     4  11  26  44  70 104 137 181 232 286 349 412
#
# _framework density 22.580439999999999
#
# number of rings (size 3 to 8) (size 9 to 14) (size 15 to 20)
#    0.000    0.500    5.000    2.250    7.000    2.000 
#    0.000    0.000    0.000    0.000    0.000    0.000 
#    0.000    0.000    0.000    0.000    0.000    0.000 
#
# Total GULP energy -89431.208021 kJ/mol
# GULP energy per Si atom -5589.450501 kJ/mol
# Density = 2.252905 g / cm^3
# Si number density = 22.580440 Si / 1000 Ang^3
#
#
#
# Elastic Constant Matrix: (Units=GPa)
#
#
# Indices 1 2 3 4 5 6 
#
# 1 55.0812 2.3691 -0.0131 0.0000 2.1936 0.0000
# 2 2.3691 102.4416 0.1190 0.0000 6.3682 0.0000
# 3 -0.0131 0.1190 86.1841 0.0000 -7.3651 0.0000
# 4 0.0000 0.0000 0.0000 32.7582 0.0000 -2.2320
# 5 2.1936 6.3682 -7.3651 0.0000 27.1735 0.0000
# 6 0.0000 0.0000 0.0000 -2.2320 0.0000 32.9457
#
#
#
# Elastic Compliance Matrix: (Units=1/GPa)
#
#
# Indices 1 2 3 4 5 6 
#
# 1 0.018226 -0.000333 -0.000119 0.000000 -0.001425 0.000000
# 2 -0.000333 0.009916 -0.000215 0.000000 -0.002355 0.000000
# 3 -0.000119 -0.000215 0.011884 0.000000 0.003281 0.000000
# 4 0.000000 0.000000 0.000000 0.030668 0.000000 0.002078
# 5 -0.001425 -0.002355 0.003281 0.000000 0.038357 0.000000
# 6 0.000000 0.000000 0.000000 0.002078 0.000000 0.030494
#
#
# Mechanical properties :
#
#
# Convention : Reuss Voigt Hill
#
# Bulk Modulus (GPa) = 25.84440 27.62855 26.73647
# Shear Modulus (GPa) = 32.51503 34.65762 33.58632
#
# Velocity S-wave (km/s) = 3.79880 3.92197 3.86088
# Velocity P-wave (km/s) = 5.54180 5.72462 5.63395
#
# Compressibility (1/GPa) = 0.03869310
#
# Stress axis : x y z
#
# Youngs Moduli (GPa) = 54.86648 100.84695 84.14868
#
# Poissons Ratio (x) = 0.03356 0.00998
# Poissons Ratio (y) = 0.01826 0.01809
# Poissons Ratio (z) = 0.00651 0.02168
#
# Static dielectric constant tensor:
#      x y z
#    x 1.804900 0.000000 0.007870 
#    y 0.000000 1.831310 0.000000 
#    z 0.007870 0.000000 1.819150 
# 
# From -- ./inp_files/9111.got.cif
#   From: 2010.05.17/outbox.cif.g08.bks.cpg/sg9_5_cif.got.tgz:9111.got - 2010.06.03 20:04:27.
