data_PCOD9140315
_publ_section_title
;
Structure prediction by ZEFSAII (Michael W. Deem and Ramdas Pophale) SiO2 
 PCOD9140315
Probable space group: C C
;
_chemical_formula_sum "Si O2"
_cell_formula_units_Z 28
_cell_length_a 9.725714
_cell_length_b 19.334703
_cell_length_c 8.920157
_cell_angle_alpha 90.000000
_cell_angle_beta 135.122163
_cell_angle_gamma 90.000000
_cell_volume 1183.555270
_symmetry_space_group_name_H-M "C C"
_symmetry_group_IT_number 9
_symmetry_cell_setting 'monoclinic'
loop_
_space_group_symop_operation_xyz
x,y,z
x,-y,1/2+z
1/2+x,1/2+y,z
1/2+x,1/2-y,1/2+z
loop_
_atom_site_type_symbol
_atom_site_label
_atom_site_fract_x
_atom_site_fract_y
_atom_site_fract_z
Si Si1 0.679130 0.840111 0.823950
Si Si2 0.118807 0.348360 0.120067
Si Si3 0.270865 0.180784 0.868567
Si Si4 0.327446 0.964249 0.978809
Si Si5 0.269904 0.914041 0.620701
Si Si6 0.540234 0.629593 0.420835
Si Si7 0.015002 0.809342 0.584166
O O1 0.496112 0.834348 0.572796
O O2 0.741982 0.759982 0.896877
O O3 0.853191 0.880645 0.880853
O O4 0.611646 0.866517 0.935755
O O5 0.336313 0.342135 0.353549
O O6 0.033814 0.271724 0.073448
O O7 0.998295 0.407316 0.111687
O O8 0.196394 0.169120 0.644876
O O9 0.164299 0.125468 0.895155
O O10 0.259733 0.968190 0.753801
O O11 0.140901 0.936982 0.926924
O O12 0.393865 0.034771 0.106333
O O13 0.213482 0.847751 0.685830
O O14 0.482889 0.676258 0.234567
#
# Coordination Sequence:
#
# PCOD9140315 Si02
#       7
#     4   4   4   4   4   4   4
#     4  12  24  41  70 108 140 189 242 303 364 433
#     4  12  24  46  73 111 143 197 250 311 367 444
#     4  12  23  41  73 103 150 185 239 300 374 427
#     4  11  26  47  73 100 148 197 242 300 373 439
#     4  11  23  49  68 104 143 199 234 301 369 443
#     4  11  27  43  69 107 147 193 237 307 367 438
#     4  11  25  43  76 107 153 188 252 310 374 432
#
# _framework density 23.657536
#
# number of rings (size 3 to 8) (size 9 to 14) (size 15 to 20)
#    0.000    0.571    4.286    4.286    6.000    0.000 
#    2.571    1.429    0.000    0.000    0.000    0.000 
#    0.000    0.000    0.000    0.000    0.000    0.000 
#
# Total GULP energy -77966.457370 kJ/mol
# GULP energy per Si atom -5569.032669 kJ/mol
# Density = 2.360369 g / cm^3
# Si number density = 23.657536 Si / 1000 Ang^3
#
#
#
# Elastic Constant Matrix: (Units=GPa)
#
#
# Indices 1 2 3 4 5 6 
#
# 1 201.4108 88.5957 161.1099 0.0000 -51.0643 0.0000
# 2 88.5957 122.6994 90.9395 0.0000 -36.2945 0.0000
# 3 161.1099 90.9395 293.5832 0.0000 -83.9986 0.0000
# 4 0.0000 0.0000 0.0000 27.7619 0.0000 -22.9353
# 5 -51.0643 -36.2945 -83.9986 0.0000 84.0675 0.0000
# 6 0.0000 0.0000 0.0000 -22.9353 0.0000 29.8443
#
#
#
# Elastic Compliance Matrix: (Units=1/GPa)
#
#
# Indices 1 2 3 4 5 6 
#
# 1 0.010293 -0.004198 -0.004310 0.000000 0.000133 0.000000
# 2 -0.004198 0.012492 -0.001053 0.000000 0.001791 0.000000
# 3 -0.004310 -0.001053 0.007308 0.000000 0.004229 0.000000
# 4 0.000000 0.000000 0.000000 0.098656 0.000000 0.075817
# 5 0.000133 0.001791 0.004229 0.000000 0.016975 0.000000
# 6 0.000000 0.000000 0.000000 0.075817 0.000000 0.091773
#
#
# Mechanical properties :
#
#
# Convention : Reuss Voigt Hill
#
# Bulk Modulus (GPa) = 91.16294 144.33151 117.74723
# Shear Modulus (GPa) = 19.21044 46.80462 33.00753
#
# Velocity S-wave (km/s) = 2.85269 4.45277 3.73932
# Velocity P-wave (km/s) = 7.03339 9.35828 8.27786
#
# Compressibility (1/GPa) = 0.01096937
#
# Stress axis : x y z
#
# Youngs Moduli (GPa) = 97.15260 80.05342 136.84534
#
# Poissons Ratio (x) = 0.33610 0.58979
# Poissons Ratio (y) = 0.40789 0.14411
# Poissons Ratio (z) = 0.41872 0.08430
#
# Static dielectric constant tensor:
#      x y z
#    x 1.893430 0.000000 -0.014840 
#    y 0.000000 1.799140 0.000000 
#    z -0.014840 0.000000 1.856010 
# 
# From -- ./inp_files/5883.got.cif
#   From: 2010.05.17/outbox.cif.g08.bks.cpg/sg9_3_cif.got.tgz:5883.got - 2010.06.03 20:04:27.
