data_PCOD9140852
_publ_section_title
;
Structure prediction by ZEFSAII (Michael W. Deem and Ramdas Pophale) SiO2 
 PCOD9140852
Probable space group: C C
;
_chemical_formula_sum "Si O2"
_cell_formula_units_Z 28
_cell_length_a 15.433177
_cell_length_b 7.524847
_cell_length_c 16.991799
_cell_angle_alpha 90.000000
_cell_angle_beta 34.367273
_cell_angle_gamma 90.000000
_cell_volume 1113.917285
_symmetry_space_group_name_H-M "C C"
_symmetry_group_IT_number 9
_symmetry_cell_setting 'monoclinic'
loop_
_space_group_symop_operation_xyz
x,y,z
x,-y,1/2+z
1/2+x,1/2+y,z
1/2+x,1/2-y,1/2+z
loop_
_atom_site_type_symbol
_atom_site_label
_atom_site_fract_x
_atom_site_fract_y
_atom_site_fract_z
Si Si1 0.416060 0.119947 0.004030
Si Si2 0.613434 0.166749 0.136315
Si Si3 0.679036 0.777778 0.060069
Si Si4 0.685833 0.256426 0.904127
Si Si5 0.872359 0.903372 0.762634
Si Si6 0.742886 0.583763 0.772494
Si Si7 0.459354 0.252205 0.403038
O O1 0.301194 0.225559 0.034461
O O2 0.323157 0.027281 0.143977
O O3 0.549572 0.232812 0.943422
O O4 0.484162 0.953678 0.905262
O O5 0.499969 0.267306 0.280218
O O6 0.587853 0.955602 0.153014
O O7 0.624343 0.228597 0.038150
O O8 0.782960 0.197788 0.045381
O O9 0.552511 0.624771 0.143323
O O10 0.772747 0.832673 0.911803
O O11 0.747729 0.453612 0.843793
O O12 0.806575 0.098800 0.795306
O O13 0.831337 0.766042 0.723728
O O14 0.573284 0.634867 0.871003
#
# Coordination Sequence:
#
# PCOD9140852 Si02
#       7
#     4   4   4   4   4   4   4
#     4  12  27  48  75 114 151 204 256 320 387 458
#     4  11  27  48  76 110 157 201 260 315 387 463
#     4  11  27  47  79 109 157 203 254 316 390 458
#     4  11  28  48  78 115 150 202 264 315 388 462
#     4  11  26  51  76 110 157 203 251 318 382 459
#     4  12  27  47  77 111 153 199 255 319 386 450
#     4  12  26  49  75 111 155 204 250 321 384 462
#
# _framework density 25.136516
#
# number of rings (size 3 to 8) (size 9 to 14) (size 15 to 20)
#    0.000    0.571    2.857    3.429   14.000    1.143 
#    0.000    0.000    0.000    0.000    0.000    0.000 
#    0.000    0.000    0.000    0.000    0.000    0.000 
#
# Total GULP energy -78591.417994 kJ/mol
# GULP energy per Si atom -5613.672714 kJ/mol
# Density = 2.507930 g / cm^3
# Si number density = 25.136516 Si / 1000 Ang^3
#
#
#
# Elastic Constant Matrix: (Units=GPa)
#
#
# Indices 1 2 3 4 5 6 
#
# 1 128.8945 39.7078 5.3495 0.0000 -26.1811 0.0000
# 2 39.7078 121.7801 15.4224 0.0000 2.7502 0.0000
# 3 5.3495 15.4224 72.0104 0.0000 -8.5218 0.0000
# 4 0.0000 0.0000 0.0000 30.8825 0.0000 -0.0711
# 5 -26.1811 2.7502 -8.5218 0.0000 43.5867 0.0000
# 6 0.0000 0.0000 0.0000 -0.0711 0.0000 47.5848
#
#
#
# Elastic Compliance Matrix: (Units=1/GPa)
#
#
# Indices 1 2 3 4 5 6 
#
# 1 0.010131 -0.003547 0.000772 0.000000 0.006460 0.000000
# 2 -0.003547 0.009717 -0.002193 0.000000 -0.003172 0.000000
# 3 0.000772 -0.002193 0.014711 0.000000 0.003478 0.000000
# 4 0.000000 0.000000 0.000000 0.032381 0.000000 0.000048
# 5 0.006460 -0.003172 0.003478 0.000000 0.027703 0.000000
# 6 0.000000 0.000000 0.000000 0.000048 0.000000 0.021015
#
#
# Mechanical properties :
#
#
# Convention : Reuss Voigt Hill
#
# Bulk Modulus (GPa) = 40.61359 49.29384 44.95371
# Shear Modulus (GPa) = 37.36825 41.89114 39.62970
#
# Velocity S-wave (km/s) = 3.85984 4.08676 3.97492
# Velocity P-wave (km/s) = 6.00473 6.47471 6.24414
#
# Compressibility (1/GPa) = 0.02462230
#
# Stress axis : x y z
#
# Youngs Moduli (GPa) = 98.70564 102.90784 67.97705
#
# Poissons Ratio (x) = 0.36501 -0.05245
# Poissons Ratio (y) = 0.35011 0.14908
# Poissons Ratio (z) = -0.07615 0.22569
#
# Static dielectric constant tensor:
#      x y z
#    x 1.970040 0.000000 0.016800 
#    y 0.000000 1.985710 0.000000 
#    z 0.016800 0.000000 1.976020 
# 
# From -- ./inp_files/25746.got.cif
#   From: 2010.05.17/outbox.cif.g08.bks.cpg/sg9_13_cif.got.tgz:25746.got - 2010.06.03 20:04:27.
