data_PCOD9140106
_publ_section_title
;
Structure prediction by ZEFSAII (Michael W. Deem and Ramdas Pophale) SiO2 
 PCOD9140106
Probable space group: C C
;
_chemical_formula_sum "Si O2"
_cell_formula_units_Z 32
_cell_length_a 11.288738
_cell_length_b 8.780849
_cell_length_c 15.181602
_cell_angle_alpha 90.000000
_cell_angle_beta 71.845986
_cell_angle_gamma 90.000000
_cell_volume 1429.962936
_symmetry_space_group_name_H-M "C C"
_symmetry_group_IT_number 9
_symmetry_cell_setting 'monoclinic'
loop_
_space_group_symop_operation_xyz
x,y,z
x,-y,1/2+z
1/2+x,1/2+y,z
1/2+x,1/2-y,1/2+z
loop_
_atom_site_type_symbol
_atom_site_label
_atom_site_fract_x
_atom_site_fract_y
_atom_site_fract_z
Si Si1 0.756180 0.902634 0.257900
Si Si2 0.288734 0.408492 0.926993
Si Si3 0.536873 0.700855 0.358275
Si Si4 0.388288 0.103604 0.159742
Si Si5 0.316259 0.379809 0.577044
Si Si6 0.543800 0.170029 0.587549
Si Si7 0.622098 0.451882 0.673555
Si Si8 0.086026 0.800767 0.041408
O O1 0.615587 0.843988 0.305844
O O2 0.836735 0.744002 0.231118
O O3 0.786727 0.997046 0.338023
O O4 0.776955 0.015681 0.169978
O O5 0.388120 0.272140 0.893663
O O6 0.351917 0.504990 0.990943
O O7 0.147526 0.376557 0.991341
O O8 0.557734 0.564838 0.282713
O O9 0.601533 0.657372 0.436321
O O10 0.266259 0.015462 0.156268
O O11 0.464885 0.193627 0.067901
O O12 0.487144 0.970243 0.156800
O O13 0.428221 0.265964 0.575033
O O14 0.200391 0.289025 0.560024
O O15 0.617280 0.285118 0.632682
O O16 0.563932 0.562892 0.615113
#
# Coordination Sequence:
#
# PCOD9140106 Si02
#       8
#     4   4   4   4   4   4   4   4
#     4  11  25  47  72 106 147 191 243 304 358 437
#     4  12  24  47  73 103 149 187 239 301 359 436
#     4  11  23  44  76 105 136 194 238 289 374 415
#     4  11  23  42  72 104 137 195 238 288 368 418
#     4  12  25  46  73 104 146 193 241 301 364 431
#     4  12  24  45  74 109 142 194 244 296 368 430
#     4  11  25  46  71 103 145 188 243 303 353 438
#     4  12  23  47  71 102 150 188 236 298 362 435
#
# _framework density 22.378202000000002
#
# number of rings (size 3 to 8) (size 9 to 14) (size 15 to 20)
#    0.000    0.500    3.750    6.000    0.000    0.000 
#    6.750    6.250    0.000    0.000    0.000    0.000 
#    0.000    0.000    0.000    0.000    0.000    0.000 
#
# Total GULP energy -89272.778539 kJ/mol
# GULP energy per Si atom -5579.548659 kJ/mol
# Density = 2.232727 g / cm^3
# Si number density = 22.378202 Si / 1000 Ang^3
#
#
#
# Elastic Constant Matrix: (Units=GPa)
#
#
# Indices 1 2 3 4 5 6 
#
# 1 120.2408 35.8654 52.7508 0.0000 -28.6923 0.0000
# 2 35.8654 71.8506 37.4105 0.0000 -10.6843 0.0000
# 3 52.7508 37.4105 140.3698 0.0000 17.3380 0.0000
# 4 0.0000 0.0000 0.0000 14.5461 0.0000 2.1951
# 5 -28.6923 -10.6843 17.3380 0.0000 33.5131 0.0000
# 6 0.0000 0.0000 0.0000 2.1951 0.0000 52.0815
#
#
#
# Elastic Compliance Matrix: (Units=1/GPa)
#
#
# Indices 1 2 3 4 5 6 
#
# 1 0.016526 -0.001406 -0.008042 0.000000 0.017861 0.000000
# 2 -0.001406 0.018498 -0.005321 0.000000 0.007446 0.000000
# 3 -0.008042 -0.005321 0.013486 0.000000 -0.015559 0.000000
# 4 0.000000 0.000000 0.000000 0.069187 0.000000 -0.002916
# 5 0.017861 0.007446 -0.015559 0.000000 0.055554 0.000000
# 6 0.000000 0.000000 0.000000 -0.002916 0.000000 0.019324
#
#
# Mechanical properties :
#
#
# Convention : Reuss Voigt Hill
#
# Bulk Modulus (GPa) = 52.71099 64.94607 58.82853
# Shear Modulus (GPa) = 21.88786 33.79042 27.83914
#
# Velocity S-wave (km/s) = 3.13083 3.89005 3.53091
# Velocity P-wave (km/s) = 6.05601 7.01867 6.55503
#
# Compressibility (1/GPa) = 0.01897138
#
# Stress axis : x y z
#
# Youngs Moduli (GPa) = 60.50981 54.06131 74.15040
#
# Poissons Ratio (x) = 0.07602 0.59631
# Poissons Ratio (y) = 0.08509 0.39457
# Poissons Ratio (z) = 0.48662 0.28767
#
# Static dielectric constant tensor:
#      x y z
#    x 1.852170 0.000000 -0.029510 
#    y 0.000000 1.881650 0.000000 
#    z -0.029510 0.000000 1.842270 
# 
# From -- ./inp_files/24290.got.cif
#   From: 2010.05.17/outbox.cif.g08.bks.cpg/sg9_13_cif.got.tgz:24290.got - 2010.06.03 20:04:27.
