data_PCOD9140543
_publ_section_title
;
Structure prediction by ZEFSAII (Michael W. Deem and Ramdas Pophale) SiO2 
 PCOD9140543
Probable space group: C C
;
_chemical_formula_sum "Si O2"
_cell_formula_units_Z 32
_cell_length_a 7.860732
_cell_length_b 13.982777
_cell_length_c 20.249504
_cell_angle_alpha 90.000000
_cell_angle_beta 144.908850
_cell_angle_gamma 90.000000
_cell_volume 1279.520238
_symmetry_space_group_name_H-M "C C"
_symmetry_group_IT_number 9
_symmetry_cell_setting 'monoclinic'
loop_
_space_group_symop_operation_xyz
x,y,z
x,-y,1/2+z
1/2+x,1/2+y,z
1/2+x,1/2-y,1/2+z
loop_
_atom_site_type_symbol
_atom_site_label
_atom_site_fract_x
_atom_site_fract_y
_atom_site_fract_z
Si Si1 0.711270 0.938511 0.318520
Si Si2 0.240434 0.798980 0.191549
Si Si3 0.195830 0.948779 0.926713
Si Si4 0.614985 0.160130 0.456216
Si Si5 0.638551 0.881394 0.575870
Si Si6 0.794642 0.401954 0.728954
Si Si7 0.991749 0.745693 0.909007
Si Si8 0.072705 0.159453 0.029909
O O1 0.543264 0.838705 0.254096
O O2 0.948399 0.932405 0.453537
O O3 0.447050 0.997385 0.266818
O O4 0.900196 0.986992 0.320612
O O5 0.213864 0.689200 0.159634
O O6 0.278027 0.792686 0.282695
O O7 0.961786 0.862416 0.078176
O O8 0.377255 0.900963 0.923572
O O9 0.060519 0.860221 0.927296
O O10 0.443137 0.025578 0.030031
O O11 0.496141 0.154295 0.344748
O O12 0.624644 0.265756 0.489105
O O13 0.460816 0.811992 0.467664
O O14 0.957154 0.909367 0.646114
O O15 0.810812 0.357393 0.661117
O O16 0.305924 0.705494 0.984907
#
# Coordination Sequence:
#
# PCOD9140543 Si02
#       8
#     4   4   4   4   4   4   4   4
#     4  11  25  44  72 106 151 193 256 319 390 468
#     4  11  25  47  72 105 150 197 248 317 393 463
#     4  11  25  47  72 113 148 194 264 319 381 475
#     4  11  25  47  77 106 149 199 257 315 390 470
#     4  11  24  47  77 106 148 201 255 317 395 459
#     4  11  25  44  76 109 148 198 256 318 393 465
#     4   9  23  46  69 107 145 189 250 310 384 463
#     4   9  22  46  69 102 149 191 244 313 384 459
#
# _framework density 25.009371999999999
#
# number of rings (size 3 to 8) (size 9 to 14) (size 15 to 20)
#    0.000    1.500    0.000    3.750   10.500    0.000 
#    9.000    1.250    0.000    0.000    0.000    0.000 
#    0.000    0.000    0.000    0.000    0.000    0.000 
#
# Total GULP energy -89296.339608 kJ/mol
# GULP energy per Si atom -5581.021226 kJ/mol
# Density = 2.495245 g / cm^3
# Si number density = 25.009372 Si / 1000 Ang^3
#
#
#
# Elastic Constant Matrix: (Units=GPa)
#
#
# Indices 1 2 3 4 5 6 
#
# 1 93.5802 40.7689 60.0950 -0.0001 27.6931 0.0000
# 2 40.7689 90.1653 61.7444 -0.0007 -0.9819 -0.0003
# 3 60.0950 61.7444 166.7623 -0.0004 -8.7441 0.0002
# 4 -0.0001 -0.0007 -0.0004 51.1137 0.0000 25.7873
# 5 27.6931 -0.9819 -8.7441 0.0000 51.5183 0.0000
# 6 0.0000 -0.0003 0.0002 25.7873 0.0000 42.5048
#
#
#
# Elastic Compliance Matrix: (Units=1/GPa)
#
#
# Indices 1 2 3 4 5 6 
#
# 1 0.020445 -0.005219 -0.006071 0.000000 -0.012120 0.000000
# 2 -0.005219 0.016212 -0.003994 0.000000 0.002437 0.000000
# 3 -0.006071 -0.003994 0.009918 0.000000 0.004871 0.000000
# 4 0.000000 0.000000 0.000000 0.028194 0.000000 -0.017105
# 5 -0.012120 0.002437 0.004871 0.000000 0.026798 0.000000
# 6 0.000000 0.000000 0.000000 -0.017105 0.000000 0.033904
#
#
# Mechanical properties :
#
#
# Convention : Reuss Voigt Hill
#
# Bulk Modulus (GPa) = 62.46989 75.08048 68.77518
# Shear Modulus (GPa) = 29.17570 41.55401 35.36486
#
# Velocity S-wave (km/s) = 3.41924 4.08062 3.76448
# Velocity P-wave (km/s) = 6.37347 7.23105 6.81576
#
# Compressibility (1/GPa) = 0.01600771
#
# Stress axis : x y z
#
# Youngs Moduli (GPa) = 48.91236 61.68169 100.82259
#
# Poissons Ratio (x) = 0.32192 0.61206
# Poissons Ratio (y) = 0.25528 0.40270
# Poissons Ratio (z) = 0.29693 0.24636
#
# Static dielectric constant tensor:
#      x y z
#    x 2.066370 0.000000 0.031430 
#    y 0.000000 2.053900 0.000000 
#    z 0.031430 0.000000 2.042770 
# 
# From -- ./inp_files/32796.got.cif
#   From: 2010.05.17/outbox.cif.g08.bks.cpg/sg9_17_cif.got.tgz:32796.got - 2010.06.03 20:04:27.
