data_PCOD9140109
_publ_section_title
;
Structure prediction by ZEFSAII (Michael W. Deem and Ramdas Pophale) SiO2 
 PCOD9140109
Probable space group: C C
;
_chemical_formula_sum "Si O2"
_cell_formula_units_Z 32
_cell_length_a 26.716823
_cell_length_b 5.014047
_cell_length_c 12.191167
_cell_angle_alpha 90.000000
_cell_angle_beta 122.618853
_cell_angle_gamma 90.000000
_cell_volume 1375.537520
_symmetry_space_group_name_H-M "C C"
_symmetry_group_IT_number 9
_symmetry_cell_setting 'monoclinic'
loop_
_space_group_symop_operation_xyz
x,y,z
x,-y,1/2+z
1/2+x,1/2+y,z
1/2+x,1/2-y,1/2+z
loop_
_atom_site_type_symbol
_atom_site_label
_atom_site_fract_x
_atom_site_fract_y
_atom_site_fract_z
Si Si1 0.723030 0.478843 0.492400
Si Si2 0.113687 0.784916 0.271001
Si Si3 0.836673 0.472303 0.266255
Si Si4 0.417866 0.902242 0.170125
Si Si5 0.251304 0.674008 0.821481
Si Si6 0.056101 0.313616 0.300742
Si Si7 0.856234 0.890642 0.981474
Si Si8 0.154304 0.669263 0.087730
O O1 0.675944 0.245993 0.410643
O O2 0.790493 0.477426 0.612447
O O3 0.723378 0.644294 0.380831
O O4 0.692513 0.643317 0.554270
O O5 0.074663 0.520484 0.228852
O O6 0.131148 0.827987 0.166296
O O7 0.077778 0.023763 0.286105
O O8 0.897838 0.489157 0.269634
O O9 0.803359 0.661225 0.317664
O O10 0.846340 0.189560 0.340272
O O11 0.487307 0.841158 0.245774
O O12 0.386372 0.642940 0.078013
O O13 0.395364 0.145566 0.068969
O O14 0.200183 0.555334 0.684489
O O15 0.286615 0.436140 0.925670
O O16 0.095892 0.406400 0.450914
#
# Coordination Sequence:
#
# PCOD9140109 Si02
#       8
#     4   4   4   4   4   4   4   4
#     4  11  23  42  72 109 150 184 237 309 376 447
#     4  11  25  48  74 108 146 190 250 312 369 440
#     4  12  25  45  75 111 153 200 248 301 387 455
#     4  12  29  48  78 105 155 201 253 310 372 451
#     4  12  25  45  74 116 153 187 246 316 382 450
#     4  11  27  51  73 107 145 200 250 306 366 447
#     4  12  26  49  68 114 149 195 246 311 372 445
#     4  11  24  44  78 108 145 193 246 303 384 439
#
# _framework density 23.263634
#
# number of rings (size 3 to 8) (size 9 to 14) (size 15 to 20)
#    0.000    0.500    3.750    3.750    5.250    5.000 
#    0.000    0.000    0.000    0.000    0.000    0.000 
#    0.000    0.000    0.000    0.000    0.000    0.000 
#
# Total GULP energy -89255.115489 kJ/mol
# GULP energy per Si atom -5578.444718 kJ/mol
# Density = 2.321068 g / cm^3
# Si number density = 23.263634 Si / 1000 Ang^3
#
#
#
# Elastic Constant Matrix: (Units=GPa)
#
#
# Indices 1 2 3 4 5 6 
#
# 1 143.2229 12.3331 50.0371 0.0000 18.7757 0.0000
# 2 12.3331 75.3982 18.6388 0.0000 13.5951 0.0000
# 3 50.0371 18.6388 92.5021 0.0000 6.7057 0.0000
# 4 0.0000 0.0000 0.0000 34.0500 0.0000 -0.3677
# 5 18.7757 13.5951 6.7057 0.0000 40.2657 0.0000
# 6 0.0000 0.0000 0.0000 -0.3677 0.0000 32.5319
#
#
#
# Elastic Compliance Matrix: (Units=1/GPa)
#
#
# Indices 1 2 3 4 5 6 
#
# 1 0.009066 0.000322 -0.004712 0.000000 -0.003552 0.000000
# 2 0.000322 0.014745 -0.002807 0.000000 -0.004661 0.000000
# 3 -0.004712 -0.002807 0.013864 0.000000 0.000836 0.000000
# 4 0.000000 0.000000 0.000000 0.029372 0.000000 0.000332
# 5 -0.003552 -0.004661 0.000836 0.000000 0.027926 0.000000
# 6 0.000000 0.000000 0.000000 0.000332 0.000000 0.030743
#
#
# Mechanical properties :
#
#
# Convention : Reuss Voigt Hill
#
# Bulk Modulus (GPa) = 42.95270 52.57124 47.76197
# Shear Modulus (GPa) = 33.81361 36.71046 35.26203
#
# Velocity S-wave (km/s) = 3.81661 3.97674 3.89750
# Velocity P-wave (km/s) = 6.15837 6.61309 6.38978
#
# Compressibility (1/GPa) = 0.02328142
#
# Stress axis : x y z
#
# Youngs Moduli (GPa) = 110.30209 67.82123 72.12803
#
# Poissons Ratio (x) = -0.02185 0.33983
# Poissons Ratio (y) = -0.03553 0.20249
# Poissons Ratio (z) = 0.51969 0.19040
#
# Static dielectric constant tensor:
#      x y z
#    x 1.894020 0.000000 -0.033510 
#    y 0.000000 1.986240 0.000000 
#    z -0.033510 0.000000 1.917950 
# 
# From -- ./inp_files/21074.got.cif
#   From: 2010.05.17/outbox.cif.g08.bks.cpg/sg9_11_cif.got.tgz:21074.got - 2010.06.03 20:04:27.
