data_PCOD9140370
_publ_section_title
;
Structure prediction by ZEFSAII (Michael W. Deem and Ramdas Pophale) SiO2 
 PCOD9140370
Probable space group: C C
;
_chemical_formula_sum "Si O2"
_cell_formula_units_Z 32
_cell_length_a 11.182445
_cell_length_b 9.657933
_cell_length_c 28.824385
_cell_angle_alpha 90.000000
_cell_angle_beta 25.802273
_cell_angle_gamma 90.000000
_cell_volume 1354.991489
_symmetry_space_group_name_H-M "C C"
_symmetry_group_IT_number 9
_symmetry_cell_setting 'monoclinic'
loop_
_space_group_symop_operation_xyz
x,y,z
x,-y,1/2+z
1/2+x,1/2+y,z
1/2+x,1/2-y,1/2+z
loop_
_atom_site_type_symbol
_atom_site_label
_atom_site_fract_x
_atom_site_fract_y
_atom_site_fract_z
Si Si1 0.737960 0.030489 0.662630
Si Si2 0.423952 0.345172 0.193250
Si Si3 0.974877 0.142765 0.493370
Si Si4 0.262077 0.770641 0.304747
Si Si5 0.196961 0.389517 0.540144
Si Si6 0.857714 0.022259 0.806724
Si Si7 0.099515 0.269997 0.757133
Si Si8 0.412051 0.939961 0.540323
O O1 0.457205 0.095827 0.740783
O O2 0.771593 0.094628 0.701774
O O3 0.975359 0.077777 0.544894
O O4 0.741733 0.867680 0.670163
O O5 0.253679 0.380815 0.299729
O O6 0.528074 0.195373 0.138757
O O7 0.683424 0.443993 0.113810
O O8 0.283427 0.175219 0.369450
O O9 0.824016 0.289784 0.551409
O O10 0.810998 0.034604 0.519507
O O11 0.405846 0.635312 0.276090
O O12 0.201565 0.727394 0.273495
O O13 0.971327 0.801794 0.431037
O O14 0.033426 0.412416 0.549163
O O15 0.653344 0.017137 0.921204
O O16 0.109278 0.111611 0.738060
#
# Coordination Sequence:
#
# PCOD9140370 Si02
#       8
#     4   4   4   4   4   4   4   4
#     4  12  25  44  74  99 138 186 228 284 346 412
#     4  12  25  46  72 104 139 185 234 286 346 416
#     4  11  24  46  69 102 133 181 231 280 347 408
#     4  12  23  46  69  98 140 183 222 287 345 401
#     4  12  24  47  70  97 142 183 229 290 348 408
#     4  11  24  43  70 101 134 183 231 282 347 409
#     4  11  24  46  68  97 144 175 227 289 338 408
#     4  11  25  48  68  98 146 180 224 298 341 404
#
# _framework density 23.616384
#
# number of rings (size 3 to 8) (size 9 to 14) (size 15 to 20)
#    0.000    0.500    7.500    1.500    0.000    1.000 
#    9.000    0.000    0.000    0.000    0.000    0.000 
#    0.000    0.000    0.000    0.000    0.000    0.000 
#
# Total GULP energy -89494.123940 kJ/mol
# GULP energy per Si atom -5593.382746 kJ/mol
# Density = 2.356263 g / cm^3
# Si number density = 23.616384 Si / 1000 Ang^3
#
#
#
# Elastic Constant Matrix: (Units=GPa)
#
#
# Indices 1 2 3 4 5 6 
#
# 1 98.7977 49.8889 19.8833 0.0018 10.1300 0.0009
# 2 49.8889 141.8711 17.0916 0.0030 -1.9057 0.0012
# 3 19.8833 17.0916 53.5466 0.0459 12.6262 0.0025
# 4 0.0018 0.0030 0.0459 42.8110 -0.0066 6.4223
# 5 10.1300 -1.9057 12.6262 -0.0066 36.1376 -0.0007
# 6 0.0009 0.0012 0.0025 6.4223 -0.0007 44.1967
#
#
#
# Elastic Compliance Matrix: (Units=1/GPa)
#
#
# Indices 1 2 3 4 5 6 
#
# 1 0.013179 -0.004334 -0.002817 0.000002 -0.002938 0.000000
# 2 -0.004334 0.008814 -0.001744 0.000002 0.002289 0.000000
# 3 -0.002817 -0.001744 0.021919 -0.000025 -0.006961 0.000002
# 4 0.000002 0.000002 -0.000025 0.023879 0.000012 -0.003470
# 5 -0.002938 0.002289 -0.006961 0.000012 0.031048 -0.000001
# 6 0.000000 0.000000 0.000002 -0.003470 -0.000001 0.023130
#
#
# Mechanical properties :
#
#
# Convention : Reuss Voigt Hill
#
# Bulk Modulus (GPa) = 38.28279 51.99366 45.13823
# Shear Modulus (GPa) = 33.67762 38.45249 36.06506
#
# Velocity S-wave (km/s) = 3.78038 4.03949 3.91208
# Velocity P-wave (km/s) = 5.94142 6.61969 6.28971
#
# Compressibility (1/GPa) = 0.02612140
#
# Stress axis : x y z
#
# Youngs Moduli (GPa) = 75.88052 113.46097 45.62194
#
# Poissons Ratio (x) = 0.49178 0.12853
# Poissons Ratio (y) = 0.32889 0.07954
# Poissons Ratio (z) = 0.21377 0.19782
#
# Static dielectric constant tensor:
#      x y z
#    x 1.886870 0.000000 0.045870 
#    y 0.000000 1.907920 -0.000010 
#    z 0.045870 -0.000010 1.981780 
# 
# From -- ./inp_files/37276.got.cif
#   From: 2010.05.17/outbox.cif.g08.bks.cpg/sg9_19_cif.got.tgz:37276.got - 2010.06.03 20:04:27.
