data_PCOD9140943
_publ_section_title
;
Structure prediction by ZEFSAII (Michael W. Deem and Ramdas Pophale) SiO2 
 PCOD9140943
Probable space group: C C
;
_chemical_formula_sum "Si O2"
_cell_formula_units_Z 24
_cell_length_a 7.997109
_cell_length_b 15.982521
_cell_length_c 7.759217
_cell_angle_alpha 90.000000
_cell_angle_beta 91.314967
_cell_angle_gamma 90.000000
_cell_volume 991.475096
_symmetry_space_group_name_H-M "C C"
_symmetry_group_IT_number 9
_symmetry_cell_setting 'monoclinic'
loop_
_space_group_symop_operation_xyz
x,y,z
x,-y,1/2+z
1/2+x,1/2+y,z
1/2+x,1/2-y,1/2+z
loop_
_atom_site_type_symbol
_atom_site_label
_atom_site_fract_x
_atom_site_fract_y
_atom_site_fract_z
Si Si1 0.490190 0.976332 0.027300
Si Si2 0.138194 0.229248 0.513345
Si Si3 0.500730 0.419732 0.827896
Si Si4 0.661436 0.418871 0.466157
Si Si5 0.416557 0.821860 0.238719
Si Si6 0.628949 0.114096 0.219741
O O1 0.496094 0.907978 0.176706
O O2 0.626454 0.048781 0.060615
O O3 0.503786 0.925544 0.852406
O O4 0.314931 0.022239 0.024167
O O5 0.080140 0.134030 0.485950
O O6 0.333030 0.223849 0.571630
O O7 0.074914 0.294719 0.656468
O O8 0.058819 0.271221 0.341285
O O9 0.577724 0.394197 0.644445
O O10 0.537318 0.518172 0.860322
O O11 0.308226 0.392436 0.812942
O O12 0.756576 0.347050 0.357140
#
# Coordination Sequence:
#
# PCOD9140943 Si02
#       6
#     4   4   4   4   4   4
#     4  12  23  46  80 103 144 200 251 293 360 452
#     4  12  26  46  68 110 156 184 242 300 378 426
#     4  12  25  46  73 112 146 191 247 306 363 434
#     4  12  23  46  80 103 144 200 251 293 360 452
#     4  12  26  48  72 110 144 200 242 300 370 436
#     4  12  25  46  73 112 146 191 247 306 363 434
#
# _framework density 24.206356
#
# number of rings (size 3 to 8) (size 9 to 14) (size 15 to 20)
#    0.000    0.000    8.333    1.000    0.000    1.333 
#    6.000    0.000    0.000    0.000    0.000    0.000 
#    0.000    0.000    0.000    0.000    0.000    0.000 
#
# Total GULP energy -67039.042626 kJ/mol
# GULP energy per Si atom -5586.586886 kJ/mol
# Density = 2.415126 g / cm^3
# Si number density = 24.206356 Si / 1000 Ang^3
#
#
#
# Elastic Constant Matrix: (Units=GPa)
#
#
# Indices 1 2 3 4 5 6 
#
# 1 54.4475 14.7474 30.7906 0.0000 23.9687 0.0000
# 2 14.7474 104.7251 45.2222 0.0000 3.5958 0.0000
# 3 30.7906 45.2222 103.4619 0.0000 17.5873 0.0000
# 4 0.0000 0.0000 0.0000 64.6403 0.0000 18.1236
# 5 23.9687 3.5958 17.5873 0.0000 51.1416 0.0000
# 6 0.0000 0.0000 0.0000 18.1236 0.0000 35.9953
#
#
#
# Elastic Compliance Matrix: (Units=1/GPa)
#
#
# Indices 1 2 3 4 5 6 
#
# 1 0.026387 -0.000898 -0.005702 0.000000 -0.010343 0.000000
# 2 -0.000898 0.011849 -0.005142 0.000000 0.001356 0.000000
# 3 -0.005702 -0.005142 0.013907 0.000000 -0.001749 0.000000
# 4 0.000000 0.000000 0.000000 0.018013 0.000000 -0.009070
# 5 -0.010343 0.001356 -0.001749 0.000000 0.024907 0.000000
# 6 0.000000 0.000000 0.000000 -0.009070 0.000000 0.032348
#
#
# Mechanical properties :
#
#
# Convention : Reuss Voigt Hill
#
# Bulk Modulus (GPa) = 34.89416 49.35054 42.12235
# Shear Modulus (GPa) = 31.16222 41.81374 36.48798
#
# Velocity S-wave (km/s) = 3.59187 4.16069 3.88670
# Velocity P-wave (km/s) = 5.62571 6.59648 6.13034
#
# Compressibility (1/GPa) = 0.02865809
#
# Stress axis : x y z
#
# Youngs Moduli (GPa) = 37.89686 84.39286 71.90462
#
# Poissons Ratio (x) = 0.07583 0.41001
# Poissons Ratio (y) = 0.03405 0.36976
# Poissons Ratio (z) = 0.21609 0.43398
#
# Static dielectric constant tensor:
#      x y z
#    x 1.917370 0.000000 0.003440 
#    y 0.000000 1.993860 0.000000 
#    z 0.003440 0.000000 2.006100 
# 
# From -- ./inp_files/5016.got.cif
#   From: 2010.05.17/outbox.cif.g08.bks.cpg/sg9_3_cif.got.tgz:5016.got - 2010.06.03 20:04:27.
