data_PCOD9140475
_publ_section_title
;
Structure prediction by ZEFSAII (Michael W. Deem and Ramdas Pophale) SiO2 
 PCOD9140475
Probable space group: C C
;
_chemical_formula_sum "Si O2"
_cell_formula_units_Z 32
_cell_length_a 11.878757
_cell_length_b 10.386790
_cell_length_c 23.821229
_cell_angle_alpha 90.000000
_cell_angle_beta 24.559506
_cell_angle_gamma 90.000000
_cell_volume 1221.607938
_symmetry_space_group_name_H-M "C C"
_symmetry_group_IT_number 9
_symmetry_cell_setting 'monoclinic'
loop_
_space_group_symop_operation_xyz
x,y,z
x,-y,1/2+z
1/2+x,1/2+y,z
1/2+x,1/2-y,1/2+z
loop_
_atom_site_type_symbol
_atom_site_label
_atom_site_fract_x
_atom_site_fract_y
_atom_site_fract_z
Si Si1 0.911790 0.746720 0.850050
Si Si2 0.379348 0.278745 0.451342
Si Si3 0.545811 0.450787 0.148069
Si Si4 0.900436 0.199870 0.822052
Si Si5 0.532315 0.593028 0.982152
Si Si6 0.018825 0.142246 0.418324
Si Si7 0.023304 0.230158 0.176353
Si Si8 0.627498 0.979384 0.753264
O O1 0.592390 0.739238 0.984993
O O2 0.043307 0.811649 0.843095
O O3 0.053160 0.787621 0.729328
O O4 0.896131 0.586837 0.847878
O O5 0.213201 0.146099 0.533149
O O6 0.328807 0.354898 0.416301
O O7 0.296459 0.353095 0.545225
O O8 0.703136 0.251146 0.312010
O O9 0.536662 0.398861 0.216144
O O10 0.638059 0.598356 0.098673
O O11 0.243562 0.470646 0.259876
O O12 0.650137 0.251909 0.899492
O O13 0.036119 0.334503 0.783100
O O14 0.641146 0.491265 0.883479
O O15 0.377574 0.504275 0.097599
O O16 0.697360 0.153416 0.574507
#
# Coordination Sequence:
#
# PCOD9140475 Si02
#       8
#     4   4   4   4   4   4   4   4
#     4  11  25  43  69 105 146 187 246 307 371 444
#     4  11  27  48  71 109 152 194 251 317 371 441
#     4  12  26  45  75 104 147 200 243 309 378 441
#     4  12  26  44  73 110 141 192 258 307 378 450
#     4  11  24  46  71 103 148 192 246 314 367 445
#     4  12  25  44  75 107 142 200 247 303 386 444
#     4  11  27  46  69 108 150 192 251 309 370 452
#     4  12  22  46  71 102 142 189 250 306 363 449
#
# _framework density 26.194984999999999
#
# number of rings (size 3 to 8) (size 9 to 14) (size 15 to 20)
#    0.000    0.500    6.250    1.500    5.250    0.000 
#    0.000    1.250    0.000    0.000    0.000    0.000 
#    0.000    0.000    0.000    0.000    0.000    0.000 
#
# Total GULP energy -89120.370167 kJ/mol
# GULP energy per Si atom -5570.023135 kJ/mol
# Density = 2.613536 g / cm^3
# Si number density = 26.194985 Si / 1000 Ang^3
#
#
#
# Elastic Constant Matrix: (Units=GPa)
#
#
# Indices 1 2 3 4 5 6 
#
# 1 201.3970 32.3167 14.0519 -0.0010 29.3250 0.0019
# 2 32.3167 96.8910 7.3886 0.0011 -8.2606 0.0003
# 3 14.0519 7.3886 55.6097 -0.0017 4.8041 0.0044
# 4 -0.0010 0.0011 -0.0017 40.8310 0.0028 -0.0070
# 5 29.3250 -8.2606 4.8041 0.0028 38.3462 -0.0013
# 6 0.0019 0.0003 0.0044 -0.0070 -0.0013 36.6839
#
#
#
# Elastic Compliance Matrix: (Units=1/GPa)
#
#
# Indices 1 2 3 4 5 6 
#
# 1 0.006158 -0.002432 -0.000789 0.000001 -0.005134 0.000000
# 2 -0.002432 0.011619 -0.001320 -0.000001 0.004528 0.000000
# 3 -0.000789 -0.001320 0.018530 0.000001 -0.002002 -0.000002
# 4 0.000001 -0.000001 0.000001 0.024491 -0.000002 0.000005
# 5 -0.005134 0.004528 -0.002002 -0.000002 0.031231 0.000002
# 6 0.000000 0.000000 -0.000002 0.000005 0.000002 0.027260
#
#
# Mechanical properties :
#
#
# Convention : Reuss Voigt Hill
#
# Bulk Modulus (GPa) = 36.73194 51.26801 43.99998
# Shear Modulus (GPa) = 36.37774 43.18159 39.77966
#
# Velocity S-wave (km/s) = 3.73061 4.06454 3.90115
# Velocity P-wave (km/s) = 5.71048 6.45302 6.09307
#
# Compressibility (1/GPa) = 0.02722426
#
# Stress axis : x y z
#
# Youngs Moduli (GPa) = 162.38618 86.06900 53.96548
#
# Poissons Ratio (x) = 0.20928 0.04260
# Poissons Ratio (y) = 0.39484 0.07126
# Poissons Ratio (z) = 0.12820 0.11365
#
# Static dielectric constant tensor:
#      x y z
#    x 2.207480 0.000000 -0.038240 
#    y 0.000000 2.270590 -0.000010 
#    z -0.038240 -0.000010 2.166740 
# 
# From -- ./inp_files/24673.got.cif
#   From: 2010.05.17/outbox.cif.g08.bks.cpg/sg9_13_cif.got.tgz:24673.got - 2010.06.03 20:04:27.
