data_PCOD9140944
_publ_section_title
;
Structure prediction by ZEFSAII (Michael W. Deem and Ramdas Pophale) SiO2 
 PCOD9140944
Probable space group: C C
;
_chemical_formula_sum "Si O2"
_cell_formula_units_Z 32
_cell_length_a 15.179452
_cell_length_b 11.665421
_cell_length_c 9.035710
_cell_angle_alpha 90.000000
_cell_angle_beta 111.971987
_cell_angle_gamma 90.000000
_cell_volume 1483.782972
_symmetry_space_group_name_H-M "C C"
_symmetry_group_IT_number 9
_symmetry_cell_setting 'monoclinic'
loop_
_space_group_symop_operation_xyz
x,y,z
x,-y,1/2+z
1/2+x,1/2+y,z
1/2+x,1/2-y,1/2+z
loop_
_atom_site_type_symbol
_atom_site_label
_atom_site_fract_x
_atom_site_fract_y
_atom_site_fract_z
Si Si1 0.849380 0.415977 0.123310
Si Si2 0.409911 0.880785 0.493579
Si Si3 0.636725 0.624962 0.573166
Si Si4 0.182736 0.399054 0.053900
Si Si5 0.992170 0.267903 0.014548
Si Si6 0.624220 0.882570 0.679230
Si Si7 0.033441 0.037887 0.219353
Si Si8 0.392813 0.671096 0.668147
O O1 0.896977 0.410613 0.314637
O O2 0.742907 0.373854 0.078465
O O3 0.841566 0.543153 0.051779
O O4 0.914180 0.341357 0.054066
O O5 0.514279 0.918340 0.610610
O O6 0.392975 0.747894 0.519884
O O7 0.620297 0.752598 0.621186
O O8 0.566849 0.585738 0.398223
O O9 0.617373 0.535155 0.693425
O O10 0.177327 0.530083 0.104283
O O11 0.285589 0.347652 0.154791
O O12 0.168260 0.391527 0.868877
O O13 0.093893 0.331241 0.069568
O O14 0.952861 0.242668 0.826012
O O15 0.006271 0.145965 0.102368
O O16 0.946462 0.948863 0.178781
#
# Coordination Sequence:
#
# PCOD9140944 Si02
#       8
#     4   4   4   4   4   4   4   4
#     4  12  27  42  76 109 143 193 248 303 365 436
#     4  12  23  48  71 104 148 190 243 305 363 431
#     4  12  27  48  75 107 149 194 245 298 374 435
#     4  12  29  48  77 109 148 195 248 304 370 439
#     4  12  27  48  71 108 149 192 244 304 365 434
#     4  12  26  49  74 105 150 194 244 306 366 430
#     4  12  27  48  72 105 151 191 239 306 364 444
#     4  12  28  49  76 105 154 195 243 302 375 441
#
# _framework density 21.566495
#
# number of rings (size 3 to 8) (size 9 to 14) (size 15 to 20)
#    0.000    0.000    5.000    3.750    8.750    0.000 
#    0.000    0.000    0.000    0.000    0.000    0.000 
#    0.000    0.000    0.000    0.000    0.000    0.000 
#
# Total GULP energy -89600.373466 kJ/mol
# GULP energy per Si atom -5600.023342 kJ/mol
# Density = 2.151741 g / cm^3
# Si number density = 21.566495 Si / 1000 Ang^3
#
#
#
# Elastic Constant Matrix: (Units=GPa)
#
#
# Indices 1 2 3 4 5 6 
#
# 1 114.6660 34.7462 0.4570 0.0000 3.2825 0.0000
# 2 34.7462 121.7494 31.1384 0.0000 -12.2120 0.0000
# 3 0.4570 31.1384 81.1426 0.0000 -17.2310 0.0000
# 4 0.0000 0.0000 0.0000 45.3311 0.0000 -7.2661
# 5 3.2825 -12.2120 -17.2310 0.0000 23.8213 0.0000
# 6 0.0000 0.0000 0.0000 -7.2661 0.0000 59.1988
#
#
#
# Elastic Compliance Matrix: (Units=1/GPa)
#
#
# Indices 1 2 3 4 5 6 
#
# 1 0.009761 -0.003202 0.000638 0.000000 -0.002525 0.000000
# 2 -0.003202 0.010289 -0.003209 0.000000 0.003394 0.000000
# 3 0.000638 -0.003209 0.015577 0.000000 0.009534 0.000000
# 4 0.000000 0.000000 0.000000 0.022503 0.000000 0.002762
# 5 -0.002525 0.003394 0.009534 0.000000 0.050964 0.000000
# 6 0.000000 0.000000 0.000000 0.002762 0.000000 0.017231
#
#
# Mechanical properties :
#
#
# Convention : Reuss Voigt Hill
#
# Bulk Modulus (GPa) = 41.53108 50.02678 45.77893
# Shear Modulus (GPa) = 34.27046 42.41800 38.34423
#
# Velocity S-wave (km/s) = 3.99063 4.43973 4.22115
# Velocity P-wave (km/s) = 6.36651 7.03765 6.71047
#
# Compressibility (1/GPa) = 0.02407835
#
# Stress axis : x y z
#
# Youngs Moduli (GPa) = 102.44822 97.19356 64.19874
#
# Poissons Ratio (x) = 0.31122 -0.04093
# Poissons Ratio (y) = 0.32805 0.20604
# Poissons Ratio (z) = -0.06531 0.31194
#
# Static dielectric constant tensor:
#      x y z
#    x 1.797270 0.000000 -0.017330 
#    y 0.000000 1.760690 0.000000 
#    z -0.017330 0.000000 1.779840 
# 
# From -- ./inp_files/9179.got.cif
#   From: 2010.05.17/outbox.cif.g08.bks.cpg/sg9_5_cif.got.tgz:9179.got - 2010.06.03 20:04:27.
