data_PCOD9140271
_publ_section_title
;
Structure prediction by ZEFSAII (Michael W. Deem and Ramdas Pophale) SiO2 
 PCOD9140271
Probable space group: C C
;
_chemical_formula_sum "Si O2"
_cell_formula_units_Z 32
_cell_length_a 8.512368
_cell_length_b 12.659259
_cell_length_c 13.752642
_cell_angle_alpha 90.000000
_cell_angle_beta 82.468909
_cell_angle_gamma 90.000000
_cell_volume 1469.204632
_symmetry_space_group_name_H-M "C C"
_symmetry_group_IT_number 9
_symmetry_cell_setting 'monoclinic'
loop_
_space_group_symop_operation_xyz
x,y,z
x,-y,1/2+z
1/2+x,1/2+y,z
1/2+x,1/2-y,1/2+z
loop_
_atom_site_type_symbol
_atom_site_label
_atom_site_fract_x
_atom_site_fract_y
_atom_site_fract_z
Si Si1 0.402600 0.678699 0.343130
Si Si2 0.113968 0.199759 0.491806
Si Si3 0.033879 0.692037 0.196769
Si Si4 0.382758 0.334645 0.362292
Si Si5 0.193507 0.916650 0.701927
Si Si6 0.680593 0.988311 0.792756
Si Si7 0.603494 0.552071 0.991849
Si Si8 0.345619 0.901943 0.308734
O O1 0.454636 0.720688 0.443494
O O2 0.555971 0.619694 0.286480
O O3 0.257657 0.597437 0.359311
O O4 0.374923 0.781007 0.278759
O O5 0.254731 0.256448 0.421093
O O6 0.097931 0.244558 0.600417
O O7 0.125246 0.073773 0.491846
O O8 0.012358 0.764785 0.294619
O O9 0.852790 0.653396 0.193015
O O10 0.145171 0.589145 0.204660
O O11 0.301150 0.413268 0.289861
O O12 0.452239 0.405729 0.444193
O O13 0.118247 0.913316 0.601612
O O14 0.254703 0.030772 0.734102
O O15 0.509462 0.039508 0.822508
O O16 0.743053 0.596092 0.913993
#
# Coordination Sequence:
#
# PCOD9140271 Si02
#       8
#     4   4   4   4   4   4   4   4
#     4  12  23  46  71 102 142 187 234 294 360 423
#     4  12  25  44  72 106 142 185 246 298 358 438
#     4  11  26  45  72 104 141 188 238 296 362 429
#     4  12  25  50  69 104 149 183 242 302 350 440
#     4  11  25  46  67 105 144 186 241 292 362 430
#     4  11  24  42  74 100 135 190 232 287 361 416
#     4  12  27  44  73 103 146 193 237 297 371 429
#     4  11  23  47  70 100 143 184 236 304 350 429
#
# _framework density 21.780491999999999
#
# number of rings (size 3 to 8) (size 9 to 14) (size 15 to 20)
#    0.000    0.500    5.000    2.250    7.000    0.000 
#    0.000    1.250    0.000    0.000    0.000    0.000 
#    0.000    0.000    0.000    0.000    0.000    0.000 
#
# Total GULP energy -89381.345157 kJ/mol
# GULP energy per Si atom -5586.334072 kJ/mol
# Density = 2.173092 g / cm^3
# Si number density = 21.780492 Si / 1000 Ang^3
#
#
#
# Elastic Constant Matrix: (Units=GPa)
#
#
# Indices 1 2 3 4 5 6 
#
# 1 78.2081 29.8970 8.8226 0.0000 22.4004 0.0000
# 2 29.8970 107.9264 13.6970 0.0000 11.9559 0.0000
# 3 8.8226 13.6970 83.6370 0.0000 13.7799 0.0000
# 4 0.0000 0.0000 0.0000 32.5215 0.0000 10.8149
# 5 22.4004 11.9559 13.7799 0.0000 25.2455 0.0000
# 6 0.0000 0.0000 0.0000 10.8149 0.0000 44.0440
#
#
#
# Elastic Compliance Matrix: (Units=1/GPa)
#
#
# Indices 1 2 3 4 5 6 
#
# 1 0.018384 -0.003549 0.001157 0.000000 -0.015263 0.000000
# 2 -0.003549 0.010529 -0.001151 0.000000 -0.001209 0.000000
# 3 0.001157 -0.001151 0.013298 0.000000 -0.007740 0.000000
# 4 0.000000 0.000000 0.000000 0.033483 0.000000 -0.008222
# 5 -0.015263 -0.001209 -0.007740 0.000000 0.057951 0.000000
# 6 0.000000 0.000000 0.000000 -0.008222 0.000000 0.024723
#
#
# Mechanical properties :
#
#
# Convention : Reuss Voigt Hill
#
# Bulk Modulus (GPa) = 28.46943 41.62274 35.04609
# Shear Modulus (GPa) = 28.22271 34.85253 31.53762
#
# Velocity S-wave (km/s) = 3.60360 4.00455 3.80936
# Velocity P-wave (km/s) = 5.51489 6.36659 5.95599
#
# Compressibility (1/GPa) = 0.03512540
#
# Stress axis : x y z
#
# Youngs Moduli (GPa) = 54.39479 94.97944 75.19892
#
# Poissons Ratio (x) = 0.33704 -0.08697
# Poissons Ratio (y) = 0.19303 0.08653
# Poissons Ratio (z) = -0.06291 0.10929
#
# Static dielectric constant tensor:
#      x y z
#    x 1.824810 0.000000 0.064090 
#    y 0.000000 1.857940 0.000000 
#    z 0.064090 0.000000 1.764510 
# 
# From -- ./inp_files/22733.got.cif
#   From: 2010.05.17/outbox.cif.g08.bks.cpg/sg9_12_cif.got.tgz:22733.got - 2010.06.03 20:04:27.
