data_PCOD9140174
_publ_section_title
;
Structure prediction by ZEFSAII (Michael W. Deem and Ramdas Pophale) SiO2 
 PCOD9140174
Probable space group: C C
;
_chemical_formula_sum "Si O2"
_cell_formula_units_Z 32
_cell_length_a 14.467509
_cell_length_b 11.264530
_cell_length_c 9.236661
_cell_angle_alpha 90.000000
_cell_angle_beta 66.120433
_cell_angle_gamma 90.000000
_cell_volume 1376.440015
_symmetry_space_group_name_H-M "C C"
_symmetry_group_IT_number 9
_symmetry_cell_setting 'monoclinic'
loop_
_space_group_symop_operation_xyz
x,y,z
x,-y,1/2+z
1/2+x,1/2+y,z
1/2+x,1/2-y,1/2+z
loop_
_atom_site_type_symbol
_atom_site_label
_atom_site_fract_x
_atom_site_fract_y
_atom_site_fract_z
Si Si1 0.289390 0.417795 0.867650
Si Si2 0.112371 0.574838 0.834366
Si Si3 0.802115 0.358442 0.343268
Si Si4 0.271270 0.082094 0.544568
Si Si5 0.473817 0.758582 0.866602
Si Si6 0.023530 0.407710 0.086195
Si Si7 0.579014 0.693080 0.511577
Si Si8 0.921555 0.008255 0.026101
O O1 0.201892 0.497224 0.849462
O O2 0.271358 0.277358 0.883143
O O3 0.385845 0.441155 0.702616
O O4 0.324603 0.457617 0.003124
O O5 0.097255 0.563974 0.672736
O O6 0.016584 0.520869 0.984114
O O7 0.116646 0.712172 0.870796
O O8 0.783318 0.446925 0.486631
O O9 0.752195 0.406914 0.227455
O O10 0.921079 0.368449 0.229764
O O11 0.370300 0.163551 0.443299
O O12 0.176210 0.133332 0.520297
O O13 0.523177 0.763300 0.678014
O O14 0.543742 0.806900 0.952896
O O15 0.455419 0.621187 0.911824
O O16 0.503544 0.594751 0.494816
#
# Coordination Sequence:
#
# PCOD9140174 Si02
#       8
#     4   4   4   4   4   4   4   4
#     4  12  26  48  74 106 153 199 254 314 383 454
#     4  12  26  44  72 114 142 195 257 313 372 458
#     4  11  25  48  72 105 150 195 249 311 384 447
#     4  11  26  47  73 106 148 193 249 312 377 450
#     4  11  25  48  75 103 154 194 248 317 377 452
#     4  11  23  44  76 101 147 188 251 309 380 440
#     4  12  28  44  75 106 152 197 256 303 383 456
#     4  12  25  47  73 107 148 199 244 313 386 447
#
# _framework density 23.248380000000001
#
# number of rings (size 3 to 8) (size 9 to 14) (size 15 to 20)
#    0.000    0.500    3.750    5.250    5.250    1.000 
#    2.250    0.000    0.000    0.000    0.000    0.000 
#    0.000    0.000    0.000    0.000    0.000    0.000 
#
# Total GULP energy -89522.461467 kJ/mol
# GULP energy per Si atom -5595.153842 kJ/mol
# Density = 2.319547 g / cm^3
# Si number density = 23.248380 Si / 1000 Ang^3
#
#
#
# Elastic Constant Matrix: (Units=GPa)
#
#
# Indices 1 2 3 4 5 6 
#
# 1 144.3008 56.8178 20.5080 0.0000 26.8373 0.0000
# 2 56.8178 172.1597 47.2880 0.0000 27.1088 0.0000
# 3 20.5080 47.2880 82.9462 0.0000 31.3207 0.0000
# 4 0.0000 0.0000 0.0000 44.8154 0.0000 6.9707
# 5 26.8373 27.1088 31.3207 0.0000 38.3218 0.0000
# 6 0.0000 0.0000 0.0000 6.9707 0.0000 35.5650
#
#
#
# Elastic Compliance Matrix: (Units=1/GPa)
#
#
# Indices 1 2 3 4 5 6 
#
# 1 0.008692 -0.002354 0.001248 0.000000 -0.005441 0.000000
# 2 -0.002354 0.007682 -0.003425 0.000000 -0.000986 0.000000
# 3 0.001248 -0.003425 0.018969 0.000000 -0.013955 0.000000
# 4 0.000000 0.000000 0.000000 0.023015 0.000000 -0.004511
# 5 -0.005441 -0.000986 -0.013955 0.000000 0.042008 0.000000
# 6 0.000000 0.000000 0.000000 -0.004511 0.000000 0.029002
#
#
# Mechanical properties :
#
#
# Convention : Reuss Voigt Hill
#
# Bulk Modulus (GPa) = 38.05193 72.07048 55.06120
# Shear Modulus (GPa) = 33.96951 42.06000 38.01475
#
# Velocity S-wave (km/s) = 3.82665 4.25803 4.04809
# Velocity P-wave (km/s) = 5.99395 7.43250 6.75165
#
# Compressibility (1/GPa) = 0.02627988
#
# Stress axis : x y z
#
# Youngs Moduli (GPa) = 115.05291 130.18152 52.71628
#
# Poissons Ratio (x) = 0.30651 -0.06579
# Poissons Ratio (y) = 0.27089 0.18055
# Poissons Ratio (z) = -0.14358 0.44586
#
# Static dielectric constant tensor:
#      x y z
#    x 1.940790 0.000000 -0.057170 
#    y 0.000000 1.862900 0.000000 
#    z -0.057170 0.000000 1.924200 
# 
# From -- ./inp_files/9252.got.cif
#   From: 2010.05.17/outbox.cif.g08.bks.cpg/sg9_5_cif.got.tgz:9252.got - 2010.06.03 20:04:27.
