data_PCOD9140395
_publ_section_title
;
Structure prediction by ZEFSAII (Michael W. Deem and Ramdas Pophale) SiO2 
 PCOD9140395
Probable space group: C C
;
_chemical_formula_sum "Si O2"
_cell_formula_units_Z 32
_cell_length_a 21.628089
_cell_length_b 12.116375
_cell_length_c 15.652774
_cell_angle_alpha 90.000000
_cell_angle_beta 18.585483
_cell_angle_gamma 90.000000
_cell_volume 1307.345409
_symmetry_space_group_name_H-M "C C"
_symmetry_group_IT_number 9
_symmetry_cell_setting 'monoclinic'
loop_
_space_group_symop_operation_xyz
x,y,z
x,-y,1/2+z
1/2+x,1/2+y,z
1/2+x,1/2-y,1/2+z
loop_
_atom_site_type_symbol
_atom_site_label
_atom_site_fract_x
_atom_site_fract_y
_atom_site_fract_z
Si Si1 0.949470 0.180466 0.500000
Si Si2 0.831477 0.674544 0.446740
Si Si3 0.399603 0.280423 0.512941
Si Si4 0.738944 0.006832 0.660838
Si Si5 0.522938 0.789935 0.118361
Si Si6 0.086329 0.155162 0.506774
Si Si7 0.687384 0.147413 0.580627
Si Si8 0.342579 0.001178 0.283682
O O1 0.890493 0.090809 0.506481
O O2 0.766378 0.259316 0.760240
O O3 0.017057 0.127895 0.501317
O O4 0.110245 0.260195 0.248343
O O5 0.937808 0.680143 0.397994
O O6 0.840924 0.568378 0.374551
O O7 0.611536 0.690321 0.767172
O O8 0.922232 0.772757 0.269828
O O9 0.324269 0.386117 0.558873
O O10 0.229581 0.270089 0.803660
O O11 0.687225 0.035145 0.632171
O O12 0.542927 0.024679 0.971469
O O13 0.564866 0.843357 0.155509
O O14 0.409007 0.676721 0.272430
O O15 0.374477 0.872734 0.263805
O O16 0.169724 0.052999 0.453036
#
# Coordination Sequence:
#
# PCOD9140395 Si02
#       8
#     4   4   4   4   4   4   4   4
#     4  12  20  38  71 109 139 169 231 307 369 403
#     4  12  22  43  71  95 139 186 229 288 357 414
#     4  11  27  46  64  98 144 188 235 286 348 435
#     4  11  24  45  69 108 141 175 241 299 360 428
#     4  11  27  46  69 101 149 191 242 282 356 436
#     4  12  20  40  73 106 141 173 230 307 364 409
#     4  12  22  44  75  99 144 193 229 298 360 427
#     4  11  24  44  70 108 137 179 241 303 352 428
#
# _framework density 24.477080000000001
#
# number of rings (size 3 to 8) (size 9 to 14) (size 15 to 20)
#    0.000    0.500    7.500    0.750    1.750    1.000 
#    2.250    3.750    0.000    0.000    0.000    0.000 
#    0.000    0.000    0.000    0.000    0.000    0.000 
#
# Total GULP energy -89564.144723 kJ/mol
# GULP energy per Si atom -5597.759045 kJ/mol
# Density = 2.442137 g / cm^3
# Si number density = 24.477080 Si / 1000 Ang^3
#
#
#
# Elastic Constant Matrix: (Units=GPa)
#
#
# Indices 1 2 3 4 5 6 
#
# 1 120.1976 45.7674 -13.2667 0.0000 1.1862 0.0000
# 2 45.7674 77.7865 27.3104 -0.0002 0.1034 -0.0001
# 3 -13.2667 27.3104 108.9311 0.0000 3.0608 0.0001
# 4 0.0000 -0.0002 0.0000 24.8627 0.0000 -13.0035
# 5 1.1862 0.1034 3.0608 0.0000 26.1072 -0.0001
# 6 0.0000 -0.0001 0.0001 -13.0035 -0.0001 35.7423
#
#
#
# Elastic Compliance Matrix: (Units=1/GPa)
#
#
# Indices 1 2 3 4 5 6 
#
# 1 0.011841 -0.008203 0.003525 0.000000 -0.000919 0.000000
# 2 -0.008203 0.019783 -0.005987 0.000000 0.000996 0.000000
# 3 0.003525 -0.005987 0.011151 0.000000 -0.001444 0.000000
# 4 0.000000 0.000000 0.000000 0.049672 0.000000 0.018071
# 5 -0.000919 0.000996 -0.001444 0.000000 0.038511 0.000000
# 6 0.000000 0.000000 0.000000 0.018071 0.000000 0.034553
#
#
# Mechanical properties :
#
#
# Convention : Reuss Voigt Hill
#
# Bulk Modulus (GPa) = 46.63314 47.39305 47.01309
# Shear Modulus (GPa) = 25.77451 33.81606 29.79528
#
# Velocity S-wave (km/s) = 3.24853 3.72094 3.49273
# Velocity P-wave (km/s) = 5.75879 6.15344 5.95938
#
# Compressibility (1/GPa) = 0.02144398
#
# Stress axis : x y z
#
# Youngs Moduli (GPa) = 84.45007 50.54845 89.67850
#
# Poissons Ratio (x) = 0.41467 -0.31609
# Poissons Ratio (y) = 0.69278 0.53690
# Poissons Ratio (z) = -0.29766 0.30263
#
# Static dielectric constant tensor:
#      x y z
#    x 1.961190 0.000000 0.003520 
#    y 0.000000 1.960030 0.000000 
#    z 0.003520 0.000000 1.932320 
# 
# From -- ./inp_files/27452.got.cif
#   From: 2010.05.17/outbox.cif.g08.bks.cpg/sg9_14_cif.got.tgz:27452.got - 2010.06.03 20:04:27.
