data_PCOD9140947
_publ_section_title
;
Structure prediction by ZEFSAII (Michael W. Deem and Ramdas Pophale) SiO2 
 PCOD9140947
Probable space group: C C
;
_chemical_formula_sum "Si O2"
_cell_formula_units_Z 32
_cell_length_a 18.214747
_cell_length_b 14.784956
_cell_length_c 11.565263
_cell_angle_alpha 90.000000
_cell_angle_beta 150.728024
_cell_angle_gamma 90.000000
_cell_volume 1522.889329
_symmetry_space_group_name_H-M "C C"
_symmetry_group_IT_number 9
_symmetry_cell_setting 'monoclinic'
loop_
_space_group_symop_operation_xyz
x,y,z
x,-y,1/2+z
1/2+x,1/2+y,z
1/2+x,1/2-y,1/2+z
loop_
_atom_site_type_symbol
_atom_site_label
_atom_site_fract_x
_atom_site_fract_y
_atom_site_fract_z
Si Si1 0.387740 0.605207 0.220460
Si Si2 0.202697 0.102038 0.528175
Si Si3 0.834599 0.733863 0.291070
Si Si4 0.801086 0.097546 0.569040
Si Si5 0.452039 0.321788 0.049808
Si Si6 0.177324 0.741259 0.810927
Si Si7 0.753112 0.414054 0.495385
Si Si8 0.453791 0.107734 0.062398
O O1 0.554624 0.623772 0.400005
O O2 0.365664 0.497822 0.200591
O O3 0.366231 0.650493 0.316054
O O4 0.267377 0.651109 0.969680
O O5 0.227225 0.179959 0.467439
O O6 0.177956 0.006846 0.431236
O O7 0.348617 0.087570 0.808648
O O8 0.813697 0.822824 0.181959
O O9 0.715627 0.734842 0.231236
O O10 0.816271 0.644985 0.187584
O O11 0.998772 0.732915 0.573064
O O12 0.890437 0.128931 0.578355
O O13 0.627738 0.083323 0.295201
O O14 0.623249 0.351488 0.263799
O O15 0.445732 0.215975 0.064391
O O16 0.879061 0.433929 0.573791
#
# Coordination Sequence:
#
# PCOD9140947 Si02
#       8
#     4   4   4   4   4   4   4   4
#     4  12  28  48  73 105 145 189 237 296 357 422
#     4  12  28  48  73 105 143 191 239 294 356 422
#     4  12  26  46  72 107 149 184 232 290 356 428
#     4  12  28  45  74 111 143 186 238 297 356 418
#     4  12  23  48  76 100 147 191 236 292 357 420
#     4  12  28  46  73 102 149 190 230 289 364 423
#     4  12  26  45  74 104 143 193 237 286 355 423
#     4  12  25  48  73 106 141 186 245 294 345 420
#
# _framework density 21.012689000000002
#
# number of rings (size 3 to 8) (size 9 to 14) (size 15 to 20)
#    0.000    0.000    7.500    1.500    7.000    2.000 
#    0.000    0.000    0.000    0.000    0.000    0.000 
#    0.000    0.000    0.000    0.000    0.000    0.000 
#
# Total GULP energy -89562.753942 kJ/mol
# GULP energy per Si atom -5597.672121 kJ/mol
# Density = 2.096486 g / cm^3
# Si number density = 21.012689 Si / 1000 Ang^3
#
#
#
# Elastic Constant Matrix: (Units=GPa)
#
#
# Indices 1 2 3 4 5 6 
#
# 1 70.9170 28.1180 -14.0414 0.0000 -2.8671 0.0000
# 2 28.1180 44.9058 -3.6776 0.0000 -9.1359 0.0000
# 3 -14.0414 -3.6776 53.4634 0.0000 4.7565 0.0000
# 4 0.0000 0.0000 0.0000 15.7370 0.0000 20.0590
# 5 -2.8671 -9.1359 4.7565 0.0000 34.7859 0.0000
# 6 0.0000 0.0000 0.0000 20.0590 0.0000 -6.1160
#
#
#
# Elastic Compliance Matrix: (Units=1/GPa)
#
#
# Indices 1 2 3 4 5 6 
#
# 1 0.019885 -0.012541 0.004562 0.000000 -0.002279 0.000000
# 2 -0.012541 0.031497 -0.001793 0.000000 0.007484 0.000000
# 3 0.004562 -0.001793 0.020031 0.000000 -0.002834 0.000000
# 4 0.000000 0.000000 0.000000 0.012266 0.000000 0.040230
# 5 -0.002279 0.007484 -0.002834 0.000000 0.030912 0.000000
# 6 0.000000 0.000000 0.000000 0.040230 0.000000 -0.031562
#
#
# Mechanical properties :
#
#
# Convention : Reuss Voigt Hill
#
# Bulk Modulus (GPa) = 19.27869 21.12046 20.19958
# Shear Modulus (GPa) = 41.71457 19.47387 30.59422
#
# Velocity S-wave (km/s) = 4.46040 3.04759 3.81988
# Velocity P-wave (km/s) = 5.97676 4.73886 5.39344
#
# Compressibility (1/GPa) = 0.05187074
#
# Stress axis : x y z
#
# Youngs Moduli (GPa) = 50.29031 31.74906 49.92147
#
# Poissons Ratio (x) = 0.39816 -0.22777
# Poissons Ratio (y) = 0.63068 0.08950
# Poissons Ratio (z) = -0.22945 0.05692
#
# Static dielectric constant tensor:
#      x y z
#    x 1.725800 0.000000 -0.016700 
#    y 0.000000 1.727280 0.000000 
#    z -0.016700 0.000000 1.760060 
# 
# From -- ./inp_files/7356.got.cif
#   From: 2010.05.17/outbox.cif.g08.bks.cpg/sg9_4_cif.got.tgz:7356.got - 2010.06.03 20:04:27.
