data_PCOD9140743
_publ_section_title
;
Structure prediction by ZEFSAII (Michael W. Deem and Ramdas Pophale) SiO2 
 PCOD9140743
Probable space group: C C
;
_chemical_formula_sum "Si O2"
_cell_formula_units_Z 28
_cell_length_a 10.902680
_cell_length_b 8.940129
_cell_length_c 12.183286
_cell_angle_alpha 90.000000
_cell_angle_beta 99.192203
_cell_angle_gamma 90.000000
_cell_volume 1172.271389
_symmetry_space_group_name_H-M "C C"
_symmetry_group_IT_number 9
_symmetry_cell_setting 'monoclinic'
loop_
_space_group_symop_operation_xyz
x,y,z
x,-y,1/2+z
1/2+x,1/2+y,z
1/2+x,1/2-y,1/2+z
loop_
_atom_site_type_symbol
_atom_site_label
_atom_site_fract_x
_atom_site_fract_y
_atom_site_fract_z
Si Si1 0.592010 0.344019 0.041230
Si Si2 0.231973 0.556024 0.638264
Si Si3 0.467212 0.949209 0.132781
Si Si4 0.745661 0.752875 0.355064
Si Si5 0.444815 0.367731 0.543639
Si Si6 0.823389 0.692484 0.001321
Si Si7 0.769785 0.427673 0.265708
O O1 0.550652 0.518463 0.019384
O O2 0.683355 0.354126 0.159756
O O3 0.654049 0.263990 0.945726
O O4 0.456765 0.271033 0.035007
O O5 0.237431 0.616445 0.763522
O O6 0.342645 0.453499 0.606108
O O7 0.236680 0.703001 0.561832
O O8 0.097371 0.479211 0.617286
O O9 0.487425 0.774114 0.118469
O O10 0.411403 0.957962 0.245923
O O11 0.355419 0.025112 0.047589
O O12 0.876905 0.791233 0.430631
O O13 0.728084 0.594023 0.292436
O O14 0.775763 0.678605 0.871628
#
# Coordination Sequence:
#
# PCOD9140743 Si02
#       7
#     4   4   4   4   4   4   4
#     4  11  26  48  76 111 153 201 255 312 379 454
#     4  11  27  47  74 111 149 195 251 312 377 448
#     4  12  24  46  72 106 152 193 249 309 370 449
#     4  12  24  49  75 108 155 196 250 311 380 449
#     4  11  26  47  74 111 149 193 256 308 371 449
#     4  11  25  49  71 114 152 197 256 309 378 452
#     4  12  24  46  78 107 156 203 247 313 383 449
#
# _framework density 23.885252999999999
#
# number of rings (size 3 to 8) (size 9 to 14) (size 15 to 20)
#    0.000    0.571    4.286    2.571    2.000    5.714 
#    2.571    0.000    0.000    0.000    0.000    0.000 
#    0.000    0.000    0.000    0.000    0.000    0.000 
#
# Total GULP energy -78209.136828 kJ/mol
# GULP energy per Si atom -5586.366916 kJ/mol
# Density = 2.383089 g / cm^3
# Si number density = 23.885253 Si / 1000 Ang^3
#
#
#
# Elastic Constant Matrix: (Units=GPa)
#
#
# Indices 1 2 3 4 5 6 
#
# 1 75.8402 6.6802 27.5313 0.0000 -5.1626 0.0000
# 2 6.6802 84.3580 18.5863 0.0000 4.2171 0.0000
# 3 27.5313 18.5863 110.2364 0.0000 -3.8300 0.0000
# 4 0.0000 0.0000 0.0000 27.5195 0.0000 0.9211
# 5 -5.1626 4.2171 -3.8300 0.0000 24.2267 0.0000
# 6 0.0000 0.0000 0.0000 0.9211 0.0000 46.1512
#
#
#
# Elastic Compliance Matrix: (Units=1/GPa)
#
#
# Indices 1 2 3 4 5 6 
#
# 1 0.014679 -0.000528 -0.003484 0.000000 0.002669 0.000000
# 2 -0.000528 0.012481 -0.002063 0.000000 -0.002611 0.000000
# 3 -0.003484 -0.002063 0.010333 0.000000 0.001250 0.000000
# 4 0.000000 0.000000 0.000000 0.036362 0.000000 -0.000726
# 5 0.002669 -0.002611 0.001250 0.000000 0.042498 0.000000
# 6 0.000000 0.000000 0.000000 -0.000726 0.000000 0.021682
#
#
# Mechanical properties :
#
#
# Convention : Reuss Voigt Hill
#
# Bulk Modulus (GPa) = 39.46073 41.78113 40.62093
# Shear Modulus (GPa) = 31.51925 34.08860 32.80392
#
# Velocity S-wave (km/s) = 3.63659 3.78190 3.70996
# Velocity P-wave (km/s) = 5.84721 6.04986 5.94940
#
# Compressibility (1/GPa) = 0.02534165
#
# Stress axis : x y z
#
# Youngs Moduli (GPa) = 68.12623 80.12056 96.77845
#
# Poissons Ratio (x) = 0.04232 0.33719
# Poissons Ratio (y) = 0.03598 0.19967
# Poissons Ratio (z) = 0.23736 0.16530
#
# Static dielectric constant tensor:
#      x y z
#    x 1.975960 0.000000 0.020690 
#    y 0.000000 1.986170 0.000000 
#    z 0.020690 0.000000 1.919720 
# 
# From -- ./inp_files/15940.got.cif
#   From: 2010.05.17/outbox.cif.g08.bks.cpg/sg9_8_cif.got.tgz:15940.got - 2010.06.03 20:04:27.
