data_PCOD9140274
_publ_section_title
;
Structure prediction by ZEFSAII (Michael W. Deem and Ramdas Pophale) SiO2 
 PCOD9140274
Probable space group: C C
;
_chemical_formula_sum "Si O2"
_cell_formula_units_Z 32
_cell_length_a 6.228278
_cell_length_b 25.639385
_cell_length_c 9.689793
_cell_angle_alpha 90.000000
_cell_angle_beta 65.784563
_cell_angle_gamma 90.000000
_cell_volume 1411.203096
_symmetry_space_group_name_H-M "C C"
_symmetry_group_IT_number 9
_symmetry_cell_setting 'monoclinic'
loop_
_space_group_symop_operation_xyz
x,y,z
x,-y,1/2+z
1/2+x,1/2+y,z
1/2+x,1/2-y,1/2+z
loop_
_atom_site_type_symbol
_atom_site_label
_atom_site_fract_x
_atom_site_fract_y
_atom_site_fract_z
Si Si1 0.184100 0.827186 0.978290
Si Si2 0.474194 0.728621 0.272993
Si Si3 0.461865 0.273802 0.476740
Si Si4 0.487283 0.085563 0.280808
Si Si5 0.327543 0.499618 0.740235
Si Si6 0.113351 0.003984 0.918519
Si Si7 0.453486 0.081362 0.957542
Si Si8 0.756955 0.170771 0.768955
O O1 0.282884 0.775459 0.026955
O O2 0.405220 0.862623 0.879370
O O3 0.063425 0.809071 0.868370
O O4 0.975526 0.851778 0.124457
O O5 0.657906 0.777129 0.221928
O O6 0.218325 0.751921 0.372288
O O7 0.470657 0.701844 0.125510
O O8 0.364006 0.312127 0.387281
O O9 0.731144 0.059521 0.264345
O O10 0.298397 0.042328 0.377915
O O11 0.468583 0.089677 0.118728
O O12 0.556599 0.508549 0.772592
O O13 0.383660 0.511719 0.566566
O O14 0.142121 0.538134 0.858727
O O15 0.212958 0.056454 0.962825
O O16 0.539502 0.132928 0.856064
#
# Coordination Sequence:
#
# PCOD9140274 Si02
#       8
#     4   4   4   4   4   4   4   4
#     4  11  25  45  68 102 140 180 233 280 342 414
#     4  11  24  45  70  99 139 185 228 285 342 399
#     4  11  24  45  70  99 139 185 228 285 342 399
#     4  11  25  42  69 104 132 178 232 282 343 414
#     4  11  23  47  70  96 138 177 223 288 346 407
#     4  11  23  47  70  96 138 177 223 288 346 407
#     4  11  25  42  69 104 132 178 232 282 343 414
#     4  11  25  45  68 102 140 180 233 280 342 414
#
# _framework density 22.675687
#
# number of rings (size 3 to 8) (size 9 to 14) (size 15 to 20)
#    0.000    1.000    5.000    0.750    3.500    2.000 
#    4.500    0.000    0.000    0.000    0.000    0.000 
#    0.000    0.000    0.000    0.000    0.000    0.000 
#
# Total GULP energy -89459.927686 kJ/mol
# GULP energy per Si atom -5591.245480 kJ/mol
# Density = 2.262408 g / cm^3
# Si number density = 22.675687 Si / 1000 Ang^3
#
#
#
# Elastic Constant Matrix: (Units=GPa)
#
#
# Indices 1 2 3 4 5 6 
#
# 1 57.8885 -1.2818 6.3888 0.0000 5.6291 0.0000
# 2 -1.2818 58.5917 23.5740 0.0000 6.0638 0.0000
# 3 6.3888 23.5740 112.7863 0.0000 -0.5022 0.0000
# 4 0.0000 0.0000 0.0000 28.0843 0.0000 -10.7988
# 5 5.6291 6.0638 -0.5022 0.0000 41.1504 0.0000
# 6 0.0000 0.0000 0.0000 -10.7988 0.0000 23.0838
#
#
#
# Elastic Compliance Matrix: (Units=1/GPa)
#
#
# Indices 1 2 3 4 5 6 
#
# 1 0.017693 0.001163 -0.001257 0.000000 -0.002607 0.000000
# 2 0.001163 0.019037 -0.004058 0.000000 -0.003014 0.000000
# 3 -0.001257 -0.004058 0.009790 0.000000 0.000889 0.000000
# 4 0.000000 0.000000 0.000000 0.043417 0.000000 0.020311
# 5 -0.002607 -0.003014 0.000889 0.000000 0.025113 0.000000
# 6 0.000000 0.000000 0.000000 0.020311 0.000000 0.052822
#
#
# Mechanical properties :
#
#
# Convention : Reuss Voigt Hill
#
# Bulk Modulus (GPa) = 26.16814 31.84760 29.00787
# Shear Modulus (GPa) = 26.46694 31.83606 29.15150
#
# Velocity S-wave (km/s) = 3.42013 3.75103 3.58939
# Velocity P-wave (km/s) = 5.21168 5.73024 5.47710
#
# Compressibility (1/GPa) = 0.03821442
#
# Stress axis : x y z
#
# Youngs Moduli (GPa) = 56.52104 52.52798 102.14772
#
# Poissons Ratio (x) = -0.06106 0.12838
# Poissons Ratio (y) = -0.06571 0.41456
# Poissons Ratio (z) = 0.07103 0.21318
#
# Static dielectric constant tensor:
#      x y z
#    x 1.889480 0.000000 -0.042460 
#    y 0.000000 1.833950 0.000000 
#    z -0.042460 0.000000 1.817840 
# 
# From -- ./inp_files/4339.got.cif
#   From: 2010.05.17/outbox.cif.g08.bks.cpg/sg9_3_cif.got.tgz:4339.got - 2010.06.03 20:04:27.
