data_PCOD9140420
_publ_section_title
;
Structure prediction by ZEFSAII (Michael W. Deem and Ramdas Pophale) SiO2 
 PCOD9140420
Probable space group: C C
;
_chemical_formula_sum "Si O2"
_cell_formula_units_Z 28
_cell_length_a 11.838343
_cell_length_b 11.102367
_cell_length_c 15.972680
_cell_angle_alpha 90.000000
_cell_angle_beta 33.195311
_cell_angle_gamma 90.000000
_cell_volume 1149.381604
_symmetry_space_group_name_H-M "C C"
_symmetry_group_IT_number 9
_symmetry_cell_setting 'monoclinic'
loop_
_space_group_symop_operation_xyz
x,y,z
x,-y,1/2+z
1/2+x,1/2+y,z
1/2+x,1/2-y,1/2+z
loop_
_atom_site_type_symbol
_atom_site_label
_atom_site_fract_x
_atom_site_fract_y
_atom_site_fract_z
Si Si1 0.862210 0.807852 0.747670
Si Si2 0.403567 0.188970 0.546816
Si Si3 0.526978 0.837480 0.282534
Si Si4 0.789774 0.334563 0.850942
Si Si5 0.257790 0.359809 0.496128
Si Si6 0.215955 0.005340 0.554959
Si Si7 0.940967 0.107276 0.443962
O O1 0.853591 0.773999 0.655559
O O2 0.919045 0.681729 0.759160
O O3 0.039176 0.905360 0.657200
O O4 0.638062 0.853083 0.913860
O O5 0.393628 0.271370 0.470148
O O6 0.250857 0.079113 0.618802
O O7 0.430328 0.939478 0.399622
O O8 0.766676 0.855925 0.119539
O O9 0.463784 0.713828 0.364412
O O10 0.027909 0.355609 0.678911
O O11 0.762941 0.195261 0.898750
O O12 0.699114 0.403108 0.988239
O O13 0.656819 0.388600 0.857971
O O14 0.353457 0.490159 0.452735
#
# Coordination Sequence:
#
# PCOD9140420 Si02
#       7
#     4   4   4   4   4   4   4
#     4  12  24  48  72 108 143 199 244 308 375 443
#     4  11  25  45  78 105 146 195 249 299 390 432
#     4  12  25  48  66 108 150 182 261 299 363 462
#     4  11  25  47  73 105 149 194 248 306 380 435
#     4  11  25  48  73 111 149 189 256 312 359 462
#     4  11  24  45  69 106 146 185 249 309 349 462
#     4  12  26  47  75 105 153 200 237 319 376 434
#
# _framework density 24.360927
#
# number of rings (size 3 to 8) (size 9 to 14) (size 15 to 20)
#    0.000    0.571    4.286    3.429    2.000    3.429 
#    5.143    0.000    0.000    0.000    0.000    0.000 
#    0.000    0.000    0.000    0.000    0.000    0.000 
#
# Total GULP energy -78351.727616 kJ/mol
# GULP energy per Si atom -5596.551973 kJ/mol
# Density = 2.430548 g / cm^3
# Si number density = 24.360927 Si / 1000 Ang^3
#
#
#
# Elastic Constant Matrix: (Units=GPa)
#
#
# Indices 1 2 3 4 5 6 
#
# 1 54.8452 8.1164 -3.5025 0.0006 -12.9026 -0.0002
# 2 8.1164 99.9367 11.9306 -0.0029 -2.5598 -0.0022
# 3 -3.5025 11.9306 107.1252 -0.0051 -26.5769 -0.0023
# 4 0.0006 -0.0029 -0.0051 -102.3749 0.0022 -189.2615
# 5 -12.9026 -2.5598 -26.5769 0.0022 35.1513 0.0014
# 6 -0.0002 -0.0022 -0.0023 -189.2615 0.0014 -243.2822
#
#
#
# Elastic Compliance Matrix: (Units=1/GPa)
#
#
# Indices 1 2 3 4 5 6 
#
# 1 0.021132 -0.001864 0.003433 0.000000 0.010217 0.000000
# 2 -0.001864 0.010306 -0.001468 0.000000 -0.001043 0.000000
# 3 0.003433 -0.001468 0.012182 0.000001 0.010364 0.000000
# 4 0.000000 0.000000 0.000001 0.022291 0.000000 -0.017341
# 5 0.010217 -0.001043 0.010364 0.000000 0.039958 0.000001
# 6 0.000000 0.000000 0.000000 -0.017341 0.000001 0.009380
#
#
# Mechanical properties :
#
#
# Convention : Reuss Voigt Hill
#
# Bulk Modulus (GPa) = 22.81953 32.77733 27.79843
# Shear Modulus (GPa) = 38.56415 -45.74365 -3.58975
#
# Velocity S-wave (km/s) = 3.98305 -4.33800 -1.21522
# Velocity P-wave (km/s) = 5.52635 3.40689 3.07682
#
# Compressibility (1/GPa) = 0.04382210
#
# Stress axis : x y z
#
# Youngs Moduli (GPa) = 47.32203 97.02866 82.09041
#
# Poissons Ratio (x) = 0.18090 -0.28183
# Poissons Ratio (y) = 0.08823 0.12048
# Poissons Ratio (z) = -0.16247 0.14240
#
# Static dielectric constant tensor:
#      x y z
#    x 2.051460 0.000010 0.042930 
#    y 0.000010 2.421590 0.000000 
#    z 0.042930 0.000000 1.891260 
# 
# From -- ./inp_files/7009.got.cif
#   From: 2010.05.17/outbox.cif.g08.bks.cpg/sg9_4_cif.got.tgz:7009.got - 2010.06.03 20:04:27.
