data_PCOD9140191
_publ_section_title
;
Structure prediction by ZEFSAII (Michael W. Deem and Ramdas Pophale) SiO2 
 PCOD9140191
Probable space group: C C
;
_chemical_formula_sum "Si O2"
_cell_formula_units_Z 28
_cell_length_a 7.333865
_cell_length_b 13.473779
_cell_length_c 17.919749
_cell_angle_alpha 90.000000
_cell_angle_beta 40.785112
_cell_angle_gamma 90.000000
_cell_volume 1156.688204
_symmetry_space_group_name_H-M "C C"
_symmetry_group_IT_number 9
_symmetry_cell_setting 'monoclinic'
loop_
_space_group_symop_operation_xyz
x,y,z
x,-y,1/2+z
1/2+x,1/2+y,z
1/2+x,1/2-y,1/2+z
loop_
_atom_site_type_symbol
_atom_site_label
_atom_site_fract_x
_atom_site_fract_y
_atom_site_fract_z
Si Si1 0.176540 0.684766 0.490230
Si Si2 0.727620 0.479086 0.989951
Si Si3 0.826460 0.913917 0.800196
Si Si4 0.299773 0.835201 0.570251
Si Si5 0.345643 0.307970 0.179899
Si Si6 0.611557 0.376815 0.234744
Si Si7 0.178879 0.858249 0.386576
O O1 0.350716 0.620762 0.378364
O O2 0.346164 0.747555 0.497551
O O3 0.049589 0.767884 0.473730
O O4 0.933379 0.627892 0.608858
O O5 0.622085 0.543509 0.952889
O O6 0.004406 0.421685 0.880962
O O7 0.846852 0.560853 0.013574
O O8 0.510111 0.400974 0.091101
O O9 0.973176 0.844461 0.694125
O O10 0.980760 0.018402 0.751822
O O11 0.413418 0.792476 0.612716
O O12 0.447835 0.300080 0.233060
O O13 0.015770 0.336508 0.281181
O O14 0.580605 0.363005 0.332280
#
# Coordination Sequence:
#
# PCOD9140191 Si02
#       7
#     4   4   4   4   4   4   4
#     4  11  23  45  69 100 144 185 240 312 357 441
#     4  11  24  46  77 106 145 200 242 314 386 437
#     4  12  22  45  71 102 149 186 242 321 362 452
#     4  11  24  45  71 104 148 186 253 309 364 457
#     4  12  23  46  75 102 147 190 245 307 375 448
#     4  12  25  43  72 108 141 190 252 294 375 455
#     4  11  25  46  71 102 146 189 244 309 369 444
#
# _framework density 24.207044
#
# number of rings (size 3 to 8) (size 9 to 14) (size 15 to 20)
#    0.000    0.571    7.143    0.000    2.000    1.143 
#    2.571    5.714    0.000    0.000    0.000    0.000 
#    0.000    0.000    0.000    0.000    0.000    0.000 
#
# Total GULP energy -78276.742252 kJ/mol
# GULP energy per Si atom -5591.195875 kJ/mol
# Density = 2.415195 g / cm^3
# Si number density = 24.207044 Si / 1000 Ang^3
#
#
#
# Elastic Constant Matrix: (Units=GPa)
#
#
# Indices 1 2 3 4 5 6 
#
# 1 95.2981 8.1257 12.9325 -0.0009 39.6802 0.0022
# 2 8.1257 52.3831 26.9328 0.0004 4.4599 -0.0006
# 3 12.9325 26.9328 109.0260 -0.0028 16.1615 0.0038
# 4 -0.0009 0.0004 -0.0028 54.2969 0.0015 13.4640
# 5 39.6802 4.4599 16.1615 0.0015 50.0615 -0.0021
# 6 0.0022 -0.0006 0.0038 13.4640 -0.0021 22.4285
#
#
#
# Elastic Compliance Matrix: (Units=1/GPa)
#
#
# Indices 1 2 3 4 5 6 
#
# 1 0.015775 -0.001573 0.000368 0.000002 -0.012482 -0.000004
# 2 -0.001573 0.022027 -0.005407 -0.000001 0.001030 0.000002
# 3 0.000368 -0.005407 0.010961 0.000002 -0.003348 -0.000003
# 4 0.000002 -0.000001 0.000002 0.021638 -0.000003 -0.012990
# 5 -0.012482 0.001030 -0.003348 -0.000003 0.030858 0.000006
# 6 -0.000004 0.000002 -0.000003 -0.012990 0.000006 0.052384
#
#
# Mechanical properties :
#
#
# Convention : Reuss Voigt Hill
#
# Bulk Modulus (GPa) = 28.14022 39.18768 33.66395
# Shear Modulus (GPa) = 27.97758 39.27177 33.62468
#
# Velocity S-wave (km/s) = 3.40334 4.03218 3.73103
# Velocity P-wave (km/s) = 5.20516 6.15643 5.70067
#
# Compressibility (1/GPa) = 0.03553632
#
# Stress axis : x y z
#
# Youngs Moduli (GPa) = 63.39144 45.39949 91.23574
#
# Poissons Ratio (x) = 0.07143 -0.03355
# Poissons Ratio (y) = 0.09974 0.49335
# Poissons Ratio (z) = -0.02331 0.24549
#
# Static dielectric constant tensor:
#      x y z
#    x 1.956480 0.000000 0.016830 
#    y 0.000000 1.963120 0.000000 
#    z 0.016830 0.000000 1.932840 
# 
# From -- ./inp_files/32537.got.cif
#   From: 2010.05.17/outbox.cif.g08.bks.cpg/sg9_17_cif.got.tgz:32537.got - 2010.06.03 20:04:27.
