data_PCOD9140414
_publ_section_title
;
Structure prediction by ZEFSAII (Michael W. Deem and Ramdas Pophale) SiO2 
 PCOD9140414
Probable space group: C C
;
_chemical_formula_sum "Si O2"
_cell_formula_units_Z 32
_cell_length_a 5.711347
_cell_length_b 21.502139
_cell_length_c 11.675624
_cell_angle_alpha 90.000000
_cell_angle_beta 114.243780
_cell_angle_gamma 90.000000
_cell_volume 1307.383671
_symmetry_space_group_name_H-M "C C"
_symmetry_group_IT_number 9
_symmetry_cell_setting 'monoclinic'
loop_
_space_group_symop_operation_xyz
x,y,z
x,-y,1/2+z
1/2+x,1/2+y,z
1/2+x,1/2-y,1/2+z
loop_
_atom_site_type_symbol
_atom_site_label
_atom_site_fract_x
_atom_site_fract_y
_atom_site_fract_z
Si Si1 0.125000 0.807811 0.188750
Si Si2 0.457409 0.001725 0.243543
Si Si3 0.566825 0.799328 0.981483
Si Si4 0.388437 0.851865 0.730772
Si Si5 0.855770 0.637752 0.964117
Si Si6 0.043422 0.016111 0.860980
Si Si7 0.764483 0.410156 0.031740
Si Si8 0.859307 0.804376 0.589528
O O1 0.220805 0.824552 0.334807
O O2 0.176314 0.868775 0.120374
O O3 0.268946 0.750382 0.158043
O O4 0.823377 0.798127 0.108448
O O5 0.468846 0.076289 0.248358
O O6 0.206860 0.987133 0.273259
O O7 0.410517 0.969589 0.112120
O O8 0.740188 0.972609 0.322829
O O9 0.427230 0.863099 0.989376
O O10 0.413445 0.738283 0.988059
O O11 0.574424 0.809740 0.846253
O O12 0.366216 0.834244 0.593033
O O13 0.092841 0.837718 0.702528
O O14 0.701235 0.573844 0.945633
O O15 0.161834 0.642709 0.005565
O O16 0.063237 0.946162 0.914099
#
# Coordination Sequence:
#
# PCOD9140414 Si02
#       8
#     4   4   4   4   4   4   4   4
#     4  11  25  50  76 108 156 210 266 327 402 476
#     4  12  27  47  76 115 161 203 260 323 400 479
#     4  11  25  50  76 108 156 210 266 327 402 476
#     4  12  27  46  77 114 156 204 263 332 398 476
#     4  12  27  46  77 114 156 204 263 332 398 476
#     4  12  27  47  76 115 161 203 260 323 400 479
#     4  11  24  44  76 110 150 205 254 324 394 475
#     4  11  28  46  76 110 154 205 274 328 400 465
#
# _framework density 24.476364
#
# number of rings (size 3 to 8) (size 9 to 14) (size 15 to 20)
#    0.000    0.500    3.750    3.000    3.500    8.000 
#    0.000    0.000    0.000    0.000    0.000    0.000 
#    0.000    0.000    0.000    0.000    0.000    0.000 
#
# Total GULP energy -89193.055653 kJ/mol
# GULP energy per Si atom -5574.565978 kJ/mol
# Density = 2.442065 g / cm^3
# Si number density = 24.476364 Si / 1000 Ang^3
#
#
#
# Elastic Constant Matrix: (Units=GPa)
#
#
# Indices 1 2 3 4 5 6 
#
# 1 56.4520 34.4016 21.4883 0.0000 11.3045 0.0000
# 2 34.4016 132.0171 7.3734 0.0000 4.7189 0.0000
# 3 21.4883 7.3734 93.3032 0.0000 -11.8730 0.0000
# 4 0.0000 0.0000 0.0000 17.0959 0.0000 10.2577
# 5 11.3045 4.7189 -11.8730 0.0000 37.7356 0.0000
# 6 0.0000 0.0000 0.0000 10.2577 0.0000 8.9007
#
#
#
# Elastic Compliance Matrix: (Units=1/GPa)
#
#
# Indices 1 2 3 4 5 6 
#
# 1 0.025686 -0.006003 -0.006589 0.000000 -0.009017 0.000000
# 2 -0.006003 0.009063 0.000782 0.000000 0.000911 0.000000
# 3 -0.006589 0.000782 0.012930 0.000000 0.005944 0.000000
# 4 0.000000 0.000000 0.000000 0.189599 0.000000 -0.218505
# 5 -0.009017 0.000911 0.005944 0.000000 0.030958 0.000000
# 6 0.000000 0.000000 0.000000 -0.218505 0.000000 0.364169
#
#
# Mechanical properties :
#
#
# Convention : Reuss Voigt Hill
#
# Bulk Modulus (GPa) = 41.56336 45.36654 43.46495
# Shear Modulus (GPa) = 7.52964 27.31372 17.42168
#
# Velocity S-wave (km/s) = 1.75584 3.34417 2.67081
# Velocity P-wave (km/s) = 4.59658 5.78674 5.22565
#
# Compressibility (1/GPa) = 0.02405965
#
# Stress axis : x y z
#
# Youngs Moduli (GPa) = 38.93159 110.34084 77.34113
#
# Poissons Ratio (x) = 0.66239 0.50958
# Poissons Ratio (y) = 0.23371 -0.06050
# Poissons Ratio (z) = 0.25651 -0.08632
#
# Static dielectric constant tensor:
#      x y z
#    x 2.246810 0.000000 -0.029490 
#    y 0.000000 2.379560 0.000000 
#    z -0.029490 0.000000 1.983590 
# 
# From -- ./inp_files/13556.got.cif
#   From: 2010.05.17/outbox.cif.g08.bks.cpg/sg9_7_cif.got.tgz:13556.got - 2010.06.03 20:04:27.
