data_PCOD9140366
_publ_section_title
;
Structure prediction by ZEFSAII (Michael W. Deem and Ramdas Pophale) SiO2 
 PCOD9140366
Probable space group: C C
;
_chemical_formula_sum "Si O2"
_cell_formula_units_Z 32
_cell_length_a 11.667675
_cell_length_b 9.713653
_cell_length_c 29.011231
_cell_angle_alpha 90.000000
_cell_angle_beta 150.764383
_cell_angle_gamma 90.000000
_cell_volume 1605.871090
_symmetry_space_group_name_H-M "C C"
_symmetry_group_IT_number 9
_symmetry_cell_setting 'monoclinic'
loop_
_space_group_symop_operation_xyz
x,y,z
x,-y,1/2+z
1/2+x,1/2+y,z
1/2+x,1/2-y,1/2+z
loop_
_atom_site_type_symbol
_atom_site_label
_atom_site_fract_x
_atom_site_fract_y
_atom_site_fract_z
Si Si1 0.878780 0.576410 0.063210
Si Si2 0.991821 0.066048 0.178226
Si Si3 0.838039 0.065897 0.867756
Si Si4 0.159268 0.280491 0.825064
Si Si5 0.451082 0.076285 0.982713
Si Si6 0.213143 0.654175 0.721541
Si Si7 0.170439 0.219343 0.720834
Si Si8 0.616654 0.345656 0.824423
O O1 0.053450 0.452107 0.137402
O O2 0.950810 0.704638 0.120157
O O3 0.608568 0.535613 0.973467
O O4 0.914840 0.616701 0.022922
O O5 0.061022 0.214316 0.182905
O O6 0.031959 0.079287 0.247575
O O7 0.721359 0.035599 0.072525
O O8 0.147419 0.945391 0.210518
O O9 0.797805 0.079108 0.798376
O O10 0.768700 0.214136 0.863026
O O11 0.682558 0.945199 0.835506
O O12 0.379052 0.204392 0.925712
O O13 0.164589 0.249955 0.772853
O O14 0.932653 0.214170 0.770077
O O15 0.276489 0.951921 0.908585
O O16 0.397208 0.285695 0.775935
#
# Coordination Sequence:
#
# PCOD9140366 Si02
#       8
#     4   4   4   4   4   4   4   4
#     4  12  23  43  68  99 133 181 229 273 340 413
#     4  11  24  43  68  98 139 173 229 281 338 407
#     4  11  24  43  68  98 139 173 229 281 338 407
#     4  12  23  43  70  98 134 181 223 281 343 398
#     4  12  23  43  68  99 133 181 229 273 340 413
#     4  11  24  44  67  99 136 180 222 285 341 401
#     4  12  23  43  70  98 134 181 223 281 343 398
#     4  11  24  44  67  99 136 180 222 285 341 401
#
# _framework density 19.926879
#
# number of rings (size 3 to 8) (size 9 to 14) (size 15 to 20)
#    0.000    0.500    5.000    4.500    0.000    0.000 
#    0.000    1.250    0.000    0.000    0.000    0.000 
#    0.000    0.000    0.000    0.000    0.000    0.000 
#
# Total GULP energy -89484.289734 kJ/mol
# GULP energy per Si atom -5592.768108 kJ/mol
# Density = 1.988152 g / cm^3
# Si number density = 19.926879 Si / 1000 Ang^3
#
#
#
# Elastic Constant Matrix: (Units=GPa)
#
#
# Indices 1 2 3 4 5 6 
#
# 1 95.0888 36.8547 48.8350 0.0000 -6.3232 0.0000
# 2 36.8547 129.6450 50.5138 0.0000 -9.6392 0.0000
# 3 48.8350 50.5138 126.1143 0.0003 -4.7216 0.0000
# 4 0.0000 0.0000 0.0003 35.0244 -0.0001 -2.0742
# 5 -6.3232 -9.6392 -4.7216 -0.0001 44.4460 0.0000
# 6 0.0000 0.0000 0.0000 -2.0742 0.0000 31.0506
#
#
#
# Elastic Compliance Matrix: (Units=1/GPa)
#
#
# Indices 1 2 3 4 5 6 
#
# 1 0.013661 -0.002087 -0.004416 0.000000 0.001022 0.000000
# 2 -0.002087 0.009573 -0.002972 0.000000 0.001464 0.000000
# 3 -0.004416 -0.002972 0.010825 0.000000 -0.000123 0.000000
# 4 0.000000 0.000000 0.000000 0.028665 0.000000 0.001915
# 5 0.001022 0.001464 -0.000123 0.000000 0.022949 0.000000
# 6 0.000000 0.000000 0.000000 0.001915 0.000000 0.032333
#
#
# Mechanical properties :
#
#
# Convention : Reuss Voigt Hill
#
# Bulk Modulus (GPa) = 66.17865 69.25059 67.71462
# Shear Modulus (GPa) = 35.21320 36.41383 35.81352
#
# Velocity S-wave (km/s) = 4.20827 4.27942 4.24399
# Velocity P-wave (km/s) = 7.54292 7.69712 7.62041
#
# Compressibility (1/GPa) = 0.01511061
#
# Stress axis : x y z
#
# Youngs Moduli (GPa) = 73.20022 104.45748 92.37990
#
# Poissons Ratio (x) = 0.21800 0.40793
# Poissons Ratio (y) = 0.15277 0.27451
# Poissons Ratio (z) = 0.32324 0.31040
#
# Static dielectric constant tensor:
#      x y z
#    x 1.696510 0.000000 0.014420 
#    y 0.000000 1.705920 0.000000 
#    z 0.014420 0.000000 1.684970 
# 
# From -- ./inp_files/24254.got.cif
#   From: 2010.05.17/outbox.cif.g08.bks.cpg/sg9_13_cif.got.tgz:24254.got - 2010.06.03 20:04:27.
