data_PCOD9140555
_publ_section_title
;
Structure prediction by ZEFSAII (Michael W. Deem and Ramdas Pophale) SiO2 
 PCOD9140555
Probable space group: C C
;
_chemical_formula_sum "Si O2"
_cell_formula_units_Z 28
_cell_length_a 16.586002
_cell_length_b 11.643385
_cell_length_c 11.613008
_cell_angle_alpha 90.000000
_cell_angle_beta 150.080192
_cell_angle_gamma 90.000000
_cell_volume 1118.616391
_symmetry_space_group_name_H-M "C C"
_symmetry_group_IT_number 9
_symmetry_cell_setting 'monoclinic'
loop_
_space_group_symop_operation_xyz
x,y,z
x,-y,1/2+z
1/2+x,1/2+y,z
1/2+x,1/2-y,1/2+z
loop_
_atom_site_type_symbol
_atom_site_label
_atom_site_fract_x
_atom_site_fract_y
_atom_site_fract_z
Si Si1 0.196190 0.802504 0.658720
Si Si2 0.917390 0.497360 0.852981
Si Si3 0.251994 0.182696 0.784583
Si Si4 0.962690 0.141711 0.075226
Si Si5 0.597760 0.749197 0.800655
Si Si6 0.235598 0.509712 0.409380
Si Si7 0.084932 0.342818 0.396184
O O1 0.291414 0.689627 0.816037
O O2 0.076054 0.778164 0.406020
O O3 0.100089 0.857891 0.646886
O O4 0.338799 0.874342 0.772884
O O5 0.776803 0.576045 0.733150
O O6 0.961375 0.558565 0.787221
O O7 0.080558 0.497995 0.131856
O O8 0.178392 0.155910 0.817305
O O9 0.156808 0.280910 0.597651
O O10 0.430188 0.225313 0.032457
O O11 0.905696 0.021298 0.060103
O O12 0.013689 0.240441 0.230265
O O13 0.709457 0.863638 0.928047
O O14 0.213972 0.413195 0.481307
#
# Coordination Sequence:
#
# PCOD9140555 Si02
#       7
#     4   4   4   4   4   4   4
#     4  12  26  48  75 113 151 189 253 310 369 435
#     4  11  26  47  76 106 148 198 239 309 377 437
#     4  11  24  48  70 105 143 195 242 298 368 446
#     4  12  26  47  76 111 147 194 249 306 370 449
#     4  11  27  46  74 106 151 190 245 306 367 434
#     4  11  25  46  76 105 146 199 240 299 383 436
#     4  12  24  48  79 104 150 191 254 298 372 447
#
# _framework density 25.030923999999999
#
# number of rings (size 3 to 8) (size 9 to 14) (size 15 to 20)
#    0.000    0.571    5.714    1.714    8.000    1.143 
#    5.143    0.000    0.000    0.000    0.000    0.000 
#    0.000    0.000    0.000    0.000    0.000    0.000 
#
# Total GULP energy -78340.261839 kJ/mol
# GULP energy per Si atom -5595.732988 kJ/mol
# Density = 2.497395 g / cm^3
# Si number density = 25.030924 Si / 1000 Ang^3
#
#
#
# Elastic Constant Matrix: (Units=GPa)
#
#
# Indices 1 2 3 4 5 6 
#
# 1 170.0721 43.4264 29.9515 0.0000 4.2461 0.0000
# 2 43.4264 66.3035 5.3603 0.0000 3.3677 0.0000
# 3 29.9515 5.3603 57.6519 0.0000 -12.5651 0.0000
# 4 0.0000 0.0000 0.0000 18.4913 0.0000 22.2923
# 5 4.2461 3.3677 -12.5651 0.0000 33.8999 0.0000
# 6 0.0000 0.0000 0.0000 22.2923 0.0000 39.4908
#
#
#
# Elastic Compliance Matrix: (Units=1/GPa)
#
#
# Indices 1 2 3 4 5 6 
#
# 1 0.007852 -0.004710 -0.004084 0.000000 -0.002029 0.000000
# 2 -0.004710 0.018175 0.000535 0.000000 -0.001017 0.000000
# 3 -0.004084 0.000535 0.021233 0.000000 0.008328 0.000000
# 4 0.000000 0.000000 0.000000 0.169279 0.000000 -0.095557
# 5 -0.002029 -0.001017 0.008328 0.000000 0.032941 0.000000
# 6 0.000000 0.000000 0.000000 -0.095557 0.000000 0.079264
#
#
# Mechanical properties :
#
#
# Convention : Reuss Voigt Hill
#
# Bulk Modulus (GPa) = 32.52740 50.16712 41.34726
# Shear Modulus (GPa) = 14.06435 32.72901 23.39668
#
# Velocity S-wave (km/s) = 2.37297 3.61992 3.06062
# Velocity P-wave (km/s) = 4.53112 6.12840 5.38927
#
# Compressibility (1/GPa) = 0.03074331
#
# Stress axis : x y z
#
# Youngs Moduli (GPa) = 127.35074 55.01980 47.09760
#
# Poissons Ratio (x) = 0.25913 0.19234
# Poissons Ratio (y) = 0.59979 -0.02521
# Poissons Ratio (z) = 0.52008 -0.02945
#
# Static dielectric constant tensor:
#      x y z
#    x 1.990520 0.000000 -0.012660 
#    y 0.000000 2.071420 0.000000 
#    z -0.012660 0.000000 1.966590 
# 
# From -- ./inp_files/19337.got.cif
#   From: 2010.05.17/outbox.cif.g08.bks.cpg/sg9_10_cif.got.tgz:19337.got - 2010.06.03 20:04:27.
