data_PCOD9140453
_publ_section_title
;
Structure prediction by ZEFSAII (Michael W. Deem and Ramdas Pophale) SiO2 
 PCOD9140453
Probable space group: C C
;
_chemical_formula_sum "Si O2"
_cell_formula_units_Z 32
_cell_length_a 14.415306
_cell_length_b 12.132215
_cell_length_c 10.470209
_cell_angle_alpha 90.000000
_cell_angle_beta 134.182791
_cell_angle_gamma 90.000000
_cell_volume 1313.140307
_symmetry_space_group_name_H-M "C C"
_symmetry_group_IT_number 9
_symmetry_cell_setting 'monoclinic'
loop_
_space_group_symop_operation_xyz
x,y,z
x,-y,1/2+z
1/2+x,1/2+y,z
1/2+x,1/2-y,1/2+z
loop_
_atom_site_type_symbol
_atom_site_label
_atom_site_fract_x
_atom_site_fract_y
_atom_site_fract_z
Si Si1 0.579540 0.820538 0.995240
Si Si2 0.068107 0.508247 0.693818
Si Si3 0.509119 0.415702 0.852441
Si Si4 0.897667 0.680536 0.690788
Si Si5 0.731919 0.570947 0.754783
Si Si6 0.809214 0.084660 0.551365
Si Si7 0.689917 0.651487 0.299825
Si Si8 0.397779 0.804078 0.589573
O O1 0.708820 0.839778 0.036059
O O2 0.455181 0.799270 0.788131
O O3 0.563152 0.934263 0.053767
O O4 0.607572 0.726133 0.126111
O O5 0.215496 0.491631 0.878018
O O6 0.993546 0.589681 0.721140
O O7 0.001507 0.388287 0.627060
O O8 0.462924 0.289880 0.804693
O O9 0.401077 0.507906 0.724339
O O10 0.602990 0.415731 0.818011
O O11 0.589811 0.433411 0.058276
O O12 0.816913 0.627379 0.727111
O O13 0.795021 0.717030 0.483184
O O14 0.768457 0.443776 0.804427
O O15 0.764647 0.636215 0.916908
O O16 0.885789 0.176054 0.542736
#
# Coordination Sequence:
#
# PCOD9140453 Si02
#       8
#     4   4   4   4   4   4   4   4
#     4  11  26  46  79 105 146 198 251 293 362 445
#     4  11  25  47  77 105 144 192 247 301 364 431
#     4  11  26  48  72 106 149 194 246 301 362 438
#     4  11  25  46  77 106 143 194 250 300 364 441
#     4  11  27  44  75 107 152 190 242 305 378 426
#     4  11  28  45  73 112 150 187 246 306 372 428
#     4  11  24  45  76 107 140 197 250 298 357 441
#     4  11  27  47  69 112 150 192 238 304 371 436
#
# _framework density 24.369064000000002
#
# number of rings (size 3 to 8) (size 9 to 14) (size 15 to 20)
#    0.000    1.000    2.500    1.500    8.750    9.000 
#    0.000    0.000    0.000    0.000    0.000    0.000 
#    0.000    0.000    0.000    0.000    0.000    0.000 
#
# Total GULP energy -89528.701888 kJ/mol
# GULP energy per Si atom -5595.543868 kJ/mol
# Density = 2.431360 g / cm^3
# Si number density = 24.369064 Si / 1000 Ang^3
#
#
#
# Elastic Constant Matrix: (Units=GPa)
#
#
# Indices 1 2 3 4 5 6 
#
# 1 47.9046 32.1138 17.2754 0.0000 3.7541 0.0000
# 2 32.1138 104.4180 56.0079 0.0000 9.1217 0.0000
# 3 17.2754 56.0079 223.9984 0.0000 7.4976 0.0000
# 4 0.0000 0.0000 0.0000 37.7865 0.0000 4.9285
# 5 3.7541 9.1217 7.4976 0.0000 24.9538 0.0000
# 6 0.0000 0.0000 0.0000 4.9285 0.0000 34.5228
#
#
#
# Elastic Compliance Matrix: (Units=1/GPa)
#
#
# Indices 1 2 3 4 5 6 
#
# 1 0.026322 -0.008009 0.000007 0.000000 -0.001035 0.000000
# 2 -0.008009 0.013763 -0.002723 0.000000 -0.003008 0.000000
# 3 0.000007 -0.002723 0.005163 0.000000 -0.000557 0.000000
# 4 0.000000 0.000000 0.000000 0.026967 0.000000 -0.003850
# 5 -0.001035 -0.003008 -0.000557 0.000000 0.041497 0.000000
# 6 0.000000 0.000000 0.000000 -0.003850 0.000000 0.029516
#
#
# Mechanical properties :
#
#
# Convention : Reuss Voigt Hill
#
# Bulk Modulus (GPa) = 42.01795 65.23503 53.62649
# Shear Modulus (GPa) = 28.96693 37.51422 33.24057
#
# Velocity S-wave (km/s) = 3.45146 3.92780 3.69731
# Velocity P-wave (km/s) = 5.75875 6.88461 6.34669
#
# Compressibility (1/GPa) = 0.02379935
#
# Stress axis : x y z
#
# Youngs Moduli (GPa) = 37.99071 72.65666 193.67588
#
# Poissons Ratio (x) = 0.58190 -0.00137
# Poissons Ratio (y) = 0.30426 0.52738
# Poissons Ratio (z) = -0.00027 0.19784
#
# Static dielectric constant tensor:
#      x y z
#    x 1.999200 0.000000 0.005720 
#    y 0.000000 1.872430 0.000000 
#    z 0.005720 0.000000 1.944760 
# 
# From -- ./inp_files/19322.got.cif
#   From: 2010.05.17/outbox.cif.g08.bks.cpg/sg9_10_cif.got.tgz:19322.got - 2010.06.03 20:04:27.
