data_PCOD9140533
_publ_section_title
;
Structure prediction by ZEFSAII (Michael W. Deem and Ramdas Pophale) SiO2 
 PCOD9140533
Probable space group: C C
;
_chemical_formula_sum "Si O2"
_cell_formula_units_Z 32
_cell_length_a 5.455515
_cell_length_b 12.836715
_cell_length_c 18.261858
_cell_angle_alpha 90.000000
_cell_angle_beta 110.007481
_cell_angle_gamma 90.000000
_cell_volume 1201.710313
_symmetry_space_group_name_H-M "C C"
_symmetry_group_IT_number 9
_symmetry_cell_setting 'monoclinic'
loop_
_space_group_symop_operation_xyz
x,y,z
x,-y,1/2+z
1/2+x,1/2+y,z
1/2+x,1/2-y,1/2+z
loop_
_atom_site_type_symbol
_atom_site_label
_atom_site_fract_x
_atom_site_fract_y
_atom_site_fract_z
Si Si1 0.313310 0.477672 0.027570
Si Si2 0.530352 0.537028 0.386358
Si Si3 0.134429 0.669714 0.282616
Si Si4 0.397389 0.815330 0.002890
Si Si5 0.845411 0.533232 0.165554
Si Si6 0.677123 0.175827 0.087835
Si Si7 0.481306 0.691347 0.880750
Si Si8 0.970955 0.302561 0.225357
O O1 0.574265 0.504376 0.100402
O O2 0.156804 0.583654 0.026972
O O3 0.372373 0.470152 0.947558
O O4 0.155131 0.381374 0.048225
O O5 0.368009 0.587332 0.304266
O O6 0.768327 0.609814 0.430121
O O7 0.599566 0.419749 0.375364
O O8 0.203240 0.770947 0.240641
O O9 0.883493 0.597656 0.244514
O O10 0.150877 0.717406 0.364419
O O11 0.472513 0.712108 0.966135
O O12 0.174717 0.781840 0.038533
O O13 0.968256 0.418703 0.192230
O O14 0.996598 0.619117 0.130223
O O15 0.942570 0.214762 0.158050
O O16 0.207894 0.700998 0.807624
#
# Coordination Sequence:
#
# PCOD9140533 Si02
#       8
#     4   4   4   4   4   4   4   4
#     4  12  25  46  73 110 151 201 256 320 391 480
#     4  12  25  45  73 108 150 193 253 312 390 470
#     4  11  25  45  74 109 148 198 261 318 387 468
#     4  12  27  47  76 112 152 201 263 322 389 474
#     4  11  26  48  76 110 154 203 262 327 401 469
#     4  11  25  46  74 111 150 201 260 323 392 470
#     4  12  25  46  76 107 146 201 248 314 390 466
#     4  11  24  47  74 109 149 192 257 320 386 467
#
# _framework density 26.628715
#
# number of rings (size 3 to 8) (size 9 to 14) (size 15 to 20)
#    0.000    0.500    5.000    3.000    0.000    9.000 
#    2.250    0.000    0.000    0.000    0.000    0.000 
#    0.000    0.000    0.000    0.000    0.000    0.000 
#
# Total GULP energy -89206.160213 kJ/mol
# GULP energy per Si atom -5575.385013 kJ/mol
# Density = 2.656811 g / cm^3
# Si number density = 26.628715 Si / 1000 Ang^3
#
#
#
# Elastic Constant Matrix: (Units=GPa)
#
#
# Indices 1 2 3 4 5 6 
#
# 1 43.5801 43.5107 9.0484 0.0000 14.2847 0.0000
# 2 43.5107 167.8907 44.9539 0.0000 11.1273 0.0000
# 3 9.0484 44.9539 70.6375 0.0000 20.3323 0.0000
# 4 0.0000 0.0000 0.0000 58.3658 0.0000 -3.4291
# 5 14.2847 11.1273 20.3323 0.0000 49.7880 0.0000
# 6 0.0000 0.0000 0.0000 -3.4291 0.0000 38.8764
#
#
#
# Elastic Compliance Matrix: (Units=1/GPa)
#
#
# Indices 1 2 3 4 5 6 
#
# 1 0.034705 -0.009532 0.004389 0.000000 -0.009619 0.000000
# 2 -0.009532 0.009802 -0.005862 0.000000 0.002938 0.000000
# 3 0.004389 -0.005862 0.019617 0.000000 -0.007960 0.000000
# 4 0.000000 0.000000 0.000000 0.017223 0.000000 0.001519
# 5 -0.009619 0.002938 -0.007960 0.000000 0.025439 0.000000
# 6 0.000000 0.000000 0.000000 0.001519 0.000000 0.025857
#
#
# Mechanical properties :
#
#
# Convention : Reuss Voigt Hill
#
# Bulk Modulus (GPa) = 23.74565 53.01492 38.38028
# Shear Modulus (GPa) = 29.64043 41.71239 35.67641
#
# Velocity S-wave (km/s) = 3.33994 3.96213 3.66426
# Velocity P-wave (km/s) = 4.87957 6.39401 5.68743
#
# Compressibility (1/GPa) = 0.04211297
#
# Stress axis : x y z
#
# Youngs Moduli (GPa) = 28.81462 102.02507 50.97701
#
# Poissons Ratio (x) = 0.97249 -0.22376
# Poissons Ratio (y) = 0.27466 0.29885
# Poissons Ratio (z) = -0.12648 0.59812
#
# Static dielectric constant tensor:
#      x y z
#    x 2.198050 0.000000 -0.050750 
#    y 0.000000 2.027400 0.000000 
#    z -0.050750 0.000000 2.170790 
# 
# From -- ./inp_files/32110.got.cif
#   From: 2010.05.17/outbox.cif.g08.bks.cpg/sg9_17_cif.got.tgz:32110.got - 2010.06.03 20:04:27.
