data_PCOD9140811
_publ_section_title
;
Structure prediction by ZEFSAII (Michael W. Deem and Ramdas Pophale) SiO2 
 PCOD9140811
Probable space group: C C
;
_chemical_formula_sum "Si O2"
_cell_formula_units_Z 28
_cell_length_a 9.579248
_cell_length_b 13.315971
_cell_length_c 9.552811
_cell_angle_alpha 90.000000
_cell_angle_beta 59.944510
_cell_angle_gamma 90.000000
_cell_volume 1054.685476
_symmetry_space_group_name_H-M "C C"
_symmetry_group_IT_number 9
_symmetry_cell_setting 'monoclinic'
loop_
_space_group_symop_operation_xyz
x,y,z
x,-y,1/2+z
1/2+x,1/2+y,z
1/2+x,1/2-y,1/2+z
loop_
_atom_site_type_symbol
_atom_site_label
_atom_site_fract_x
_atom_site_fract_y
_atom_site_fract_z
Si Si1 0.983070 0.249889 0.818220
Si Si2 0.876690 0.954170 0.849556
Si Si3 0.227380 0.996837 0.055114
Si Si4 0.031050 0.832102 0.001514
Si Si5 0.678600 0.943623 0.673938
Si Si6 0.000172 0.647604 0.837807
Si Si7 0.328383 0.816466 0.162989
O O1 0.954286 0.190274 0.690772
O O2 0.037431 0.361596 0.743301
O O3 0.146366 0.202656 0.800974
O O4 0.855747 0.255359 0.006030
O O5 0.788510 0.918736 0.753785
O O6 0.899767 0.873741 0.960570
O O7 0.058144 0.978856 0.712709
O O8 0.778107 0.040789 0.981012
O O9 0.335763 0.931835 0.108025
O O10 0.167993 0.917448 0.962956
O O11 0.328434 0.095756 0.967277
O O12 0.075250 0.725937 0.908924
O O13 0.605078 0.051163 0.750061
O O14 0.960327 0.703462 0.712383
#
# Coordination Sequence:
#
# PCOD9140811 Si02
#       7
#     4   4   4   4   4   4   4
#     4  11  26  46  74 110 157 197 263 324 402 473
#     4  12  26  48  76 113 157 206 259 327 409 478
#     4  11  26  51  78 113 161 209 263 336 406 489
#     4  11  27  50  78 116 152 212 271 324 407 488
#     4  12  26  47  76 111 159 202 257 331 403 479
#     4  12  27  49  83 112 156 209 270 330 402 494
#     4  11  26  47  77 113 152 205 259 334 401 485
#
# _framework density 26.548197999999999
#
# number of rings (size 3 to 8) (size 9 to 14) (size 15 to 20)
#    0.000    0.571    2.857    3.429    6.000    6.857 
#    0.000    0.000    0.000    0.000    0.000    0.000 
#    0.000    0.000    0.000    0.000    0.000    0.000 
#
# Total GULP energy -78449.106549 kJ/mol
# GULP energy per Si atom -5603.507611 kJ/mol
# Density = 2.648777 g / cm^3
# Si number density = 26.548198 Si / 1000 Ang^3
#
#
#
# Elastic Constant Matrix: (Units=GPa)
#
#
# Indices 1 2 3 4 5 6 
#
# 1 74.5379 2.2633 50.5377 0.0000 12.2143 0.0000
# 2 2.2633 92.8739 17.7176 0.0000 1.7017 0.0000
# 3 50.5377 17.7176 105.3079 0.0000 1.8202 0.0000
# 4 0.0000 0.0000 0.0000 45.8440 0.0000 15.7728
# 5 12.2143 1.7017 1.8202 0.0000 55.9750 0.0000
# 6 0.0000 0.0000 0.0000 15.7728 0.0000 54.0340
#
#
#
# Elastic Compliance Matrix: (Units=1/GPa)
#
#
# Indices 1 2 3 4 5 6 
#
# 1 0.021047 0.001528 -0.010283 0.000000 -0.004305 0.000000
# 2 0.001528 0.011240 -0.002614 0.000000 -0.000590 0.000000
# 3 -0.010283 -0.002614 0.014839 0.000000 0.001841 0.000000
# 4 0.000000 0.000000 0.000000 0.024248 0.000000 -0.007078
# 5 -0.004305 -0.000590 0.001841 0.000000 0.018763 0.000000
# 6 0.000000 0.000000 0.000000 -0.007078 0.000000 0.020573
#
#
# Mechanical properties :
#
#
# Convention : Reuss Voigt Hill
#
# Bulk Modulus (GPa) = 41.00607 45.97297 43.48952
# Shear Modulus (GPa) = 35.31635 44.65068 39.98351
#
# Velocity S-wave (km/s) = 3.65125 4.10551 3.88503
# Velocity P-wave (km/s) = 5.76671 6.31095 6.04495
#
# Compressibility (1/GPa) = 0.02438663
#
# Stress axis : x y z
#
# Youngs Moduli (GPa) = 47.51225 88.97168 67.39037
#
# Poissons Ratio (x) = -0.13592 0.69299
# Poissons Ratio (y) = -0.07259 0.17616
# Poissons Ratio (z) = 0.48858 0.23257
#
# Static dielectric constant tensor:
#      x y z
#    x 2.023490 0.000000 0.001900 
#    y 0.000000 2.201780 0.000000 
#    z 0.001900 0.000000 2.058600 
# 
# From -- ./inp_files/7532.got.cif
#   From: 2010.05.17/outbox.cif.g08.bks.cpg/sg9_4_cif.got.tgz:7532.got - 2010.06.03 20:04:27.
