data_PCOD9140932
_publ_section_title
;
Structure prediction by ZEFSAII (Michael W. Deem and Ramdas Pophale) SiO2 
 PCOD9140932
Probable space group: C C
;
_chemical_formula_sum "Si O2"
_cell_formula_units_Z 32
_cell_length_a 18.004542
_cell_length_b 11.579200
_cell_length_c 13.622804
_cell_angle_alpha 90.000000
_cell_angle_beta 27.965389
_cell_angle_gamma 90.000000
_cell_volume 1331.811223
_symmetry_space_group_name_H-M "C C"
_symmetry_group_IT_number 9
_symmetry_cell_setting 'monoclinic'
loop_
_space_group_symop_operation_xyz
x,y,z
x,-y,1/2+z
1/2+x,1/2+y,z
1/2+x,1/2-y,1/2+z
loop_
_atom_site_type_symbol
_atom_site_label
_atom_site_fract_x
_atom_site_fract_y
_atom_site_fract_z
Si Si1 0.834620 0.451834 0.262840
Si Si2 0.004772 0.761506 0.505948
Si Si3 0.250032 0.299963 0.553096
Si Si4 0.392834 0.469798 0.532835
Si Si5 0.583056 0.711701 0.137216
Si Si6 0.959588 0.417278 0.786120
Si Si7 0.733511 0.432355 0.691175
Si Si8 0.248617 0.329173 0.111483
O O1 0.905438 0.353916 0.110176
O O2 0.720200 0.384145 0.472122
O O3 0.962687 0.513917 0.180706
O O4 0.744362 0.534281 0.293118
O O5 0.898686 0.875277 0.613412
O O6 0.142801 0.756109 0.265024
O O7 0.066152 0.752808 0.544531
O O8 0.371986 0.388433 0.461896
O O9 0.348696 0.194470 0.394643
O O10 0.127341 0.370403 0.629064
O O11 0.560928 0.532077 0.351788
O O12 0.252630 0.563592 0.681662
O O13 0.416782 0.658860 0.361515
O O14 0.625771 0.811290 0.165573
O O15 0.867305 0.497356 0.973813
O O16 0.748731 0.294753 0.663672
#
# Coordination Sequence:
#
# PCOD9140932 Si02
#       8
#     4   4   4   4   4   4   4   4
#     4  12  25  44  78 103 145 195 256 309 373 454
#     4  12  23  44  72 111 138 193 250 307 366 452
#     4  12  25  43  75 106 149 195 252 309 388 448
#     4  12  25  44  73 105 144 200 249 305 376 460
#     4  12  23  41  71 106 141 186 250 299 367 446
#     4  12  23  46  73 107 150 198 245 318 379 449
#     4  12  23  49  70 102 152 200 242 315 379 446
#     4  12  27  43  70 106 149 195 240 306 388 435
#
# _framework density 24.027429999999999
#
# number of rings (size 3 to 8) (size 9 to 14) (size 15 to 20)
#    0.000    0.000    8.750    0.750    3.500    0.000 
#    2.250    1.250    0.000    0.000    0.000    0.000 
#    0.000    0.000    0.000    0.000    0.000    0.000 
#
# Total GULP energy -89511.452325 kJ/mol
# GULP energy per Si atom -5594.465770 kJ/mol
# Density = 2.397274 g / cm^3
# Si number density = 24.027430 Si / 1000 Ang^3
#
#
#
# Elastic Constant Matrix: (Units=GPa)
#
#
# Indices 1 2 3 4 5 6 
#
# 1 152.8481 60.1913 17.1368 0.0000 -23.3104 0.0000
# 2 60.1913 156.2537 9.6146 0.0000 1.6279 0.0000
# 3 17.1368 9.6146 45.2411 0.0000 -3.3758 0.0000
# 4 0.0000 0.0000 0.0000 29.8607 0.0000 -5.6390
# 5 -23.3104 1.6279 -3.3758 0.0000 16.8181 0.0000
# 6 0.0000 0.0000 0.0000 -5.6390 0.0000 52.7240
#
#
#
# Elastic Compliance Matrix: (Units=1/GPa)
#
#
# Indices 1 2 3 4 5 6 
#
# 1 0.010647 -0.004129 -0.002055 0.000000 0.014745 0.000000
# 2 -0.004129 0.008100 -0.000653 0.000000 -0.006638 0.000000
# 3 -0.002055 -0.000653 0.023160 0.000000 0.001863 0.000000
# 4 0.000000 0.000000 0.000000 0.034179 0.000000 0.003656
# 5 0.014745 -0.006638 0.001863 0.000000 0.080913 0.000000
# 6 0.000000 0.000000 0.000000 0.003656 0.000000 0.019358
#
#
# Mechanical properties :
#
#
# Convention : Reuss Voigt Hill
#
# Bulk Modulus (GPa) = 35.41905 58.69203 47.05554
# Shear Modulus (GPa) = 25.07001 37.70724 31.38863
#
# Velocity S-wave (km/s) = 3.23366 3.96579 3.61829
# Velocity P-wave (km/s) = 5.35865 6.74167 6.08955
#
# Compressibility (1/GPa) = 0.02823340
#
# Stress axis : x y z
#
# Youngs Moduli (GPa) = 93.91938 123.46290 43.17770
#
# Poissons Ratio (x) = 0.50974 0.08875
# Poissons Ratio (y) = 0.38776 0.02818
# Poissons Ratio (z) = 0.19305 0.08058
#
# Static dielectric constant tensor:
#      x y z
#    x 1.971380 0.000000 -0.022170 
#    y 0.000000 1.966160 0.000000 
#    z -0.022170 0.000000 1.912970 
# 
# From -- ./inp_files/10736.got.cif
#   From: 2010.05.17/outbox.cif.g08.bks.cpg/sg9_6_cif.got.tgz:10736.got - 2010.06.03 20:04:27.
