data_PCOD9140664
_publ_section_title
;
Structure prediction by ZEFSAII (Michael W. Deem and Ramdas Pophale) SiO2 
 PCOD9140664
Probable space group: C C
;
_chemical_formula_sum "Si O2"
_cell_formula_units_Z 24
_cell_length_a 12.054744
_cell_length_b 16.121189
_cell_length_c 8.503342
_cell_angle_alpha 90.000000
_cell_angle_beta 142.685711
_cell_angle_gamma 90.000000
_cell_volume 1001.731101
_symmetry_space_group_name_H-M "C C"
_symmetry_group_IT_number 9
_symmetry_cell_setting 'monoclinic'
loop_
_space_group_symop_operation_xyz
x,y,z
x,-y,1/2+z
1/2+x,1/2+y,z
1/2+x,1/2-y,1/2+z
loop_
_atom_site_type_symbol
_atom_site_label
_atom_site_fract_x
_atom_site_fract_y
_atom_site_fract_z
Si Si1 0.373340 0.333992 0.498820
Si Si2 0.682439 0.589669 0.536819
Si Si3 0.208443 0.590212 0.522614
Si Si4 0.377027 0.166008 0.304862
Si Si5 0.567928 0.410331 0.266863
Si Si6 0.541924 0.090212 0.781067
O O1 0.562422 0.347308 0.798811
O O2 0.329188 0.404981 0.319011
O O3 0.375184 0.250000 0.401841
O O4 0.207793 0.346434 0.435770
O O5 0.625183 0.500000 0.401840
O O6 0.625183 0.593502 0.651841
O O7 0.896512 0.607198 0.753134
O O8 0.353855 0.607198 0.550548
O O9 0.125184 0.500000 0.401841
O O10 0.042574 0.653566 0.367911
O O11 0.421179 0.095018 0.484671
O O12 0.187946 0.152692 0.004871
#
# Coordination Sequence:
#
# PCOD9140664 Si02
#       6
#     4   4   4   4   4   4
#     4  11  27  48  81 114 158 211 264 334 407 472
#     4  12  26  46  78 116 162 209 272 330 399 487
#     4  11  25  45  79 113 155 212 269 318 399 488
#     4  11  27  48  81 114 158 211 264 334 407 472
#     4  12  26  46  78 116 162 209 272 330 399 487
#     4  11  25  45  79 113 155 212 269 318 399 488
#
# _framework density 23.958527
#
# number of rings (size 3 to 8) (size 9 to 14) (size 15 to 20)
#    0.000    0.667    3.333    3.000   14.000    1.333 
#    0.000    1.667    7.333    0.000    0.000    0.000 
#    0.000    0.000    0.000    0.000    0.000    0.000 
#
# Total GULP energy -67255.171071 kJ/mol
# GULP energy per Si atom -5604.597589 kJ/mol
# Density = 2.390400 g / cm^3
# Si number density = 23.958527 Si / 1000 Ang^3
#
#
#
# Elastic Constant Matrix: (Units=GPa)
#
#
# Indices 1 2 3 4 5 6 
#
# 1 229.9615 79.5013 60.6700 0.0000 41.0005 0.0000
# 2 79.5013 151.1250 76.6001 0.0000 1.2851 0.0000
# 3 60.6700 76.6001 101.1570 0.0000 8.7594 0.0000
# 4 0.0000 0.0000 0.0000 50.2044 0.0000 -10.9747
# 5 41.0005 1.2851 8.7594 0.0000 57.3821 0.0000
# 6 0.0000 0.0000 0.0000 -10.9747 0.0000 35.4358
#
#
#
# Elastic Compliance Matrix: (Units=1/GPa)
#
#
# Indices 1 2 3 4 5 6 
#
# 1 0.006399 -0.002552 -0.001535 0.000000 -0.004281 0.000000
# 2 -0.002552 0.011815 -0.007652 0.000000 0.002727 0.000000
# 3 -0.001535 -0.007652 0.016712 0.000000 -0.001283 0.000000
# 4 0.000000 0.000000 0.000000 0.021365 0.000000 0.006617
# 5 -0.004281 0.002727 -0.001283 0.000000 0.020620 0.000000
# 6 0.000000 0.000000 0.000000 0.006617 0.000000 0.030269
#
#
# Mechanical properties :
#
#
# Convention : Reuss Voigt Hill
#
# Bulk Modulus (GPa) = 87.35339 101.75404 94.55372
# Shear Modulus (GPa) = 37.18165 46.30259 41.74212
#
# Velocity S-wave (km/s) = 3.94371 4.40092 4.17857
# Velocity P-wave (km/s) = 7.56813 8.26966 7.92666
#
# Compressibility (1/GPa) = 0.01144775
#
# Stress axis : x y z
#
# Youngs Moduli (GPa) = 156.27635 84.63750 59.83749
#
# Poissons Ratio (x) = 0.21599 0.09183
# Poissons Ratio (y) = 0.39881 0.45790
# Poissons Ratio (z) = 0.23984 0.64768
#
# Static dielectric constant tensor:
#      x y z
#    x 1.970760 0.000000 0.031050 
#    y 0.000000 1.933540 0.000000 
#    z 0.031050 0.000000 1.908450 
# 
# From -- ./inp_files/7998.got.cif
#   From: 2010.05.17/outbox.cif.g08.bks.cpg/sg9_4_cif.got.tgz:7998.got - 2010.06.03 20:04:27.
