data_PCOD9140972
_publ_section_title
;
Structure prediction by ZEFSAII (Michael W. Deem and Ramdas Pophale) SiO2 
 PCOD9140972
Probable space group: C C
;
_chemical_formula_sum "Si O2"
_cell_formula_units_Z 32
_cell_length_a 12.985128
_cell_length_b 15.305195
_cell_length_c 10.731565
_cell_angle_alpha 90.000000
_cell_angle_beta 32.653267
_cell_angle_gamma 90.000000
_cell_volume 1150.755056
_symmetry_space_group_name_H-M "C C"
_symmetry_group_IT_number 9
_symmetry_cell_setting 'monoclinic'
loop_
_space_group_symop_operation_xyz
x,y,z
x,-y,1/2+z
1/2+x,1/2+y,z
1/2+x,1/2-y,1/2+z
loop_
_atom_site_type_symbol
_atom_site_label
_atom_site_fract_x
_atom_site_fract_y
_atom_site_fract_z
Si Si1 0.246750 0.629995 0.869750
Si Si2 0.967657 0.563590 0.885472
Si Si3 0.793382 0.057425 0.079217
Si Si4 0.517165 0.755093 0.179140
Si Si5 0.773542 0.751748 0.727498
Si Si6 0.814479 0.311640 0.791569
Si Si7 0.083382 0.860912 0.838561
Si Si8 0.710258 0.414696 0.114303
O O1 0.262610 0.558574 0.961460
O O2 0.322008 0.720275 0.857173
O O3 0.400077 0.617600 0.604549
O O4 0.023344 0.647383 0.070978
O O5 0.138645 0.513568 0.780566
O O6 0.011471 0.650594 0.760153
O O7 0.776211 0.583048 0.160437
O O8 0.870154 0.483927 0.911861
O O9 0.018714 0.040545 0.860522
O O10 0.765518 0.151701 0.171872
O O11 0.268864 0.749399 0.392766
O O12 0.524393 0.669994 0.262663
O O13 0.776437 0.661206 0.642831
O O14 0.021598 0.751619 0.515302
O O15 0.696631 0.279595 0.789185
O O16 0.677005 0.369131 0.016535
#
# Coordination Sequence:
#
# PCOD9140972 Si02
#       8
#     4   4   4   4   4   4   4   4
#     4  12  24  44  80 120 158 213 279 355 432 520
#     4  12  30  52  81 129 170 218 303 365 429 534
#     4  12  26  52  85 126 164 222 296 368 441 513
#     4  12  28  53  84 117 174 238 289 343 462 550
#     4  12  26  52  89 120 175 237 291 349 453 559
#     4  12  24  43  83 120 159 208 287 348 431 517
#     4  12  28  52  80 114 168 230 278 359 449 533
#     4  12  26  50  84 128 170 218 293 375 441 506
#
# _framework density 27.807829999999999
#
# number of rings (size 3 to 8) (size 9 to 14) (size 15 to 20)
#    0.000    0.000    7.500    1.500    0.000    4.000 
#    2.250    0.000    0.000    0.000    0.000    0.000 
#    0.000    0.000    0.000    0.000    0.000    0.000 
#
# Total GULP energy -89194.870080 kJ/mol
# GULP energy per Si atom -5574.679380 kJ/mol
# Density = 2.774454 g / cm^3
# Si number density = 27.807830 Si / 1000 Ang^3
#
#
#
# Elastic Constant Matrix: (Units=GPa)
#
#
# Indices 1 2 3 4 5 6 
#
# 1 132.5286 25.8034 55.4667 -0.0056 -43.7925 0.0014
# 2 25.8034 78.4941 63.9922 -0.0069 -29.9926 0.0027
# 3 55.4667 63.9922 210.9654 -0.0106 -26.1313 0.0050
# 4 -0.0056 -0.0069 -0.0106 64.8325 0.0029 -21.5091
# 5 -43.7925 -29.9926 -26.1313 0.0029 60.8059 -0.0002
# 6 0.0014 0.0027 0.0050 -21.5091 -0.0002 27.6162
#
#
#
# Elastic Compliance Matrix: (Units=1/GPa)
#
#
# Indices 1 2 3 4 5 6 
#
# 1 0.010668 0.001090 -0.002236 0.000000 0.007260 0.000000
# 2 0.001090 0.019864 -0.005282 0.000001 0.008313 0.000000
# 3 -0.002236 -0.005282 0.006768 0.000000 -0.001307 0.000000
# 4 0.000000 0.000001 0.000000 0.020799 0.000000 0.016199
# 5 0.007260 0.008313 -0.001307 0.000000 0.025213 -0.000001
# 6 0.000000 0.000000 0.000000 0.016199 -0.000001 0.048827
#
#
# Mechanical properties :
#
#
# Convention : Reuss Voigt Hill
#
# Bulk Modulus (GPa) = 40.90979 79.16808 60.03894
# Shear Modulus (GPa) = 32.64878 49.09930 40.87404
#
# Velocity S-wave (km/s) = 3.43021 4.20654 3.83805
# Velocity P-wave (km/s) = 5.51652 7.21975 6.42483
#
# Compressibility (1/GPa) = 0.02444402
#
# Stress axis : x y z
#
# Youngs Moduli (GPa) = 93.73661 50.34149 147.74459
#
# Poissons Ratio (x) = -0.05488 0.33040
# Poissons Ratio (y) = -0.10219 0.78044
# Poissons Ratio (z) = 0.20962 0.26592
#
# Static dielectric constant tensor:
#      x y z
#    x 2.423340 0.000000 -0.053050 
#    y 0.000000 2.633790 0.000000 
#    z -0.053050 0.000000 2.370110 
# 
# From -- ./inp_files/31389.got.cif
#   From: 2010.05.17/outbox.cif.g08.bks.cpg/sg9_16_cif.got.tgz:31389.got - 2010.06.03 20:04:27.
