data_PCOD9140612
_publ_section_title
;
Structure prediction by ZEFSAII (Michael W. Deem and Ramdas Pophale) SiO2 
 PCOD9140612
Probable space group: C C
;
_chemical_formula_sum "Si O2"
_cell_formula_units_Z 28
_cell_length_a 5.303993
_cell_length_b 13.451662
_cell_length_c 15.403486
_cell_angle_alpha 90.000000
_cell_angle_beta 88.933484
_cell_angle_gamma 90.000000
_cell_volume 1098.810152
_symmetry_space_group_name_H-M "C C"
_symmetry_group_IT_number 9
_symmetry_cell_setting 'monoclinic'
loop_
_space_group_symop_operation_xyz
x,y,z
x,-y,1/2+z
1/2+x,1/2+y,z
1/2+x,1/2-y,1/2+z
loop_
_atom_site_type_symbol
_atom_site_label
_atom_site_fract_x
_atom_site_fract_y
_atom_site_fract_z
Si Si1 0.942520 0.699574 0.173860
Si Si2 0.553925 0.067257 0.921474
Si Si3 0.252210 0.436400 0.063649
Si Si4 0.565279 0.715563 0.440243
Si Si5 0.398046 0.416247 0.250005
Si Si6 0.952046 0.249176 0.071868
Si Si7 0.765043 0.566809 0.318780
O O1 0.700564 0.694520 0.109654
O O2 0.938145 0.612492 0.243775
O O3 0.909495 0.800828 0.228100
O O4 0.207544 0.711541 0.124656
O O5 0.436648 0.176421 0.932287
O O6 0.707750 0.069011 0.830737
O O7 0.377854 0.971621 0.908389
O O8 0.711074 0.031515 0.003736
O O9 0.349760 0.465811 0.157004
O O10 0.011489 0.366416 0.086912
O O11 0.428675 0.357763 0.009537
O O12 0.845119 0.747865 0.473302
O O13 0.577792 0.654722 0.350567
O O14 0.647927 0.467401 0.282154
#
# Coordination Sequence:
#
# PCOD9140612 Si02
#       7
#     4   4   4   4   4   4   4
#     4  11  27  49  80 111 160 210 267 335 408 479
#     4  12  28  46  80 116 155 216 270 333 414 483
#     4  11  26  52  78 114 166 210 277 337 405 496
#     4  12  25  50  75 115 161 210 265 342 406 481
#     4  11  26  49  74 117 157 212 270 335 405 487
#     4  11  24  51  77 112 157 210 265 337 400 482
#     4  12  28  47  78 115 162 212 268 339 406 490
#
# _framework density 25.482108
#
# number of rings (size 3 to 8) (size 9 to 14) (size 15 to 20)
#    0.000    0.571    7.143    0.000    8.000    2.286 
#    2.571    0.000    0.000    0.000    0.000    0.000 
#    0.000    0.000    0.000    0.000    0.000    0.000 
#
# Total GULP energy -78268.432955 kJ/mol
# GULP energy per Si atom -5590.602354 kJ/mol
# Density = 2.542411 g / cm^3
# Si number density = 25.482108 Si / 1000 Ang^3
#
#
#
# Elastic Constant Matrix: (Units=GPa)
#
#
# Indices 1 2 3 4 5 6 
#
# 1 95.9393 16.1032 16.8337 0.0000 -9.3944 0.0000
# 2 16.1032 90.0360 -1.2399 0.0000 -5.0013 0.0000
# 3 16.8337 -1.2399 85.9766 0.0000 -5.9379 0.0000
# 4 0.0000 0.0000 0.0000 58.7860 0.0000 -10.4109
# 5 -9.3944 -5.0013 -5.9379 0.0000 34.7798 0.0000
# 6 0.0000 0.0000 0.0000 -10.4109 0.0000 22.4961
#
#
#
# Elastic Compliance Matrix: (Units=1/GPa)
#
#
# Indices 1 2 3 4 5 6 
#
# 1 0.011350 -0.001923 -0.002082 0.000000 0.002434 0.000000
# 2 -0.001923 0.011529 0.000629 0.000000 0.001246 0.000000
# 3 -0.002082 0.000629 0.012159 0.000000 0.001604 0.000000
# 4 0.000000 0.000000 0.000000 0.018530 0.000000 0.008575
# 5 0.002434 0.001246 0.001604 0.000000 0.029863 0.000000
# 6 0.000000 0.000000 0.000000 0.008575 0.000000 0.048421
#
#
# Mechanical properties :
#
#
# Convention : Reuss Voigt Hill
#
# Bulk Modulus (GPa) = 35.35573 37.26066 36.30819
# Shear Modulus (GPa) = 33.77684 39.22936 36.50310
#
# Velocity S-wave (km/s) = 3.64471 3.92789 3.78894
# Velocity P-wave (km/s) = 5.62287 5.93507 5.78108
#
# Compressibility (1/GPa) = 0.02828396
#
# Stress axis : x y z
#
# Youngs Moduli (GPa) = 88.10812 86.74131 82.24678
#
# Poissons Ratio (x) = 0.16684 0.17123
# Poissons Ratio (y) = 0.16947 -0.05172
# Poissons Ratio (z) = 0.18343 -0.05455
#
# Static dielectric constant tensor:
#      x y z
#    x 2.090840 0.000000 0.042930 
#    y 0.000000 2.015190 0.000000 
#    z 0.042930 0.000000 2.013270 
# 
# From -- ./inp_files/21746.got.cif
#   From: 2010.05.17/outbox.cif.g08.bks.cpg/sg9_11_cif.got.tgz:21746.got - 2010.06.03 20:04:27.
