data_PCOD9140806
_publ_section_title
;
Structure prediction by ZEFSAII (Michael W. Deem and Ramdas Pophale) SiO2 
 PCOD9140806
Probable space group: C C
;
_chemical_formula_sum "Si O2"
_cell_formula_units_Z 32
_cell_length_a 18.110470
_cell_length_b 5.040327
_cell_length_c 14.918814
_cell_angle_alpha 90.000000
_cell_angle_beta 115.611950
_cell_angle_gamma 90.000000
_cell_volume 1228.019374
_symmetry_space_group_name_H-M "C C"
_symmetry_group_IT_number 9
_symmetry_cell_setting 'monoclinic'
loop_
_space_group_symop_operation_xyz
x,y,z
x,-y,1/2+z
1/2+x,1/2+y,z
1/2+x,1/2-y,1/2+z
loop_
_atom_site_type_symbol
_atom_site_label
_atom_site_fract_x
_atom_site_fract_y
_atom_site_fract_z
Si Si1 0.421060 0.003328 0.287270
Si Si2 0.694106 0.762171 0.285585
Si Si3 0.112929 0.922924 0.014205
Si Si4 0.250454 0.789507 0.225208
Si Si5 0.180365 0.424486 0.962780
Si Si6 0.965627 0.340925 0.504211
Si Si7 0.014432 0.709562 0.680983
Si Si8 0.866868 0.107691 0.605577
O O1 0.393093 0.251687 0.212231
O O2 0.343007 0.806124 0.238958
O O3 0.441848 0.004476 0.403053
O O4 0.499254 0.909695 0.271425
O O5 0.748885 0.499622 0.307463
O O6 0.601536 0.653118 0.227598
O O7 0.722506 0.991665 0.231260
O O8 0.694394 0.938744 0.374931
O O9 0.186094 0.933008 0.125161
O O10 0.122964 0.626002 0.984967
O O11 0.137494 0.139247 0.952633
O O12 0.019845 0.915783 0.001888
O O13 0.270515 0.432861 0.053962
O O14 0.021052 0.494824 0.605745
O O15 0.887673 0.277934 0.526297
O O16 0.931535 0.872383 0.623720
#
# Coordination Sequence:
#
# PCOD9140806 Si02
#       8
#     4   4   4   4   4   4   4   4
#     4  11  26  46  72 110 152 203 259 321 397 469
#     4  12  27  47  74 110 149 200 258 320 386 467
#     4  12  25  49  76 110 152 201 259 316 391 468
#     4  12  25  47  75 105 149 197 257 317 386 464
#     4  12  27  48  79 112 151 205 261 322 391 466
#     4  11  26  47  73 110 151 206 254 319 396 467
#     4  11  26  47  72 109 157 197 256 324 389 468
#     4  11  26  47  77 110 159 201 262 331 394 467
#
# _framework density 26.058221
#
# number of rings (size 3 to 8) (size 9 to 14) (size 15 to 20)
#    0.000    0.500    2.500    4.500    8.750    1.000 
#    2.250    0.000    0.000    0.000    0.000    0.000 
#    0.000    0.000    0.000    0.000    0.000    0.000 
#
# Total GULP energy -89495.481047 kJ/mol
# GULP energy per Si atom -5593.467565 kJ/mol
# Density = 2.599891 g / cm^3
# Si number density = 26.058221 Si / 1000 Ang^3
#
#
#
# Elastic Constant Matrix: (Units=GPa)
#
#
# Indices 1 2 3 4 5 6 
#
# 1 126.3037 57.6048 48.7289 0.0000 1.5572 -0.0001
# 2 57.6048 88.3659 5.9143 0.0000 -2.2656 -0.0003
# 3 48.7289 5.9143 121.1462 0.0000 -22.2749 0.0000
# 4 0.0000 0.0000 0.0000 29.5814 0.0000 -14.7070
# 5 1.5572 -2.2656 -22.2749 0.0000 42.8412 0.0000
# 6 -0.0001 -0.0003 0.0000 -14.7070 0.0000 45.0254
#
#
#
# Elastic Compliance Matrix: (Units=1/GPa)
#
#
# Indices 1 2 3 4 5 6 
#
# 1 0.014534 -0.009169 -0.006175 0.000000 -0.004224 0.000000
# 2 -0.009169 0.017143 0.003405 0.000000 0.003010 0.000000
# 3 -0.006175 0.003405 0.011772 0.000000 0.006525 0.000000
# 4 0.000000 0.000000 0.000000 0.040359 0.000000 0.013183
# 5 -0.004224 0.003010 0.006525 0.000000 0.027047 0.000000
# 6 0.000000 0.000000 0.000000 0.013183 0.000000 0.026516
#
#
# Mechanical properties :
#
#
# Convention : Reuss Voigt Hill
#
# Bulk Modulus (GPa) = 51.09924 62.25685 56.67805
# Shear Modulus (GPa) = 29.80205 38.39415 34.09810
#
# Velocity S-wave (km/s) = 3.38549 3.84265 3.62129
# Velocity P-wave (km/s) = 5.91052 6.60540 6.26760
#
# Compressibility (1/GPa) = 0.01956976
#
# Stress axis : x y z
#
# Youngs Moduli (GPa) = 68.80479 58.33161 84.94878
#
# Poissons Ratio (x) = 0.53487 0.52456
# Poissons Ratio (y) = 0.63090 -0.28923
# Poissons Ratio (z) = 0.42487 -0.19861
#
# Static dielectric constant tensor:
#      x y z
#    x 2.023090 0.000000 -0.077310 
#    y 0.000000 2.064030 0.000000 
#    z -0.077310 0.000000 2.140100 
# 
# From -- ./inp_files/26399.got.cif
#   From: 2010.05.17/outbox.cif.g08.bks.cpg/sg9_14_cif.got.tgz:26399.got - 2010.06.03 20:04:27.
