data_PCOD9140634
_publ_section_title
;
Structure prediction by ZEFSAII (Michael W. Deem and Ramdas Pophale) SiO2 
 PCOD9140634
Probable space group: C C
;
_chemical_formula_sum "Si O2"
_cell_formula_units_Z 28
_cell_length_a 5.119328
_cell_length_b 14.928785
_cell_length_c 14.625522
_cell_angle_alpha 90.000000
_cell_angle_beta 77.508122
_cell_angle_gamma 90.000000
_cell_volume 1091.299489
_symmetry_space_group_name_H-M "C C"
_symmetry_group_IT_number 9
_symmetry_cell_setting 'monoclinic'
loop_
_space_group_symop_operation_xyz
x,y,z
x,-y,1/2+z
1/2+x,1/2+y,z
1/2+x,1/2-y,1/2+z
loop_
_atom_site_type_symbol
_atom_site_label
_atom_site_fract_x
_atom_site_fract_y
_atom_site_fract_z
Si Si1 0.510090 0.015546 0.456090
Si Si2 0.804545 0.064858 0.781711
Si Si3 0.035203 0.406630 0.627389
Si Si4 0.793339 0.203794 0.385147
Si Si5 0.835863 0.671570 0.715774
Si Si6 0.194883 0.925701 0.822384
Si Si7 0.575227 0.696896 0.066155
O O1 0.690469 0.938664 0.394007
O O2 0.478117 0.989885 0.563402
O O3 0.638563 0.113138 0.427079
O O4 0.250653 0.017706 0.409862
O O5 0.556586 0.105217 0.742991
O O6 0.050585 0.125645 0.733156
O O7 0.967055 0.969388 0.775011
O O8 0.953552 0.423256 0.738361
O O9 0.824328 0.331937 0.609930
O O10 0.338193 0.375345 0.589673
O O11 0.781784 0.242960 0.284965
O O12 0.696158 0.282101 0.458412
O O13 0.101192 0.170690 0.365683
O O14 0.946962 0.712126 0.614442
#
# Coordination Sequence:
#
# PCOD9140634 Si02
#       7
#     4   4   4   4   4   4   4
#     4  11  26  47  75 111 147 206 252 315 375 460
#     4  11  25  44  74 103 144 197 246 303 377 453
#     4  12  28  50  74 109 155 203 258 307 386 453
#     4  11  27  44  74 110 149 190 257 310 380 441
#     4  12  24  47  73 106 147 191 248 315 379 448
#     4  11  26  50  75 111 156 201 249 324 379 445
#     4  12  28  48  73 112 148 204 248 320 378 456
#
# _framework density 25.657487
#
# number of rings (size 3 to 8) (size 9 to 14) (size 15 to 20)
#    0.000    0.571    2.857    3.429   12.000    1.143 
#    0.000    0.000    0.000    0.000    0.000    0.000 
#    0.000    0.000    0.000    0.000    0.000    0.000 
#
# Total GULP energy -78248.810309 kJ/mol
# GULP energy per Si atom -5589.200736 kJ/mol
# Density = 2.559909 g / cm^3
# Si number density = 25.657487 Si / 1000 Ang^3
#
#
#
# Elastic Constant Matrix: (Units=GPa)
#
#
# Indices 1 2 3 4 5 6 
#
# 1 108.7662 30.5077 27.2948 0.0000 -4.7561 0.0000
# 2 30.5077 75.5199 22.8004 0.0000 -7.6401 0.0000
# 3 27.2948 22.8004 119.1028 0.0000 -13.4598 0.0000
# 4 0.0000 0.0000 0.0000 44.6452 0.0000 -13.1646
# 5 -4.7561 -7.6401 -13.4598 0.0000 30.1812 0.0000
# 6 0.0000 0.0000 0.0000 -13.1646 0.0000 46.6677
#
#
#
# Elastic Compliance Matrix: (Units=1/GPa)
#
#
# Indices 1 2 3 4 5 6 
#
# 1 0.010692 -0.003802 -0.001728 0.000000 -0.000048 0.000000
# 2 -0.003802 0.015585 -0.001826 0.000000 0.002532 0.000000
# 3 -0.001728 -0.001826 0.009539 0.000000 0.003520 0.000000
# 4 0.000000 0.000000 0.000000 0.024431 0.000000 0.006892
# 5 -0.000048 0.002532 0.003520 0.000000 0.035336 0.000000
# 6 0.000000 0.000000 0.000000 0.006892 0.000000 0.023372
#
#
# Mechanical properties :
#
#
# Convention : Reuss Voigt Hill
#
# Bulk Modulus (GPa) = 47.38463 51.62164 49.50313
# Shear Modulus (GPa) = 35.53580 39.15122 37.34351
#
# Velocity S-wave (km/s) = 3.72561 3.91054 3.81919
# Velocity P-wave (km/s) = 6.08400 6.36812 6.22768
#
# Compressibility (1/GPa) = 0.02110389
#
# Stress axis : x y z
#
# Youngs Moduli (GPa) = 93.52718 64.16407 104.82845
#
# Poissons Ratio (x) = 0.24398 0.18112
# Poissons Ratio (y) = 0.35564 0.19142
# Poissons Ratio (z) = 0.16160 0.11716
#
# Static dielectric constant tensor:
#      x y z
#    x 2.059980 0.000000 0.015540 
#    y 0.000000 2.099570 0.000000 
#    z 0.015540 0.000000 1.968070 
# 
# From -- ./inp_files/21727.got.cif
#   From: 2010.05.17/outbox.cif.g08.bks.cpg/sg9_11_cif.got.tgz:21727.got - 2010.06.03 20:04:27.
