data_PCOD9140673
_publ_section_title
;
Structure prediction by ZEFSAII (Michael W. Deem and Ramdas Pophale) SiO2 
 PCOD9140673
Probable space group: C C
;
_chemical_formula_sum "Si O2"
_cell_formula_units_Z 28
_cell_length_a 16.656658
_cell_length_b 4.833364
_cell_length_c 18.068781
_cell_angle_alpha 90.000000
_cell_angle_beta 49.361087
_cell_angle_gamma 90.000000
_cell_volume 1103.850435
_symmetry_space_group_name_H-M "C C"
_symmetry_group_IT_number 9
_symmetry_cell_setting 'monoclinic'
loop_
_space_group_symop_operation_xyz
x,y,z
x,-y,1/2+z
1/2+x,1/2+y,z
1/2+x,1/2-y,1/2+z
loop_
_atom_site_type_symbol
_atom_site_label
_atom_site_fract_x
_atom_site_fract_y
_atom_site_fract_z
Si Si1 0.432970 0.037493 0.272430
Si Si2 0.494295 0.862878 0.900388
Si Si3 0.805361 0.297781 0.122989
Si Si4 0.165793 0.533875 0.598046
Si Si5 0.319962 0.682343 0.714461
Si Si6 0.210766 0.984976 0.972719
Si Si7 0.102461 0.887592 0.898942
O O1 0.461903 0.159736 0.335128
O O2 0.335033 0.624162 0.177619
O O3 0.542266 0.891258 0.184349
O O4 0.411445 0.234852 0.215929
O O5 0.518695 0.168345 0.917314
O O6 0.591802 0.658542 0.855729
O O7 0.315443 0.075316 0.863192
O O8 0.805731 0.611186 0.152666
O O9 0.697000 0.174295 0.012275
O O10 0.898168 0.257767 0.007998
O O11 0.207213 0.365466 0.644587
O O12 0.215016 0.823058 0.542777
O O13 0.211282 0.723800 0.823598
O O14 0.110125 0.005249 0.977787
#
# Coordination Sequence:
#
# PCOD9140673 Si02
#       7
#     4   4   4   4   4   4   4
#     4  11  28  49  76 109 149 197 249 310 379 430
#     4  12  26  46  75 107 148 197 244 309 375 444
#     4  12  26  47  72 111 147 194 251 306 370 450
#     4  12  26  47  77 104 152 194 245 305 376 439
#     4  11  26  47  73 107 145 192 255 305 367 456
#     4  11  27  48  71 115 145 190 248 313 361 453
#     4  11  25  46  74 103 150 190 246 304 382 434
#
# _framework density 25.365756000000001
#
# number of rings (size 3 to 8) (size 9 to 14) (size 15 to 20)
#    0.000    0.571    1.429    5.143    8.000    6.857 
#    0.000    0.000    0.000    0.000    0.000    0.000 
#    0.000    0.000    0.000    0.000    0.000    0.000 
#
# Total GULP energy -78217.583615 kJ/mol
# GULP energy per Si atom -5586.970258 kJ/mol
# Density = 2.530802 g / cm^3
# Si number density = 25.365756 Si / 1000 Ang^3
#
#
#
# Elastic Constant Matrix: (Units=GPa)
#
#
# Indices 1 2 3 4 5 6 
#
# 1 117.5417 11.6898 7.6962 -0.0135 28.5491 -0.0309
# 2 11.6898 97.4271 0.6121 0.0089 0.8607 -0.0181
# 3 7.6962 0.6121 99.5083 -0.0049 -15.5308 -0.0200
# 4 -0.0135 0.0089 -0.0049 34.3822 0.0006 2.7899
# 5 28.5491 0.8607 -15.5308 0.0006 43.4853 -0.0124
# 6 -0.0309 -0.0181 -0.0200 2.7899 -0.0124 16.7059
#
#
#
# Elastic Compliance Matrix: (Units=1/GPa)
#
#
# Indices 1 2 3 4 5 6 
#
# 1 0.010620 -0.001194 -0.002011 0.000004 -0.007667 0.000010
# 2 -0.001194 0.010401 0.000126 -0.000004 0.000623 0.000010
# 3 -0.002011 0.000126 0.011024 0.000000 0.005255 0.000014
# 4 0.000004 -0.000004 0.000000 0.029484 -0.000004 -0.004924
# 5 -0.007667 0.000623 0.005255 -0.000004 0.029894 0.000016
# 6 0.000010 0.000010 0.000014 -0.004924 0.000016 0.060681
#
#
# Mechanical properties :
#
#
# Convention : Reuss Voigt Hill
#
# Bulk Modulus (GPa) = 38.62858 39.38592 39.00725
# Shear Modulus (GPa) = 29.95938 38.54661 34.25300
#
# Velocity S-wave (km/s) = 3.44044 3.90247 3.67872
# Velocity P-wave (km/s) = 5.57170 5.98888 5.78405
#
# Compressibility (1/GPa) = 0.02588757
#
# Stress axis : x y z
#
# Youngs Moduli (GPa) = 94.16042 96.14417 90.70857
#
# Poissons Ratio (x) = 0.11479 0.18238
# Poissons Ratio (y) = 0.11242 -0.01139
# Poissons Ratio (z) = 0.18932 -0.01207
#
# Static dielectric constant tensor:
#      x y z
#    x 2.092200 0.000020 -0.022650 
#    y 0.000020 1.945610 0.000010 
#    z -0.022650 0.000010 2.001450 
# 
# From -- ./inp_files/32954.got.cif
#   From: 2010.05.17/outbox.cif.g08.bks.cpg/sg9_17_cif.got.tgz:32954.got - 2010.06.03 20:04:27.
