data_PCOD9140729
_publ_section_title
;
Structure prediction by ZEFSAII (Michael W. Deem and Ramdas Pophale) SiO2 
 PCOD9140729
Probable space group: C C
;
_chemical_formula_sum "Si O2"
_cell_formula_units_Z 32
_cell_length_a 8.953999
_cell_length_b 14.437077
_cell_length_c 11.709466
_cell_angle_alpha 90.000000
_cell_angle_beta 61.145738
_cell_angle_gamma 90.000000
_cell_volume 1325.754651
_symmetry_space_group_name_H-M "C C"
_symmetry_group_IT_number 9
_symmetry_cell_setting 'monoclinic'
loop_
_space_group_symop_operation_xyz
x,y,z
x,-y,1/2+z
1/2+x,1/2+y,z
1/2+x,1/2-y,1/2+z
loop_
_atom_site_type_symbol
_atom_site_label
_atom_site_fract_x
_atom_site_fract_y
_atom_site_fract_z
Si Si1 0.176050 0.773126 0.533680
Si Si2 0.194210 0.551923 0.890284
Si Si3 0.995743 0.146264 0.667419
Si Si4 0.964601 0.431401 0.852773
Si Si5 0.911278 0.656248 0.126497
Si Si6 0.401328 0.582833 0.461623
Si Si7 0.207622 0.949697 0.363047
Si Si8 0.875312 0.647762 0.618469
O O1 0.233253 0.824954 0.629050
O O2 0.316679 0.686886 0.466048
O O3 0.164134 0.849027 0.435072
O O4 0.988395 0.731069 0.624317
O O5 0.338971 0.626659 0.809652
O O6 0.257094 0.483599 0.965619
O O7 0.135588 0.491314 0.802705
O O8 0.025811 0.599142 0.998231
O O9 0.995390 0.244102 0.606872
O O10 0.948749 0.081032 0.577833
O O11 0.173411 0.148500 0.667901
O O12 0.926032 0.380116 0.749719
O O13 0.797813 0.494522 0.931362
O O14 0.963247 0.366962 0.963942
O O15 0.569570 0.520852 0.358169
O O16 0.366654 0.931427 0.217648
#
# Coordination Sequence:
#
# PCOD9140729 Si02
#       8
#     4   4   4   4   4   4   4   4
#     4  11  28  51  75 114 157 209 263 339 400 486
#     4  12  24  50  77 107 157 207 260 324 398 479
#     4  11  27  45  75 118 153 203 260 326 397 485
#     4  12  26  48  81 109 152 201 261 324 397 478
#     4  11  28  47  79 112 153 208 259 332 401 476
#     4  11  25  48  75 110 157 201 264 317 401 475
#     4  12  27  49  77 111 157 210 261 329 403 484
#     4  12  27  48  75 115 158 197 264 325 399 479
#
# _framework density 24.137194999999998
#
# number of rings (size 3 to 8) (size 9 to 14) (size 15 to 20)
#    0.000    0.500    5.000    1.500    8.750    1.000 
#    2.250    0.000    0.000    0.000    0.000    0.000 
#    0.000    0.000    0.000    0.000    0.000    0.000 
#
# Total GULP energy -89072.038518 kJ/mol
# GULP energy per Si atom -5567.002407 kJ/mol
# Density = 2.408226 g / cm^3
# Si number density = 24.137195 Si / 1000 Ang^3
#
#
#
# Elastic Constant Matrix: (Units=GPa)
#
#
# Indices 1 2 3 4 5 6 
#
# 1 174.7449 36.8038 30.4173 0.0000 1.2387 0.0000
# 2 36.8038 35.1523 2.1461 0.0000 0.6801 0.0000
# 3 30.4173 2.1461 64.0772 0.0000 5.5712 0.0000
# 4 0.0000 0.0000 0.0000 26.2781 0.0000 2.3296
# 5 1.2387 0.6801 5.5712 0.0000 32.9596 0.0000
# 6 0.0000 0.0000 0.0000 2.3296 0.0000 48.4320
#
#
#
# Elastic Compliance Matrix: (Units=1/GPa)
#
#
# Indices 1 2 3 4 5 6 
#
# 1 0.008085 -0.008254 -0.003603 0.000000 0.000475 0.000000
# 2 -0.008254 0.036938 0.002761 0.000000 -0.000919 0.000000
# 3 -0.003603 0.002761 0.017474 0.000000 -0.002875 0.000000
# 4 0.000000 0.000000 0.000000 0.038217 0.000000 -0.001838
# 5 0.000475 -0.000919 -0.002875 0.000000 0.030827 0.000000
# 6 0.000000 0.000000 0.000000 -0.001838 0.000000 0.020736
#
#
# Mechanical properties :
#
#
# Convention : Reuss Voigt Hill
#
# Bulk Modulus (GPa) = 22.57052 45.85652 34.21352
# Shear Modulus (GPa) = 26.99236 35.17444 31.08340
#
# Velocity S-wave (km/s) = 3.34771 3.82156 3.59246
# Velocity P-wave (km/s) = 4.93094 6.20580 5.60473
#
# Compressibility (1/GPa) = 0.04430558
#
# Stress axis : x y z
#
# Youngs Moduli (GPa) = 123.68985 27.07209 57.22825
#
# Poissons Ratio (x) = 0.22345 0.20618
# Poissons Ratio (y) = 1.02091 -0.15799
# Poissons Ratio (z) = 0.44562 -0.07474
#
# Static dielectric constant tensor:
#      x y z
#    x 1.984560 0.000000 0.022080 
#    y 0.000000 2.092930 0.000000 
#    z 0.022080 0.000000 1.990110 
# 
# From -- ./inp_files/14712.got.cif
#   From: 2010.05.17/outbox.cif.g08.bks.cpg/sg9_8_cif.got.tgz:14712.got - 2010.06.03 20:04:27.
