data_PCOD9140466
_publ_section_title
;
Structure prediction by ZEFSAII (Michael W. Deem and Ramdas Pophale) SiO2 
 PCOD9140466
Probable space group: C C
;
_chemical_formula_sum "Si O2"
_cell_formula_units_Z 24
_cell_length_a 12.639215
_cell_length_b 7.467560
_cell_length_c 20.131949
_cell_angle_alpha 90.000000
_cell_angle_beta 34.710749
_cell_angle_gamma 90.000000
_cell_volume 1082.001466
_symmetry_space_group_name_H-M "C C"
_symmetry_group_IT_number 9
_symmetry_cell_setting 'monoclinic'
loop_
_space_group_symop_operation_xyz
x,y,z
x,-y,1/2+z
1/2+x,1/2+y,z
1/2+x,1/2-y,1/2+z
loop_
_atom_site_type_symbol
_atom_site_label
_atom_site_fract_x
_atom_site_fract_y
_atom_site_fract_z
Si Si1 0.951020 0.927083 0.520340
Si Si2 0.068607 0.315963 0.513624
Si Si3 0.384585 0.087357 0.384877
Si Si4 0.067609 0.535391 0.151381
Si Si5 0.043327 0.855377 0.614391
Si Si6 0.659720 0.109322 0.361613
O O1 0.720028 0.476074 0.505794
O O2 0.765596 0.891722 0.574681
O O3 0.938433 0.835492 0.598558
O O4 0.116486 0.817352 0.399929
O O5 0.283649 0.275083 0.421494
O O6 0.985037 0.359706 0.629908
O O7 0.106780 0.664539 0.606673
O O8 0.065931 0.480861 0.464681
O O9 0.444221 0.024747 0.281096
O O10 0.557617 0.077148 0.344489
O O11 0.379891 0.572162 0.245807
O O12 0.989335 0.136757 0.518237
#
# Coordination Sequence:
#
# PCOD9140466 Si02
#       6
#     4   4   4   4   4   4
#     4  11  24  46  68 107 137 183 239 290 355 428
#     4  11  26  43  72 104 140 184 239 293 355 422
#     4  11  26  44  73 107 143 191 244 294 361 429
#     4  12  24  46  73 103 144 188 239 296 357 426
#     4  11  24  46  72 105 146 186 238 298 355 428
#     4  12  24  49  74 102 148 192 235 301 361 423
#
# _framework density 22.181115999999999
#
# number of rings (size 3 to 8) (size 9 to 14) (size 15 to 20)
#    0.000    0.667    5.000    3.000    4.667    0.000 
#    0.000    0.000    0.000    0.000    0.000    0.000 
#    0.000    0.000    0.000    0.000    0.000    0.000 
#
# Total GULP energy -66950.046665 kJ/mol
# GULP energy per Si atom -5579.170555 kJ/mol
# Density = 2.213063 g / cm^3
# Si number density = 22.181116 Si / 1000 Ang^3
#
#
#
# Elastic Constant Matrix: (Units=GPa)
#
#
# Indices 1 2 3 4 5 6 
#
# 1 93.3079 18.9558 28.0143 0.0000 16.3838 0.0000
# 2 18.9558 78.7941 32.1701 0.0000 18.2989 0.0000
# 3 28.0143 32.1701 115.7013 0.0000 3.3641 0.0000
# 4 0.0000 0.0000 0.0000 30.5466 0.0000 6.9749
# 5 16.3838 18.2989 3.3641 0.0000 35.4666 0.0000
# 6 0.0000 0.0000 0.0000 6.9749 0.0000 30.5202
#
#
#
# Elastic Compliance Matrix: (Units=1/GPa)
#
#
# Indices 1 2 3 4 5 6 
#
# 1 0.012584 -0.000723 -0.002695 0.000000 -0.005184 0.000000
# 2 -0.000723 0.016348 -0.004146 0.000000 -0.007707 0.000000
# 3 -0.002695 -0.004146 0.010379 0.000000 0.002400 0.000000
# 4 0.000000 0.000000 0.000000 0.034539 0.000000 -0.007893
# 5 -0.005184 -0.007707 0.002400 0.000000 0.034340 0.000000
# 6 0.000000 0.000000 0.000000 -0.007893 0.000000 0.034569
#
#
# Mechanical properties :
#
#
# Convention : Reuss Voigt Hill
#
# Bulk Modulus (GPa) = 41.35392 49.56485 45.45939
# Shear Modulus (GPa) = 30.13005 33.21753 31.67379
#
# Velocity S-wave (km/s) = 3.68960 3.87403 3.78294
# Velocity P-wave (km/s) = 6.06919 6.51190 6.29444
#
# Compressibility (1/GPa) = 0.02418150
#
# Stress axis : x y z
#
# Youngs Moduli (GPa) = 79.46895 61.16931 96.35225
#
# Poissons Ratio (x) = 0.04422 0.25967
# Poissons Ratio (y) = 0.05745 0.39951
# Poissons Ratio (z) = 0.21417 0.25363
#
# Static dielectric constant tensor:
#      x y z
#    x 1.809700 0.000000 0.006070 
#    y 0.000000 1.828410 0.000000 
#    z 0.006070 0.000000 1.900310 
# 
# From -- ./inp_files/33099.got.cif
#   From: 2010.05.17/outbox.cif.g08.bks.cpg/sg9_17_cif.got.tgz:33099.got - 2010.06.03 20:04:27.
