data_PCOD9140162
_publ_section_title
;
Structure prediction by ZEFSAII (Michael W. Deem and Ramdas Pophale) SiO2 
 PCOD9140162
Probable space group: C C
;
_chemical_formula_sum "Si O2"
_cell_formula_units_Z 32
_cell_length_a 15.078770
_cell_length_b 12.659331
_cell_length_c 10.377327
_cell_angle_alpha 90.000000
_cell_angle_beta 136.595814
_cell_angle_gamma 90.000000
_cell_volume 1361.155615
_symmetry_space_group_name_H-M "C C"
_symmetry_group_IT_number 9
_symmetry_cell_setting 'monoclinic'
loop_
_space_group_symop_operation_xyz
x,y,z
x,-y,1/2+z
1/2+x,1/2+y,z
1/2+x,1/2-y,1/2+z
loop_
_atom_site_type_symbol
_atom_site_label
_atom_site_fract_x
_atom_site_fract_y
_atom_site_fract_z
Si Si1 0.741340 0.488095 0.271490
Si Si2 0.093809 0.673289 0.479509
Si Si3 0.737575 0.031040 0.146160
Si Si4 0.862121 0.076711 0.016133
Si Si5 0.973221 0.226576 0.630700
Si Si6 0.217671 0.238095 0.724151
Si Si7 0.839236 0.718960 0.349481
Si Si8 0.090341 0.023424 0.864941
O O1 0.779190 0.375000 0.247821
O O2 0.822431 0.595042 0.357474
O O3 0.705619 0.465416 0.382689
O O4 0.626996 0.516894 0.051324
O O5 0.123470 0.552714 0.548270
O O6 0.031629 0.676282 0.272278
O O7 0.227045 0.739546 0.633432
O O8 0.984608 0.726945 0.451705
O O9 0.712777 0.154958 0.138167
O O10 0.841434 0.989546 0.362210
O O11 0.780724 0.023055 0.043936
O O12 0.823021 0.197286 0.947372
O O13 0.007172 0.073718 0.223364
O O14 0.070751 0.215416 0.612952
O O15 0.823493 0.233106 0.444317
O O16 0.002712 0.125000 0.747821
#
# Coordination Sequence:
#
# PCOD9140162 Si02
#       8
#     4   4   4   4   4   4   4   4
#     4  11  26  45  69 105 147 190 240 307 378 446
#     4  11  24  43  78 105 147 194 257 301 369 450
#     4  11  25  46  71 111 146 199 243 316 369 448
#     4  11  24  43  78 105 147 194 257 301 369 450
#     4  11  23  44  71  99 139 194 242 293 366 452
#     4  11  26  45  69 105 147 190 240 307 378 446
#     4  11  25  46  71 111 146 199 243 316 369 448
#     4  11  23  44  71  99 139 194 242 293 366 452
#
# _framework density 23.509435
#
# number of rings (size 3 to 8) (size 9 to 14) (size 15 to 20)
#    0.000    1.000    2.500    3.000   10.500    0.000 
#    0.000    0.000    0.000    0.000    0.000    0.000 
#    0.000    0.000    0.000    0.000    0.000    0.000 
#
# Total GULP energy -89250.194207 kJ/mol
# GULP energy per Si atom -5578.137138 kJ/mol
# Density = 2.345593 g / cm^3
# Si number density = 23.509435 Si / 1000 Ang^3
#
#
#
# Elastic Constant Matrix: (Units=GPa)
#
#
# Indices 1 2 3 4 5 6 
#
# 1 73.8880 21.9113 30.7023 0.0000 -0.0551 0.0000
# 2 21.9113 157.5456 8.3545 0.0000 0.1609 0.0000
# 3 30.7023 8.3545 45.6937 0.0000 0.3897 0.0000
# 4 0.0000 0.0000 0.0000 42.0886 0.0000 -0.2935
# 5 -0.0551 0.1609 0.3897 0.0000 23.9074 0.0000
# 6 0.0000 0.0000 0.0000 -0.2935 0.0000 17.3570
#
#
#
# Elastic Compliance Matrix: (Units=1/GPa)
#
#
# Indices 1 2 3 4 5 6 
#
# 1 0.019398 -0.002026 -0.012666 0.000000 0.000265 0.000000
# 2 -0.002026 0.006621 0.000151 0.000000 -0.000052 0.000000
# 3 -0.012666 0.000151 0.030372 0.000000 -0.000525 0.000000
# 4 0.000000 0.000000 0.000000 0.023762 0.000000 0.000402
# 5 0.000265 -0.000052 -0.000525 0.000000 0.041837 0.000000
# 6 0.000000 0.000000 0.000000 0.000402 0.000000 0.057620
#
#
# Mechanical properties :
#
#
# Convention : Reuss Voigt Hill
#
# Bulk Modulus (GPa) = 36.61677 44.34038 40.47858
# Shear Modulus (GPa) = 22.95732 31.08123 27.01927
#
# Velocity S-wave (km/s) = 3.12831 3.63998 3.39380
# Velocity P-wave (km/s) = 5.35328 6.04711 5.71074
#
# Compressibility (1/GPa) = 0.02730989
#
# Stress axis : x y z
#
# Youngs Moduli (GPa) = 51.55170 151.02936 32.92529
#
# Poissons Ratio (x) = 0.30606 0.41702
# Poissons Ratio (y) = 0.10447 -0.00499
# Poissons Ratio (z) = 0.65293 -0.02288
#
# Static dielectric constant tensor:
#      x y z
#    x 1.951860 0.000000 0.000220 
#    y 0.000000 1.960930 0.000000 
#    z 0.000220 0.000000 1.933490 
# 
# From -- ./inp_files/19315.got.cif
#   From: 2010.05.17/outbox.cif.g08.bks.cpg/sg9_10_cif.got.tgz:19315.got - 2010.06.03 20:04:27.
