data_PCOD9140903
_publ_section_title
;
Structure prediction by ZEFSAII (Michael W. Deem and Ramdas Pophale) SiO2 
 PCOD9140903
Probable space group: C C
;
_chemical_formula_sum "Si O2"
_cell_formula_units_Z 28
_cell_length_a 19.598437
_cell_length_b 10.912971
_cell_length_c 11.564376
_cell_angle_alpha 90.000000
_cell_angle_beta 29.168947
_cell_angle_gamma 90.000000
_cell_volume 1205.480316
_symmetry_space_group_name_H-M "C C"
_symmetry_group_IT_number 9
_symmetry_cell_setting 'monoclinic'
loop_
_space_group_symop_operation_xyz
x,y,z
x,-y,1/2+z
1/2+x,1/2+y,z
1/2+x,1/2-y,1/2+z
loop_
_atom_site_type_symbol
_atom_site_label
_atom_site_fract_x
_atom_site_fract_y
_atom_site_fract_z
Si Si1 0.385480 0.766178 0.733760
Si Si2 0.185190 0.170608 0.889230
Si Si3 0.996563 0.329122 0.999042
Si Si4 0.726736 0.036154 0.002551
Si Si5 0.774401 0.595209 0.199193
Si Si6 0.658900 0.772286 0.177672
Si Si7 0.981278 0.482904 0.724573
O O1 0.267428 0.820915 0.823657
O O2 0.519024 0.792216 0.456965
O O3 0.408084 0.852837 0.810129
O O4 0.359817 0.624254 0.796674
O O5 0.129480 0.209482 0.098048
O O6 0.083025 0.231972 0.947197
O O7 0.148247 0.522177 0.995121
O O8 0.350745 0.211784 0.654712
O O9 0.920299 0.541320 0.931898
O O10 0.950477 0.434854 0.158210
O O11 0.614181 0.116272 0.240834
O O12 0.738993 0.900656 0.037261
O O13 0.688861 0.526748 0.855584
O O14 0.734947 0.677576 0.148631
#
# Coordination Sequence:
#
# PCOD9140903 Si02
#       7
#     4   4   4   4   4   4   4
#     4  12  25  45  72 107 145 205 260 316 391 469
#     4  12  25  45  78 109 148 204 255 317 396 466
#     4  12  24  46  77 106 147 198 260 315 391 460
#     4  12  26  45  75 105 148 202 255 321 386 466
#     4  12  23  45  73 102 150 199 248 317 396 457
#     4  12  25  46  71 107 153 197 253 325 382 469
#     4  12  20  48  74 100 147 201 251 313 400 453
#
# _framework density 23.227257000000002
#
# number of rings (size 3 to 8) (size 9 to 14) (size 15 to 20)
#    0.000    0.000    8.571    1.714    0.000    1.143 
#    0.000    0.000    0.000    0.000    0.000    0.000 
#    0.000    0.000    0.000    0.000    0.000    0.000 
#
# Total GULP energy -78211.722647 kJ/mol
# GULP energy per Si atom -5586.551618 kJ/mol
# Density = 2.317439 g / cm^3
# Si number density = 23.227257 Si / 1000 Ang^3
#
#
#
# Elastic Constant Matrix: (Units=GPa)
#
#
# Indices 1 2 3 4 5 6 
#
# 1 99.5046 52.5445 16.5849 0.0000 -4.6308 0.0000
# 2 52.5445 160.0753 29.6840 0.0000 -11.3213 0.0000
# 3 16.5849 29.6840 41.4948 0.0000 13.8752 0.0000
# 4 0.0000 0.0000 0.0000 37.8262 0.0000 -2.4880
# 5 -4.6308 -11.3213 13.8752 0.0000 30.9605 0.0000
# 6 0.0000 0.0000 0.0000 -2.4880 0.0000 47.6033
#
#
#
# Elastic Compliance Matrix: (Units=1/GPa)
#
#
# Indices 1 2 3 4 5 6 
#
# 1 0.012456 -0.003323 -0.003315 0.000000 0.002133 0.000000
# 2 -0.003323 0.009104 -0.007212 0.000000 0.006064 0.000000
# 3 -0.003315 -0.007212 0.037207 0.000000 -0.019808 0.000000
# 4 0.000000 0.000000 0.000000 0.026528 0.000000 0.001386
# 5 0.002133 0.006064 -0.019808 0.000000 0.043713 0.000000
# 6 0.000000 0.000000 0.000000 0.001386 0.000000 0.021079
#
#
# Mechanical properties :
#
#
# Convention : Reuss Voigt Hill
#
# Bulk Modulus (GPa) = 32.18842 55.41128 43.79985
# Shear Modulus (GPa) = 26.57526 36.76207 31.66867
#
# Velocity S-wave (km/s) = 3.38618 3.98265 3.69647
# Velocity P-wave (km/s) = 5.40152 6.71242 6.09233
#
# Compressibility (1/GPa) = 0.03106708
#
# Stress axis : x y z
#
# Youngs Moduli (GPa) = 80.27981 109.83842 26.87647
#
# Poissons Ratio (x) = 0.36502 0.08909
# Poissons Ratio (y) = 0.26679 0.19385
# Poissons Ratio (z) = 0.26610 0.79221
#
# Static dielectric constant tensor:
#      x y z
#    x 1.958040 0.000000 -0.092010 
#    y 0.000000 1.925380 0.000000 
#    z -0.092010 0.000000 2.004030 
# 
# From -- ./inp_files/27677.got.cif
#   From: 2010.05.17/outbox.cif.g08.bks.cpg/sg9_14_cif.got.tgz:27677.got - 2010.06.03 20:04:27.
