data_PCOD9140391
_publ_section_title
;
Structure prediction by ZEFSAII (Michael W. Deem and Ramdas Pophale) SiO2 
 PCOD9140391
Probable space group: C C
;
_chemical_formula_sum "Si O2"
_cell_formula_units_Z 32
_cell_length_a 26.418357
_cell_length_b 12.085010
_cell_length_c 8.224579
_cell_angle_alpha 90.000000
_cell_angle_beta 147.246877
_cell_angle_gamma 90.000000
_cell_volume 1420.627006
_symmetry_space_group_name_H-M "C C"
_symmetry_group_IT_number 9
_symmetry_cell_setting 'monoclinic'
loop_
_space_group_symop_operation_xyz
x,y,z
x,-y,1/2+z
1/2+x,1/2+y,z
1/2+x,1/2-y,1/2+z
loop_
_atom_site_type_symbol
_atom_site_label
_atom_site_fract_x
_atom_site_fract_y
_atom_site_fract_z
Si Si1 0.811970 0.046897 0.810270
Si Si2 0.984342 0.110311 0.682251
Si Si3 0.097017 0.043370 0.283224
Si Si4 0.029224 0.749220 0.772519
Si Si5 0.358855 0.839677 0.613903
Si Si6 0.805393 0.452797 0.812397
Si Si7 0.224445 0.356439 0.750131
Si Si8 0.892304 0.748225 0.707087
O O1 0.780374 0.108616 0.563071
O O2 0.735148 0.959401 0.659432
O O3 0.834170 0.141336 0.002032
O O4 0.903228 0.972416 0.023189
O O5 0.938811 0.225740 0.505676
O O6 0.030442 0.059394 0.644966
O O7 0.064424 0.106442 0.033407
O O8 0.073434 0.129605 0.363642
O O9 0.201383 0.999952 0.551901
O O10 0.952357 0.722858 0.425432
O O11 0.973138 0.737990 0.788467
O O12 0.117684 0.669518 0.999365
O O13 0.320020 0.896543 0.676671
O O14 0.280541 0.752435 0.342768
O O15 0.371269 0.941790 0.525206
O O16 0.828506 0.358678 0.008444
#
# Coordination Sequence:
#
# PCOD9140391 Si02
#       8
#     4   4   4   4   4   4   4   4
#     4  12  22  44  69  99 137 185 230 299 350 410
#     4  12  22  38  73 102 135 180 248 293 342 411
#     4  12  22  41  69 107 132 184 247 292 337 430
#     4  11  24  46  71  98 138 188 228 290 357 415
#     4  11  24  46  68  99 145 183 222 291 357 417
#     4  11  25  43  68 102 148 181 224 288 369 418
#     4  12  25  44  71 102 139 181 238 290 353 417
#     4  11  24  44  69 101 140 188 227 289 363 416
#
# _framework density 22.525265000000001
#
# number of rings (size 3 to 8) (size 9 to 14) (size 15 to 20)
#    0.000    0.500    7.500    1.500    1.750    4.000 
#    2.250    1.250    0.000    0.000    0.000    0.000 
#    0.000    0.000    0.000    0.000    0.000    0.000 
#
# Total GULP energy -89550.488713 kJ/mol
# GULP energy per Si atom -5596.905545 kJ/mol
# Density = 2.247400 g / cm^3
# Si number density = 22.525265 Si / 1000 Ang^3
#
#
#
# Elastic Constant Matrix: (Units=GPa)
#
#
# Indices 1 2 3 4 5 6 
#
# 1 53.9311 26.5151 29.2360 0.0000 10.4212 0.0000
# 2 26.5151 127.3393 35.0022 0.0000 14.9987 0.0000
# 3 29.2360 35.0022 89.9508 0.0000 15.8856 0.0000
# 4 0.0000 0.0000 0.0000 36.0687 0.0000 0.6198
# 5 10.4212 14.9987 15.8856 0.0000 39.5521 0.0000
# 6 0.0000 0.0000 0.0000 0.6198 0.0000 48.3203
#
#
#
# Elastic Compliance Matrix: (Units=1/GPa)
#
#
# Indices 1 2 3 4 5 6 
#
# 1 0.023837 -0.002964 -0.006118 0.000000 -0.002700 0.000000
# 2 -0.002964 0.009329 -0.002346 0.000000 -0.001814 0.000000
# 3 -0.006118 -0.002346 0.014613 0.000000 -0.003368 0.000000
# 4 0.000000 0.000000 0.000000 0.027731 0.000000 -0.000356
# 5 -0.002700 -0.001814 -0.003368 0.000000 0.028035 0.000000
# 6 0.000000 0.000000 0.000000 -0.000356 0.000000 0.020700
#
#
# Mechanical properties :
#
#
# Convention : Reuss Voigt Hill
#
# Bulk Modulus (GPa) = 40.12231 50.30310 45.21271
# Shear Modulus (GPa) = 32.17320 36.81943 34.49631
#
# Velocity S-wave (km/s) = 3.78341 4.04738 3.91762
# Velocity P-wave (km/s) = 6.07753 6.64997 6.37018
#
# Compressibility (1/GPa) = 0.02492379
#
# Stress axis : x y z
#
# Youngs Moduli (GPa) = 41.95095 107.19441 68.43093
#
# Poissons Ratio (x) = 0.31772 0.41863
# Poissons Ratio (y) = 0.12434 0.16056
# Poissons Ratio (z) = 0.25664 0.25151
#
# Static dielectric constant tensor:
#      x y z
#    x 1.851200 0.000000 -0.040090 
#    y 0.000000 1.857800 0.000000 
#    z -0.040090 0.000000 1.834210 
# 
# From -- ./inp_files/9080.got.cif
#   From: 2010.05.17/outbox.cif.g08.bks.cpg/sg9_5_cif.got.tgz:9080.got - 2010.06.03 20:04:27.
