data_PCOD9140465
_publ_section_title
;
Structure prediction by ZEFSAII (Michael W. Deem and Ramdas Pophale) SiO2 
 PCOD9140465
Probable space group: C C
;
_chemical_formula_sum "Si O2"
_cell_formula_units_Z 32
_cell_length_a 9.069634
_cell_length_b 18.116192
_cell_length_c 14.499289
_cell_angle_alpha 90.000000
_cell_angle_beta 43.392422
_cell_angle_gamma 90.000000
_cell_volume 1636.645753
_symmetry_space_group_name_H-M "C C"
_symmetry_group_IT_number 9
_symmetry_cell_setting 'monoclinic'
loop_
_space_group_symop_operation_xyz
x,y,z
x,-y,1/2+z
1/2+x,1/2+y,z
1/2+x,1/2-y,1/2+z
loop_
_atom_site_type_symbol
_atom_site_label
_atom_site_fract_x
_atom_site_fract_y
_atom_site_fract_z
Si Si1 0.135990 0.923874 0.928600
Si Si2 0.697467 0.961518 0.048266
Si Si3 0.303948 0.809724 0.708201
Si Si4 0.380853 0.769778 0.318512
Si Si5 0.926372 0.559288 0.849877
Si Si6 0.474225 0.181421 0.570040
Si Si7 0.528676 0.338896 0.165713
Si Si8 0.115836 0.407200 0.451969
O O1 0.278333 0.866860 0.804541
O O2 0.242191 0.001121 0.909336
O O3 0.057990 0.884396 0.057617
O O4 0.944514 0.941628 0.945479
O O5 0.607412 0.959032 0.192546
O O6 0.574293 0.898055 0.048675
O O7 0.660676 0.038617 0.015945
O O8 0.443713 0.741198 0.677565
O O9 0.438493 0.848302 0.565488
O O10 0.074938 0.776245 0.778291
O O11 0.373173 0.853693 0.361623
O O12 0.429003 0.779167 0.188425
O O13 0.156076 0.728799 0.436130
O O14 0.013771 0.549065 0.912641
O O15 0.255044 0.168870 0.614405
O O16 0.340093 0.373698 0.314160
#
# Coordination Sequence:
#
# PCOD9140465 Si02
#       8
#     4   4   4   4   4   4   4   4
#     4  12  25  47  72 103 146 187 243 303 360 431
#     4  11  24  46  68 103 148 183 235 297 360 437
#     4  12  25  46  78 103 140 197 241 293 370 437
#     4  11  24  47  72 102 142 184 238 295 361 432
#     4  11  24  46  70 105 140 185 238 298 361 429
#     4  11  26  45  68 105 141 184 236 300 355 431
#     4  12  27  44  72 104 146 187 242 298 359 433
#     4  12  25  45  74 105 143 191 239 294 370 428
#
# _framework density 19.552185000000001
#
# number of rings (size 3 to 8) (size 9 to 14) (size 15 to 20)
#    0.000    0.500    5.000    3.000    7.000    1.000 
#    2.250    0.000    0.000    0.000    0.000    0.000 
#    0.000    0.000    0.000    0.000    0.000    0.000 
#
# Total GULP energy -89443.878136 kJ/mol
# GULP energy per Si atom -5590.242384 kJ/mol
# Density = 1.950768 g / cm^3
# Si number density = 19.552185 Si / 1000 Ang^3
#
#
#
# Elastic Constant Matrix: (Units=GPa)
#
#
# Indices 1 2 3 4 5 6 
#
# 1 122.9850 57.8468 32.0283 0.0000 -20.0101 -0.0002
# 2 57.8468 93.1938 67.9590 0.0000 -1.6107 0.0000
# 3 32.0283 67.9590 103.4788 0.0001 -8.1834 -0.0004
# 4 0.0000 0.0000 0.0001 35.7131 0.0000 -10.2275
# 5 -20.0101 -1.6107 -8.1834 0.0000 27.4063 0.0003
# 6 -0.0002 0.0000 -0.0004 -10.2275 0.0003 27.7490
#
#
#
# Elastic Compliance Matrix: (Units=1/GPa)
#
#
# Indices 1 2 3 4 5 6 
#
# 1 0.014378 -0.011755 0.004143 0.000000 0.011044 0.000000
# 2 -0.011755 0.030430 -0.017292 0.000000 -0.011958 0.000000
# 3 0.004143 -0.017292 0.020378 0.000000 0.008094 0.000000
# 4 0.000000 0.000000 0.000000 0.031305 0.000000 0.011538
# 5 0.011044 -0.011958 0.008094 0.000000 0.046266 0.000000
# 6 0.000000 0.000000 0.000000 0.011538 0.000000 0.040290
#
#
# Mechanical properties :
#
#
# Convention : Reuss Voigt Hill
#
# Bulk Modulus (GPa) = 65.02684 70.59176 67.80930
# Shear Modulus (GPa) = 21.01009 28.96191 24.98600
#
# Velocity S-wave (km/s) = 3.28161 3.85289 3.57867
# Velocity P-wave (km/s) = 6.90572 7.48169 7.19947
#
# Compressibility (1/GPa) = 0.01537826
#
# Stress axis : x y z
#
# Youngs Moduli (GPa) = 69.54983 32.86221 49.07295
#
# Poissons Ratio (x) = 0.38631 -0.20333
# Poissons Ratio (y) = 0.81758 0.84857
# Poissons Ratio (z) = -0.28817 0.56825
#
# Static dielectric constant tensor:
#      x y z
#    x 1.658150 0.000000 -0.010180 
#    y 0.000000 1.675460 0.000000 
#    z -0.010180 0.000000 1.706660 
# 
# From -- ./inp_files/5410.got.cif
#   From: 2010.05.17/outbox.cif.g08.bks.cpg/sg9_3_cif.got.tgz:5410.got - 2010.06.03 20:04:27.
