data_PCOD9140235
_publ_section_title
;
Structure prediction by ZEFSAII (Michael W. Deem and Ramdas Pophale) SiO2 
 PCOD9140235
Probable space group: C C
;
_chemical_formula_sum "Si O2"
_cell_formula_units_Z 28
_cell_length_a 21.473545
_cell_length_b 5.794841
_cell_length_c 10.765518
_cell_angle_alpha 90.000000
_cell_angle_beta 117.636102
_cell_angle_gamma 90.000000
_cell_volume 1186.780857
_symmetry_space_group_name_H-M "C C"
_symmetry_group_IT_number 9
_symmetry_cell_setting 'monoclinic'
loop_
_space_group_symop_operation_xyz
x,y,z
x,-y,1/2+z
1/2+x,1/2+y,z
1/2+x,1/2-y,1/2+z
loop_
_atom_site_type_symbol
_atom_site_label
_atom_site_fract_x
_atom_site_fract_y
_atom_site_fract_z
Si Si1 0.082660 0.643748 0.382280
Si Si2 0.645864 0.244411 0.793316
Si Si3 0.233382 0.345997 0.145247
Si Si4 0.766420 0.346928 0.082638
Si Si5 0.408247 0.851230 0.088675
Si Si6 0.523013 0.522818 0.623190
Si Si7 0.471008 0.091044 0.917181
O O1 0.086913 0.421597 0.295646
O O2 0.164162 0.670167 0.492946
O O3 0.041143 0.828945 0.263272
O O4 0.036847 0.579072 0.459460
O O5 0.701271 0.129816 0.752793
O O6 0.601323 0.425242 0.673622
O O7 0.690083 0.346282 0.947462
O O8 0.271209 0.593241 0.153756
O O9 0.271694 0.095922 0.159384
O O10 0.825316 0.330867 0.030321
O O11 0.455965 0.633295 0.094734
O O12 0.432145 0.917766 0.250210
O O13 0.424595 0.026966 0.992880
O O14 0.502677 0.663909 0.482428
#
# Coordination Sequence:
#
# PCOD9140235 Si02
#       7
#     4   4   4   4   4   4   4
#     4  11  23  46  70 116 145 197 252 326 388 455
#     4  11  25  45  73 109 149 202 255 325 382 464
#     4  11  26  45  77 105 154 195 258 312 385 457
#     4  11  29  49  72 110 151 207 255 314 388 465
#     4  12  30  48  76 112 151 209 253 325 389 472
#     4  12  24  45  77 108 151 193 267 314 397 450
#     4  12  27  48  75 112 157 195 264 322 393 465
#
# _framework density 23.593235
#
# number of rings (size 3 to 8) (size 9 to 14) (size 15 to 20)
#    0.000    0.571    4.286    1.714   14.000    1.143 
#    0.000    0.000    0.000    0.000    0.000    0.000 
#    0.000    0.000    0.000    0.000    0.000    0.000 
#
# Total GULP energy -78156.624374 kJ/mol
# GULP energy per Si atom -5582.616027 kJ/mol
# Density = 2.353954 g / cm^3
# Si number density = 23.593235 Si / 1000 Ang^3
#
#
#
# Elastic Constant Matrix: (Units=GPa)
#
#
# Indices 1 2 3 4 5 6 
#
# 1 100.8230 27.7999 0.3089 0.0000 -13.9921 0.0000
# 2 27.7999 80.1312 13.0032 0.0000 -1.7358 0.0000
# 3 0.3089 13.0032 75.9622 0.0000 -15.6293 0.0000
# 4 0.0000 0.0000 0.0000 35.1108 0.0000 -14.9715
# 5 -13.9921 -1.7358 -15.6293 0.0000 37.7375 0.0000
# 6 0.0000 0.0000 0.0000 -14.9715 0.0000 33.2451
#
#
#
# Elastic Compliance Matrix: (Units=1/GPa)
#
#
# Indices 1 2 3 4 5 6 
#
# 1 0.011759 -0.004247 0.001679 0.000000 0.004860 0.000000
# 2 -0.004247 0.014374 -0.002876 0.000000 -0.002105 0.000000
# 3 0.001679 -0.002876 0.015032 0.000000 0.006716 0.000000
# 4 0.000000 0.000000 0.000000 0.035250 0.000000 0.015874
# 5 0.004860 -0.002105 0.006716 0.000000 0.030985 0.000000
# 6 0.000000 0.000000 0.000000 0.015874 0.000000 0.037228
#
#
# Mechanical properties :
#
#
# Convention : Reuss Voigt Hill
#
# Bulk Modulus (GPa) = 33.02883 37.68227 35.35555
# Shear Modulus (GPa) = 30.19175 35.60566 32.89870
#
# Velocity S-wave (km/s) = 3.58114 3.88899 3.73823
# Velocity P-wave (km/s) = 5.57934 6.01431 5.80091
#
# Compressibility (1/GPa) = 0.03027658
#
# Stress axis : x y z
#
# Youngs Moduli (GPa) = 85.04433 69.57025 66.52587
#
# Poissons Ratio (x) = 0.29544 -0.11170
# Poissons Ratio (y) = 0.36115 0.19135
# Poissons Ratio (z) = -0.14279 0.20010
#
# Static dielectric constant tensor:
#      x y z
#    x 1.854540 0.000000 0.018620 
#    y 0.000000 2.037520 0.000000 
#    z 0.018620 0.000000 1.926650 
# 
# From -- ./inp_files/19570.got.cif
#   From: 2010.05.17/outbox.cif.g08.bks.cpg/sg9_10_cif.got.tgz:19570.got - 2010.06.03 20:04:27.
