data_PCOD9140894
_publ_section_title
;
Structure prediction by ZEFSAII (Michael W. Deem and Ramdas Pophale) SiO2 
 PCOD9140894
Probable space group: C C
;
_chemical_formula_sum "Si O2"
_cell_formula_units_Z 20
_cell_length_a 23.839115
_cell_length_b 4.759571
_cell_length_c 10.971784
_cell_angle_alpha 90.000000
_cell_angle_beta 146.949632
_cell_angle_gamma 90.000000
_cell_volume 678.939820
_symmetry_space_group_name_H-M "C C"
_symmetry_group_IT_number 9
_symmetry_cell_setting 'monoclinic'
loop_
_space_group_symop_operation_xyz
x,y,z
x,-y,1/2+z
1/2+x,1/2+y,z
1/2+x,1/2-y,1/2+z
loop_
_atom_site_type_symbol
_atom_site_label
_atom_site_fract_x
_atom_site_fract_y
_atom_site_fract_z
Si Si1 0.230600 0.471638 0.509470
Si Si2 0.573493 0.300993 0.866420
Si Si3 0.900536 0.770092 0.969787
Si Si4 0.623831 0.222982 0.603992
Si Si5 0.908162 0.622547 0.251167
O O1 0.112977 0.422615 0.337631
O O2 0.287438 0.386550 0.737346
O O3 0.218467 0.274707 0.367931
O O4 0.302886 0.717663 0.593933
O O5 0.473844 0.467540 0.636592
O O6 0.644423 0.573751 0.027204
O O7 0.591300 0.099714 0.016054
O O8 0.918349 0.614526 0.873168
O O9 0.904063 0.575158 0.096627
O O10 0.510500 0.323490 0.444154
#
# Coordination Sequence:
#
# PCOD9140894 Si02
#       5
#     4   4   4   4   4
#     4  12  28  48  88 130 173 238 304 380 443 560
#     4  11  29  53  84 123 186 244 301 369 462 545
#     4  11  29  51  90 128 189 240 300 383 459 554
#     4  11  29  52  82 123 183 244 300 373 454 551
#     4  11  29  52  86 130 181 236 305 369 462 538
#
# _framework density 29.457691000000001
#
# number of rings (size 3 to 8) (size 9 to 14) (size 15 to 20)
#    0.000    0.800    0.000    2.400   28.000    0.000 
#    0.000    0.000    0.000    0.000    0.000    0.000 
#    0.000    0.000    0.000    0.000    0.000    0.000 
#
# Total GULP energy -55745.484885 kJ/mol
# GULP energy per Si atom -5574.548489 kJ/mol
# Density = 2.939064 g / cm^3
# Si number density = 29.457691 Si / 1000 Ang^3
#
#
#
# Elastic Constant Matrix: (Units=GPa)
#
#
# Indices 1 2 3 4 5 6 
#
# 1 168.7251 70.1235 43.8335 0.0000 -14.3326 0.0000
# 2 70.1235 190.0302 76.9485 0.0000 -1.8314 0.0000
# 3 43.8335 76.9485 232.8035 0.0000 -31.0797 0.0000
# 4 0.0000 0.0000 0.0000 47.3142 0.0000 -11.0526
# 5 -14.3326 -1.8314 -31.0797 0.0000 53.5325 0.0000
# 6 0.0000 0.0000 0.0000 -11.0526 0.0000 58.2435
#
#
#
# Elastic Compliance Matrix: (Units=1/GPa)
#
#
# Indices 1 2 3 4 5 6 
#
# 1 0.007192 -0.002516 -0.000300 0.000000 0.001665 0.000000
# 2 -0.002516 0.007010 -0.002061 0.000000 -0.001630 0.000000
# 3 -0.000300 -0.002061 0.005434 0.000000 0.003004 0.000000
# 4 0.000000 0.000000 0.000000 0.022116 0.000000 0.004197
# 5 0.001665 -0.001630 0.003004 0.000000 0.020814 0.000000
# 6 0.000000 0.000000 0.000000 0.004197 0.000000 0.017966
#
#
# Mechanical properties :
#
#
# Convention : Reuss Voigt Hill
#
# Bulk Modulus (GPa) = 101.20045 108.15220 104.67633
# Shear Modulus (GPa) = 53.43027 58.52828 55.97927
#
# Velocity S-wave (km/s) = 4.26349 4.46226 4.36400
# Velocity P-wave (km/s) = 7.65934 7.95884 7.81053
#
# Compressibility (1/GPa) = 0.00988138
#
# Stress axis : x y z
#
# Youngs Moduli (GPa) = 139.04231 142.66060 184.02095
#
# Poissons Ratio (x) = 0.35899 0.05522
# Poissons Ratio (y) = 0.34988 0.37922
# Poissons Ratio (z) = 0.04173 0.29399
#
# Static dielectric constant tensor:
#      x y z
#    x 2.614880 0.000000 0.065290 
#    y 0.000000 2.359310 0.000000 
#    z 0.065290 0.000000 2.310770 
# 
# From -- ./inp_files/21086.got.cif
#   From: 2010.05.17/outbox.cif.g08.bks.cpg/sg9_11_cif.got.tgz:21086.got - 2010.06.03 20:04:27.
