data_PCOD9140994
_publ_section_title
;
Structure prediction by ZEFSAII (Michael W. Deem and Ramdas Pophale) SiO2 
 PCOD9140994
Probable space group: C C
;
_chemical_formula_sum "Si O2"
_cell_formula_units_Z 32
_cell_length_a 21.726304
_cell_length_b 11.458473
_cell_length_c 8.299236
_cell_angle_alpha 90.000000
_cell_angle_beta 136.466173
_cell_angle_gamma 90.000000
_cell_volume 1423.091910
_symmetry_space_group_name_H-M "C C"
_symmetry_group_IT_number 9
_symmetry_cell_setting 'monoclinic'
loop_
_space_group_symop_operation_xyz
x,y,z
x,-y,1/2+z
1/2+x,1/2+y,z
1/2+x,1/2-y,1/2+z
loop_
_atom_site_type_symbol
_atom_site_label
_atom_site_fract_x
_atom_site_fract_y
_atom_site_fract_z
Si Si1 0.103280 0.758061 0.557270
Si Si2 0.948961 0.606409 0.098157
Si Si3 0.944880 0.351553 0.220401
Si Si4 0.500497 0.510101 0.860557
Si Si5 0.590365 0.700652 0.390105
Si Si6 0.778383 0.731445 0.864139
Si Si7 0.366125 0.433558 0.877812
Si Si8 0.291400 0.304556 0.255966
O O1 0.081655 0.898064 0.525753
O O2 0.090654 0.732410 0.722058
O O3 0.202025 0.726852 0.684916
O O4 0.032676 0.684849 0.316135
O O5 0.962726 0.471298 0.161368
O O6 0.920939 0.624303 0.859486
O O7 0.861966 0.646346 0.030128
O O8 0.038984 0.285075 0.412637
O O9 0.872572 0.272789 0.985730
O O10 0.531319 0.416461 0.785736
O O11 0.443091 0.439658 0.886873
O O12 0.422619 0.591905 0.645549
O O13 0.687555 0.670185 0.637770
O O14 0.795944 0.829367 0.757438
O O15 0.769384 0.780408 0.027169
O O16 0.320299 0.559152 0.815104
#
# Coordination Sequence:
#
# PCOD9140994 Si02
#       8
#     4   4   4   4   4   4   4   4
#     4  12  27  46  72 107 144 186 238 294 353 426
#     4  12  26  48  72 100 143 187 232 293 357 423
#     4  12  26  48  72 100 143 187 232 293 357 423
#     4  12  24  47  77 103 140 188 241 298 355 419
#     4  12  27  45  73 107 144 187 238 291 356 424
#     4  12  27  45  73 107 144 187 238 291 356 424
#     4  12  24  47  77 103 140 188 241 298 355 419
#     4  12  27  46  72 107 144 186 238 294 353 426
#
# _framework density 22.486249000000001
#
# number of rings (size 3 to 8) (size 9 to 14) (size 15 to 20)
#    0.000    0.000    5.000    4.500    7.000    0.000 
#    0.000    0.000    0.000    0.000    0.000    0.000 
#    0.000    0.000    0.000    0.000    0.000    0.000 
#
# Total GULP energy -89290.200394 kJ/mol
# GULP energy per Si atom -5580.637525 kJ/mol
# Density = 2.243507 g / cm^3
# Si number density = 22.486249 Si / 1000 Ang^3
#
#
#
# Elastic Constant Matrix: (Units=GPa)
#
#
# Indices 1 2 3 4 5 6 
#
# 1 123.0267 35.0403 18.3800 0.0000 12.1336 0.0000
# 2 35.0403 79.5483 2.4330 0.0000 6.7405 0.0000
# 3 18.3800 2.4330 72.2169 0.0000 -1.5719 0.0000
# 4 0.0000 0.0000 0.0000 26.4335 0.0000 -3.1662
# 5 12.1336 6.7405 -1.5719 0.0000 29.9444 0.0000
# 6 0.0000 0.0000 0.0000 -3.1662 0.0000 31.2103
#
#
#
# Elastic Compliance Matrix: (Units=1/GPa)
#
#
# Indices 1 2 3 4 5 6 
#
# 1 0.009970 -0.004040 -0.002472 0.000000 -0.003260 0.000000
# 2 -0.004040 0.014470 0.000506 0.000000 -0.001594 0.000000
# 3 -0.002472 0.000506 0.014495 0.000000 0.001649 0.000000
# 4 0.000000 0.000000 0.000000 0.038296 0.000000 0.003885
# 5 -0.003260 -0.001594 0.001649 0.000000 0.035162 0.000000
# 6 0.000000 0.000000 0.000000 0.003885 0.000000 0.032435
#
#
# Mechanical properties :
#
#
# Convention : Reuss Voigt Hill
#
# Bulk Modulus (GPa) = 37.14303 42.94428 40.04366
# Shear Modulus (GPa) = 30.15426 32.11355 31.13390
#
# Velocity S-wave (km/s) = 3.66595 3.78318 3.72502
# Velocity P-wave (km/s) = 5.87136 6.18245 6.02891
#
# Compressibility (1/GPa) = 0.02692295
#
# Stress axis : x y z
#
# Youngs Moduli (GPa) = 100.30283 69.10845 68.98818
#
# Poissons Ratio (x) = 0.27918 0.17056
# Poissons Ratio (y) = 0.40520 -0.03491
# Poissons Ratio (z) = 0.24798 -0.03497
#
# Static dielectric constant tensor:
#      x y z
#    x 1.831780 0.000000 -0.039570 
#    y 0.000000 1.821040 0.000000 
#    z -0.039570 0.000000 1.806280 
# 
# From -- ./inp_files/12199.got.cif
#   From: 2010.05.17/outbox.cif.g08.bks.cpg/sg9_7_cif.got.tgz:12199.got - 2010.06.03 20:04:27.
