data_PCOD9140750
_publ_section_title
;
Structure prediction by ZEFSAII (Michael W. Deem and Ramdas Pophale) SiO2 
 PCOD9140750
Probable space group: C C
;
_chemical_formula_sum "Si O2"
_cell_formula_units_Z 24
_cell_length_a 9.080428
_cell_length_b 10.926319
_cell_length_c 13.710116
_cell_angle_alpha 90.000000
_cell_angle_beta 43.767367
_cell_angle_gamma 90.000000
_cell_volume 940.934038
_symmetry_space_group_name_H-M "C C"
_symmetry_group_IT_number 9
_symmetry_cell_setting 'monoclinic'
loop_
_space_group_symop_operation_xyz
x,y,z
x,-y,1/2+z
1/2+x,1/2+y,z
1/2+x,1/2-y,1/2+z
loop_
_atom_site_type_symbol
_atom_site_label
_atom_site_fract_x
_atom_site_fract_y
_atom_site_fract_z
Si Si1 0.610860 0.807065 0.782310
Si Si2 0.308156 0.857570 0.657921
Si Si3 0.188101 0.452612 0.560636
Si Si4 0.700016 0.601271 0.589265
Si Si5 0.980187 0.315137 0.215165
Si Si6 0.131989 0.006472 0.421287
O O1 0.631703 0.920887 0.699710
O O2 0.590175 0.693245 0.717205
O O3 0.834269 0.783708 0.730159
O O4 0.416519 0.833285 0.947370
O O5 0.564793 0.860490 0.547783
O O6 0.169138 0.746276 0.685109
O O7 0.253305 0.974733 0.617633
O O8 0.231698 0.890858 0.803496
O O9 0.439071 0.456369 0.448679
O O10 0.092934 0.587986 0.588373
O O11 0.572920 0.564859 0.552520
O O12 0.801034 0.396652 0.355989
#
# Coordination Sequence:
#
# PCOD9140750 Si02
#       6
#     4   4   4   4   4   4
#     4  12  25  48  82 112 167 213 271 338 412 489
#     4  11  26  49  77 118 158 214 275 334 411 489
#     4  11  25  49  74 118 155 205 278 327 408 491
#     4  12  26  50  81 117 164 221 267 341 414 489
#     4  11  25  52  74 116 158 214 267 343 404 485
#     4  11  25  50  74 117 164 209 274 333 411 491
#
# _framework density 25.506568999999999
#
# number of rings (size 3 to 8) (size 9 to 14) (size 15 to 20)
#    0.000    0.667    6.667    2.000    4.667    2.667 
#    0.000    0.000    0.000    0.000    0.000    0.000 
#    0.000    0.000    0.000    0.000    0.000    0.000 
#
# Total GULP energy -67151.489387 kJ/mol
# GULP energy per Si atom -5595.957449 kJ/mol
# Density = 2.544852 g / cm^3
# Si number density = 25.506569 Si / 1000 Ang^3
#
#
#
# Elastic Constant Matrix: (Units=GPa)
#
#
# Indices 1 2 3 4 5 6 
#
# 1 181.2267 57.0329 36.8639 0.0000 -33.6657 0.0000
# 2 57.0329 79.9836 27.0222 0.0000 -28.9316 0.0000
# 3 36.8639 27.0222 90.8010 0.0000 -5.0846 0.0000
# 4 0.0000 0.0000 0.0000 26.4292 0.0000 -5.0614
# 5 -33.6657 -28.9316 -5.0846 0.0000 46.3830 0.0000
# 6 0.0000 0.0000 0.0000 -5.0614 0.0000 60.6515
#
#
#
# Elastic Compliance Matrix: (Units=1/GPa)
#
#
# Indices 1 2 3 4 5 6 
#
# 1 0.007620 -0.003735 -0.001814 0.000000 0.003002 0.000000
# 2 -0.003735 0.019805 -0.003861 0.000000 0.009220 0.000000
# 3 -0.001814 -0.003861 0.012769 0.000000 -0.002326 0.000000
# 4 0.000000 0.000000 0.000000 0.038451 0.000000 0.003209
# 5 0.003002 0.009220 -0.002326 0.000000 0.029235 0.000000
# 6 0.000000 0.000000 0.000000 0.003209 0.000000 0.016755
#
#
# Mechanical properties :
#
#
# Convention : Reuss Voigt Hill
#
# Bulk Modulus (GPa) = 46.78740 65.98326 56.38533
# Shear Modulus (GPa) = 33.20501 42.09890 37.65195
#
# Velocity S-wave (km/s) = 3.61199 4.06706 3.84626
# Velocity P-wave (km/s) = 5.98151 6.92675 6.47141
#
# Compressibility (1/GPa) = 0.02137327
#
# Stress axis : x y z
#
# Youngs Moduli (GPa) = 131.23367 50.49226 78.31765
#
# Poissons Ratio (x) = 0.18857 0.14207
# Poissons Ratio (y) = 0.49010 0.30242
# Poissons Ratio (z) = 0.23807 0.19497
#
# Static dielectric constant tensor:
#      x y z
#    x 2.032330 0.000000 -0.072310 
#    y 0.000000 2.018830 0.000000 
#    z -0.072310 0.000000 2.045710 
# 
# From -- ./inp_files/22517.got.cif
#   From: 2010.05.17/outbox.cif.g08.bks.cpg/sg9_12_cif.got.tgz:22517.got - 2010.06.03 20:04:27.
