data_PCOD9140203
_publ_section_title
;
Structure prediction by ZEFSAII (Michael W. Deem and Ramdas Pophale) SiO2 
 PCOD9140203
Probable space group: C C
;
_chemical_formula_sum "Si O2"
_cell_formula_units_Z 28
_cell_length_a 11.043343
_cell_length_b 11.895054
_cell_length_c 22.007848
_cell_angle_alpha 90.000000
_cell_angle_beta 153.341771
_cell_angle_gamma 90.000000
_cell_volume 1297.087401
_symmetry_space_group_name_H-M "C C"
_symmetry_group_IT_number 9
_symmetry_cell_setting 'monoclinic'
loop_
_space_group_symop_operation_xyz
x,y,z
x,-y,1/2+z
1/2+x,1/2+y,z
1/2+x,1/2-y,1/2+z
loop_
_atom_site_type_symbol
_atom_site_label
_atom_site_fract_x
_atom_site_fract_y
_atom_site_fract_z
Si Si1 0.157620 0.034975 0.222980
Si Si2 0.188014 0.199747 0.942914
Si Si3 0.215203 0.377266 0.725590
Si Si4 0.772547 0.312249 0.351358
Si Si5 0.250696 0.548196 0.445621
Si Si6 0.882061 0.221426 0.176653
Si Si7 0.274422 0.585624 0.833764
O O1 0.426983 0.051067 0.304329
O O2 0.083843 0.138323 0.232419
O O3 0.221285 0.924952 0.291092
O O4 0.899070 0.020321 0.064380
O O5 0.089319 0.181681 0.829895
O O6 0.322328 0.323191 0.995444
O O7 0.983125 0.181897 0.906061
O O8 0.422607 0.112716 0.063951
O O9 0.202819 0.292435 0.777042
O O10 0.385853 0.318353 0.748709
O O11 0.289036 0.498107 0.784690
O O12 0.083265 0.296308 0.513547
O O13 0.333846 0.489563 0.419911
O O14 0.993094 0.348244 0.218606
#
# Coordination Sequence:
#
# PCOD9140203 Si02
#       7
#     4   4   4   4   4   4   4
#     4  12  24  48  70 107 143 193 239 299 361 435
#     4  11  25  45  67 105 138 190 242 291 366 429
#     4  11  25  43  71 100 143 186 235 304 355 428
#     4  11  23  45  71  98 148 186 235 302 359 428
#     4  12  26  44  75 102 147 189 244 296 361 430
#     4  11  26  45  68 108 145 187 242 295 369 427
#     4  12  27  46  72 106 142 187 245 299 359 435
#
# _framework density 21.586825000000001
#
# number of rings (size 3 to 8) (size 9 to 14) (size 15 to 20)
#    0.000    0.571    5.714    1.714    6.000    0.000 
#    0.000    0.000    0.000    0.000    0.000    0.000 
#    0.000    0.000    0.000    0.000    0.000    0.000 
#
# Total GULP energy -78115.447018 kJ/mol
# GULP energy per Si atom -5579.674787 kJ/mol
# Density = 2.153769 g / cm^3
# Si number density = 21.586825 Si / 1000 Ang^3
#
#
#
# Elastic Constant Matrix: (Units=GPa)
#
#
# Indices 1 2 3 4 5 6 
#
# 1 116.8758 22.2089 21.9938 0.0024 -15.4545 0.0020
# 2 22.2089 81.5220 12.0662 0.0020 -15.0144 0.0017
# 3 21.9938 12.0662 49.4652 0.0079 -13.2149 0.0053
# 4 0.0024 0.0020 0.0079 12.3812 0.0036 -12.0914
# 5 -15.4545 -15.0144 -13.2149 0.0036 33.2096 0.0027
# 6 0.0020 0.0017 0.0053 -12.0914 0.0027 32.6192
#
#
#
# Elastic Compliance Matrix: (Units=1/GPa)
#
#
# Indices 1 2 3 4 5 6 
#
# 1 0.009832 -0.001735 -0.003285 -0.000001 0.002484 0.000000
# 2 -0.001735 0.013839 -0.001285 -0.000005 0.004938 -0.000003
# 3 -0.003285 -0.001285 0.023975 -0.000033 0.007431 -0.000016
# 4 -0.000001 -0.000005 -0.000033 0.126597 -0.000033 0.046927
# 5 0.002484 0.004938 0.007431 -0.000033 0.036457 -0.000017
# 6 0.000000 -0.000003 -0.000016 0.046927 -0.000017 0.048052
#
#
# Mechanical properties :
#
#
# Convention : Reuss Voigt Hill
#
# Bulk Modulus (GPa) = 28.54145 40.04453 34.29299
# Shear Modulus (GPa) = 17.66526 28.41494 23.04010
#
# Velocity S-wave (km/s) = 2.86376 3.63203 3.27053
# Velocity P-wave (km/s) = 4.91785 6.01495 5.49385
#
# Compressibility (1/GPa) = 0.03503676
#
# Stress axis : x y z
#
# Youngs Moduli (GPa) = 101.70454 72.25995 41.70929
#
# Poissons Ratio (x) = 0.12536 0.13701
# Poissons Ratio (y) = 0.17645 0.05360
# Poissons Ratio (z) = 0.33409 0.09287
#
# Static dielectric constant tensor:
#      x y z
#    x 1.859880 0.000000 0.036560 
#    y 0.000000 1.847490 0.000000 
#    z 0.036560 0.000000 1.757440 
# 
# From -- ./inp_files/16019.got.cif
#   From: 2010.05.17/outbox.cif.g08.bks.cpg/sg9_9_cif.got.tgz:16019.got - 2010.06.03 20:04:27.
