data_PCOD9140470
_publ_section_title
;
Structure prediction by ZEFSAII (Michael W. Deem and Ramdas Pophale) SiO2 
 PCOD9140470
Probable space group: C C
;
_chemical_formula_sum "Si O2"
_cell_formula_units_Z 28
_cell_length_a 8.341797
_cell_length_b 15.314913
_cell_length_c 10.844640
_cell_angle_alpha 90.000000
_cell_angle_beta 62.837574
_cell_angle_gamma 90.000000
_cell_volume 1232.652507
_symmetry_space_group_name_H-M "C C"
_symmetry_group_IT_number 9
_symmetry_cell_setting 'monoclinic'
loop_
_space_group_symop_operation_xyz
x,y,z
x,-y,1/2+z
1/2+x,1/2+y,z
1/2+x,1/2-y,1/2+z
loop_
_atom_site_type_symbol
_atom_site_label
_atom_site_fract_x
_atom_site_fract_y
_atom_site_fract_z
Si Si1 0.340080 0.368400 0.280690
Si Si2 0.427956 0.004804 0.561585
Si Si3 0.393838 0.649385 0.028000
Si Si4 0.713976 0.331046 0.577082
Si Si5 0.542569 0.723124 0.380264
Si Si6 0.156007 0.515594 0.229165
Si Si7 0.705766 0.668762 0.560839
O O1 0.366024 0.401560 0.409906
O O2 0.159839 0.311833 0.343022
O O3 0.315041 0.444900 0.191772
O O4 0.513928 0.310148 0.190882
O O5 0.532937 0.008891 0.654783
O O6 0.285643 0.083191 0.595495
O O7 0.332077 0.911009 0.584916
O O8 0.551530 0.014249 0.395682
O O9 0.597233 0.641627 0.000898
O O10 0.250236 0.607497 0.170886
O O11 0.340607 0.750198 0.025923
O O12 0.566896 0.308175 0.732946
O O13 0.844983 0.250384 0.496151
O O14 0.648117 0.659967 0.437864
#
# Coordination Sequence:
#
# PCOD9140470 Si02
#       7
#     4   4   4   4   4   4   4
#     4  11  24  46  70 102 149 185 244 303 366 433
#     4  12  27  45  78 107 150 192 248 306 371 441
#     4  11  28  45  71 108 147 188 248 305 368 448
#     4  12  26  48  75 111 151 191 251 303 375 444
#     4  11  24  48  74 106 146 195 240 308 367 443
#     4  12  25  50  72 106 146 194 246 307 369 438
#     4  11  26  44  74 106 147 193 243 298 376 437
#
# _framework density 22.715240999999999
#
# number of rings (size 3 to 8) (size 9 to 14) (size 15 to 20)
#    0.000    0.571    4.286    2.571   10.000    1.143 
#    5.143    0.000    0.000    0.000    0.000    0.000 
#    0.000    0.000    0.000    0.000    0.000    0.000 
#
# Total GULP energy -78287.353633 kJ/mol
# GULP energy per Si atom -5591.953831 kJ/mol
# Density = 2.266354 g / cm^3
# Si number density = 22.715241 Si / 1000 Ang^3
#
#
#
# Elastic Constant Matrix: (Units=GPa)
#
#
# Indices 1 2 3 4 5 6 
#
# 1 116.7359 27.2892 31.0756 0.0000 23.3850 0.0000
# 2 27.2892 45.2999 6.9881 0.0000 7.3071 0.0000
# 3 31.0756 6.9881 93.7165 0.0000 9.2485 0.0000
# 4 0.0000 0.0000 0.0000 26.7071 0.0000 -6.0448
# 5 23.3850 7.3071 9.2485 0.0000 31.2322 0.0000
# 6 0.0000 0.0000 0.0000 -6.0448 0.0000 37.2465
#
#
#
# Elastic Compliance Matrix: (Units=1/GPa)
#
#
# Indices 1 2 3 4 5 6 
#
# 1 0.012036 -0.005704 -0.002893 0.000000 -0.006821 0.000000
# 2 -0.005704 0.025780 0.000147 0.000000 -0.001804 0.000000
# 3 -0.002893 0.000147 0.011752 0.000000 -0.001349 0.000000
# 4 0.000000 0.000000 0.000000 0.038871 0.000000 0.006308
# 5 -0.006821 -0.001804 -0.001349 0.000000 0.037947 0.000000
# 6 0.000000 0.000000 0.000000 0.006308 0.000000 0.027872
#
#
# Mechanical properties :
#
#
# Convention : Reuss Voigt Hill
#
# Bulk Modulus (GPa) = 30.61070 42.93979 36.77525
# Shear Modulus (GPa) = 27.46555 31.73048 29.59802
#
# Velocity S-wave (km/s) = 3.48102 3.74154 3.61363
# Velocity P-wave (km/s) = 5.44626 6.13270 5.79965
#
# Compressibility (1/GPa) = 0.03266831
#
# Stress axis : x y z
#
# Youngs Moduli (GPa) = 83.08237 38.79021 85.09364
#
# Poissons Ratio (x) = 0.22127 0.24614
# Poissons Ratio (y) = 0.47393 -0.01253
# Poissons Ratio (z) = 0.24033 -0.00571
#
# Static dielectric constant tensor:
#      x y z
#    x 1.828040 0.000000 0.009180 
#    y 0.000000 1.833090 0.000000 
#    z 0.009180 0.000000 1.897450 
# 
# From -- ./inp_files/14499.got.cif
#   From: 2010.05.17/outbox.cif.g08.bks.cpg/sg9_8_cif.got.tgz:14499.got - 2010.06.03 20:04:27.
