data_PCOD9140684
_publ_section_title
;
Structure prediction by ZEFSAII (Michael W. Deem and Ramdas Pophale) SiO2 
 PCOD9140684
Probable space group: C C
;
_chemical_formula_sum "Si O2"
_cell_formula_units_Z 28
_cell_length_a 21.461651
_cell_length_b 8.838388
_cell_length_c 15.923665
_cell_angle_alpha 90.000000
_cell_angle_beta 158.133600
_cell_angle_gamma 90.000000
_cell_volume 1124.966908
_symmetry_space_group_name_H-M "C C"
_symmetry_group_IT_number 9
_symmetry_cell_setting 'monoclinic'
loop_
_space_group_symop_operation_xyz
x,y,z
x,-y,1/2+z
1/2+x,1/2+y,z
1/2+x,1/2-y,1/2+z
loop_
_atom_site_type_symbol
_atom_site_label
_atom_site_fract_x
_atom_site_fract_y
_atom_site_fract_z
Si Si1 0.351160 0.470652 0.450900
Si Si2 0.569794 0.527151 0.501048
Si Si3 0.855277 0.647780 0.429859
Si Si4 0.812653 0.876135 0.068940
Si Si5 0.010340 0.520718 0.462310
Si Si6 0.375155 0.736387 0.364135
Si Si7 0.967981 0.571209 0.220206
O O1 0.435733 0.307980 0.558472
O O2 0.283837 0.504052 0.458962
O O3 0.413982 0.630698 0.492863
O O4 0.199584 0.426168 0.199160
O O5 0.492396 0.424426 0.331939
O O6 0.405882 0.615300 0.329464
O O7 0.707529 0.659790 0.653269
O O8 0.661955 0.413398 0.681005
O O9 0.907782 0.624511 0.397791
O O10 0.922467 0.534109 0.585191
O O11 0.841004 0.711186 0.065941
O O12 0.657908 0.876543 0.938909
O O13 0.953285 0.501151 0.295728
O O14 0.012237 0.362911 0.515573
#
# Coordination Sequence:
#
# PCOD9140684 Si02
#       7
#     4   4   4   4   4   4   4
#     4  12  26  47  80 110 159 198 268 320 395 461
#     4  11  26  48  76 111 157 202 263 311 404 454
#     4  11  28  51  77 117 155 208 260 331 388 480
#     4  12  29  48  78 118 154 213 258 328 389 476
#     4  11  25  50  75 109 157 205 253 328 387 471
#     4  11  25  46  77 108 153 202 255 321 389 463
#     4  12  29  52  81 113 163 204 271 313 406 465
#
# _framework density 24.889621000000002
#
# number of rings (size 3 to 8) (size 9 to 14) (size 15 to 20)
#    0.000    0.571    2.857    3.429   12.000    0.000 
#    0.000    0.000    0.000    0.000    0.000    0.000 
#    0.000    0.000    0.000    0.000    0.000    0.000 
#
# Total GULP energy -78051.572988 kJ/mol
# GULP energy per Si atom -5575.112356 kJ/mol
# Density = 2.483297 g / cm^3
# Si number density = 24.889621 Si / 1000 Ang^3
#
#
#
# Elastic Constant Matrix: (Units=GPa)
#
#
# Indices 1 2 3 4 5 6 
#
# 1 136.1790 57.1761 29.7479 0.0000 -6.7866 0.0000
# 2 57.1761 122.7073 20.7049 0.0000 9.1948 0.0000
# 3 29.7479 20.7049 78.2604 0.0000 -14.0923 0.0000
# 4 0.0000 0.0000 0.0000 30.7602 0.0000 -1.8653
# 5 -6.7866 9.1948 -14.0923 0.0000 33.3832 0.0000
# 6 0.0000 0.0000 0.0000 -1.8653 0.0000 46.1018
#
#
#
# Elastic Compliance Matrix: (Units=1/GPa)
#
#
# Indices 1 2 3 4 5 6 
#
# 1 0.009753 -0.004353 -0.002146 0.000000 0.002276 0.000000
# 2 -0.004353 0.010886 -0.002083 0.000000 -0.004763 0.000000
# 3 -0.002146 -0.002083 0.015335 0.000000 0.006611 0.000000
# 4 0.000000 0.000000 0.000000 0.032590 0.000000 0.001319
# 5 0.002276 -0.004763 0.006611 0.000000 0.034520 0.000000
# 6 0.000000 0.000000 0.000000 0.001319 0.000000 0.021744
#
#
# Mechanical properties :
#
#
# Convention : Reuss Voigt Hill
#
# Bulk Modulus (GPa) = 53.16167 61.37826 57.26997
# Shear Modulus (GPa) = 33.72395 37.35021 35.53708
#
# Velocity S-wave (km/s) = 3.68494 3.87800 3.78271
# Velocity P-wave (km/s) = 6.28573 6.69071 6.49138
#
# Compressibility (1/GPa) = 0.01881055
#
# Stress axis : x y z
#
# Youngs Moduli (GPa) = 102.53172 91.86014 65.21003
#
# Poissons Ratio (x) = 0.39986 0.13993
# Poissons Ratio (y) = 0.44632 0.13584
# Poissons Ratio (z) = 0.22002 0.19135
#
# Static dielectric constant tensor:
#      x y z
#    x 2.001990 0.000000 0.034080 
#    y 0.000000 2.067210 0.000000 
#    z 0.034080 0.000000 2.031960 
# 
# From -- ./inp_files/31584.got.cif
#   From: 2010.05.17/outbox.cif.g08.bks.cpg/sg9_16_cif.got.tgz:31584.got - 2010.06.03 20:04:27.
