data_PCOD9140341
_publ_section_title
;
Structure prediction by ZEFSAII (Michael W. Deem and Ramdas Pophale) SiO2 
 PCOD9140341
Probable space group: C C
;
_chemical_formula_sum "Si O2"
_cell_formula_units_Z 20
_cell_length_a 6.284673
_cell_length_b 31.976124
_cell_length_c 5.676933
_cell_angle_alpha 90.000000
_cell_angle_beta 131.376649
_cell_angle_gamma 90.000000
_cell_volume 856.059258
_symmetry_space_group_name_H-M "C C"
_symmetry_group_IT_number 9
_symmetry_cell_setting 'monoclinic'
loop_
_space_group_symop_operation_xyz
x,y,z
x,-y,1/2+z
1/2+x,1/2+y,z
1/2+x,1/2-y,1/2+z
loop_
_atom_site_type_symbol
_atom_site_label
_atom_site_fract_x
_atom_site_fract_y
_atom_site_fract_z
Si Si1 0.638630 0.352617 0.571130
Si Si2 0.300799 0.581462 0.093435
Si Si3 0.782943 0.475345 0.102811
Si Si4 0.739466 0.157275 0.391684
Si Si5 0.294918 0.277306 0.559845
O O1 0.515396 0.396532 0.568335
O O2 0.463287 0.314484 0.555790
O O3 0.969561 0.347850 0.863700
O O4 0.546720 0.348704 0.231868
O O5 0.484208 0.548839 0.377571
O O6 0.197178 0.619839 0.176759
O O7 0.040171 0.557611 0.788046
O O8 0.800044 0.499086 0.368024
O O9 0.725955 0.202487 0.262502
O O10 0.005965 0.261750 0.233927
#
# Coordination Sequence:
#
# PCOD9140341 Si02
#       5
#     4   4   4   4   4
#     4  11  24  42  69  96 130 184 228 277 349 409
#     4  11  26  46  70  99 140 178 232 291 338 434
#     4  12  28  47  74 107 144 186 234 295 364 419
#     4  11  24  42  69  96 130 184 228 277 349 409
#     4  11  24  41  62  98 138 170 228 286 338 413
#
# _framework density 23.362869
#
# number of rings (size 3 to 8) (size 9 to 14) (size 15 to 20)
#    0.000    0.800    0.000    6.000    8.400   11.200 
#    0.000    0.000    0.000    0.000    0.000    0.000 
#    0.000    0.000    0.000    0.000    0.000    0.000 
#
# Total GULP energy -55947.709552 kJ/mol
# GULP energy per Si atom -5594.770955 kJ/mol
# Density = 2.330969 g / cm^3
# Si number density = 23.362869 Si / 1000 Ang^3
#
#
#
# Elastic Constant Matrix: (Units=GPa)
#
#
# Indices 1 2 3 4 5 6 
#
# 1 65.3898 16.5135 9.3370 0.0000 11.1041 0.0000
# 2 16.5135 82.4835 27.3351 0.0000 -6.4747 0.0000
# 3 9.3370 27.3351 92.9751 0.0000 11.9488 0.0000
# 4 0.0000 0.0000 0.0000 44.3241 0.0000 10.5225
# 5 11.1041 -6.4747 11.9488 0.0000 39.1304 0.0000
# 6 0.0000 0.0000 0.0000 10.5225 0.0000 22.4796
#
#
#
# Elastic Compliance Matrix: (Units=1/GPa)
#
#
# Indices 1 2 3 4 5 6 
#
# 1 0.017213 -0.003932 0.000144 0.000000 -0.005579 0.000000
# 2 -0.003932 0.014827 -0.004604 0.000000 0.004975 0.000000
# 3 0.000144 -0.004604 0.012696 0.000000 -0.004680 0.000000
# 4 0.000000 0.000000 0.000000 0.025382 0.000000 -0.011881
# 5 -0.005579 0.004975 -0.004680 0.000000 0.029391 0.000000
# 6 0.000000 0.000000 0.000000 -0.011881 0.000000 0.050046
#
#
# Mechanical properties :
#
#
# Convention : Reuss Voigt Hill
#
# Bulk Modulus (GPa) = 35.77386 38.57995 37.17690
# Shear Modulus (GPa) = 28.46501 33.69767 31.08134
#
# Velocity S-wave (km/s) = 3.49433 3.80196 3.65139
# Velocity P-wave (km/s) = 5.62369 5.98518 5.80725
#
# Compressibility (1/GPa) = 0.02795337
#
# Stress axis : x y z
#
# Youngs Moduli (GPa) = 58.09682 67.44464 78.76517
#
# Poissons Ratio (x) = 0.26518 -0.01138
# Poissons Ratio (y) = 0.22843 0.36261
# Poissons Ratio (z) = -0.00839 0.31049
#
# Static dielectric constant tensor:
#      x y z
#    x 1.911600 0.000000 -0.100880 
#    y 0.000000 1.840750 0.000000 
#    z -0.100880 0.000000 1.882590 
# 
# From -- ./inp_files/239.got.cif
#   From: 2010.05.17/outbox.cif.g08.bks.cpg/sg9_1_cif.got.tgz:239.got - 2010.06.03 20:04:27.
