data_PCOD9140125
_publ_section_title
;
Structure prediction by ZEFSAII (Michael W. Deem and Ramdas Pophale) SiO2 
 PCOD9140125
Probable space group: C C
;
_chemical_formula_sum "Si O2"
_cell_formula_units_Z 32
_cell_length_a 22.525906
_cell_length_b 5.998331
_cell_length_c 13.854825
_cell_angle_alpha 90.000000
_cell_angle_beta 129.800286
_cell_angle_gamma 90.000000
_cell_volume 1438.246920
_symmetry_space_group_name_H-M "C C"
_symmetry_group_IT_number 9
_symmetry_cell_setting 'monoclinic'
loop_
_space_group_symop_operation_xyz
x,y,z
x,-y,1/2+z
1/2+x,1/2+y,z
1/2+x,1/2-y,1/2+z
loop_
_atom_site_type_symbol
_atom_site_label
_atom_site_fract_x
_atom_site_fract_y
_atom_site_fract_z
Si Si1 0.182220 0.177327 0.103390
Si Si2 0.052008 0.822673 0.906000
Si Si3 0.691975 0.003010 0.284772
Si Si4 0.800818 0.307626 0.267551
Si Si5 0.463602 0.994529 0.452239
Si Si6 0.270626 0.494531 0.057151
Si Si7 0.042253 0.496991 0.724616
Si Si8 0.433410 0.692375 0.741838
O O1 0.162776 0.319023 0.178394
O O2 0.204674 0.347380 0.041493
O O3 0.259551 0.043331 0.209941
O O4 0.117114 1.000000 0.004695
O O5 0.071451 0.680978 0.830995
O O6 0.029554 0.652621 0.967897
O O7 0.974677 0.956670 0.799450
O O8 0.617114 0.116464 0.254695
O O9 0.748162 0.168055 0.286210
O O10 0.740396 0.908768 0.425350
O O11 0.888508 0.341028 0.391088
O O12 0.795866 0.179806 0.160468
O O13 0.493832 0.091232 0.584038
O O14 0.438362 0.179803 0.348921
O O15 0.345720 0.341030 0.118302
O O16 0.986066 0.331945 0.723178
#
# Coordination Sequence:
#
# PCOD9140125 Si02
#       8
#     4   4   4   4   4   4   4   4
#     4  11  24  43  69  97 136 184 221 279 341 393
#     4  11  24  43  69  97 136 184 221 279 341 393
#     4  11  25  42  65 102 133 176 230 278 332 407
#     4  11  23  43  68  98 135 181 220 281 338 395
#     4  11  23  44  68  99 138 173 229 278 336 405
#     4  11  23  44  68  99 138 173 229 278 336 405
#     4  11  25  42  65 102 133 176 230 278 332 407
#     4  11  23  43  68  98 135 181 220 281 338 395
#
# _framework density 22.249307999999999
#
# number of rings (size 3 to 8) (size 9 to 14) (size 15 to 20)
#    0.000    1.000    2.500    3.750    0.000   10.000 
#    0.000    0.000    0.000    0.000    0.000    0.000 
#    0.000    0.000    0.000    0.000    0.000    0.000 
#
# Total GULP energy -89529.135380 kJ/mol
# GULP energy per Si atom -5595.570961 kJ/mol
# Density = 2.219867 g / cm^3
# Si number density = 22.249308 Si / 1000 Ang^3
#
#
#
# Elastic Constant Matrix: (Units=GPa)
#
#
# Indices 1 2 3 4 5 6 
#
# 1 123.2430 29.6725 64.0768 0.0000 -7.6614 0.0000
# 2 29.6725 59.7942 28.5069 0.0000 -9.3576 -0.0001
# 3 64.0768 28.5069 133.3609 0.0000 -9.3843 0.0000
# 4 0.0000 0.0000 0.0000 37.6145 0.0000 18.1972
# 5 -7.6614 -9.3576 -9.3843 0.0000 30.2873 0.0000
# 6 0.0000 -0.0001 0.0000 18.1972 0.0000 21.5494
#
#
#
# Elastic Compliance Matrix: (Units=1/GPa)
#
#
# Indices 1 2 3 4 5 6 
#
# 1 0.011406 -0.003341 -0.004739 0.000000 0.000385 0.000000
# 2 -0.003341 0.020255 -0.002396 0.000000 0.004671 0.000000
# 3 -0.004739 -0.002396 0.010378 0.000000 0.001276 0.000000
# 4 0.000000 0.000000 0.000000 0.044948 0.000000 -0.037956
# 5 0.000385 0.004671 0.001276 0.000000 0.034953 0.000000
# 6 0.000000 0.000000 0.000000 -0.037956 0.000000 0.078456
#
#
# Mechanical properties :
#
#
# Convention : Reuss Voigt Hill
#
# Bulk Modulus (GPa) = 47.42226 62.32339 54.87282
# Shear Modulus (GPa) = 21.89364 30.83305 26.36334
#
# Velocity S-wave (km/s) = 3.14030 3.72667 3.44598
# Velocity P-wave (km/s) = 5.87443 6.82566 6.36783
#
# Compressibility (1/GPa) = 0.02108715
#
# Stress axis : x y z
#
# Youngs Moduli (GPa) = 87.67042 49.37059 96.36203
#
# Poissons Ratio (x) = 0.16493 0.45669
# Poissons Ratio (y) = 0.29288 0.23087
# Poissons Ratio (z) = 0.41550 0.11829
#
# Static dielectric constant tensor:
#      x y z
#    x 1.843330 0.000000 0.013990 
#    y 0.000000 1.798300 0.000000 
#    z 0.013990 0.000000 1.816320 
# 
# From -- ./inp_files/27617.got.cif
#   From: 2010.05.17/outbox.cif.g08.bks.cpg/sg9_14_cif.got.tgz:27617.got - 2010.06.03 20:04:27.
