data_PCOD9140069
_publ_section_title
;
Structure prediction by ZEFSAII (Michael W. Deem and Ramdas Pophale) SiO2 
 PCOD9140069
Probable space group: C C
;
_chemical_formula_sum "Si O2"
_cell_formula_units_Z 32
_cell_length_a 24.735535
_cell_length_b 6.683343
_cell_length_c 21.657768
_cell_angle_alpha 90.000000
_cell_angle_beta 24.407626
_cell_angle_gamma 90.000000
_cell_volume 1479.503557
_symmetry_space_group_name_H-M "C C"
_symmetry_group_IT_number 9
_symmetry_cell_setting 'monoclinic'
loop_
_space_group_symop_operation_xyz
x,y,z
x,-y,1/2+z
1/2+x,1/2+y,z
1/2+x,1/2-y,1/2+z
loop_
_atom_site_type_symbol
_atom_site_label
_atom_site_fract_x
_atom_site_fract_y
_atom_site_fract_z
Si Si1 0.898910 0.053148 0.427280
Si Si2 0.220550 0.339604 0.816609
Si Si3 0.778530 0.417527 0.368862
Si Si4 0.491737 0.613178 0.194692
Si Si5 0.835644 0.680266 0.574012
Si Si6 0.016175 0.574533 0.970532
Si Si7 0.160001 0.181332 0.224382
Si Si8 0.371834 0.682125 0.726569
O O1 0.927420 0.044845 0.325284
O O2 0.769623 0.183460 0.577044
O O3 0.024768 0.156825 0.328202
O O4 0.882485 0.832419 0.473270
O O5 0.246614 0.149274 0.831767
O O6 0.295481 0.313885 0.674591
O O7 0.268912 0.524674 0.806953
O O8 0.073717 0.390049 0.950047
O O9 0.646735 0.353877 0.541627
O O10 0.906652 0.302280 0.259906
O O11 0.805930 0.651904 0.338341
O O12 0.474014 0.444049 0.160727
O O13 0.939514 0.524022 0.493519
O O14 0.716579 0.540837 0.676142
O O15 0.127173 0.712635 0.823894
O O16 0.935389 0.709324 0.101650
#
# Coordination Sequence:
#
# PCOD9140069 Si02
#       8
#     4   4   4   4   4   4   4   4
#     4  12  27  48  70 106 144 194 245 293 358 429
#     4  11  23  38  67 104 138 173 229 285 357 421
#     4  11  24  47  70 104 139 189 236 296 354 414
#     4  11  27  46  72 102 142 190 241 290 351 427
#     4  12  25  44  70 107 140 186 233 297 362 423
#     4  12  22  43  69 104 140 180 229 296 360 425
#     4  12  26  47  72 105 144 189 243 298 361 428
#     4  11  24  43  68 104 141 181 230 293 357 419
#
# _framework density 21.628876000000002
#
# number of rings (size 3 to 8) (size 9 to 14) (size 15 to 20)
#    0.000    0.500    3.750    4.500    3.500    3.000 
#    0.000    0.000    0.000    0.000    0.000    0.000 
#    0.000    0.000    0.000    0.000    0.000    0.000 
#
# Total GULP energy -89510.684406 kJ/mol
# GULP energy per Si atom -5594.417775 kJ/mol
# Density = 2.157965 g / cm^3
# Si number density = 21.628876 Si / 1000 Ang^3
#
#
#
# Elastic Constant Matrix: (Units=GPa)
#
#
# Indices 1 2 3 4 5 6 
#
# 1 50.1022 31.3401 17.9548 -0.0045 6.8836 0.0001
# 2 31.3401 97.7550 34.6871 -0.0218 -6.8398 0.0100
# 3 17.9548 34.6871 108.5071 -0.0054 -0.0726 0.0040
# 4 -0.0045 -0.0218 -0.0054 24.8839 0.0045 -6.8011
# 5 6.8836 -6.8398 -0.0726 0.0045 40.3061 -0.0008
# 6 0.0001 0.0100 0.0040 -6.8011 -0.0008 23.2342
#
#
#
# Elastic Compliance Matrix: (Units=1/GPa)
#
#
# Indices 1 2 3 4 5 6 
#
# 1 0.026615 -0.008331 -0.001745 -0.000001 -0.005962 0.000003
# 2 -0.008331 0.014302 -0.003191 0.000009 0.003844 -0.000003
# 3 -0.001745 -0.003191 0.010525 -0.000001 -0.000225 -0.000001
# 4 -0.000001 0.000009 -0.000001 0.043681 -0.000003 0.012786
# 5 -0.005962 0.003844 -0.000225 -0.000003 0.026480 -0.000002
# 6 0.000003 -0.000003 -0.000001 0.012786 -0.000002 0.046783
#
#
# Mechanical properties :
#
#
# Convention : Reuss Voigt Hill
#
# Bulk Modulus (GPa) = 40.14734 47.14758 43.64746
# Shear Modulus (GPa) = 24.60376 29.17698 26.89037
#
# Velocity S-wave (km/s) = 3.37641 3.67683 3.52982
# Velocity P-wave (km/s) = 5.81398 6.31437 6.06933
#
# Compressibility (1/GPa) = 0.02490825
#
# Stress axis : x y z
#
# Youngs Moduli (GPa) = 37.57322 69.92203 95.01564
#
# Poissons Ratio (x) = 0.58250 0.16579
# Poissons Ratio (y) = 0.31301 0.30318
# Poissons Ratio (z) = 0.06556 0.22311
#
# Static dielectric constant tensor:
#      x y z
#    x 1.782720 0.000000 -0.029610 
#    y 0.000000 1.795010 0.000000 
#    z -0.029610 0.000000 1.819320 
# 
# From -- ./inp_files/19858.got.cif
#   From: 2010.05.17/outbox.cif.g08.bks.cpg/sg9_10_cif.got.tgz:19858.got - 2010.06.03 20:04:27.
