data_PCOD9140652
_publ_section_title
;
Structure prediction by ZEFSAII (Michael W. Deem and Ramdas Pophale) SiO2 
 PCOD9140652
Probable space group: C C
;
_chemical_formula_sum "Si O2"
_cell_formula_units_Z 32
_cell_length_a 11.468696
_cell_length_b 11.524357
_cell_length_c 14.734687
_cell_angle_alpha 90.000000
_cell_angle_beta 43.163651
_cell_angle_gamma 90.000000
_cell_volume 1332.236756
_symmetry_space_group_name_H-M "C C"
_symmetry_group_IT_number 9
_symmetry_cell_setting 'monoclinic'
loop_
_space_group_symop_operation_xyz
x,y,z
x,-y,1/2+z
1/2+x,1/2+y,z
1/2+x,1/2-y,1/2+z
loop_
_atom_site_type_symbol
_atom_site_label
_atom_site_fract_x
_atom_site_fract_y
_atom_site_fract_z
Si Si1 0.642210 0.969773 0.959970
Si Si2 0.620684 0.255998 0.353802
Si Si3 0.464617 0.603179 0.398334
Si Si4 0.176561 0.004372 0.123088
Si Si5 0.533760 0.122691 0.872510
Si Si6 0.612952 0.520681 0.971778
Si Si7 0.743294 0.762472 0.592083
Si Si8 0.984676 0.473035 0.725644
O O1 0.606699 0.865063 0.912497
O O2 0.798481 0.931478 0.935473
O O3 0.658158 0.081292 0.883972
O O4 0.492006 0.981108 0.118896
O O5 0.666818 0.357904 0.396128
O O6 0.750605 0.240096 0.197786
O O7 0.423193 0.285869 0.440893
O O8 0.610311 0.539487 0.257974
O O9 0.506682 0.739737 0.378312
O O10 0.472911 0.546264 0.492953
O O11 0.185426 0.867270 0.105205
O O12 0.354920 0.067391 0.006091
O O13 0.060169 0.044840 0.104755
O O14 0.560268 0.061304 0.759142
O O15 0.790389 0.448963 0.865217
O O16 0.602702 0.859393 0.653254
#
# Coordination Sequence:
#
# PCOD9140652 Si02
#       8
#     4   4   4   4   4   4   4   4
#     4  12  25  45  73 105 147 197 246 313 386 455
#     4  12  24  46  75 106 148 197 257 311 373 468
#     4  12  28  45  72 108 149 197 250 310 390 464
#     4  11  25  49  71 101 146 192 247 316 382 453
#     4  11  26  50  69 107 151 192 249 320 386 457
#     4  11  25  47  70 106 150 193 247 312 382 461
#     4  12  24  47  78 105 146 195 261 313 378 461
#     4  11  25  45  74 106 145 193 251 315 385 457
#
# _framework density 24.019755
#
# number of rings (size 3 to 8) (size 9 to 14) (size 15 to 20)
#    0.000    0.500    3.750    4.500    7.000    2.000 
#    0.000    0.000    0.000    0.000    0.000    0.000 
#    0.000    0.000    0.000    0.000    0.000    0.000 
#
# Total GULP energy -89503.465186 kJ/mol
# GULP energy per Si atom -5593.966574 kJ/mol
# Density = 2.396508 g / cm^3
# Si number density = 24.019755 Si / 1000 Ang^3
#
#
#
# Elastic Constant Matrix: (Units=GPa)
#
#
# Indices 1 2 3 4 5 6 
#
# 1 94.3239 21.7519 4.5047 0.0000 8.5007 0.0000
# 2 21.7519 110.5119 -2.3208 0.0000 6.8703 0.0000
# 3 4.5047 -2.3208 67.8365 0.0000 15.0315 0.0000
# 4 0.0000 0.0000 0.0000 28.7815 0.0000 2.4247
# 5 8.5007 6.8703 15.0315 0.0000 47.7548 0.0000
# 6 0.0000 0.0000 0.0000 2.4247 0.0000 41.3369
#
#
#
# Elastic Compliance Matrix: (Units=1/GPa)
#
#
# Indices 1 2 3 4 5 6 
#
# 1 0.011255 -0.002129 -0.000477 0.000000 -0.001547 0.000000
# 2 -0.002129 0.009560 0.000741 0.000000 -0.001230 0.000000
# 3 -0.000477 0.000741 0.015913 0.000000 -0.005030 0.000000
# 4 0.000000 0.000000 0.000000 0.034917 0.000000 -0.002048
# 5 -0.001547 -0.001230 -0.005030 0.000000 0.022976 0.000000
# 6 0.000000 0.000000 0.000000 -0.002048 0.000000 0.024312
#
#
# Mechanical properties :
#
#
# Convention : Reuss Voigt Hill
#
# Bulk Modulus (GPa) = 30.30632 35.61599 32.96115
# Shear Modulus (GPa) = 37.40754 40.15705 38.78229
#
# Velocity S-wave (km/s) = 3.95063 4.09324 4.02257
# Velocity P-wave (km/s) = 5.78399 6.09914 5.94366
#
# Compressibility (1/GPa) = 0.03299642
#
# Stress axis : x y z
#
# Youngs Moduli (GPa) = 88.84953 104.60383 62.84154
#
# Poissons Ratio (x) = 0.22272 0.03001
# Poissons Ratio (y) = 0.18918 -0.04656
# Poissons Ratio (z) = 0.04242 -0.07750
#
# Static dielectric constant tensor:
#      x y z
#    x 2.045610 0.000000 -0.008310 
#    y 0.000000 1.903390 0.000000 
#    z -0.008310 0.000000 1.917790 
# 
# From -- ./inp_files/16136.got.cif
#   From: 2010.05.17/outbox.cif.g08.bks.cpg/sg9_9_cif.got.tgz:16136.got - 2010.06.03 20:04:27.
