data_PCOD9140383
_publ_section_title
;
Structure prediction by ZEFSAII (Michael W. Deem and Ramdas Pophale) SiO2 
 PCOD9140383
Probable space group: C C
;
_chemical_formula_sum "Si O2"
_cell_formula_units_Z 24
_cell_length_a 13.754817
_cell_length_b 4.997708
_cell_length_c 18.085517
_cell_angle_alpha 90.000000
_cell_angle_beta 133.240380
_cell_angle_gamma 90.000000
_cell_volume 905.686375
_symmetry_space_group_name_H-M "C C"
_symmetry_group_IT_number 9
_symmetry_cell_setting 'monoclinic'
loop_
_space_group_symop_operation_xyz
x,y,z
x,-y,1/2+z
1/2+x,1/2+y,z
1/2+x,1/2-y,1/2+z
loop_
_atom_site_type_symbol
_atom_site_label
_atom_site_fract_x
_atom_site_fract_y
_atom_site_fract_z
Si Si1 0.984920 0.280759 0.125000
Si Si2 0.207408 0.746121 0.617539
Si Si3 0.358435 0.496217 0.436601
Si Si4 0.940482 0.648629 0.336967
Si Si5 0.111468 0.755096 0.010195
Si Si6 0.075538 0.775524 0.264337
O O1 0.086343 0.315804 0.109569
O O2 0.988524 0.547363 0.176216
O O3 0.050756 0.047840 0.208422
O O4 0.856221 0.169588 0.012312
O O5 0.309104 0.906246 0.721216
O O6 0.227479 0.450606 0.595800
O O7 0.170195 0.949730 0.533040
O O8 0.389596 0.301479 0.383309
O O9 0.489964 0.685969 0.505752
O O10 0.226171 0.663489 0.349035
O O11 0.029385 0.395651 0.404425
O O12 0.022147 0.815447 0.319168
#
# Coordination Sequence:
#
# PCOD9140383 Si02
#       6
#     4   4   4   4   4   4
#     4  11  24  48  68 105 143 193 237 306 369 438
#     4  11  24  43  78  99 142 188 243 293 370 437
#     4  11  26  48  77 101 150 199 242 302 377 447
#     4  12  27  46  77 110 143 199 245 306 370 446
#     4  11  24  45  73 106 136 193 240 298 365 439
#     4  12  29  44  73 109 148 184 253 303 367 441
#
# _framework density 26.499238999999999
#
# number of rings (size 3 to 8) (size 9 to 14) (size 15 to 20)
#    0.000    0.667    5.000    3.000    4.667    2.667 
#    0.000    0.000    3.667    0.000    0.000    0.000 
#    0.000    0.000    0.000    0.000    0.000    0.000 
#
# Total GULP energy -67111.211764 kJ/mol
# GULP energy per Si atom -5592.600980 kJ/mol
# Density = 2.643893 g / cm^3
# Si number density = 26.499239 Si / 1000 Ang^3
#
#
#
# Elastic Constant Matrix: (Units=GPa)
#
#
# Indices 1 2 3 4 5 6 
#
# 1 65.7264 2.5584 3.2985 0.0000 -16.7500 0.0000
# 2 2.5584 146.4551 25.5994 0.0000 -18.7766 0.0000
# 3 3.2985 25.5994 116.2126 0.0000 -13.7672 0.0000
# 4 0.0000 0.0000 0.0000 55.9070 0.0000 -16.9501
# 5 -16.7500 -18.7766 -13.7672 0.0000 50.0790 0.0000
# 6 0.0000 0.0000 0.0000 -16.9501 0.0000 5.0476
#
#
#
# Elastic Compliance Matrix: (Units=1/GPa)
#
#
# Indices 1 2 3 4 5 6 
#
# 1 0.016661 0.000428 0.000116 0.000000 0.005765 0.000000
# 2 0.000428 0.007380 -0.001337 0.000000 0.002543 0.000001
# 3 0.000116 -0.001337 0.009139 0.000000 0.002050 -0.000001
# 4 0.000000 0.000000 0.000000 -0.988019 0.000000 -3.317798
# 5 0.005765 0.002543 0.002050 0.000000 0.023414 0.000001
# 6 0.000000 0.000001 -0.000001 -3.317798 0.000001-10.943155
#
#
# Mechanical properties :
#
#
# Convention : Reuss Voigt Hill
#
# Bulk Modulus (GPa) = 31.65122 43.47854 37.56488
# Shear Modulus (GPa) = -0.42150 42.00257 20.79054
#
# Velocity S-wave (km/s) = -0.39926 3.98559 2.80406
# Velocity P-wave (km/s) = 3.42893 6.13375 4.96893
#
# Compressibility (1/GPa) = 0.03159436
#
# Stress axis : x y z
#
# Youngs Moduli (GPa) = 60.01939 135.49781 109.42214
#
# Poissons Ratio (x) = -0.05797 -0.01267
# Poissons Ratio (y) = -0.02568 0.14626
# Poissons Ratio (z) = -0.00695 0.18111
#
# Static dielectric constant tensor:
#      x y z
#    x 2.123780 0.000000 0.098290 
#    y 0.000000 2.069350 0.000000 
#    z 0.098290 0.000000 2.138380 
# 
# From -- ./inp_files/30327.got.cif
#   From: 2010.05.17/outbox.cif.g08.bks.cpg/sg9_16_cif.got.tgz:30327.got - 2010.06.03 20:04:27.
