data_PCOD9140591
_publ_section_title
;
Structure prediction by ZEFSAII (Michael W. Deem and Ramdas Pophale) SiO2 
 PCOD9140591
Probable space group: C C
;
_chemical_formula_sum "Si O2"
_cell_formula_units_Z 28
_cell_length_a 8.978542
_cell_length_b 14.502824
_cell_length_c 14.806953
_cell_angle_alpha 90.000000
_cell_angle_beta 37.976045
_cell_angle_gamma 90.000000
_cell_volume 1186.406630
_symmetry_space_group_name_H-M "C C"
_symmetry_group_IT_number 9
_symmetry_cell_setting 'monoclinic'
loop_
_space_group_symop_operation_xyz
x,y,z
x,-y,1/2+z
1/2+x,1/2+y,z
1/2+x,1/2-y,1/2+z
loop_
_atom_site_type_symbol
_atom_site_label
_atom_site_fract_x
_atom_site_fract_y
_atom_site_fract_z
Si Si1 0.240160 0.695353 0.881140
Si Si2 0.778390 0.487419 0.985308
Si Si3 0.873174 0.837500 0.132004
Si Si4 0.126946 0.836470 0.446287
Si Si5 0.565206 0.869612 0.715571
Si Si6 0.056166 0.665827 0.609983
Si Si7 0.504850 0.967653 0.561834
O O1 0.188816 0.685614 0.799587
O O2 0.460448 0.766769 0.779966
O O3 0.237562 0.592029 0.919291
O O4 0.030584 0.747438 0.034834
O O5 0.554330 0.416065 0.081966
O O6 0.729209 0.572203 0.943493
O O7 0.822381 0.529429 0.063778
O O8 0.003825 0.429965 0.834119
O O9 0.737272 0.858072 0.105143
O O10 0.294704 0.815894 0.280215
O O11 0.846754 0.858252 0.560281
O O12 0.131319 0.751904 0.513846
O O13 0.437436 0.921798 0.691201
O O14 0.052397 0.574310 0.553298
#
# Coordination Sequence:
#
# PCOD9140591 Si02
#       7
#     4   4   4   4   4   4   4
#     4  11  25  46  81 108 153 200 256 312 398 457
#     4  11  27  50  76 113 151 203 265 322 390 469
#     4  11  24  49  76 111 156 199 257 324 384 467
#     4  12  29  49  76 111 164 199 263 325 384 474
#     4  11  27  52  76 116 154 205 261 332 389 465
#     4  12  28  48  77 116 154 209 260 321 391 458
#     4  12  26  48  78 111 152 203 260 312 402 458
#
# _framework density 23.600677999999998
#
# number of rings (size 3 to 8) (size 9 to 14) (size 15 to 20)
#    0.000    0.571    2.857    3.429    8.000    0.000 
#    5.143    0.000    0.000    0.000    0.000    0.000 
#    0.000    0.000    0.000    0.000    0.000    0.000 
#
# Total GULP energy -78330.651632 kJ/mol
# GULP energy per Si atom -5595.046545 kJ/mol
# Density = 2.354696 g / cm^3
# Si number density = 23.600678 Si / 1000 Ang^3
#
#
#
# Elastic Constant Matrix: (Units=GPa)
#
#
# Indices 1 2 3 4 5 6 
#
# 1 95.0002 19.7964 29.2108 -0.0026 8.6355 0.0017
# 2 19.7964 132.2196 65.1651 -0.0026 4.9828 0.0018
# 3 29.2108 65.1651 110.1638 0.0000 4.3313 0.0011
# 4 -0.0026 -0.0026 0.0000 40.2143 0.0015 18.2359
# 5 8.6355 4.9828 4.3313 0.0015 38.2160 -0.0010
# 6 0.0017 0.0018 0.0011 18.2359 -0.0010 29.7701
#
#
#
# Elastic Compliance Matrix: (Units=1/GPa)
#
#
# Indices 1 2 3 4 5 6 
#
# 1 0.011664 -0.000255 -0.002853 0.000002 -0.002279 -0.000002
# 2 -0.000255 0.010699 -0.006236 0.000001 -0.000631 -0.000001
# 3 -0.002853 -0.006236 0.013526 -0.000001 -0.000075 0.000001
# 4 0.000002 0.000001 -0.000001 0.034431 -0.000002 -0.021091
# 5 -0.002279 -0.000631 -0.000075 -0.000002 0.026773 0.000002
# 6 -0.000002 -0.000001 0.000001 -0.021091 0.000002 0.046510
#
#
# Mechanical properties :
#
#
# Convention : Reuss Voigt Hill
#
# Bulk Modulus (GPa) = 58.13537 62.85867 60.49702
# Shear Modulus (GPa) = 29.75803 36.52084 33.13943
#
# Velocity S-wave (km/s) = 3.55476 3.93803 3.75129
# Velocity P-wave (km/s) = 6.44475 6.88255 6.66725
#
# Compressibility (1/GPa) = 0.01720123
#
# Stress axis : x y z
#
# Youngs Moduli (GPa) = 85.73685 93.46998 73.93362
#
# Poissons Ratio (x) = 0.02379 0.21090
# Poissons Ratio (y) = 0.02182 0.46107
# Poissons Ratio (z) = 0.24457 0.58290
#
# Static dielectric constant tensor:
#      x y z
#    x 1.934030 0.000000 -0.023470 
#    y 0.000000 1.846010 0.000000 
#    z -0.023470 0.000000 1.889270 
# 
# From -- ./inp_files/23328.got.cif
#   From: 2010.05.17/outbox.cif.g08.bks.cpg/sg9_12_cif.got.tgz:23328.got - 2010.06.03 20:04:27.
