data_PCOD9140137
_publ_section_title
;
Structure prediction by ZEFSAII (Michael W. Deem and Ramdas Pophale) SiO2 
 PCOD9140137
Probable space group: C C
;
_chemical_formula_sum "Si O2"
_cell_formula_units_Z 24
_cell_length_a 18.250696
_cell_length_b 5.167351
_cell_length_c 9.061514
_cell_angle_alpha 90.000000
_cell_angle_beta 99.132113
_cell_angle_gamma 90.000000
_cell_volume 843.739336
_symmetry_space_group_name_H-M "C C"
_symmetry_group_IT_number 9
_symmetry_cell_setting 'monoclinic'
loop_
_space_group_symop_operation_xyz
x,y,z
x,-y,1/2+z
1/2+x,1/2+y,z
1/2+x,1/2-y,1/2+z
loop_
_atom_site_type_symbol
_atom_site_label
_atom_site_fract_x
_atom_site_fract_y
_atom_site_fract_z
Si Si1 0.269100 0.257618 0.545800
Si Si2 0.928903 0.041353 0.891774
Si Si3 0.711735 0.733906 0.858614
Si Si4 0.574826 0.164531 0.496485
Si Si5 0.900968 0.374189 0.636810
Si Si6 0.038161 0.303364 0.272163
O O1 0.229837 0.260316 0.692843
O O2 0.251351 0.532301 0.463249
O O3 0.239322 0.036994 0.429229
O O4 0.352096 0.135617 0.599866
O O5 0.979337 0.915314 0.781105
O O6 0.873220 0.214722 0.774265
O O7 0.902371 0.812565 0.992811
O O8 0.992171 0.219494 0.985174
O O9 0.626093 0.731501 0.883545
O O10 0.601726 0.215807 0.670276
O O11 0.569352 0.867981 0.444299
O O12 0.984704 0.456236 0.708394
#
# Coordination Sequence:
#
# PCOD9140137 Si02
#       6
#     4   4   4   4   4   4
#     4  12  31  55  81 115 165 223 273 336 397 495
#     4  11  24  45  76 115 155 206 256 347 401 471
#     4  12  30  53  84 118 163 222 276 332 403 490
#     4  11  25  43  79 113 157 200 271 328 415 478
#     4  11  27  47  76 115 162 207 276 326 417 482
#     4  11  23  43  72 112 152 200 250 341 401 470
#
# _framework density 28.444807000000001
#
# number of rings (size 3 to 8) (size 9 to 14) (size 15 to 20)
#    0.000    0.667    3.333    2.000    9.333    1.333 
#    0.000    0.000    0.000    0.000    0.000    0.000 
#    0.000    0.000    0.000    0.000    0.000    0.000 
#
# Total GULP energy -67157.961439 kJ/mol
# GULP energy per Si atom -5596.496787 kJ/mol
# Density = 2.838007 g / cm^3
# Si number density = 28.444807 Si / 1000 Ang^3
#
#
#
# Elastic Constant Matrix: (Units=GPa)
#
#
# Indices 1 2 3 4 5 6 
#
# 1 127.5885 24.7307 28.8562 0.0000 -17.7860 0.0000
# 2 24.7307 131.3788 62.9933 0.0000 -8.5315 0.0000
# 3 28.8562 62.9933 196.9022 0.0000 -35.2769 0.0000
# 4 0.0000 0.0000 0.0000 59.5230 0.0000 0.0131
# 5 -17.7860 -8.5315 -35.2769 0.0000 42.4199 0.0000
# 6 0.0000 0.0000 0.0000 0.0131 0.0000 45.6912
#
#
#
# Elastic Compliance Matrix: (Units=1/GPa)
#
#
# Indices 1 2 3 4 5 6 
#
# 1 0.008583 -0.001273 -0.000296 0.000000 0.003097 0.000000
# 2 -0.001273 0.009196 -0.002961 0.000000 -0.001146 0.000000
# 3 -0.000296 -0.002961 0.006980 0.000000 0.005085 0.000000
# 4 0.000000 0.000000 0.000000 0.016800 0.000000 -0.000005
# 5 0.003097 -0.001146 0.005085 0.000000 0.028871 0.000000
# 6 0.000000 0.000000 0.000000 -0.000005 0.000000 0.021886
#
#
# Mechanical properties :
#
#
# Convention : Reuss Voigt Hill
#
# Bulk Modulus (GPa) = 63.69163 76.55887 70.12525
# Shear Modulus (GPa) = 46.90005 52.14610 49.52307
#
# Velocity S-wave (km/s) = 4.06496 4.28628 4.17708
# Velocity P-wave (km/s) = 6.66871 7.17423 6.92608
#
# Compressibility (1/GPa) = 0.01570065
#
# Stress axis : x y z
#
# Youngs Moduli (GPa) = 116.50950 108.73752 143.25769
#
# Poissons Ratio (x) = 0.13839 0.04239
# Poissons Ratio (y) = 0.14828 0.42419
# Poissons Ratio (z) = 0.03447 0.32198
#
# Static dielectric constant tensor:
#      x y z
#    x 2.341970 0.000000 0.086660 
#    y 0.000000 2.267820 0.000000 
#    z 0.086660 0.000000 2.381240 
# 
# From -- ./inp_files/11123.got.cif
#   From: 2010.05.17/outbox.cif.g08.bks.cpg/sg9_6_cif.got.tgz:11123.got - 2010.06.03 20:04:27.
