data_PCOD9140829
_publ_section_title
;
Structure prediction by ZEFSAII (Michael W. Deem and Ramdas Pophale) SiO2 
 PCOD9140829
Probable space group: C C
;
_chemical_formula_sum "Si O2"
_cell_formula_units_Z 32
_cell_length_a 4.903917
_cell_length_b 17.776188
_cell_length_c 14.648884
_cell_angle_alpha 90.000000
_cell_angle_beta 104.088457
_cell_angle_gamma 90.000000
_cell_volume 1238.576061
_symmetry_space_group_name_H-M "C C"
_symmetry_group_IT_number 9
_symmetry_cell_setting 'monoclinic'
loop_
_space_group_symop_operation_xyz
x,y,z
x,-y,1/2+z
1/2+x,1/2+y,z
1/2+x,1/2-y,1/2+z
loop_
_atom_site_type_symbol
_atom_site_label
_atom_site_fract_x
_atom_site_fract_y
_atom_site_fract_z
Si Si1 0.992210 0.813759 0.620870
Si Si2 0.008945 0.422055 0.515375
Si Si3 0.338059 0.038273 0.188461
Si Si4 0.162692 0.120599 0.689222
Si Si5 0.663247 0.347288 0.975383
Si Si6 0.626203 0.939887 0.901881
Si Si7 0.195237 0.780446 0.447236
Si Si8 0.694352 0.801864 0.269353
O O1 0.711682 0.855433 0.567369
O O2 0.194446 0.882568 0.658437
O O3 0.099040 0.765035 0.543664
O O4 0.007638 0.765651 0.713204
O O5 0.968304 0.475617 0.599690
O O6 0.108917 0.479026 0.447471
O O7 0.756287 0.370543 0.457288
O O8 0.536520 0.050927 0.290124
O O9 0.132004 0.969075 0.190171
O O10 0.446159 0.139504 0.770025
O O11 0.210111 0.147380 0.588623
O O12 0.894818 0.161311 0.709304
O O13 0.932831 0.377126 0.939052
O O14 0.463487 0.271902 0.943056
O O15 0.441837 0.412400 0.933544
O O16 0.922980 0.774169 0.360725
#
# Coordination Sequence:
#
# PCOD9140829 Si02
#       8
#     4   4   4   4   4   4   4   4
#     4  11  26  48  73 111 154 200 250 323 389 456
#     4  11  26  49  76 111 158 203 253 327 389 454
#     4  11  27  46  73 112 155 200 256 319 387 463
#     4  12  26  50  74 107 148 199 253 317 374 455
#     4  12  26  50  77 111 151 200 254 319 377 459
#     4  12  28  47  78 114 151 207 258 310 390 463
#     4  11  27  47  76 111 152 199 253 318 385 460
#     4  12  28  47  77 109 147 202 257 311 385 462
#
# _framework density 25.836117000000002
#
# number of rings (size 3 to 8) (size 9 to 14) (size 15 to 20)
#    0.000    0.500    2.500    3.750   12.250    1.000 
#    0.000    0.000    0.000    0.000    0.000    0.000 
#    0.000    0.000    0.000    0.000    0.000    0.000 
#
# Total GULP energy -89588.939564 kJ/mol
# GULP energy per Si atom -5599.308723 kJ/mol
# Density = 2.577731 g / cm^3
# Si number density = 25.836117 Si / 1000 Ang^3
#
#
#
# Elastic Constant Matrix: (Units=GPa)
#
#
# Indices 1 2 3 4 5 6 
#
# 1 69.6532 -3.2889 9.3535 0.0000 5.1058 0.0000
# 2 -3.2889 93.0067 45.3728 0.0000 8.1127 0.0000
# 3 9.3535 45.3728 128.6484 0.0000 21.2346 0.0000
# 4 0.0000 0.0000 0.0000 41.1725 0.0000 12.7744
# 5 5.1058 8.1127 21.2346 0.0000 37.7300 0.0000
# 6 0.0000 0.0000 0.0000 12.7744 0.0000 159.0596
#
#
#
# Elastic Compliance Matrix: (Units=1/GPa)
#
#
# Indices 1 2 3 4 5 6 
#
# 1 0.014700 0.001270 -0.001260 0.000000 -0.001553 0.000000
# 2 0.001270 0.013098 -0.004651 0.000000 -0.000371 0.000000
# 3 -0.001260 -0.004651 0.010265 0.000000 -0.004607 0.000000
# 4 0.000000 0.000000 0.000000 0.024909 0.000000 -0.002000
# 5 -0.001553 -0.000371 -0.004607 0.000000 0.029387 0.000000
# 6 0.000000 0.000000 0.000000 -0.002000 0.000000 0.006448
#
#
# Mechanical properties :
#
#
# Convention : Reuss Voigt Hill
#
# Bulk Modulus (GPa) = 34.74451 43.79810 39.27130
# Shear Modulus (GPa) = 42.48739 63.58383 53.03561
#
# Velocity S-wave (km/s) = 4.05964 4.96627 4.53567
# Velocity P-wave (km/s) = 5.95411 7.06217 6.53168
#
# Compressibility (1/GPa) = 0.02878153
#
# Stress axis : x y z
#
# Youngs Moduli (GPa) = 68.02756 76.34773 97.41467
#
# Poissons Ratio (x) = -0.09697 0.12278
# Poissons Ratio (y) = -0.08641 0.45304
# Poissons Ratio (z) = 0.08574 0.35507
#
# Static dielectric constant tensor:
#      x y z
#    x 2.095170 0.000000 -0.024860 
#    y 0.000000 2.082210 0.000000 
#    z -0.024860 0.000000 2.074280 
# 
# From -- ./inp_files/21950.got.cif
#   From: 2010.05.17/outbox.cif.g08.bks.cpg/sg9_11_cif.got.tgz:21950.got - 2010.06.03 20:04:27.
