data_PCOD9140308
_publ_section_title
;
Structure prediction by ZEFSAII (Michael W. Deem and Ramdas Pophale) SiO2 
 PCOD9140308
Probable space group: C C
;
_chemical_formula_sum "Si O2"
_cell_formula_units_Z 20
_cell_length_a 14.352687
_cell_length_b 5.095334
_cell_length_c 11.080916
_cell_angle_alpha 90.000000
_cell_angle_beta 114.054094
_cell_angle_gamma 90.000000
_cell_volume 739.995212
_symmetry_space_group_name_H-M "C C"
_symmetry_group_IT_number 9
_symmetry_cell_setting 'monoclinic'
loop_
_space_group_symop_operation_xyz
x,y,z
x,-y,1/2+z
1/2+x,1/2+y,z
1/2+x,1/2-y,1/2+z
loop_
_atom_site_type_symbol
_atom_site_label
_atom_site_fract_x
_atom_site_fract_y
_atom_site_fract_z
Si Si1 0.899860 0.497136 0.443760
Si Si2 0.542264 0.500976 0.061926
Si Si3 0.865520 0.561589 0.674628
Si Si4 0.102885 0.375636 0.268455
Si Si5 0.697893 0.880735 0.572957
O O1 0.975538 0.745507 0.492397
O O2 0.831843 0.466027 0.526268
O O3 0.835965 0.536573 0.289890
O O4 0.969362 0.238305 0.484071
O O5 0.576880 0.571720 0.217695
O O6 0.647246 0.412419 0.055545
O O7 0.819717 0.856561 0.648484
O O8 0.987463 0.524997 0.733152
O O9 0.165616 0.453212 0.420237
O O10 0.153868 0.483388 0.171043
#
# Coordination Sequence:
#
# PCOD9140308 Si02
#       5
#     4   4   4   4   4
#     4  11  26  48  78 108 160 204 266 328 404 468
#     4  11  23  48  76 109 153 208 251 334 393 463
#     4  11  25  51  76 117 153 217 258 336 400 481
#     4  11  25  52  78 116 167 205 269 341 394 480
#     4  12  27  49  82 120 157 220 266 333 407 488
#
# _framework density 27.027203
#
# number of rings (size 3 to 8) (size 9 to 14) (size 15 to 20)
#    0.000    0.800    6.000    0.000    5.600    4.800 
#    7.200    0.000    0.000    0.000    0.000    0.000 
#    0.000    0.000    0.000    0.000    0.000    0.000 
#
# Total GULP energy -55734.067915 kJ/mol
# GULP energy per Si atom -5573.406791 kJ/mol
# Density = 2.696569 g / cm^3
# Si number density = 27.027203 Si / 1000 Ang^3
#
#
#
# Elastic Constant Matrix: (Units=GPa)
#
#
# Indices 1 2 3 4 5 6 
#
# 1 106.1544 27.4343 76.9945 0.0000 6.4458 0.0000
# 2 27.4343 127.4727 42.7821 0.0000 3.1738 0.0000
# 3 76.9945 42.7821 243.4165 0.0000 -45.1924 0.0000
# 4 0.0000 0.0000 0.0000 35.2304 0.0000 -4.7669
# 5 6.4458 3.1738 -45.1924 0.0000 38.7782 0.0000
# 6 0.0000 0.0000 0.0000 -4.7669 0.0000 44.8899
#
#
#
# Elastic Compliance Matrix: (Units=1/GPa)
#
#
# Indices 1 2 3 4 5 6 
#
# 1 0.014859 -0.000810 -0.006385 0.000000 -0.009845 0.000000
# 2 -0.000810 0.008673 -0.001755 0.000000 -0.002620 0.000000
# 3 -0.006385 -0.001755 0.008499 0.000000 0.011110 0.000000
# 4 0.000000 0.000000 0.000000 0.028798 0.000000 0.003058
# 5 -0.009845 -0.002620 0.011110 0.000000 0.040586 0.000000
# 6 0.000000 0.000000 0.000000 0.003058 0.000000 0.022601
#
#
# Mechanical properties :
#
#
# Convention : Reuss Voigt Hill
#
# Bulk Modulus (GPa) = 70.76547 85.71837 78.24192
# Shear Modulus (GPa) = 34.10009 45.76853 39.93431
#
# Velocity S-wave (km/s) = 3.55589 4.11959 3.84807
# Velocity P-wave (km/s) = 6.56498 7.37648 6.98253
#
# Compressibility (1/GPa) = 0.01413119
#
# Stress axis : x y z
#
# Youngs Moduli (GPa) = 67.30048 115.29717 117.66072
#
# Poissons Ratio (x) = 0.09335 0.75132
# Poissons Ratio (y) = 0.05449 0.20647
# Poissons Ratio (z) = 0.42975 0.20232
#
# Static dielectric constant tensor:
#      x y z
#    x 2.243600 0.000000 0.014140 
#    y 0.000000 2.199570 0.000000 
#    z 0.014140 0.000000 2.198400 
# 
# From -- ./inp_files/18747.got.cif
#   From: 2010.05.17/outbox.cif.g08.bks.cpg/sg9_10_cif.got.tgz:18747.got - 2010.06.03 20:04:27.
