data_PCOD9140776
_publ_section_title
;
Structure prediction by ZEFSAII (Michael W. Deem and Ramdas Pophale) SiO2 
 PCOD9140776
Probable space group: C C
;
_chemical_formula_sum "Si O2"
_cell_formula_units_Z 28
_cell_length_a 17.109508
_cell_length_b 7.243250
_cell_length_c 24.029553
_cell_angle_alpha 90.000000
_cell_angle_beta 20.178901
_cell_angle_gamma 90.000000
_cell_volume 1027.249843
_symmetry_space_group_name_H-M "C C"
_symmetry_group_IT_number 9
_symmetry_cell_setting 'monoclinic'
loop_
_space_group_symop_operation_xyz
x,y,z
x,-y,1/2+z
1/2+x,1/2+y,z
1/2+x,1/2-y,1/2+z
loop_
_atom_site_type_symbol
_atom_site_label
_atom_site_fract_x
_atom_site_fract_y
_atom_site_fract_z
Si Si1 0.801780 0.252048 0.585820
Si Si2 0.138758 0.080776 0.296176
Si Si3 0.443577 0.766972 0.894613
Si Si4 0.541617 0.228465 0.652146
Si Si5 0.453236 0.851924 0.766318
Si Si6 0.121875 0.495815 0.502901
Si Si7 0.658009 0.932052 0.861126
O O1 0.679539 0.250021 0.726458
O O2 0.659157 0.319329 0.627435
O O3 0.918612 0.072014 0.482045
O O4 0.031094 0.372318 0.441576
O O5 0.362171 0.065567 0.183757
O O6 0.094958 0.915957 0.281957
O O7 0.179943 0.725641 0.084348
O O8 0.472788 0.886549 0.819675
O O9 0.558703 0.833798 0.874291
O O10 0.420949 0.379659 0.693210
O O11 0.407722 0.051271 0.768560
O O12 0.699456 0.117131 0.502981
O O13 0.272473 0.682474 0.887439
O O14 0.099049 0.624176 0.463827
#
# Coordination Sequence:
#
# PCOD9140776 Si02
#       7
#     4   4   4   4   4   4   4
#     4  11  27  50  78 112 157 216 263 332 407 486
#     4  11  25  51  75 111 170 204 268 336 401 484
#     4  12  26  50  76 117 163 215 266 336 403 498
#     4  12  27  50  79 117 163 209 273 342 400 483
#     4  12  26  48  82 115 161 213 267 338 411 468
#     4  11  26  52  75 121 160 205 278 346 385 504
#     4  11  29  45  77 109 160 212 265 326 405 479
#
# _framework density 27.257245999999999
#
# number of rings (size 3 to 8) (size 9 to 14) (size 15 to 20)
#    0.000    0.571    4.286    1.714   12.000    0.000 
#    2.571    0.000    0.000    0.000    0.000    0.000 
#    0.000    0.000    0.000    0.000    0.000    0.000 
#
# Total GULP energy -78120.136123 kJ/mol
# GULP energy per Si atom -5580.009723 kJ/mol
# Density = 2.719521 g / cm^3
# Si number density = 27.257246 Si / 1000 Ang^3
#
#
#
# Elastic Constant Matrix: (Units=GPa)
#
#
# Indices 1 2 3 4 5 6 
#
# 1 185.2663 34.3236 29.9417 -0.0021 17.4284 0.0029
# 2 34.3236 68.0047 27.6846 -0.0048 -1.9588 -0.0021
# 3 29.9417 27.6846 109.6537 -0.0652 5.2817 -0.0058
# 4 -0.0021 -0.0048 -0.0652 35.3116 -0.0035 -5.0663
# 5 17.4284 -1.9588 5.2817 -0.0035 54.2326 0.0011
# 6 0.0029 -0.0021 -0.0058 -5.0663 0.0011 49.8354
#
#
#
# Elastic Compliance Matrix: (Units=1/GPa)
#
#
# Indices 1 2 3 4 5 6 
#
# 1 0.006262 -0.002856 -0.000891 -0.000002 -0.002029 -0.000001
# 2 -0.002856 0.017746 -0.003793 -0.000005 0.001928 0.000000
# 3 -0.000891 -0.003793 0.010362 0.000019 -0.000860 0.000003
# 4 -0.000002 -0.000005 0.000019 0.028739 0.000000 0.002922
# 5 -0.002029 0.001928 -0.000860 0.000000 0.019244 0.000000
# 6 -0.000001 0.000000 0.000003 0.002922 0.000000 0.020363
#
#
# Mechanical properties :
#
#
# Convention : Reuss Voigt Hill
#
# Bulk Modulus (GPa) = 51.84332 60.75828 56.30080
# Shear Modulus (GPa) = 40.24904 45.94092 43.09498
#
# Velocity S-wave (km/s) = 3.84687 4.10989 3.98055
# Velocity P-wave (km/s) = 6.22836 6.69781 6.46735
#
# Compressibility (1/GPa) = 0.01928889
#
# Stress axis : x y z
#
# Youngs Moduli (GPa) = 159.70334 56.34991 96.50578
#
# Poissons Ratio (x) = 0.16094 0.08598
# Poissons Ratio (y) = 0.45613 0.36609
# Poissons Ratio (z) = 0.14229 0.21376
#
# Static dielectric constant tensor:
#      x y z
#    x 2.147570 -0.000010 -0.065200 
#    y -0.000010 2.270660 0.000040 
#    z -0.065200 0.000040 2.248980 
# 
# From -- ./inp_files/35803.got.cif
#   From: 2010.05.17/outbox.cif.g08.bks.cpg/sg9_18_cif.got.tgz:35803.got - 2010.06.03 20:04:27.
