data_PCOD9140784
_publ_section_title
;
Structure prediction by ZEFSAII (Michael W. Deem and Ramdas Pophale) SiO2 
 PCOD9140784
Probable space group: C C
;
_chemical_formula_sum "Si O2"
_cell_formula_units_Z 32
_cell_length_a 4.958956
_cell_length_b 17.912351
_cell_length_c 13.873650
_cell_angle_alpha 90.000000
_cell_angle_beta 100.278716
_cell_angle_gamma 90.000000
_cell_volume 1212.571129
_symmetry_space_group_name_H-M "C C"
_symmetry_group_IT_number 9
_symmetry_cell_setting 'monoclinic'
loop_
_space_group_symop_operation_xyz
x,y,z
x,-y,1/2+z
1/2+x,1/2+y,z
1/2+x,1/2-y,1/2+z
loop_
_atom_site_type_symbol
_atom_site_label
_atom_site_fract_x
_atom_site_fract_y
_atom_site_fract_z
Si Si1 0.949810 0.991580 0.232380
Si Si2 0.737455 0.393086 0.484644
Si Si3 0.219730 0.491713 0.511249
Si Si4 0.385376 0.319071 0.249524
Si Si5 0.586403 0.233349 0.923999
Si Si6 0.277233 0.881052 0.704555
Si Si7 0.768100 0.115416 0.371866
Si Si8 0.859781 0.246718 0.149106
O O1 0.869680 0.045880 0.313719
O O2 0.227208 0.030730 0.213544
O O3 0.757021 0.002851 0.127795
O O4 0.962731 0.905879 0.259989
O O5 0.441477 0.430064 0.486976
O O6 0.852263 0.368782 0.597989
O O7 0.924961 0.461445 0.462560
O O8 0.245243 0.574666 0.472483
O O9 0.273393 0.292855 0.346928
O O10 0.488465 0.139604 0.301226
O O11 0.833290 0.324403 0.424177
O O12 0.625128 0.275914 0.206629
O O13 0.462282 0.314357 0.897053
O O14 0.611006 0.195006 0.668544
O O15 0.757496 0.236743 0.033826
O O16 0.000856 0.830917 0.693312
#
# Coordination Sequence:
#
# PCOD9140784 Si02
#       8
#     4   4   4   4   4   4   4   4
#     4  11  26  53  79 122 168 219 284 361 444 515
#     4  11  25  52  81 117 165 229 276 352 440 516
#     4  11  26  50  83 118 167 222 287 355 439 520
#     4  12  31  53  89 126 173 236 293 369 434 532
#     4  12  29  56  89 128 178 234 303 357 452 537
#     4  11  27  54  90 119 176 229 287 363 447 520
#     4  12  28  53  85 130 166 227 295 364 438 530
#     4  12  30  57  84 126 179 230 297 365 446 524
#
# _framework density 26.390205000000002
#
# number of rings (size 3 to 8) (size 9 to 14) (size 15 to 20)
#    0.000    0.500    1.250    4.500    8.750    6.000 
#    9.000    0.000    0.000    0.000    0.000    0.000 
#    0.000    0.000    0.000    0.000    0.000    0.000 
#
# Total GULP energy -89727.375079 kJ/mol
# GULP energy per Si atom -5607.960942 kJ/mol
# Density = 2.633014 g / cm^3
# Si number density = 26.390205 Si / 1000 Ang^3
#
#
#
# Elastic Constant Matrix: (Units=GPa)
#
#
# Indices 1 2 3 4 5 6 
#
# 1 162.7300 71.2342 58.1547 0.0000 -8.8036 0.0000
# 2 71.2342 225.4589 74.2118 0.0000 -14.3948 0.0000
# 3 58.1547 74.2118 141.1961 0.0000 1.7811 0.0000
# 4 0.0000 0.0000 0.0000 52.9557 0.0000 -7.4279
# 5 -8.8036 -14.3948 1.7811 0.0000 48.4184 0.0000
# 6 0.0000 0.0000 0.0000 -7.4279 0.0000 40.8479
#
#
#
# Elastic Compliance Matrix: (Units=1/GPa)
#
#
# Indices 1 2 3 4 5 6 
#
# 1 0.007746 -0.001606 -0.002359 0.000000 0.001018 0.000000
# 2 -0.001606 0.005840 -0.002427 0.000000 0.001533 0.000000
# 3 -0.002359 -0.002427 0.009349 0.000000 -0.001494 0.000000
# 4 0.000000 0.000000 0.000000 0.019378 0.000000 0.003524
# 5 0.001018 0.001533 -0.001494 0.000000 0.021349 0.000000
# 6 0.000000 0.000000 0.000000 0.003524 0.000000 0.025122
#
#
# Mechanical properties :
#
#
# Convention : Reuss Voigt Hill
#
# Bulk Modulus (GPa) = 98.52370 104.06516 101.29443
# Shear Modulus (GPa) = 47.64100 50.16336 48.90218
#
# Velocity S-wave (km/s) = 4.25344 4.36458 4.30937
# Velocity P-wave (km/s) = 7.84454 8.05719 7.95157
#
# Compressibility (1/GPa) = 0.01014984
#
# Stress axis : x y z
#
# Youngs Moduli (GPa) = 129.09360 171.24404 106.96753
#
# Poissons Ratio (x) = 0.27500 0.25237
# Poissons Ratio (y) = 0.20731 0.25963
# Poissons Ratio (z) = 0.30457 0.41564
#
# Static dielectric constant tensor:
#      x y z
#    x 2.124000 0.000000 -0.012740 
#    y 0.000000 2.036630 0.000000 
#    z -0.012740 0.000000 2.109300 
# 
# From -- ./inp_files/13751.got.cif
#   From: 2010.05.17/outbox.cif.g08.bks.cpg/sg9_7_cif.got.tgz:13751.got - 2010.06.03 20:04:27.
