data_PCOD9140183
_publ_section_title
;
Structure prediction by ZEFSAII (Michael W. Deem and Ramdas Pophale) SiO2 
 PCOD9140183
Probable space group: C C
;
_chemical_formula_sum "Si O2"
_cell_formula_units_Z 28
_cell_length_a 8.415010
_cell_length_b 11.446803
_cell_length_c 14.071716
_cell_angle_alpha 90.000000
_cell_angle_beta 101.519063
_cell_angle_gamma 90.000000
_cell_volume 1328.156311
_symmetry_space_group_name_H-M "C C"
_symmetry_group_IT_number 9
_symmetry_cell_setting 'monoclinic'
loop_
_space_group_symop_operation_xyz
x,y,z
x,-y,1/2+z
1/2+x,1/2+y,z
1/2+x,1/2-y,1/2+z
loop_
_atom_site_type_symbol
_atom_site_label
_atom_site_fract_x
_atom_site_fract_y
_atom_site_fract_z
Si Si1 0.150460 0.740331 0.703200
Si Si2 0.197874 0.382216 0.919147
Si Si3 0.679006 0.542931 0.099384
Si Si4 0.701342 0.615536 0.896722
Si Si5 0.948821 0.540898 0.772291
Si Si6 0.971752 0.917401 0.802923
Si Si7 0.861635 0.934197 0.132457
O O1 0.103850 0.829434 0.613662
O O2 0.108464 0.823399 0.788946
O O3 0.319174 0.680910 0.690057
O O4 0.040675 0.628841 0.713017
O O5 0.149260 0.246855 0.912809
O O6 0.365468 0.384959 0.879870
O O7 0.071001 0.459841 0.845680
O O8 0.237130 0.429213 0.029307
O O9 0.823552 0.529192 0.191594
O O10 0.541240 0.447321 0.107344
O O11 0.740424 0.548599 0.999689
O O12 0.846297 0.611716 0.838530
O O13 0.560149 0.538782 0.834412
O O14 0.854586 0.952401 0.700511
#
# Coordination Sequence:
#
# PCOD9140183 Si02
#       7
#     4   4   4   4   4   4   4
#     4  11  23  45  67 100 139 173 231 283 335 409
#     4  12  26  42  70 102 136 181 226 281 343 404
#     4  11  26  45  69  99 141 180 227 285 339 407
#     4  12  25  43  69 102 135 180 231 273 346 410
#     4  12  27  42  68 105 136 178 229 283 341 408
#     4  11  24  45  67  98 140 178 224 281 341 406
#     4  11  23  46  70  96 137 182 226 280 341 402
#
# _framework density 21.081855999999998
#
# number of rings (size 3 to 8) (size 9 to 14) (size 15 to 20)
#    0.000    0.571    8.571    0.000    4.000    0.000 
#    0.000    5.714    0.000    0.000    0.000    0.000 
#    0.000    0.000    0.000    0.000    0.000    0.000 
#
# Total GULP energy -78034.052217 kJ/mol
# GULP energy per Si atom -5573.860873 kJ/mol
# Density = 2.103387 g / cm^3
# Si number density = 21.081856 Si / 1000 Ang^3
#
#
#
# Elastic Constant Matrix: (Units=GPa)
#
#
# Indices 1 2 3 4 5 6 
#
# 1 60.1703 45.7686 38.1514 0.0000 1.6952 0.0000
# 2 45.7686 107.8533 33.7125 0.0000 7.2741 0.0000
# 3 38.1514 33.7125 122.3624 0.0000 -1.5485 0.0000
# 4 0.0000 0.0000 0.0000 22.8987 0.0000 -10.9549
# 5 1.6952 7.2741 -1.5485 0.0000 35.0397 0.0000
# 6 0.0000 0.0000 0.0000 -10.9549 0.0000 39.1448
#
#
#
# Elastic Compliance Matrix: (Units=1/GPa)
#
#
# Indices 1 2 3 4 5 6 
#
# 1 0.028048 -0.010070 -0.005965 0.000000 0.000470 0.000000
# 2 -0.010070 0.013938 -0.000731 0.000000 -0.002439 0.000000
# 3 -0.005965 -0.000731 0.010245 0.000000 0.000893 0.000000
# 4 0.000000 0.000000 0.000000 0.050421 0.000000 0.014111
# 5 0.000470 -0.002439 0.000893 0.000000 0.029062 0.000000
# 6 0.000000 0.000000 0.000000 0.014111 0.000000 0.029495
#
#
# Mechanical properties :
#
#
# Convention : Reuss Voigt Hill
#
# Bulk Modulus (GPa) = 53.47781 58.40565 55.94173
# Shear Modulus (GPa) = 24.87889 30.93354 27.90622
#
# Velocity S-wave (km/s) = 3.43900 3.83470 3.64223
# Velocity P-wave (km/s) = 6.41800 6.88265 6.65439
#
# Compressibility (1/GPa) = 0.01869934
#
# Stress axis : x y z
#
# Youngs Moduli (GPa) = 35.65366 71.74607 97.60853
#
# Poissons Ratio (x) = 0.72245 0.58221
# Poissons Ratio (y) = 0.35902 0.07139
# Poissons Ratio (z) = 0.21266 0.05248
#
# Static dielectric constant tensor:
#      x y z
#    x 1.774160 0.000000 -0.018630 
#    y 0.000000 1.774850 0.000000 
#    z -0.018630 0.000000 1.782250 
# 
# From -- ./inp_files/22565.got.cif
#   From: 2010.05.17/outbox.cif.g08.bks.cpg/sg9_12_cif.got.tgz:22565.got - 2010.06.03 20:04:27.
