data_PCOD9140334
_publ_section_title
;
Structure prediction by ZEFSAII (Michael W. Deem and Ramdas Pophale) SiO2 
 PCOD9140334
Probable space group: C C
;
_chemical_formula_sum "Si O2"
_cell_formula_units_Z 32
_cell_length_a 14.165126
_cell_length_b 11.762653
_cell_length_c 7.884236
_cell_angle_alpha 90.000000
_cell_angle_beta 114.504929
_cell_angle_gamma 90.000000
_cell_volume 1195.339368
_symmetry_space_group_name_H-M "C C"
_symmetry_group_IT_number 9
_symmetry_cell_setting 'monoclinic'
loop_
_space_group_symop_operation_xyz
x,y,z
x,-y,1/2+z
1/2+x,1/2+y,z
1/2+x,1/2-y,1/2+z
loop_
_atom_site_type_symbol
_atom_site_label
_atom_site_fract_x
_atom_site_fract_y
_atom_site_fract_z
Si Si1 0.391320 0.638230 0.177800
Si Si2 0.938421 0.546685 0.947285
Si Si3 0.575821 0.896929 0.247566
Si Si4 0.930155 0.210884 0.571673
Si Si5 0.755599 0.638406 0.622814
Si Si6 0.233700 0.442748 0.985704
Si Si7 0.140558 0.790377 0.388900
Si Si8 0.609363 0.634941 0.214488
O O1 0.450672 0.665987 0.397077
O O2 0.324675 0.754728 0.101924
O O3 0.304540 0.540880 0.126411
O O4 0.486798 0.600769 0.127115
O O5 0.837722 0.547822 0.756094
O O6 0.038243 0.582245 0.910896
O O7 0.921636 0.652919 0.060129
O O8 0.977077 0.434170 0.064773
O O9 0.602893 0.768277 0.250883
O O10 0.674786 0.978957 0.300797
O O11 0.823192 0.151292 0.530953
O O12 0.021172 0.180374 0.763564
O O13 0.695690 0.684233 0.748159
O O14 0.681016 0.591186 0.420697
O O15 0.145570 0.344204 0.945469
O O16 0.164598 0.864726 0.573038
#
# Coordination Sequence:
#
# PCOD9140334 Si02
#       8
#     4   4   4   4   4   4   4   4
#     4  11  24  46  75 111 160 208 258 324 398 467
#     4  11  24  46  73 111 161 204 255 327 405 460
#     4  12  24  44  77 118 146 202 271 324 376 483
#     4  11  24  46  73 109 168 201 244 338 408 449
#     4  11  23  51  75 101 161 215 243 325 413 453
#     4  12  26  42  84 118 146 208 276 313 391 485
#     4  12  25  45  76 111 152 204 262 320 395 468
#     4  12  26  46  77 115 158 200 269 331 392 465
#
# _framework density 26.770638000000002
#
# number of rings (size 3 to 8) (size 9 to 14) (size 15 to 20)
#    0.000    0.500    8.750    0.750    3.500    2.000 
#    2.250    1.250    0.000    0.000    0.000    0.000 
#    0.000    0.000    0.000    0.000    0.000    0.000 
#
# Total GULP energy -89377.330403 kJ/mol
# GULP energy per Si atom -5586.083150 kJ/mol
# Density = 2.670971 g / cm^3
# Si number density = 26.770638 Si / 1000 Ang^3
#
#
#
# Elastic Constant Matrix: (Units=GPa)
#
#
# Indices 1 2 3 4 5 6 
#
# 1 83.2341 53.7237 36.4331 0.0000 23.2833 0.0000
# 2 53.7237 108.5655 50.8316 0.0000 0.4296 0.0000
# 3 36.4331 50.8316 136.0217 0.0000 34.4618 0.0000
# 4 0.0000 0.0000 0.0000 241.3522 0.0000 -128.1568
# 5 23.2833 0.4296 34.4618 0.0000 34.3396 0.0000
# 6 0.0000 0.0000 0.0000 -128.1568 0.0000 144.3272
#
#
#
# Elastic Compliance Matrix: (Units=1/GPa)
#
#
# Indices 1 2 3 4 5 6 
#
# 1 0.025392 -0.014271 0.003820 0.000000 -0.020872 0.000000
# 2 -0.014271 0.019994 -0.008096 0.000000 0.017551 0.000000
# 3 0.003820 -0.008096 0.013389 0.000000 -0.015925 0.000000
# 4 0.000000 0.000000 0.000000 0.007840 0.000000 0.006961
# 5 -0.020872 0.017551 -0.015925 0.000000 0.059035 0.000000
# 6 0.000000 0.000000 0.000000 0.006961 0.000000 0.013110
#
#
# Mechanical properties :
#
#
# Convention : Reuss Voigt Hill
#
# Bulk Modulus (GPa) = 46.12422 67.75535 56.93979
# Shear Modulus (GPa) = 27.31007 96.45931 61.88469
#
# Velocity S-wave (km/s) = 3.19744 6.00916 4.81319
# Velocity P-wave (km/s) = 5.55863 8.57386 7.22529
#
# Compressibility (1/GPa) = 0.02168058
#
# Stress axis : x y z
#
# Youngs Moduli (GPa) = 39.38213 50.01385 74.68862
#
# Poissons Ratio (x) = 0.71376 -0.28531
# Poissons Ratio (y) = 0.56204 0.60469
# Poissons Ratio (z) = -0.15044 0.40492
#
# Static dielectric constant tensor:
#      x y z
#    x 2.268560 0.000000 -0.108190 
#    y 0.000000 1.581250 0.000000 
#    z -0.108190 0.000000 2.087750 
# 
# From -- ./inp_files/9333.got.cif
#   From: 2010.05.17/outbox.cif.g08.bks.cpg/sg9_5_cif.got.tgz:9333.got - 2010.06.03 20:04:27.
