data_PCOD9140077
_publ_section_title
;
Structure prediction by ZEFSAII (Michael W. Deem and Ramdas Pophale) SiO2 
 PCOD9140077
Probable space group: C C
;
_chemical_formula_sum "Si O2"
_cell_formula_units_Z 24
_cell_length_a 22.962828
_cell_length_b 5.516062
_cell_length_c 9.132190
_cell_angle_alpha 90.000000
_cell_angle_beta 66.304772
_cell_angle_gamma 90.000000
_cell_volume 1059.206895
_symmetry_space_group_name_H-M "C C"
_symmetry_group_IT_number 9
_symmetry_cell_setting 'monoclinic'
loop_
_space_group_symop_operation_xyz
x,y,z
x,-y,1/2+z
1/2+x,1/2+y,z
1/2+x,1/2-y,1/2+z
loop_
_atom_site_type_symbol
_atom_site_label
_atom_site_fract_x
_atom_site_fract_y
_atom_site_fract_z
Si Si1 0.063330 0.720077 0.219810
Si Si2 0.414697 0.244083 0.433141
Si Si3 0.630435 0.131347 0.860604
Si Si4 0.187327 0.018254 0.636279
Si Si5 0.230021 0.744284 0.347828
Si Si6 0.871175 0.239921 0.315789
O O1 0.085813 0.477909 0.279169
O O2 0.186686 0.240114 0.212565
O O3 0.990084 0.752047 0.325238
O O4 0.081668 0.732478 0.030766
O O5 0.390316 0.497216 0.385810
O O6 0.402559 0.243668 0.621129
O O7 0.386674 0.993501 0.387271
O O8 0.614473 0.594288 0.737466
O O9 0.672871 0.944559 0.913620
O O10 0.202831 0.986175 0.453220
O O11 0.234894 0.194499 0.671226
O O12 0.296466 0.704449 0.356423
#
# Coordination Sequence:
#
# PCOD9140077 Si02
#       6
#     4   4   4   4   4   4
#     4  11  25  42  70  99 139 174 239 282 360 418
#     4  12  29  49  76 106 148 200 243 298 357 438
#     4  11  23  40  67 100 131 176 218 298 348 407
#     4  11  23  40  67 100 131 176 218 298 348 407
#     4  11  25  42  70  99 139 174 239 282 360 418
#     4  12  29  49  76 106 148 200 243 298 357 438
#
# _framework density 22.658463999999999
#
# number of rings (size 3 to 8) (size 9 to 14) (size 15 to 20)
#    0.000    0.667    3.333    3.000    9.333    0.000 
#    0.000    0.000    0.000    0.000    0.000    0.000 
#    0.000    0.000    0.000    0.000    0.000    0.000 
#
# Total GULP energy -66880.815295 kJ/mol
# GULP energy per Si atom -5573.401275 kJ/mol
# Density = 2.260689 g / cm^3
# Si number density = 22.658464 Si / 1000 Ang^3
#
#
#
# Elastic Constant Matrix: (Units=GPa)
#
#
# Indices 1 2 3 4 5 6 
#
# 1 75.2591 6.2561 -23.4932 0.0000 -9.7369 0.0000
# 2 6.2561 83.4702 12.8794 0.0000 17.0772 0.0000
# 3 -23.4932 12.8794 107.5665 0.0000 8.1665 0.0000
# 4 0.0000 0.0000 0.0000 32.8347 0.0000 -2.0165
# 5 -9.7369 17.0772 8.1665 0.0000 35.7773 0.0000
# 6 0.0000 0.0000 0.0000 -2.0165 0.0000 -2.7258
#
#
#
# Elastic Compliance Matrix: (Units=1/GPa)
#
#
# Indices 1 2 3 4 5 6 
#
# 1 0.015114 -0.002577 0.003260 0.000000 0.004599 0.000000
# 2 -0.002577 0.013852 -0.001696 0.000000 -0.006926 0.000000
# 3 0.003260 -0.001696 0.010261 0.000000 -0.000645 0.000000
# 4 0.000000 0.000000 0.000000 0.029132 0.000000 -0.021552
# 5 0.004599 -0.006926 -0.000645 0.000000 0.032656 0.000000
# 6 0.000000 0.000000 0.000000 -0.021552 0.000000 -0.350918
#
#
# Mechanical properties :
#
#
# Convention : Reuss Voigt Hill
#
# Bulk Modulus (GPa) = 26.87928 28.62004 27.74966
# Shear Modulus (GPa) = -21.23343 31.22081 4.99369
#
# Velocity S-wave (km/s) = -3.06454 3.71602 1.48616
# Velocity P-wave (km/s) = 0.79583 5.57406 3.90108
#
# Compressibility (1/GPa) = 0.03720338
#
# Stress axis : x y z
#
# Youngs Moduli (GPa) = 66.16172 72.19120 97.45925
#
# Poissons Ratio (x) = 0.18603 -0.31776
# Poissons Ratio (y) = 0.17049 0.16525
# Poissons Ratio (z) = -0.21572 0.12240
#
# Static dielectric constant tensor:
#      x y z
#    x 1.796560 0.000000 0.016700 
#    y 0.000000 2.185390 0.000000 
#    z 0.016700 0.000000 1.837330 
# 
# From -- ./inp_files/11910.got.cif
#   From: 2010.05.17/outbox.cif.g08.bks.cpg/sg9_6_cif.got.tgz:11910.got - 2010.06.03 20:04:27.
