data_PCOD9140685
_publ_section_title
;
Structure prediction by ZEFSAII (Michael W. Deem and Ramdas Pophale) SiO2 
 PCOD9140685
Probable space group: C C
;
_chemical_formula_sum "Si O2"
_cell_formula_units_Z 20
_cell_length_a 8.254810
_cell_length_b 12.205501
_cell_length_c 8.174126
_cell_angle_alpha 90.000000
_cell_angle_beta 122.160848
_cell_angle_gamma 90.000000
_cell_volume 697.204652
_symmetry_space_group_name_H-M "C C"
_symmetry_group_IT_number 9
_symmetry_cell_setting 'monoclinic'
loop_
_space_group_symop_operation_xyz
x,y,z
x,-y,1/2+z
1/2+x,1/2+y,z
1/2+x,1/2-y,1/2+z
loop_
_atom_site_type_symbol
_atom_site_label
_atom_site_fract_x
_atom_site_fract_y
_atom_site_fract_z
Si Si1 0.013380 0.516058 0.885310
Si Si2 0.322862 0.623497 0.214550
Si Si3 0.669519 0.661240 0.645843
Si Si4 0.344063 0.398903 0.319476
Si Si5 0.608607 0.239459 0.474324
O O1 0.176813 0.561521 0.848477
O O2 0.026479 0.386020 0.920277
O O3 0.805174 0.555938 0.723959
O O4 0.093177 0.586670 0.084877
O O5 0.468919 0.645377 0.446033
O O6 0.295176 0.744281 0.124509
O O7 0.397879 0.497663 0.227587
O O8 0.656617 0.712413 0.821112
O O9 0.516632 0.346742 0.511461
O O10 0.284829 0.292154 0.186132
#
# Coordination Sequence:
#
# PCOD9140685 Si02
#       5
#     4   4   4   4   4
#     4  11  27  51  74 113 153 201 255 315 376 461
#     4  11  25  46  77 111 151 201 253 312 379 455
#     4  12  24  49  78 106 152 209 244 308 395 445
#     4  11  27  49  74 114 156 192 261 320 371 457
#     4  11  27  49  75 112 154 199 253 317 381 454
#
# _framework density 28.685983
#
# number of rings (size 3 to 8) (size 9 to 14) (size 15 to 20)
#    0.000    0.800    4.000    1.200    8.400    0.000 
#    3.600    0.000    0.000    0.000    0.000    0.000 
#    0.000    0.000    0.000    0.000    0.000    0.000 
#
# Total GULP energy -55672.649489 kJ/mol
# GULP energy per Si atom -5567.264949 kJ/mol
# Density = 2.862069 g / cm^3
# Si number density = 28.685983 Si / 1000 Ang^3
#
#
#
# Elastic Constant Matrix: (Units=GPa)
#
#
# Indices 1 2 3 4 5 6 
#
# 1 97.7393 56.0305 29.0406 0.0000 12.3346 0.0000
# 2 56.0305 181.0623 36.6313 0.0000 36.2631 0.0000
# 3 29.0406 36.6313 85.9138 0.0000 26.3735 0.0000
# 4 0.0000 0.0000 0.0000 80.7941 0.0000 20.6228
# 5 12.3346 36.2631 26.3735 0.0000 55.2539 0.0000
# 6 0.0000 0.0000 0.0000 20.6228 0.0000 33.3700
#
#
#
# Elastic Compliance Matrix: (Units=1/GPa)
#
#
# Indices 1 2 3 4 5 6 
#
# 1 0.013128 -0.003609 -0.003194 0.000000 0.000963 0.000000
# 2 -0.003609 0.007564 -0.000854 0.000000 -0.003751 0.000000
# 3 -0.003194 -0.000854 0.014871 0.000000 -0.005825 0.000000
# 4 0.000000 0.000000 0.000000 0.014695 0.000000 -0.009082
# 5 0.000963 -0.003751 -0.005825 0.000000 0.023126 0.000000
# 6 0.000000 0.000000 0.000000 -0.009082 0.000000 0.035580
#
#
# Mechanical properties :
#
#
# Convention : Reuss Voigt Hill
#
# Bulk Modulus (GPa) = 49.38438 67.56892 58.47665
# Shear Modulus (GPa) = 38.16018 50.08447 44.12232
#
# Velocity S-wave (km/s) = 3.65125 4.18300 3.92613
# Velocity P-wave (km/s) = 5.91848 6.85097 6.40172
#
# Compressibility (1/GPa) = 0.02024932
#
# Stress axis : x y z
#
# Youngs Moduli (GPa) = 76.17415 132.20999 67.24329
#
# Poissons Ratio (x) = 0.47715 0.21479
# Poissons Ratio (y) = 0.27492 0.05740
# Poissons Ratio (z) = 0.24331 0.11285
#
# Static dielectric constant tensor:
#      x y z
#    x 2.671970 0.000000 -0.387790 
#    y 0.000000 2.241360 0.000000 
#    z -0.387790 0.000000 2.769290 
# 
# From -- ./inp_files/4812.got.cif
#   From: 2010.05.17/outbox.cif.g08.bks.cpg/sg9_3_cif.got.tgz:4812.got - 2010.06.03 20:04:27.
