data_PCOD9140209
_publ_section_title
;
Structure prediction by ZEFSAII (Michael W. Deem and Ramdas Pophale) SiO2 
 PCOD9140209
Probable space group: C C
;
_chemical_formula_sum "Si O2"
_cell_formula_units_Z 28
_cell_length_a 14.290935
_cell_length_b 13.575327
_cell_length_c 9.599061
_cell_angle_alpha 90.000000
_cell_angle_beta 37.921849
_cell_angle_gamma 90.000000
_cell_volume 1144.517407
_symmetry_space_group_name_H-M "C C"
_symmetry_group_IT_number 9
_symmetry_cell_setting 'monoclinic'
loop_
_space_group_symop_operation_xyz
x,y,z
x,-y,1/2+z
1/2+x,1/2+y,z
1/2+x,1/2-y,1/2+z
loop_
_atom_site_type_symbol
_atom_site_label
_atom_site_fract_x
_atom_site_fract_y
_atom_site_fract_z
Si Si1 0.632540 0.226278 0.746810
Si Si2 0.171973 0.694799 0.096464
Si Si3 0.893182 0.339189 0.731096
Si Si4 0.794651 0.943311 0.237703
Si Si5 0.629819 0.550517 0.223995
Si Si6 0.794672 0.549892 0.758775
Si Si7 0.100173 0.645139 0.476151
O O1 0.721931 0.137646 0.717836
O O2 0.685463 0.339000 0.698780
O O3 0.616208 0.198084 0.604652
O O4 0.472265 0.223169 0.015949
O O5 0.170543 0.702385 0.262772
O O6 0.006814 0.670130 0.228715
O O7 0.231913 0.794241 0.958452
O O8 0.282368 0.609657 0.903778
O O9 0.881973 0.449502 0.694556
O O10 0.692314 0.041560 0.368153
O O11 0.961714 0.963910 0.982043
O O12 0.736220 0.468789 0.171929
O O13 0.651938 0.550988 0.032129
O O14 0.921704 0.629860 0.647687
#
# Coordination Sequence:
#
# PCOD9140209 Si02
#       7
#     4   4   4   4   4   4   4
#     4  11  25  47  75 105 144 195 240 296 365 440
#     4  11  24  44  72 104 139 185 240 295 362 429
#     4  11  23  45  72  99 145 194 232 286 373 437
#     4  11  25  44  74 101 143 192 238 291 372 435
#     4  12  29  46  73 108 151 188 245 304 364 432
#     4  12  26  46  72 109 146 192 241 302 363 430
#     4  12  26  44  78 104 144 184 252 298 359 431
#
# _framework density 24.464459999999999
#
# number of rings (size 3 to 8) (size 9 to 14) (size 15 to 20)
#    0.000    0.571    4.286    4.286    6.000    2.286 
#    0.000    0.000    0.000    0.000    0.000    0.000 
#    0.000    0.000    0.000    0.000    0.000    0.000 
#
# Total GULP energy -78378.086511 kJ/mol
# GULP energy per Si atom -5598.434751 kJ/mol
# Density = 2.440878 g / cm^3
# Si number density = 24.464460 Si / 1000 Ang^3
#
#
#
# Elastic Constant Matrix: (Units=GPa)
#
#
# Indices 1 2 3 4 5 6 
#
# 1 77.7836 16.5478 43.0973 0.0000 14.2130 0.0000
# 2 16.5478 46.7005 11.6379 0.0000 -1.1660 0.0000
# 3 43.0973 11.6379 123.9331 0.0000 21.0270 0.0000
# 4 0.0000 0.0000 0.0000 38.0615 0.0000 0.3372
# 5 14.2130 -1.1660 21.0270 0.0000 58.5858 0.0000
# 6 0.0000 0.0000 0.0000 0.3372 0.0000 30.7054
#
#
#
# Elastic Compliance Matrix: (Units=1/GPa)
#
#
# Indices 1 2 3 4 5 6 
#
# 1 0.017161 -0.004871 -0.005098 0.000000 -0.002431 0.000000
# 2 -0.004871 0.023395 -0.000833 0.000000 0.001946 0.000000
# 3 -0.005098 -0.000833 0.010343 0.000000 -0.002492 0.000000
# 4 0.000000 0.000000 0.000000 0.026276 0.000000 -0.000289
# 5 -0.002431 0.001946 -0.002492 0.000000 0.018592 0.000000
# 6 0.000000 0.000000 0.000000 -0.000289 0.000000 0.032571
#
#
# Mechanical properties :
#
#
# Convention : Reuss Voigt Hill
#
# Bulk Modulus (GPa) = 34.13604 43.44258 38.78931
# Shear Modulus (GPa) = 31.30731 37.27948 34.29339
#
# Velocity S-wave (km/s) = 3.58118 3.90785 3.74808
# Velocity P-wave (km/s) = 5.57525 6.17719 5.88392
#
# Compressibility (1/GPa) = 0.02929455
#
# Stress axis : x y z
#
# Youngs Moduli (GPa) = 58.27092 42.74360 96.68658
#
# Poissons Ratio (x) = 0.20821 0.49290
# Poissons Ratio (y) = 0.28385 0.08056
# Poissons Ratio (z) = 0.29706 0.03562
#
# Static dielectric constant tensor:
#      x y z
#    x 1.960050 0.000000 -0.019710 
#    y 0.000000 1.937830 0.000000 
#    z -0.019710 0.000000 1.941470 
# 
# From -- ./inp_files/7334.got.cif
#   From: 2010.05.17/outbox.cif.g08.bks.cpg/sg9_4_cif.got.tgz:7334.got - 2010.06.03 20:04:27.
