data_PCOD9140246
_publ_section_title
;
Structure prediction by ZEFSAII (Michael W. Deem and Ramdas Pophale) SiO2 
 PCOD9140246
Probable space group: C C
;
_chemical_formula_sum "Si O2"
_cell_formula_units_Z 32
_cell_length_a 8.634187
_cell_length_b 11.461306
_cell_length_c 28.511663
_cell_angle_alpha 90.000000
_cell_angle_beta 31.624059
_cell_angle_gamma 90.000000
_cell_volume 1479.428572
_symmetry_space_group_name_H-M "C C"
_symmetry_group_IT_number 9
_symmetry_cell_setting 'monoclinic'
loop_
_space_group_symop_operation_xyz
x,y,z
x,-y,1/2+z
1/2+x,1/2+y,z
1/2+x,1/2-y,1/2+z
loop_
_atom_site_type_symbol
_atom_site_label
_atom_site_fract_x
_atom_site_fract_y
_atom_site_fract_z
Si Si1 0.517570 0.454396 0.453400
Si Si2 0.666028 0.737598 0.851413
Si Si3 0.864405 0.410062 0.999090
Si Si4 0.345140 0.818870 0.841704
Si Si5 0.770056 0.339455 0.478548
Si Si6 0.665689 0.250088 0.169127
Si Si7 0.883862 0.488293 0.102599
Si Si8 0.834464 0.739725 0.157301
O O1 0.489075 0.375008 0.414977
O O2 0.745318 0.554679 0.383769
O O3 0.639282 0.366907 0.461073
O O4 0.203416 0.512219 0.545261
O O5 0.532454 0.770038 0.836154
O O6 0.012319 0.714112 0.754615
O O7 0.602177 0.837643 0.907069
O O8 0.828594 0.533768 0.984103
O O9 0.926288 0.443268 0.037736
O O10 0.560662 0.333146 0.075891
O O11 0.533171 0.819116 0.746269
O O12 0.057694 0.740113 0.905466
O O13 0.508661 0.279151 0.574641
O O14 0.656552 0.390469 0.180075
O O15 0.497872 0.214747 0.164735
O O16 0.791679 0.622725 0.136614
#
# Coordination Sequence:
#
# PCOD9140246 Si02
#       8
#     4   4   4   4   4   4   4   4
#     4  12  24  48  74  99 143 189 234 291 354 422
#     4  12  27  46  70 106 143 187 239 293 355 421
#     4  11  26  45  71 105 142 186 237 295 353 423
#     4  12  29  45  71 110 142 188 240 291 355 423
#     4  12  25  47  72 101 147 184 238 294 352 425
#     4  11  26  44  70 106 139 186 237 292 354 424
#     4  11  23  46  73 100 141 187 235 293 358 418
#     4  11  26  45  71 105 141 185 240 289 357 426
#
# _framework density 21.629971999999999
#
# number of rings (size 3 to 8) (size 9 to 14) (size 15 to 20)
#    0.000    0.500    5.000    2.250    7.000    3.000 
#    0.000    0.000    0.000    0.000    0.000    0.000 
#    0.000    0.000    0.000    0.000    0.000    0.000 
#
# Total GULP energy -89421.337890 kJ/mol
# GULP energy per Si atom -5588.833618 kJ/mol
# Density = 2.158074 g / cm^3
# Si number density = 21.629972 Si / 1000 Ang^3
#
#
#
# Elastic Constant Matrix: (Units=GPa)
#
#
# Indices 1 2 3 4 5 6 
#
# 1 62.4511 11.6185 4.0205 0.0023 1.4524 -0.0055
# 2 11.6185 125.0985 -17.9984 0.0002 22.1403 0.0036
# 3 4.0205 -17.9984 116.4452 0.0027 -20.9565 -0.0273
# 4 0.0023 0.0002 0.0027 2.8895 -0.0052 1.5304
# 5 1.4524 22.1403 -20.9565 -0.0052 38.6998 0.0088
# 6 -0.0055 0.0036 -0.0273 1.5304 0.0088 37.4160
#
#
#
# Elastic Compliance Matrix: (Units=1/GPa)
#
#
# Indices 1 2 3 4 5 6 
#
# 1 0.016371 -0.001616 -0.000841 -0.000014 -0.000146 0.000003
# 2 -0.001616 0.009081 0.000593 -0.000009 -0.004813 0.000001
# 3 -0.000841 0.000593 0.009587 -0.000003 0.004884 0.000006
# 4 -0.000014 -0.000009 -0.000003 0.353746 0.000055 -0.014469
# 5 -0.000146 -0.004813 0.004884 0.000055 0.031244 -0.000006
# 6 0.000003 0.000001 0.000006 -0.014469 -0.000006 0.027318
#
#
# Mechanical properties :
#
#
# Convention : Reuss Voigt Hill
#
# Bulk Modulus (GPa) = 31.93703 33.25290 32.59496
# Shear Modulus (GPa) = 10.83394 36.22466 23.52930
#
# Velocity S-wave (km/s) = 2.24046 4.09680 3.30177
# Velocity P-wave (km/s) = 4.63574 6.14697 5.44405
#
# Compressibility (1/GPa) = 0.03131162
#
# Stress axis : x y z
#
# Youngs Moduli (GPa) = 61.08493 110.12021 104.30347
#
# Poissons Ratio (x) = 0.17792 0.08774
# Poissons Ratio (y) = 0.09869 -0.06186
# Poissons Ratio (z) = 0.05138 -0.06531
#
# Static dielectric constant tensor:
#      x y z
#    x 1.787100 -0.000010 0.020940 
#    y -0.000010 1.846510 0.000010 
#    z 0.020940 0.000010 1.755440 
# 
# From -- ./inp_files/22709.got.cif
#   From: 2010.05.17/outbox.cif.g08.bks.cpg/sg9_12_cif.got.tgz:22709.got - 2010.06.03 20:04:27.
