data_PCOD9140562
_publ_section_title
;
Structure prediction by ZEFSAII (Michael W. Deem and Ramdas Pophale) SiO2 
 PCOD9140562
Probable space group: C C
;
_chemical_formula_sum "Si O2"
_cell_formula_units_Z 28
_cell_length_a 6.558287
_cell_length_b 27.029955
_cell_length_c 8.179020
_cell_angle_alpha 90.000000
_cell_angle_beta 116.928974
_cell_angle_gamma 90.000000
_cell_volume 1292.682254
_symmetry_space_group_name_H-M "C C"
_symmetry_group_IT_number 9
_symmetry_cell_setting 'monoclinic'
loop_
_space_group_symop_operation_xyz
x,y,z
x,-y,1/2+z
1/2+x,1/2+y,z
1/2+x,1/2-y,1/2+z
loop_
_atom_site_type_symbol
_atom_site_label
_atom_site_fract_x
_atom_site_fract_y
_atom_site_fract_z
Si Si1 0.931060 0.439078 0.762790
Si Si2 0.869569 0.102606 0.569680
Si Si3 0.405681 0.693683 0.355601
Si Si4 0.644898 0.122581 0.821641
Si Si5 0.318727 0.045073 0.842797
Si Si6 0.619408 0.650983 0.135867
Si Si7 0.937543 0.303603 0.493268
O O1 0.827359 0.487059 0.811447
O O2 0.891053 0.444261 0.554762
O O3 0.796320 0.389646 0.762871
O O4 0.195145 0.431440 0.903857
O O5 0.958085 0.147142 0.489330
O O6 0.722701 0.126415 0.663717
O O7 0.075092 0.069936 0.716137
O O8 0.568892 0.691035 0.256787
O O9 0.423802 0.745852 0.450980
O O10 0.148618 0.687617 0.193460
O O11 0.505340 0.072334 0.797203
O O12 0.493548 0.165978 0.848552
O O13 0.881143 0.123938 0.009232
O O14 0.716970 0.675503 0.006455
#
# Coordination Sequence:
#
# PCOD9140562 Si02
#       7
#     4   4   4   4   4   4   4
#     4  12  26  49  73 109 147 192 247 301 372 432
#     4  12  27  48  75 110 148 193 247 308 365 442
#     4  11  28  42  75 107 144 196 242 306 374 435
#     4  11  24  48  72 104 144 195 240 305 362 433
#     4  12  28  47  75 109 146 197 248 303 369 446
#     4  11  24  50  71 104 154 186 245 312 354 445
#     4  11  25  46  71 107 145 195 247 301 370 441
#
# _framework density 21.660388999999999
#
# number of rings (size 3 to 8) (size 9 to 14) (size 15 to 20)
#    0.000    0.571    4.286    1.714   12.000    2.286 
#    0.000    0.000    0.000    0.000    0.000    0.000 
#    0.000    0.000    0.000    0.000    0.000    0.000 
#
# Total GULP energy -78380.338040 kJ/mol
# GULP energy per Si atom -5598.595574 kJ/mol
# Density = 2.161109 g / cm^3
# Si number density = 21.660389 Si / 1000 Ang^3
#
#
#
# Elastic Constant Matrix: (Units=GPa)
#
#
# Indices 1 2 3 4 5 6 
#
# 1 116.2891 36.5426 37.4530 0.0000 -3.5744 0.0000
# 2 36.5426 113.7664 28.6929 0.0000 3.5885 0.0000
# 3 37.4530 28.6929 114.6949 0.0000 12.1604 0.0000
# 4 0.0000 0.0000 0.0000 30.8105 0.0000 -4.1550
# 5 -3.5744 3.5885 12.1604 0.0000 22.4075 0.0000
# 6 0.0000 0.0000 0.0000 -4.1550 0.0000 28.7260
#
#
#
# Elastic Compliance Matrix: (Units=1/GPa)
#
#
# Indices 1 2 3 4 5 6 
#
# 1 0.010601 -0.002722 -0.003190 0.000000 0.003858 0.000000
# 2 -0.002722 0.010082 -0.001503 0.000000 -0.001233 0.000000
# 3 -0.003190 -0.001503 0.010785 0.000000 -0.006121 0.000000
# 4 0.000000 0.000000 0.000000 0.033102 0.000000 0.004788
# 5 0.003858 -0.001233 -0.006121 0.000000 0.048763 0.000000
# 6 0.000000 0.000000 0.000000 0.004788 0.000000 0.035504
#
#
# Mechanical properties :
#
#
# Convention : Reuss Voigt Hill
#
# Bulk Modulus (GPa) = 60.09870 61.12526 60.61198
# Shear Modulus (GPa) = 29.54872 32.52626 31.03749
#
# Velocity S-wave (km/s) = 3.69749 3.87931 3.78949
# Velocity P-wave (km/s) = 6.78489 6.95317 6.86954
#
# Compressibility (1/GPa) = 0.01663930
#
# Stress axis : x y z
#
# Youngs Moduli (GPa) = 94.33500 99.18469 92.71970
#
# Poissons Ratio (x) = 0.27000 0.29573
# Poissons Ratio (y) = 0.25680 0.13931
# Poissons Ratio (z) = 0.30089 0.14903
#
# Static dielectric constant tensor:
#      x y z
#    x 1.794820 0.000000 -0.010490 
#    y 0.000000 1.753110 0.000000 
#    z -0.010490 0.000000 1.799530 
# 
# From -- ./inp_files/4430.got.cif
#   From: 2010.05.17/outbox.cif.g08.bks.cpg/sg9_3_cif.got.tgz:4430.got - 2010.06.03 20:04:27.
