data_PCOD9140427
_publ_section_title
;
Structure prediction by ZEFSAII (Michael W. Deem and Ramdas Pophale) SiO2 
 PCOD9140427
Probable space group: C C
;
_chemical_formula_sum "Si O2"
_cell_formula_units_Z 32
_cell_length_a 24.233157
_cell_length_b 5.029602
_cell_length_c 9.435731
_cell_angle_alpha 90.000000
_cell_angle_beta 79.438804
_cell_angle_gamma 90.000000
_cell_volume 1130.574180
_symmetry_space_group_name_H-M "C C"
_symmetry_group_IT_number 9
_symmetry_cell_setting 'monoclinic'
loop_
_space_group_symop_operation_xyz
x,y,z
x,-y,1/2+z
1/2+x,1/2+y,z
1/2+x,1/2-y,1/2+z
loop_
_atom_site_type_symbol
_atom_site_label
_atom_site_fract_x
_atom_site_fract_y
_atom_site_fract_z
Si Si1 0.229390 0.137211 0.013100
Si Si2 0.228174 0.505859 0.270790
Si Si3 0.041913 0.535566 0.718812
Si Si4 0.631285 0.279495 0.989037
Si Si5 0.416933 0.049907 0.684856
Si Si6 0.917275 0.946938 0.016587
Si Si7 0.823717 0.724583 0.403394
Si Si8 0.039582 0.855976 0.458613
O O1 0.228139 0.403443 0.109074
O O2 0.231537 0.205267 0.843166
O O3 0.172845 0.970967 0.057615
O O4 0.282700 0.951714 0.020735
O O5 0.171681 0.393570 0.370430
O O6 0.282879 0.368772 0.312694
O O7 0.091990 0.380247 0.615519
O O8 0.042494 0.810275 0.627821
O O9 0.045680 0.426770 0.877420
O O10 0.977114 0.460672 0.714817
O O11 0.591604 0.455087 0.906500
O O12 0.412221 0.864161 0.548039
O O13 0.364970 0.969099 0.801769
O O14 0.416025 0.362537 0.656015
O O15 0.864210 0.063490 0.959276
O O16 0.981078 0.010046 0.938132
#
# Coordination Sequence:
#
# PCOD9140427 Si02
#       8
#     4   4   4   4   4   4   4   4
#     4  11  27  49  74 114 150 210 266 339 404 479
#     4  11  27  47  76 107 152 203 271 333 402 472
#     4  11  24  45  71 110 150 205 255 331 400 484
#     4  11  24  46  74 105 149 202 267 336 402 479
#     4  11  25  45  73 111 158 201 256 317 396 478
#     4  11  25  45  72 112 156 202 252 316 393 475
#     4  11  26  46  75 108 154 206 260 324 396 477
#     4  11  24  45  71 109 153 199 261 320 401 482
#
# _framework density 28.304203000000001
#
# number of rings (size 3 to 8) (size 9 to 14) (size 15 to 20)
#    0.000    1.000    2.500    2.250    5.250    9.000 
#    2.250    0.000    0.000    0.000    0.000    0.000 
#    0.000    0.000    0.000    0.000    0.000    0.000 
#
# Total GULP energy -89685.193789 kJ/mol
# GULP energy per Si atom -5605.324612 kJ/mol
# Density = 2.823978 g / cm^3
# Si number density = 28.304203 Si / 1000 Ang^3
#
#
#
# Elastic Constant Matrix: (Units=GPa)
#
#
# Indices 1 2 3 4 5 6 
#
# 1 194.1358 30.2072 47.5868 0.0000 -26.1186 0.0000
# 2 30.2072 84.8941 11.8338 0.0000 -2.6540 0.0000
# 3 47.5868 11.8338 111.4413 0.0000 -4.4589 0.0000
# 4 0.0000 0.0000 0.0000 35.9923 0.0000 -3.9833
# 5 -26.1186 -2.6540 -4.4589 0.0000 43.2878 0.0000
# 6 0.0000 0.0000 0.0000 -3.9833 0.0000 46.8778
#
#
#
# Elastic Compliance Matrix: (Units=1/GPa)
#
#
# Indices 1 2 3 4 5 6 
#
# 1 0.006521 -0.001868 -0.002443 0.000000 0.003568 0.000000
# 2 -0.001868 0.012507 -0.000547 0.000000 -0.000417 0.000000
# 3 -0.002443 -0.000547 0.010056 0.000000 -0.000472 0.000000
# 4 0.000000 0.000000 0.000000 0.028047 0.000000 0.002383
# 5 0.003568 -0.000417 -0.000472 0.000000 0.025180 0.000000
# 6 0.000000 0.000000 0.000000 0.002383 0.000000 0.021535
#
#
# Mechanical properties :
#
#
# Convention : Reuss Voigt Hill
#
# Bulk Modulus (GPa) = 51.63441 63.30296 57.46869
# Shear Modulus (GPa) = 41.66031 45.28782 43.47406
#
# Velocity S-wave (km/s) = 3.84067 4.00439 3.92338
# Velocity P-wave (km/s) = 6.16035 6.61770 6.39311
#
# Compressibility (1/GPa) = 0.01936693
#
# Stress axis : x y z
#
# Youngs Moduli (GPa) = 153.35904 79.95323 99.44460
#
# Poissons Ratio (x) = 0.14936 0.24297
# Poissons Ratio (y) = 0.28648 0.05441
# Poissons Ratio (z) = 0.37470 0.04374
#
# Static dielectric constant tensor:
#      x y z
#    x 2.121550 0.000000 0.066760 
#    y 0.000000 2.199860 0.000000 
#    z 0.066760 0.000000 2.268040 
# 
# From -- ./inp_files/20493.got.cif
#   From: 2010.05.17/outbox.cif.g08.bks.cpg/sg9_11_cif.got.tgz:20493.got - 2010.06.03 20:04:27.
