data_PCOD9140388
_publ_section_title
;
Structure prediction by ZEFSAII (Michael W. Deem and Ramdas Pophale) SiO2 
 PCOD9140388
Probable space group: C C
;
_chemical_formula_sum "Si O2"
_cell_formula_units_Z 32
_cell_length_a 23.949039
_cell_length_b 4.876975
_cell_length_c 10.164446
_cell_angle_alpha 90.000000
_cell_angle_beta 103.422364
_cell_angle_gamma 90.000000
_cell_volume 1154.767911
_symmetry_space_group_name_H-M "C C"
_symmetry_group_IT_number 9
_symmetry_cell_setting 'monoclinic'
loop_
_space_group_symop_operation_xyz
x,y,z
x,-y,1/2+z
1/2+x,1/2+y,z
1/2+x,1/2-y,1/2+z
loop_
_atom_site_type_symbol
_atom_site_label
_atom_site_fract_x
_atom_site_fract_y
_atom_site_fract_z
Si Si1 0.836400 0.953322 0.662500
Si Si2 0.022540 0.543097 0.780641
Si Si3 0.147881 0.507192 0.752048
Si Si4 0.157396 0.174367 0.514339
Si Si5 0.033845 0.951366 0.451976
Si Si6 0.244635 0.802947 0.468561
Si Si7 0.342011 0.044638 0.339021
Si Si8 0.935230 0.242075 0.558573
O O1 0.780517 0.060479 0.556221
O O2 0.841450 0.139407 0.797302
O O3 0.890763 0.042778 0.607003
O O4 0.835889 0.639267 0.704130
O O5 0.080131 0.454238 0.735972
O O6 0.024163 0.862487 0.815914
O O7 0.966492 0.442002 0.677685
O O8 0.027047 0.367475 0.917510
O O9 0.158903 0.447134 0.604380
O O10 0.154266 0.763861 0.855857
O O11 0.194868 0.313847 0.847558
O O12 0.099373 0.017472 0.525713
O O13 0.212947 0.988292 0.559765
O O14 0.984434 0.061481 0.518162
O O15 0.289281 0.973779 0.405048
O O16 0.399254 0.930049 0.438350
#
# Coordination Sequence:
#
# PCOD9140388 Si02
#       8
#     4   4   4   4   4   4   4   4
#     4  11  27  47  71 107 145 197 259 321 385 456
#     4  11  24  44  68 106 146 193 241 312 377 468
#     4  11  25  45  73 111 156 202 258 316 390 468
#     4  11  25  47  71 115 152 208 255 320 386 473
#     4  11  24  44  68 105 147 191 245 305 384 460
#     4  11  26  44  75 102 152 204 256 320 391 459
#     4  11  27  47  73 106 148 193 264 319 387 458
#     4  11  24  46  75 104 144 200 246 321 386 464
#
# _framework density 27.711192
#
# number of rings (size 3 to 8) (size 9 to 14) (size 15 to 20)
#    0.000    1.000    2.500    2.250    5.250    7.000 
#    2.250    0.000    0.000    0.000    0.000    0.000 
#    0.000    0.000    0.000    0.000    0.000    0.000 
#
# Total GULP energy -89869.140549 kJ/mol
# GULP energy per Si atom -5616.821284 kJ/mol
# Density = 2.764812 g / cm^3
# Si number density = 27.711192 Si / 1000 Ang^3
#
#
#
# Elastic Constant Matrix: (Units=GPa)
#
#
# Indices 1 2 3 4 5 6 
#
# 1 196.6466 33.2385 50.3300 0.0000 -2.7667 0.0000
# 2 33.2385 90.1356 19.7177 0.0000 8.1672 0.0000
# 3 50.3300 19.7177 105.9308 0.0000 18.5294 0.0000
# 4 0.0000 0.0000 0.0000 44.6619 0.0000 -4.7143
# 5 -2.7667 8.1672 18.5294 0.0000 35.7519 0.0000
# 6 0.0000 0.0000 0.0000 -4.7143 0.0000 37.6885
#
#
#
# Elastic Compliance Matrix: (Units=1/GPa)
#
#
# Indices 1 2 3 4 5 6 
#
# 1 0.006211 -0.001850 -0.003040 0.000000 0.002479 0.000000
# 2 -0.001850 0.012209 -0.000968 0.000000 -0.002430 0.000000
# 3 -0.003040 -0.000968 0.012171 0.000000 -0.006322 0.000000
# 4 0.000000 0.000000 0.000000 0.022690 0.000000 0.002838
# 5 0.002479 -0.002430 -0.006322 0.000000 0.031994 0.000000
# 6 0.000000 0.000000 0.000000 0.002838 0.000000 0.026888
#
#
# Mechanical properties :
#
#
# Convention : Reuss Voigt Hill
#
# Bulk Modulus (GPa) = 52.98564 66.58728 59.78646
# Shear Modulus (GPa) = 38.41108 42.91558 40.66333
#
# Velocity S-wave (km/s) = 3.72710 3.93959 3.83482
# Velocity P-wave (km/s) = 6.13872 6.69141 6.42102
#
# Compressibility (1/GPa) = 0.01887304
#
# Stress axis : x y z
#
# Youngs Moduli (GPa) = 161.00612 81.90936 82.16460
#
# Poissons Ratio (x) = 0.15152 0.24980
# Poissons Ratio (y) = 0.29784 0.07957
# Poissons Ratio (z) = 0.48950 0.07933
#
# Static dielectric constant tensor:
#      x y z
#    x 2.083630 0.000000 -0.021060 
#    y 0.000000 2.085000 0.000000 
#    z -0.021060 0.000000 2.183740 
# 
# From -- ./inp_files/20492.got.cif
#   From: 2010.05.17/outbox.cif.g08.bks.cpg/sg9_11_cif.got.tgz:20492.got - 2010.06.03 20:04:27.
