data_PCOD9140081
_publ_section_title
;
Structure prediction by ZEFSAII (Michael W. Deem and Ramdas Pophale) SiO2 
 PCOD9140081
Probable space group: C C
;
_chemical_formula_sum "Si O2"
_cell_formula_units_Z 32
_cell_length_a 29.266080
_cell_length_b 5.149918
_cell_length_c 8.963830
_cell_angle_alpha 90.000000
_cell_angle_beta 98.544425
_cell_angle_gamma 90.000000
_cell_volume 1336.014832
_symmetry_space_group_name_H-M "C C"
_symmetry_group_IT_number 9
_symmetry_cell_setting 'monoclinic'
loop_
_space_group_symop_operation_xyz
x,y,z
x,-y,1/2+z
1/2+x,1/2+y,z
1/2+x,1/2-y,1/2+z
loop_
_atom_site_type_symbol
_atom_site_label
_atom_site_fract_x
_atom_site_fract_y
_atom_site_fract_z
Si Si1 0.905590 0.706014 0.186770
Si Si2 0.030974 0.164313 0.053016
Si Si3 0.947177 0.900693 0.937677
Si Si4 0.162202 0.337862 0.489833
Si Si5 0.003779 0.516500 0.790899
Si Si6 0.769765 0.833040 0.521820
Si Si7 0.803474 0.339133 0.710956
Si Si8 0.630900 0.356323 0.649207
O O1 0.951186 0.534043 0.219380
O O2 0.857777 0.597707 0.220106
O O3 0.920645 0.943745 0.298978
O O4 0.907030 0.770846 0.013558
O O5 0.025361 0.272859 0.884361
O O6 0.079266 0.027683 0.098153
O O7 0.978707 0.073408 0.064720
O O8 0.035549 0.398534 0.173183
O O9 0.991827 0.736593 0.905199
O O10 0.215676 0.396518 0.479826
O O11 0.139520 0.599235 0.549792
O O12 0.139703 0.232588 0.324124
O O13 0.161519 0.098245 0.607373
O O14 0.776813 0.591510 0.638214
O O15 0.790059 0.743027 0.372024
O O16 0.793950 0.089198 0.600911
#
# Coordination Sequence:
#
# PCOD9140081 Si02
#       8
#     4   4   4   4   4   4   4   4
#     4  11  25  40  68  97 134 181 230 275 339 401
#     4  11  25  41  66  97 134 181 229 277 341 400
#     4  11  23  41  63  92 137 178 219 277 331 400
#     4  12  26  50  73 108 141 188 232 302 369 423
#     4  11  23  41  63  92 137 178 219 277 332 399
#     4  12  26  49  74 106 145 185 233 302 368 423
#     4  12  28  45  78 107 144 186 242 294 349 440
#     4  12  28  45  79 105 144 185 244 294 349 442
#
# _framework density 23.951827999999999
#
# number of rings (size 3 to 8) (size 9 to 14) (size 15 to 20)
#    0.000    0.500    2.500    5.250    7.000    0.000 
#    0.000    0.000    0.000    0.000    0.000    0.000 
#    0.000    0.000    0.000    0.000    0.000    0.000 
#
# Total GULP energy -89378.044039 kJ/mol
# GULP energy per Si atom -5586.127752 kJ/mol
# Density = 2.389731 g / cm^3
# Si number density = 23.951828 Si / 1000 Ang^3
#
#
#
# Elastic Constant Matrix: (Units=GPa)
#
#
# Indices 1 2 3 4 5 6 
#
# 1 67.5776 -11.7931 9.7281 0.0000 -5.5119 0.0000
# 2 -11.7931 73.8169 9.1946 0.0000 -5.8546 0.0000
# 3 9.7281 9.1946 71.1400 0.0000 -8.1748 0.0000
# 4 0.0000 0.0000 0.0000 55.9996 0.0000 -6.2322
# 5 -5.5119 -5.8546 -8.1748 0.0000 37.7705 0.0000
# 6 0.0000 0.0000 0.0000 -6.2322 0.0000 33.7591
#
#
#
# Elastic Compliance Matrix: (Units=1/GPa)
#
#
# Indices 1 2 3 4 5 6 
#
# 1 0.015836 0.002996 -0.002291 0.000000 0.002280 0.000000
# 2 0.002996 0.014455 -0.002021 0.000000 0.002241 0.000000
# 3 -0.002291 -0.002021 0.014928 0.000000 0.002583 0.000000
# 4 0.000000 0.000000 0.000000 0.018232 0.000000 0.003366
# 5 0.002280 0.002241 0.002583 0.000000 0.027715 0.000000
# 6 0.000000 0.000000 0.000000 0.003366 0.000000 0.030243
#
#
# Mechanical properties :
#
#
# Convention : Reuss Voigt Hill
#
# Bulk Modulus (GPa) = 23.48012 25.19928 24.33970
# Shear Modulus (GPa) = 36.17004 39.19949 37.68476
#
# Velocity S-wave (km/s) = 3.89024 4.04988 3.97086
# Velocity P-wave (km/s) = 5.47749 5.69318 5.58638
#
# Compressibility (1/GPa) = 0.04258922
#
# Stress axis : x y z
#
# Youngs Moduli (GPa) = 63.14571 69.17978 66.98790
#
# Poissons Ratio (x) = -0.20728 0.15346
# Poissons Ratio (y) = -0.18920 0.13535
# Poissons Ratio (z) = 0.14466 0.13978
#
# Static dielectric constant tensor:
#      x y z
#    x 1.847770 0.000000 -0.029820 
#    y 0.000000 1.228050 0.000000 
#    z -0.029820 0.000000 1.858310 
# 
# From -- ./inp_files/12559.got.cif
#   From: 2010.05.17/outbox.cif.g08.bks.cpg/sg9_7_cif.got.tgz:12559.got - 2010.06.03 20:04:27.
