data_PCOD9140680
_publ_section_title
;
Structure prediction by ZEFSAII (Michael W. Deem and Ramdas Pophale) SiO2 
 PCOD9140680
Probable space group: C C
;
_chemical_formula_sum "Si O2"
_cell_formula_units_Z 32
_cell_length_a 8.107426
_cell_length_b 24.439250
_cell_length_c 7.376888
_cell_angle_alpha 90.000000
_cell_angle_beta 123.068662
_cell_angle_gamma 90.000000
_cell_volume 1224.889840
_symmetry_space_group_name_H-M "C C"
_symmetry_group_IT_number 9
_symmetry_cell_setting 'monoclinic'
loop_
_space_group_symop_operation_xyz
x,y,z
x,-y,1/2+z
1/2+x,1/2+y,z
1/2+x,1/2-y,1/2+z
loop_
_atom_site_type_symbol
_atom_site_label
_atom_site_fract_x
_atom_site_fract_y
_atom_site_fract_z
Si Si1 0.659460 0.475458 0.320560
Si Si2 0.914291 0.701796 0.321687
Si Si3 0.203255 0.650538 0.222242
Si Si4 0.082900 0.120396 0.012280
Si Si5 0.440101 0.814391 0.231675
Si Si6 0.015972 0.805080 0.143290
Si Si7 0.790966 0.049209 0.073122
Si Si8 0.895735 0.560106 0.638959
O O1 0.698827 0.431858 0.501612
O O2 0.814579 0.524847 0.427304
O O3 0.712584 0.445772 0.167641
O O4 0.438963 0.499395 0.199359
O O5 0.961698 0.718726 0.557317
O O6 0.923487 0.753640 0.192429
O O7 0.408197 0.678383 0.394593
O O8 0.713916 0.667196 0.182181
O O9 0.421161 0.594294 0.043948
O O10 0.074670 0.662661 0.323153
O O11 0.105007 0.678860 0.986176
O O12 0.218526 0.585750 0.197993
O O13 0.995956 0.146774 0.777840
O O14 0.243551 0.798831 0.223753
O O15 0.424257 0.875640 0.138708
O O16 0.598768 0.036611 0.839804
#
# Coordination Sequence:
#
# PCOD9140680 Si02
#       8
#     4   4   4   4   4   4   4   4
#     4  12  24  47  75 111 167 205 266 339 402 487
#     4  12  27  53  82 114 161 219 270 341 411 479
#     4  11  26  50  78 116 157 207 272 326 403 492
#     4  12  25  50  76 117 160 211 272 340 412 482
#     4  11  26  55  78 115 166 209 267 341 409 484
#     4  12  26  51  81 114 159 210 273 342 407 482
#     4  11  27  48  75 118 160 215 265 331 415 492
#     4  11  25  46  75 115 156 212 265 328 407 490
#
# _framework density 26.124794000000001
#
# number of rings (size 3 to 8) (size 9 to 14) (size 15 to 20)
#    0.000    0.500    3.750    3.750    5.250    1.000 
#    6.750    0.000    0.000    0.000    0.000    0.000 
#    0.000    0.000    0.000    0.000    0.000    0.000 
#
# Total GULP energy -89677.544519 kJ/mol
# GULP energy per Si atom -5604.846532 kJ/mol
# Density = 2.606533 g / cm^3
# Si number density = 26.124794 Si / 1000 Ang^3
#
#
#
# Elastic Constant Matrix: (Units=GPa)
#
#
# Indices 1 2 3 4 5 6 
#
# 1 75.1938 22.3024 24.2962 0.0000 -6.4736 0.0000
# 2 22.3024 93.5154 43.5692 0.0000 2.2301 0.0000
# 3 24.2962 43.5692 161.9022 0.0000 6.4871 0.0000
# 4 0.0000 0.0000 0.0000 9.3459 0.0000 3.1078
# 5 -6.4736 2.2301 6.4871 0.0000 46.8536 0.0000
# 6 0.0000 0.0000 0.0000 3.1078 0.0000 53.8805
#
#
#
# Elastic Compliance Matrix: (Units=1/GPa)
#
#
# Indices 1 2 3 4 5 6 
#
# 1 0.014861 -0.002879 -0.001552 0.000000 0.002405 0.000000
# 2 -0.002879 0.012785 -0.002985 0.000000 -0.000593 0.000000
# 3 -0.001552 -0.002985 0.007256 0.000000 -0.001077 0.000000
# 4 0.000000 0.000000 0.000000 0.109092 0.000000 -0.006292
# 5 0.002405 -0.000593 -0.001077 0.000000 0.021853 0.000000
# 6 0.000000 0.000000 0.000000 -0.006292 0.000000 0.018923
#
#
# Mechanical properties :
#
#
# Convention : Reuss Voigt Hill
#
# Bulk Modulus (GPa) = 49.82223 56.77189 53.29706
# Shear Modulus (GPa) = 24.23779 38.04557 31.14168
#
# Velocity S-wave (km/s) = 3.04924 3.82029 3.45633
# Velocity P-wave (km/s) = 5.61332 6.42166 6.03105
#
# Compressibility (1/GPa) = 0.02007136
#
# Stress axis : x y z
#
# Youngs Moduli (GPa) = 67.28899 78.21868 137.82029
#
# Poissons Ratio (x) = 0.22516 0.21389
# Poissons Ratio (y) = 0.19370 0.41136
# Poissons Ratio (z) = 0.10443 0.23346
#
# Static dielectric constant tensor:
#      x y z
#    x 2.060640 0.000000 0.006740 
#    y 0.000000 2.095910 0.000000 
#    z 0.006740 0.000000 2.072370 
# 
# From -- ./inp_files/4467.got.cif
#   From: 2010.05.17/outbox.cif.g08.bks.cpg/sg9_3_cif.got.tgz:4467.got - 2010.06.03 20:04:27.
