data_PCOD9140812
_publ_section_title
;
Structure prediction by ZEFSAII (Michael W. Deem and Ramdas Pophale) SiO2 
 PCOD9140812
Probable space group: C C
;
_chemical_formula_sum "Si O2"
_cell_formula_units_Z 24
_cell_length_a 5.011584
_cell_length_b 28.491253
_cell_length_c 7.056294
_cell_angle_alpha 90.000000
_cell_angle_beta 71.666188
_cell_angle_gamma 90.000000
_cell_volume 956.399342
_symmetry_space_group_name_H-M "C C"
_symmetry_group_IT_number 9
_symmetry_cell_setting 'monoclinic'
loop_
_space_group_symop_operation_xyz
x,y,z
x,-y,1/2+z
1/2+x,1/2+y,z
1/2+x,1/2-y,1/2+z
loop_
_atom_site_type_symbol
_atom_site_label
_atom_site_fract_x
_atom_site_fract_y
_atom_site_fract_z
Si Si1 0.744120 0.467387 0.333510
Si Si2 0.474795 0.150625 0.976992
Si Si3 0.118121 0.930108 0.744333
Si Si4 0.243776 0.791521 0.211872
Si Si5 0.241812 0.229382 0.292346
Si Si6 0.327626 0.415316 0.177811
O O1 0.546194 0.451180 0.553094
O O2 0.748543 0.522876 0.305396
O O3 0.603171 0.559471 0.692009
O O4 0.060377 0.448720 0.277266
O O5 0.313046 0.163054 0.818329
O O6 0.757038 0.129636 0.823541
O O7 0.426135 0.197643 0.109666
O O8 0.331140 0.111265 0.140721
O O9 0.881621 0.910274 0.939934
O O10 0.481617 0.753067 0.235121
O O11 0.943588 0.769966 0.323590
O O12 0.207616 0.799746 0.994210
#
# Coordination Sequence:
#
# PCOD9140812 Si02
#       6
#     4   4   4   4   4   4
#     4  11  26  46  76 108 150 210 251 306 394 447
#     4  11  28  48  78 119 152 203 267 322 388 462
#     4  11  26  48  79 110 159 201 260 319 376 469
#     4  12  25  49  78 109 150 204 257 321 390 464
#     4  12  25  49  79 107 154 201 258 320 392 463
#     4  11  28  48  74 113 155 197 257 318 376 465
#
# _framework density 25.094121000000001
#
# number of rings (size 3 to 8) (size 9 to 14) (size 15 to 20)
#    0.000    0.667    5.000    0.000    4.667   14.667 
#    0.000    0.000    0.000    0.000    0.000    0.000 
#    0.000    0.000    0.000    0.000    0.000    0.000 
#
# Total GULP energy -66972.329732 kJ/mol
# GULP energy per Si atom -5581.027478 kJ/mol
# Density = 2.503701 g / cm^3
# Si number density = 25.094121 Si / 1000 Ang^3
#
#
#
# Elastic Constant Matrix: (Units=GPa)
#
#
# Indices 1 2 3 4 5 6 
#
# 1 91.4314 32.4487 8.9319 0.0000 11.2722 0.0000
# 2 32.4487 109.0096 28.2869 0.0000 -7.5564 0.0000
# 3 8.9319 28.2869 185.0070 0.0000 10.6325 0.0000
# 4 0.0000 0.0000 0.0000 45.5502 0.0000 5.8124
# 5 11.2722 -7.5564 10.6325 0.0000 33.7992 0.0000
# 6 0.0000 0.0000 0.0000 5.8124 0.0000 25.9742
#
#
#
# Elastic Compliance Matrix: (Units=1/GPa)
#
#
# Indices 1 2 3 4 5 6 
#
# 1 0.013131 -0.004379 0.000350 0.000000 -0.005468 0.000000
# 2 -0.004379 0.011250 -0.001769 0.000000 0.004532 0.000000
# 3 0.000350 -0.001769 0.005793 0.000000 -0.002335 0.000000
# 4 0.000000 0.000000 0.000000 0.022599 0.000000 -0.005057
# 5 -0.005468 0.004532 -0.002335 0.000000 0.033158 0.000000
# 6 0.000000 0.000000 0.000000 -0.005057 0.000000 0.039631
#
#
# Mechanical properties :
#
#
# Convention : Reuss Voigt Hill
#
# Bulk Modulus (GPa) = 53.82622 58.30924 56.06773
# Shear Modulus (GPa) = 34.87943 42.11676 38.49809
#
# Velocity S-wave (km/s) = 3.73224 4.10121 3.92107
# Velocity P-wave (km/s) = 6.33002 6.76116 6.54914
#
# Compressibility (1/GPa) = 0.01857831
#
# Stress axis : x y z
#
# Youngs Moduli (GPa) = 76.15535 88.88835 172.62276
#
# Poissons Ratio (x) = 0.38920 -0.06038
# Poissons Ratio (y) = 0.33345 0.30540
# Poissons Ratio (z) = -0.02664 0.15726
#
# Static dielectric constant tensor:
#      x y z
#    x 1.977650 0.000000 0.028060 
#    y 0.000000 2.061310 0.000000 
#    z 0.028060 0.000000 2.086810 
# 
# From -- ./inp_files/4059.got.cif
#   From: 2010.05.17/outbox.cif.g08.bks.cpg/sg9_3_cif.got.tgz:4059.got - 2010.06.03 20:04:27.
