data_PCOD9140888
_publ_section_title
;
Structure prediction by ZEFSAII (Michael W. Deem and Ramdas Pophale) SiO2 
 PCOD9140888
Probable space group: C C
;
_chemical_formula_sum "Si O2"
_cell_formula_units_Z 20
_cell_length_a 7.423573
_cell_length_b 11.524015
_cell_length_c 8.737303
_cell_angle_alpha 90.000000
_cell_angle_beta 68.976166
_cell_angle_gamma 90.000000
_cell_volume 697.712561
_symmetry_space_group_name_H-M "C C"
_symmetry_group_IT_number 9
_symmetry_cell_setting 'monoclinic'
loop_
_space_group_symop_operation_xyz
x,y,z
x,-y,1/2+z
1/2+x,1/2+y,z
1/2+x,1/2-y,1/2+z
loop_
_atom_site_type_symbol
_atom_site_label
_atom_site_fract_x
_atom_site_fract_y
_atom_site_fract_z
Si Si1 0.736180 0.720975 0.405020
Si Si2 0.802572 0.365722 0.348083
Si Si3 0.834522 0.111071 0.605137
Si Si4 0.885737 0.857488 0.630738
Si Si5 0.472635 0.958901 0.009719
O O1 0.779531 0.783714 0.233245
O O2 0.742435 0.816474 0.539084
O O3 0.911103 0.635877 0.401789
O O4 0.042789 0.855255 0.974307
O O5 0.864472 0.241641 0.263338
O O6 0.595487 0.358419 0.488080
O O7 0.812886 0.446487 0.193870
O O8 0.945209 0.420647 0.430209
O O9 0.665686 0.081559 0.536185
O O10 0.850643 0.989232 0.690729
#
# Coordination Sequence:
#
# PCOD9140888 Si02
#       5
#     4   4   4   4   4
#     4  11  27  60  92 134 189 249 316 399 468 577
#     4  11  27  60  99 135 195 251 329 384 495 564
#     4  12  29  58  98 136 195 250 320 389 494 562
#     4  11  27  59  96 142 191 258 313 409 476 576
#     4  11  28  59  95 137 190 256 318 403 479 575
#
# _framework density 28.665098
#
# number of rings (size 3 to 8) (size 9 to 14) (size 15 to 20)
#    0.000    0.800    2.000    2.400    2.800    9.600 
#   18.000    0.000    0.000    0.000    0.000    0.000 
#    0.000    0.000    0.000    0.000    0.000    0.000 
#
# Total GULP energy -56229.269030 kJ/mol
# GULP energy per Si atom -5622.926903 kJ/mol
# Density = 2.859986 g / cm^3
# Si number density = 28.665098 Si / 1000 Ang^3
#
#
#
# Elastic Constant Matrix: (Units=GPa)
#
#
# Indices 1 2 3 4 5 6 
#
# 1 222.6937 90.8137 91.7930 0.0000 16.8162 0.0000
# 2 90.8137 204.8875 109.0647 0.0000 12.9217 0.0000
# 3 91.7930 109.0647 159.3124 0.0000 5.3001 0.0000
# 4 0.0000 0.0000 0.0000 92.2102 0.0000 12.1962
# 5 16.8162 12.9217 5.3001 0.0000 56.7819 0.0000
# 6 0.0000 0.0000 0.0000 12.1962 0.0000 54.0255
#
#
#
# Elastic Compliance Matrix: (Units=1/GPa)
#
#
# Indices 1 2 3 4 5 6 
#
# 1 0.006199 -0.001239 -0.002680 0.000000 -0.001304 0.000000
# 2 -0.001239 0.008018 -0.004741 0.000000 -0.001015 0.000000
# 3 -0.002680 -0.004741 0.011039 0.000000 0.000842 0.000000
# 4 0.000000 0.000000 0.000000 0.011179 0.000000 -0.002524
# 5 -0.001304 -0.001015 0.000842 0.000000 0.018150 0.000000
# 6 0.000000 0.000000 0.000000 -0.002524 0.000000 0.019079
#
#
# Mechanical properties :
#
#
# Convention : Reuss Voigt Hill
#
# Bulk Modulus (GPa) = 126.02300 130.02625 128.02462
# Shear Modulus (GPa) = 53.40198 60.28500 56.84349
#
# Velocity S-wave (km/s) = 4.32089 4.59091 4.45794
# Velocity P-wave (km/s) = 8.30378 8.57676 8.44138
#
# Compressibility (1/GPa) = 0.00793506
#
# Stress axis : x y z
#
# Youngs Moduli (GPa) = 161.32070 124.72450 90.58491
#
# Poissons Ratio (x) = 0.15447 0.24280
# Poissons Ratio (y) = 0.19980 0.42951
# Poissons Ratio (z) = 0.43241 0.59138
#
# Static dielectric constant tensor:
#      x y z
#    x 2.244620 0.000000 -0.002130 
#    y 0.000000 2.231900 0.000000 
#    z -0.002130 0.000000 2.217620 
# 
# From -- ./inp_files/4712.got.cif
#   From: 2010.05.17/outbox.cif.g08.bks.cpg/sg9_3_cif.got.tgz:4712.got - 2010.06.03 20:04:27.
