data_PCOD9140129
_publ_section_title
;
Structure prediction by ZEFSAII (Michael W. Deem and Ramdas Pophale) SiO2 
 PCOD9140129
Probable space group: C C
;
_chemical_formula_sum "Si O2"
_cell_formula_units_Z 32
_cell_length_a 22.584489
_cell_length_b 5.474624
_cell_length_c 22.868240
_cell_angle_alpha 90.000000
_cell_angle_beta 152.971152
_cell_angle_gamma 90.000000
_cell_volume 1284.910734
_symmetry_space_group_name_H-M "C C"
_symmetry_group_IT_number 9
_symmetry_cell_setting 'monoclinic'
loop_
_space_group_symop_operation_xyz
x,y,z
x,-y,1/2+z
1/2+x,1/2+y,z
1/2+x,1/2-y,1/2+z
loop_
_atom_site_type_symbol
_atom_site_label
_atom_site_fract_x
_atom_site_fract_y
_atom_site_fract_z
Si Si1 0.340200 0.800069 0.473700
Si Si2 0.450977 0.653251 0.796899
Si Si3 0.092641 0.834159 0.007098
Si Si4 0.741530 0.314719 0.706333
Si Si5 0.960999 0.421941 0.696264
Si Si6 0.782421 0.208511 0.079227
Si Si7 0.703184 0.816920 0.378518
Si Si8 0.470524 0.023051 0.478095
O O1 0.248569 0.043543 0.401731
O O2 0.435582 0.877380 0.505630
O O3 0.423855 0.769690 0.606746
O O4 0.262767 0.547366 0.395290
O O5 0.325199 0.749864 0.721880
O O6 0.521796 0.800220 0.807241
O O7 0.400903 0.420882 0.716128
O O8 0.544481 0.573617 0.931293
O O9 0.183955 0.917515 0.140574
O O10 0.165642 0.687427 0.021270
O O11 0.979313 0.671453 0.933162
O O12 0.611396 0.155336 0.604184
O O13 0.846278 0.311324 0.850949
O O14 0.048381 0.640638 0.747196
O O15 0.826818 0.514046 0.607109
O O16 0.750535 0.130262 0.986237
#
# Coordination Sequence:
#
# PCOD9140129 Si02
#       8
#     4   4   4   4   4   4   4   4
#     4  11  29  52  75 108 151 209 274 321 395 472
#     4  12  24  42  74 111 155 197 258 330 416 487
#     4  12  26  44  76 114 160 204 262 333 414 488
#     4  12  27  48  75 113 156 208 267 334 409 482
#     4  11  26  44  73 108 152 199 253 335 400 481
#     4  11  23  43  69 110 150 197 255 324 409 481
#     4  11  27  46  75 110 148 204 261 327 393 475
#     4  12  30  51  79 110 160 218 274 336 400 488
#
# _framework density 24.904454000000001
#
# number of rings (size 3 to 8) (size 9 to 14) (size 15 to 20)
#    0.000    0.500    5.000    1.500   12.250    1.000 
#    0.000    0.000    0.000    0.000    0.000    0.000 
#    0.000    0.000    0.000    0.000    0.000    0.000 
#
# Total GULP energy -89388.551363 kJ/mol
# GULP energy per Si atom -5586.784460 kJ/mol
# Density = 2.484777 g / cm^3
# Si number density = 24.904454 Si / 1000 Ang^3
#
#
#
# Elastic Constant Matrix: (Units=GPa)
#
#
# Indices 1 2 3 4 5 6 
#
# 1 113.2028 31.8537 5.3397 0.0005 5.0356 0.0010
# 2 31.8537 74.3330 16.6451 0.0013 8.8654 0.0013
# 3 5.3397 16.6451 75.1879 0.0005 14.8082 0.0007
# 4 0.0005 0.0013 0.0005 34.0221 0.0000 1.1269
# 5 5.0356 8.8654 14.8082 0.0000 25.2259 0.0001
# 6 0.0010 0.0013 0.0007 1.1269 0.0001 43.0866
#
#
#
# Elastic Compliance Matrix: (Units=1/GPa)
#
#
# Indices 1 2 3 4 5 6 
#
# 1 0.010061 -0.004311 0.000381 0.000000 -0.000717 0.000000
# 2 -0.004311 0.016288 -0.002648 0.000000 -0.003309 0.000000
# 3 0.000381 -0.002648 0.015481 0.000000 -0.008233 0.000000
# 4 0.000000 0.000000 0.000000 0.029418 0.000000 -0.000769
# 5 -0.000717 -0.003309 -0.008233 0.000000 0.045781 0.000000
# 6 0.000000 0.000000 0.000000 -0.000769 0.000000 0.023229
#
#
# Mechanical properties :
#
#
# Convention : Reuss Voigt Hill
#
# Bulk Modulus (GPa) = 34.87539 41.15562 38.01551
# Shear Modulus (GPa) = 30.68026 34.39261 32.53644
#
# Velocity S-wave (km/s) = 3.51368 3.72019 3.61841
# Velocity P-wave (km/s) = 5.52226 5.91729 5.72318
#
# Compressibility (1/GPa) = 0.02867352
#
# Stress axis : x y z
#
# Youngs Moduli (GPa) = 99.39664 61.39480 64.59693
#
# Poissons Ratio (x) = 0.26468 -0.02462
# Poissons Ratio (y) = 0.42851 0.17105
# Poissons Ratio (z) = -0.03788 0.16257
#
# Static dielectric constant tensor:
#      x y z
#    x 1.927390 0.000000 0.011350 
#    y 0.000000 2.074420 0.000000 
#    z 0.011350 0.000000 2.025050 
# 
# From -- ./inp_files/36029.got.cif
#   From: 2010.05.17/outbox.cif.g08.bks.cpg/sg9_19_cif.got.tgz:36029.got - 2010.06.03 20:04:27.
