data_PCOD9140040
_publ_section_title
;
Structure prediction by ZEFSAII (Michael W. Deem and Ramdas Pophale) SiO2 
 PCOD9140040
Probable space group: C C
;
_chemical_formula_sum "Si O2"
_cell_formula_units_Z 32
_cell_length_a 19.663013
_cell_length_b 11.616841
_cell_length_c 12.841630
_cell_angle_alpha 90.000000
_cell_angle_beta 153.812900
_cell_angle_gamma 90.000000
_cell_volume 1294.481825
_symmetry_space_group_name_H-M "C C"
_symmetry_group_IT_number 9
_symmetry_cell_setting 'monoclinic'
loop_
_space_group_symop_operation_xyz
x,y,z
x,-y,1/2+z
1/2+x,1/2+y,z
1/2+x,1/2-y,1/2+z
loop_
_atom_site_type_symbol
_atom_site_label
_atom_site_fract_x
_atom_site_fract_y
_atom_site_fract_z
Si Si1 0.467710 0.806007 0.386740
Si Si2 0.594395 0.002639 0.211950
Si Si3 0.929038 0.246021 0.637608
Si Si4 0.589155 0.497629 0.325482
Si Si5 0.755493 0.859113 0.085162
Si Si6 0.843405 0.589402 0.519399
Si Si7 0.708277 0.363363 0.162510
Si Si8 0.311991 0.341897 0.395118
O O1 0.546453 0.685488 0.477327
O O2 0.291578 0.796156 0.181416
O O3 0.559324 0.881631 0.597999
O O4 0.463670 0.879117 0.275941
O O5 0.661447 0.909860 0.226042
O O6 0.727461 0.026124 0.479848
O O7 0.439756 0.967365 0.058832
O O8 0.840992 0.225800 0.624016
O O9 0.818379 0.314382 0.406644
O O10 0.082074 0.317855 0.866931
O O11 0.994260 0.121785 0.687674
O O12 0.709041 0.517753 0.394129
O O13 0.676417 0.515143 0.557901
O O14 0.464843 0.600395 0.152368
O O15 0.835129 0.861140 0.304471
O O16 0.788874 0.711295 0.398972
#
# Coordination Sequence:
#
# PCOD9140040 Si02
#       8
#     4   4   4   4   4   4   4   4
#     4  11  23  44  72 109 147 194 255 316 378 470
#     4  12  25  49  73 107 146 206 253 316 401 468
#     4  12  26  53  75 114 157 199 264 322 394 473
#     4  11  26  49  78 116 148 204 260 321 390 472
#     4  12  29  48  74 108 156 204 250 332 397 470
#     4  11  27  44  76 108 150 198 254 321 389 472
#     4  11  22  46  77 107 147 196 252 312 379 454
#     4  12  26  51  73 105 155 197 260 322 400 473
#
# _framework density 24.720316
#
# number of rings (size 3 to 8) (size 9 to 14) (size 15 to 20)
#    0.000    0.500    5.000    1.500    7.000    3.000 
#    6.750    0.000    0.000    0.000    0.000    0.000 
#    0.000    0.000    0.000    0.000    0.000    0.000 
#
# Total GULP energy -89451.352852 kJ/mol
# GULP energy per Si atom -5590.709553 kJ/mol
# Density = 2.466405 g / cm^3
# Si number density = 24.720316 Si / 1000 Ang^3
#
#
#
# Elastic Constant Matrix: (Units=GPa)
#
#
# Indices 1 2 3 4 5 6 
#
# 1 139.1612 34.8191 36.5654 0.0000 -12.0323 0.0000
# 2 34.8191 73.9679 9.0357 0.0000 -11.9442 0.0000
# 3 36.5654 9.0357 84.8197 0.0000 -17.7134 0.0000
# 4 0.0000 0.0000 0.0000 19.8682 0.0000 10.3222
# 5 -12.0323 -11.9442 -17.7134 0.0000 47.6575 0.0000
# 6 0.0000 0.0000 0.0000 10.3222 0.0000 36.3605
#
#
#
# Elastic Compliance Matrix: (Units=1/GPa)
#
#
# Indices 1 2 3 4 5 6 
#
# 1 0.009066 -0.003836 -0.003494 0.000000 0.000029 0.000000
# 2 -0.003836 0.015767 0.000647 0.000000 0.003224 0.000000
# 3 -0.003494 0.000647 0.014177 0.000000 0.004549 0.000000
# 4 0.000000 0.000000 0.000000 0.059039 0.000000 -0.016760
# 5 0.000029 0.003224 0.004549 0.000000 0.023489 0.000000
# 6 0.000000 0.000000 0.000000 -0.016760 0.000000 0.032260
#
#
# Mechanical properties :
#
#
# Convention : Reuss Voigt Hill
#
# Bulk Modulus (GPa) = 38.99433 50.97657 44.98545
# Shear Modulus (GPa) = 28.45558 35.27914 31.86736
#
# Velocity S-wave (km/s) = 3.39647 3.78184 3.59432
# Velocity P-wave (km/s) = 5.58478 6.30364 5.95507
#
# Compressibility (1/GPa) = 0.02564476
#
# Stress axis : x y z
#
# Youngs Moduli (GPa) = 110.29874 63.42467 70.53700
#
# Poissons Ratio (x) = 0.24332 0.24644
# Poissons Ratio (y) = 0.42314 -0.04567
# Poissons Ratio (z) = 0.38535 -0.04106
#
# Static dielectric constant tensor:
#      x y z
#    x 1.964440 0.000000 -0.032410 
#    y 0.000000 1.983520 0.000000 
#    z -0.032410 0.000000 1.985220 
# 
# From -- ./inp_files/19401.got.cif
#   From: 2010.05.17/outbox.cif.g08.bks.cpg/sg9_10_cif.got.tgz:19401.got - 2010.06.03 20:04:27.
