data_PCOD9140745
_publ_section_title
;
Structure prediction by ZEFSAII (Michael W. Deem and Ramdas Pophale) SiO2 
 PCOD9140745
Probable space group: C C
;
_chemical_formula_sum "Si O2"
_cell_formula_units_Z 32
_cell_length_a 5.023034
_cell_length_b 14.085990
_cell_length_c 18.831998
_cell_angle_alpha 90.000000
_cell_angle_beta 68.758975
_cell_angle_gamma 90.000000
_cell_volume 1241.926578
_symmetry_space_group_name_H-M "C C"
_symmetry_group_IT_number 9
_symmetry_cell_setting 'monoclinic'
loop_
_space_group_symop_operation_xyz
x,y,z
x,-y,1/2+z
1/2+x,1/2+y,z
1/2+x,1/2-y,1/2+z
loop_
_atom_site_type_symbol
_atom_site_label
_atom_site_fract_x
_atom_site_fract_y
_atom_site_fract_z
Si Si1 0.454050 0.036993 0.778540
Si Si2 0.942939 0.065026 0.540830
Si Si3 0.005413 0.190546 0.866744
Si Si4 0.707166 0.361875 0.870601
Si Si5 0.419943 0.664660 0.255280
Si Si6 0.771031 0.847963 0.537747
Si Si7 0.671317 0.742681 0.105089
Si Si8 0.562259 0.469300 0.185912
O O1 0.191077 0.096050 0.837286
O O2 0.341843 0.030707 0.708033
O O3 0.776644 0.078566 0.748873
O O4 0.454322 0.935315 0.818956
O O5 0.726347 0.151271 0.573986
O O6 0.124705 0.096990 0.455004
O O7 0.105262 0.060021 0.600900
O O8 0.813846 0.960994 0.539030
O O9 0.173823 0.262955 0.799185
O O10 0.707538 0.245988 0.877362
O O11 0.970007 0.191281 0.955027
O O12 0.500509 0.376597 0.824189
O O13 0.645263 0.732996 0.192484
O O14 0.444359 0.576712 0.199146
O O15 0.882525 0.793761 0.596369
O O16 0.442517 0.821179 0.556615
#
# Coordination Sequence:
#
# PCOD9140745 Si02
#       8
#     4   4   4   4   4   4   4   4
#     4  11  26  47  74 111 144 196 253 311 382 456
#     4  12  26  52  77 114 157 209 254 328 395 461
#     4  12  25  48  78 105 156 202 253 319 393 462
#     4  11  25  49  72 111 152 200 253 318 385 465
#     4  11  26  48  79 110 155 202 265 323 384 469
#     4  12  29  50  77 119 154 206 261 324 389 480
#     4  12  29  50  79 112 159 203 263 326 393 459
#     4  11  26  48  74 110 147 196 254 317 379 456
#
# _framework density 25.766417000000001
#
# number of rings (size 3 to 8) (size 9 to 14) (size 15 to 20)
#    0.000    0.500    5.000    1.500    8.750    2.000 
#    4.500    0.000    0.000    0.000    0.000    0.000 
#    0.000    0.000    0.000    0.000    0.000    0.000 
#
# Total GULP energy -89169.250242 kJ/mol
# GULP energy per Si atom -5573.078140 kJ/mol
# Density = 2.570777 g / cm^3
# Si number density = 25.766417 Si / 1000 Ang^3
#
#
#
# Elastic Constant Matrix: (Units=GPa)
#
#
# Indices 1 2 3 4 5 6 
#
# 1 86.0098 7.7994 18.4960 0.0000 -7.6509 0.0000
# 2 7.7994 105.1697 -17.3808 0.0000 2.3949 0.0000
# 3 18.4960 -17.3808 125.7434 0.0000 3.7316 0.0000
# 4 0.0000 0.0000 0.0000 52.7698 0.0000 7.2479
# 5 -7.6509 2.3949 3.7316 0.0000 29.8327 0.0000
# 6 0.0000 0.0000 0.0000 7.2479 0.0000 25.3415
#
#
#
# Elastic Compliance Matrix: (Units=1/GPa)
#
#
# Indices 1 2 3 4 5 6 
#
# 1 0.012529 -0.001364 -0.002138 0.000000 0.003590 0.000000
# 2 -0.001364 0.009906 0.001610 0.000000 -0.001347 0.000000
# 3 -0.002138 0.001610 0.008542 0.000000 -0.001746 0.000000
# 4 0.000000 0.000000 0.000000 0.019725 0.000000 -0.005642
# 5 0.003590 -0.001347 -0.001746 0.000000 0.034767 0.000000
# 6 0.000000 0.000000 0.000000 -0.005642 0.000000 0.041075
#
#
# Mechanical properties :
#
#
# Convention : Reuss Voigt Hill
#
# Bulk Modulus (GPa) = 36.77498 37.19466 36.98482
# Shear Modulus (GPa) = 35.86966 42.12269 38.99617
#
# Velocity S-wave (km/s) = 3.73515 4.04764 3.89453
# Velocity P-wave (km/s) = 5.73630 6.02588 5.88287
#
# Compressibility (1/GPa) = 0.02719240
#
# Stress axis : x y z
#
# Youngs Moduli (GPa) = 79.81188 100.94532 117.07468
#
# Poissons Ratio (x) = 0.13772 0.25032
# Poissons Ratio (y) = 0.10889 -0.18848
# Poissons Ratio (z) = 0.17065 -0.16252
#
# Static dielectric constant tensor:
#      x y z
#    x 2.068400 0.000000 -0.050770 
#    y 0.000000 1.805720 0.000000 
#    z -0.050770 0.000000 2.008920 
# 
# From -- ./inp_files/28699.got.cif
#   From: 2010.05.17/outbox.cif.g08.bks.cpg/sg9_15_cif.got.tgz:28699.got - 2010.06.03 20:04:27.
