data_PCOD9140259
_publ_section_title
;
Structure prediction by ZEFSAII (Michael W. Deem and Ramdas Pophale) SiO2 
 PCOD9140259
Probable space group: C C
;
_chemical_formula_sum "Si O2"
_cell_formula_units_Z 32
_cell_length_a 11.191903
_cell_length_b 14.248902
_cell_length_c 9.556017
_cell_angle_alpha 90.000000
_cell_angle_beta 108.763219
_cell_angle_gamma 90.000000
_cell_volume 1442.932981
_symmetry_space_group_name_H-M "C C"
_symmetry_group_IT_number 9
_symmetry_cell_setting 'monoclinic'
loop_
_space_group_symop_operation_xyz
x,y,z
x,-y,1/2+z
1/2+x,1/2+y,z
1/2+x,1/2-y,1/2+z
loop_
_atom_site_type_symbol
_atom_site_label
_atom_site_fract_x
_atom_site_fract_y
_atom_site_fract_z
Si Si1 0.117130 0.583962 0.479180
Si Si2 0.379674 0.805009 0.903475
Si Si3 0.184370 0.320456 0.716441
Si Si4 0.470202 0.899293 0.437326
Si Si5 0.265693 0.076143 0.102924
Si Si6 0.357422 0.525677 0.160256
Si Si7 0.781996 0.357081 0.154538
Si Si8 0.479859 0.598845 0.924269
O O1 0.161692 0.641101 0.361827
O O2 0.235843 0.544082 0.608627
O O3 0.010107 0.647823 0.507834
O O4 0.039555 0.491422 0.405511
O O5 0.328627 0.862172 0.750077
O O6 0.411523 0.698566 0.876124
O O7 0.286010 0.817172 0.998940
O O8 0.307120 0.376893 0.707244
O O9 0.192347 0.209032 0.711026
O O10 0.071626 0.348326 0.571136
O O11 0.355597 0.923039 0.500161
O O12 0.414625 0.844944 0.285238
O O13 0.254106 0.967186 0.143411
O O14 0.126229 0.112566 0.016007
O O15 0.461842 0.472085 0.289033
O O16 0.408554 0.549029 0.026773
#
# Coordination Sequence:
#
# PCOD9140259 Si02
#       8
#     4   4   4   4   4   4   4   4
#     4  11  23  46  76 100 143 190 247 307 354 445
#     4  12  27  48  72 110 146 194 253 298 369 447
#     4  11  24  44  73 106 142 190 253 297 362 442
#     4  11  24  44  73 103 141 193 252 300 364 435
#     4  12  27  49  71 109 150 193 241 310 374 433
#     4  11  26  49  71 107 146 193 244 297 375 433
#     4  12  25  44  71 108 145 190 248 304 369 430
#     4  12  30  48  73 107 153 195 238 311 375 439
#
# _framework density 22.177050999999999
#
# number of rings (size 3 to 8) (size 9 to 14) (size 15 to 20)
#    0.000    0.500    6.250    0.000    8.750    2.000 
#    0.000    0.000    0.000    0.000    0.000    0.000 
#    0.000    0.000    0.000    0.000    0.000    0.000 
#
# Total GULP energy -89502.118872 kJ/mol
# GULP energy per Si atom -5593.882429 kJ/mol
# Density = 2.212658 g / cm^3
# Si number density = 22.177051 Si / 1000 Ang^3
#
#
#
# Elastic Constant Matrix: (Units=GPa)
#
#
# Indices 1 2 3 4 5 6 
#
# 1 56.0179 28.5800 14.5026 0.0000 6.0962 0.0000
# 2 28.5800 133.0459 37.4104 0.0000 3.1911 0.0000
# 3 14.5026 37.4104 70.2590 0.0000 0.3693 0.0000
# 4 0.0000 0.0000 0.0000 11.4972 0.0000 -5.8507
# 5 6.0962 3.1911 0.3693 0.0000 31.3216 0.0000
# 6 0.0000 0.0000 0.0000 -5.8507 0.0000 22.8572
#
#
#
# Elastic Compliance Matrix: (Units=1/GPa)
#
#
# Indices 1 2 3 4 5 6 
#
# 1 0.020738 -0.003727 -0.002277 0.000000 -0.003630 0.000000
# 2 -0.003727 0.009532 -0.004305 0.000000 -0.000195 0.000000
# 3 -0.002277 -0.004305 0.016992 0.000000 0.000681 0.000000
# 4 0.000000 0.000000 0.000000 0.100004 0.000000 0.025598
# 5 -0.003630 -0.000195 0.000681 0.000000 0.032645 0.000000
# 6 0.000000 0.000000 0.000000 0.025598 0.000000 0.050302
#
#
# Mechanical properties :
#
#
# Convention : Reuss Voigt Hill
#
# Bulk Modulus (GPa) = 37.53353 46.70098 42.11725
# Shear Modulus (GPa) = 19.25203 25.05717 22.15460
#
# Velocity S-wave (km/s) = 2.94956 3.36500 3.16411
# Velocity P-wave (km/s) = 5.34426 6.01678 5.69046
#
# Compressibility (1/GPa) = 0.02664285
#
# Stress axis : x y z
#
# Youngs Moduli (GPa) = 48.22158 104.90862 58.85217
#
# Poissons Ratio (x) = 0.39104 0.13399
# Poissons Ratio (y) = 0.17974 0.25336
# Poissons Ratio (z) = 0.10979 0.45164
#
# Static dielectric constant tensor:
#      x y z
#    x 1.846890 0.000000 -0.007710 
#    y 0.000000 1.817460 0.000000 
#    z -0.007710 0.000000 1.797890 
# 
# From -- ./inp_files/7413.got.cif
#   From: 2010.05.17/outbox.cif.g08.bks.cpg/sg9_4_cif.got.tgz:7413.got - 2010.06.03 20:04:27.
