data_PCOD9140587
_publ_section_title
;
Structure prediction by ZEFSAII (Michael W. Deem and Ramdas Pophale) SiO2 
 PCOD9140587
Probable space group: C C
;
_chemical_formula_sum "Si O2"
_cell_formula_units_Z 28
_cell_length_a 11.839924
_cell_length_b 8.411176
_cell_length_c 23.231079
_cell_angle_alpha 90.000000
_cell_angle_beta 28.330179
_cell_angle_gamma 90.000000
_cell_volume 1097.889782
_symmetry_space_group_name_H-M "C C"
_symmetry_group_IT_number 9
_symmetry_cell_setting 'monoclinic'
loop_
_space_group_symop_operation_xyz
x,y,z
x,-y,1/2+z
1/2+x,1/2+y,z
1/2+x,1/2-y,1/2+z
loop_
_atom_site_type_symbol
_atom_site_label
_atom_site_fract_x
_atom_site_fract_y
_atom_site_fract_z
Si Si1 0.722860 0.732806 0.760910
Si Si2 0.664672 0.260063 0.160057
Si Si3 0.549873 0.046660 0.430183
Si Si4 0.991000 0.200386 0.287309
Si Si5 0.730977 0.695034 0.003776
Si Si6 0.824374 0.909597 0.055161
Si Si7 0.744953 0.384094 0.793043
O O1 0.597379 0.716113 0.756240
O O2 0.548255 0.820078 0.881881
O O3 0.797012 0.571107 0.759920
O O4 0.958149 0.839771 0.641501
O O5 0.449218 0.246162 0.212091
O O6 0.773733 0.083834 0.101140
O O7 0.858146 0.396545 0.062618
O O8 0.818220 0.068645 0.334982
O O9 0.429396 0.898177 0.451851
O O10 0.798350 0.313624 0.406842
O O11 0.174512 0.286423 0.161806
O O12 0.137159 0.151726 0.278323
O O13 0.751688 0.875091 0.020497
O O14 0.103509 0.883764 0.917877
#
# Coordination Sequence:
#
# PCOD9140587 Si02
#       7
#     4   4   4   4   4   4   4
#     4  12  25  47  75 109 162 194 262 328 375 465
#     4  12  26  45  78 107 151 208 255 313 397 454
#     4  12  26  46  77 114 149 204 258 317 392 461
#     4  11  25  48  76 110 159 196 261 323 382 465
#     4  11  25  45  74 112 152 197 254 320 384 456
#     4  11  24  49  74 104 159 200 252 320 386 456
#     4  11  27  48  76 116 152 213 256 323 396 459
#
# _framework density 25.503471000000001
#
# number of rings (size 3 to 8) (size 9 to 14) (size 15 to 20)
#    0.000    0.571    5.714    0.857    2.000    8.000 
#    0.000    0.000    0.000    0.000    0.000    0.000 
#    0.000    0.000    0.000    0.000    0.000    0.000 
#
# Total GULP energy -78036.036400 kJ/mol
# GULP energy per Si atom -5574.002600 kJ/mol
# Density = 2.544542 g / cm^3
# Si number density = 25.503471 Si / 1000 Ang^3
#
#
#
# Elastic Constant Matrix: (Units=GPa)
#
#
# Indices 1 2 3 4 5 6 
#
# 1 145.3946 33.8433 40.6240 0.0000 4.7341 0.0000
# 2 33.8433 80.6388 13.1806 0.0002 -4.8941 0.0000
# 3 40.6240 13.1806 97.3728 -0.0004 13.4389 -0.0003
# 4 0.0000 0.0002 -0.0004 15.8585 -0.0003 1.5395
# 5 4.7341 -4.8941 13.4389 -0.0003 47.2707 0.0001
# 6 0.0000 0.0000 -0.0003 1.5395 0.0001 41.8460
#
#
#
# Elastic Compliance Matrix: (Units=1/GPa)
#
#
# Indices 1 2 3 4 5 6 
#
# 1 0.008460 -0.003066 -0.003074 0.000000 -0.000291 0.000000
# 2 -0.003066 0.013954 -0.000886 0.000000 0.002004 0.000000
# 3 -0.003074 -0.000886 0.012118 0.000000 -0.003229 0.000000
# 4 0.000000 0.000000 0.000000 0.063284 0.000000 -0.002328
# 5 -0.000291 0.002004 -0.003229 0.000000 0.022309 0.000000
# 6 0.000000 0.000000 0.000000 -0.002328 0.000000 0.023983
#
#
# Mechanical properties :
#
#
# Convention : Reuss Voigt Hill
#
# Bulk Modulus (GPa) = 48.83011 55.41132 52.12072
# Shear Modulus (GPa) = 30.30539 36.71226 33.50883
#
# Velocity S-wave (km/s) = 3.45089 3.79819 3.62870
# Velocity P-wave (km/s) = 5.92167 6.40384 6.16747
#
# Compressibility (1/GPa) = 0.02047917
#
# Stress axis : x y z
#
# Youngs Moduli (GPa) = 118.20489 71.66349 82.52138
#
# Poissons Ratio (x) = 0.21970 0.25370
# Poissons Ratio (y) = 0.36238 0.07315
# Poissons Ratio (z) = 0.36341 0.06352
#
# Static dielectric constant tensor:
#      x y z
#    x 2.021750 0.000000 -0.152400 
#    y 0.000000 2.086890 0.000000 
#    z -0.152400 0.000000 2.185190 
# 
# From -- ./inp_files/20785.got.cif
#   From: 2010.05.17/outbox.cif.g08.bks.cpg/sg9_11_cif.got.tgz:20785.got - 2010.06.03 20:04:27.
