data_PCOD9140103
_publ_section_title
;
Structure prediction by ZEFSAII (Michael W. Deem and Ramdas Pophale) SiO2 
 PCOD9140103
Probable space group: C C
;
_chemical_formula_sum "Si O2"
_cell_formula_units_Z 32
_cell_length_a 24.594890
_cell_length_b 9.323667
_cell_length_c 19.380224
_cell_angle_alpha 90.000000
_cell_angle_beta 19.100494
_cell_angle_gamma 90.000000
_cell_volume 1454.247400
_symmetry_space_group_name_H-M "C C"
_symmetry_group_IT_number 9
_symmetry_cell_setting 'monoclinic'
loop_
_space_group_symop_operation_xyz
x,y,z
x,-y,1/2+z
1/2+x,1/2+y,z
1/2+x,1/2-y,1/2+z
loop_
_atom_site_type_symbol
_atom_site_label
_atom_site_fract_x
_atom_site_fract_y
_atom_site_fract_z
Si Si1 0.539570 0.244822 0.822160
Si Si2 0.532095 0.653907 0.609736
Si Si3 0.905666 0.854796 0.715430
Si Si4 0.386424 0.813681 0.374784
Si Si5 0.030366 0.058177 0.874160
Si Si6 0.249438 0.750751 0.279767
Si Si7 0.751594 0.385315 0.982987
Si Si8 0.262108 0.937150 0.723321
O O1 0.535567 0.185079 0.749090
O O2 0.733178 0.260769 0.606574
O O3 0.475539 0.408627 0.904486
O O4 0.429518 0.137463 0.997752
O O5 0.435951 0.521892 0.689106
O O6 0.631309 0.610447 0.560442
O O7 0.399335 0.774637 0.788861
O O8 0.667809 0.676444 0.386133
O O9 0.908235 0.796704 0.788437
O O10 0.751797 0.819769 0.852391
O O11 0.054914 0.770538 0.496303
O O12 0.334564 0.962551 0.402337
O O13 0.141807 0.143295 0.683962
O O14 0.146873 0.999918 0.798299
O O15 0.872149 0.153130 0.086896
O O16 0.303545 0.917632 0.215691
#
# Coordination Sequence:
#
# PCOD9140103 Si02
#       8
#     4   4   4   4   4   4   4   4
#     4  11  23  42  70  94 142 184 227 292 339 419
#     4  11  26  44  67  99 139 176 226 292 340 409
#     4  11  23  43  65 100 134 179 233 282 348 409
#     4  11  23  43  65 100 134 179 233 282 348 409
#     4  11  24  46  67 104 143 177 236 285 348 416
#     4  11  23  42  70  94 142 184 227 292 339 419
#     4  11  26  44  67  99 139 176 226 292 340 409
#     4  11  24  46  67 104 143 177 236 285 348 416
#
# _framework density 22.004508999999999
#
# number of rings (size 3 to 8) (size 9 to 14) (size 15 to 20)
#    0.000    1.000    5.000    3.750    3.500    5.000 
#    0.000    0.000    0.000    0.000    0.000    0.000 
#    0.000    0.000    0.000    0.000    0.000    0.000 
#
# Total GULP energy -89219.621863 kJ/mol
# GULP energy per Si atom -5576.226366 kJ/mol
# Density = 2.195443 g / cm^3
# Si number density = 22.004509 Si / 1000 Ang^3
#
#
#
# Elastic Constant Matrix: (Units=GPa)
#
#
# Indices 1 2 3 4 5 6 
#
# 1 85.5680 5.2063 1.6356 0.0000 1.4262 0.0000
# 2 5.2063 61.5886 22.6252 0.0000 -7.9676 0.0001
# 3 1.6356 22.6252 71.3721 0.0000 17.0838 0.0000
# 4 0.0000 0.0000 0.0000 45.5016 0.0000 5.0069
# 5 1.4262 -7.9676 17.0838 0.0000 41.7609 0.0000
# 6 0.0000 0.0001 0.0000 5.0069 0.0000 34.2945
#
#
#
# Elastic Compliance Matrix: (Units=1/GPa)
#
#
# Indices 1 2 3 4 5 6 
#
# 1 0.011766 -0.001198 0.000289 0.000000 -0.000749 0.000000
# 2 -0.001198 0.020258 -0.008125 0.000000 0.007230 0.000000
# 3 0.000289 -0.008125 0.018794 0.000000 -0.009248 0.000000
# 4 0.000000 0.000000 0.000000 0.022336 0.000000 -0.003261
# 5 -0.000749 0.007230 -0.009248 0.000000 0.029134 0.000000
# 6 0.000000 0.000000 0.000000 -0.003261 0.000000 0.029635
#
#
# Mechanical properties :
#
#
# Convention : Reuss Voigt Hill
#
# Bulk Modulus (GPa) = 30.53307 30.82920 30.68113
# Shear Modulus (GPa) = 31.07366 36.91552 33.99459
#
# Velocity S-wave (km/s) = 3.76193 4.10034 3.93478
# Velocity P-wave (km/s) = 5.72499 6.03803 5.88359
#
# Compressibility (1/GPa) = 0.03275137
#
# Stress axis : x y z
#
# Youngs Moduli (GPa) = 84.98747 49.36289 53.20902
#
# Poissons Ratio (x) = 0.05913 -0.01539
# Poissons Ratio (y) = 0.10180 0.43232
# Poissons Ratio (z) = -0.02458 0.40107
#
# Static dielectric constant tensor:
#      x y z
#    x 1.805370 0.000000 0.037040 
#    y 0.000000 1.778550 0.000000 
#    z 0.037040 0.000000 1.889660 
# 
# From -- ./inp_files/34600.got.cif
#   From: 2010.05.17/outbox.cif.g08.bks.cpg/sg9_18_cif.got.tgz:34600.got - 2010.06.03 20:04:27.
