data_PCOD9140330
_publ_section_title
;
Structure prediction by ZEFSAII (Michael W. Deem and Ramdas Pophale) SiO2 
 PCOD9140330
Probable space group: C C
;
_chemical_formula_sum "Si O2"
_cell_formula_units_Z 24
_cell_length_a 7.885953
_cell_length_b 14.158572
_cell_length_c 8.276730
_cell_angle_alpha 90.000000
_cell_angle_beta 83.125395
_cell_angle_gamma 90.000000
_cell_volume 917.484602
_symmetry_space_group_name_H-M "C C"
_symmetry_group_IT_number 9
_symmetry_cell_setting 'monoclinic'
loop_
_space_group_symop_operation_xyz
x,y,z
x,-y,1/2+z
1/2+x,1/2+y,z
1/2+x,1/2-y,1/2+z
loop_
_atom_site_type_symbol
_atom_site_label
_atom_site_fract_x
_atom_site_fract_y
_atom_site_fract_z
Si Si1 0.214210 0.714021 0.565620
Si Si2 0.106524 0.772980 0.938634
Si Si3 0.748698 0.445731 0.779752
Si Si4 0.596221 0.605204 0.950359
Si Si5 0.757295 0.012806 0.411971
Si Si6 0.615708 0.115182 0.142610
O O1 0.170392 0.734358 0.757698
O O2 0.406059 0.743665 0.492663
O O3 0.095999 0.781156 0.465812
O O4 0.219055 0.603219 0.529632
O O5 0.148812 0.883531 0.925231
O O6 0.180317 0.717716 0.084362
O O7 0.653249 0.425420 0.623183
O O8 0.936091 0.400795 0.748593
O O9 0.737380 0.555904 0.820320
O O10 0.423841 0.552673 0.914032
O O11 0.750479 0.061088 0.238868
O O12 0.606312 0.941049 0.474524
#
# Coordination Sequence:
#
# PCOD9140330 Si02
#       6
#     4   4   4   4   4   4
#     4  11  26  48  80 116 161 211 274 333 410 488
#     4  11  23  50  78 115 160 209 276 333 404 497
#     4  11  24  46  78 114 155 213 272 333 407 484
#     4  11  24  47  76 110 160 207 273 332 399 490
#     4  12  27  46  76 116 163 213 275 336 412 485
#     4  12  26  47  76 117 159 215 270 343 408 486
#
# _framework density 26.158477999999999
#
# number of rings (size 3 to 8) (size 9 to 14) (size 15 to 20)
#    0.000    0.667    5.000    3.000    4.667    2.667 
#    3.000    0.000    0.000    0.000    0.000    0.000 
#    0.000    0.000    0.000    0.000    0.000    0.000 
#
# Total GULP energy -67101.510010 kJ/mol
# GULP energy per Si atom -5591.792501 kJ/mol
# Density = 2.609894 g / cm^3
# Si number density = 26.158478 Si / 1000 Ang^3
#
#
#
# Elastic Constant Matrix: (Units=GPa)
#
#
# Indices 1 2 3 4 5 6 
#
# 1 114.3194 19.1382 24.9585 0.0000 -12.1490 0.0000
# 2 19.1382 106.4612 18.2009 0.0000 2.9669 0.0000
# 3 24.9585 18.2009 98.9388 0.0000 -9.9455 0.0000
# 4 0.0000 0.0000 0.0000 71.1987 0.0000 4.5138
# 5 -12.1490 2.9669 -9.9455 0.0000 44.0336 0.0000
# 6 0.0000 0.0000 0.0000 4.5138 0.0000 35.8763
#
#
#
# Elastic Compliance Matrix: (Units=1/GPa)
#
#
# Indices 1 2 3 4 5 6 
#
# 1 0.009663 -0.001472 -0.001933 0.000000 0.002329 0.000000
# 2 -0.001472 0.009973 -0.001608 0.000000 -0.001441 0.000000
# 3 -0.001933 -0.001608 0.011100 0.000000 0.002082 0.000000
# 4 0.000000 0.000000 0.000000 0.014158 0.000000 -0.001781
# 5 0.002329 -0.001441 0.002082 0.000000 0.023920 0.000000
# 6 0.000000 0.000000 0.000000 -0.001781 0.000000 0.028098
#
#
# Mechanical properties :
#
#
# Convention : Reuss Voigt Hill
#
# Bulk Modulus (GPa) = 48.28446 49.36830 48.82638
# Shear Modulus (GPa) = 43.92108 47.38318 45.65213
#
# Velocity S-wave (km/s) = 4.10205 4.26066 4.18211
# Velocity P-wave (km/s) = 6.39799 6.56643 6.48276
#
# Compressibility (1/GPa) = 0.02071060
#
# Stress axis : x y z
#
# Youngs Moduli (GPa) = 103.48494 100.27328 90.09004
#
# Poissons Ratio (x) = 0.14756 0.17413
# Poissons Ratio (y) = 0.15229 0.14489
# Poissons Ratio (z) = 0.20002 0.16126
#
# Static dielectric constant tensor:
#      x y z
#    x 2.140660 0.000000 0.010870 
#    y 0.000000 2.171180 0.000000 
#    z 0.010870 0.000000 2.120740 
# 
# From -- ./inp_files/4994.got.cif
#   From: 2010.05.17/outbox.cif.g08.bks.cpg/sg9_3_cif.got.tgz:4994.got - 2010.06.03 20:04:27.
