data_PCOD9140792
_publ_section_title
;
Structure prediction by ZEFSAII (Michael W. Deem and Ramdas Pophale) SiO2 
 PCOD9140792
Probable space group: C C
;
_chemical_formula_sum "Si O2"
_cell_formula_units_Z 28
_cell_length_a 5.043459
_cell_length_b 25.548540
_cell_length_c 8.485967
_cell_angle_alpha 90.000000
_cell_angle_beta 95.565686
_cell_angle_gamma 90.000000
_cell_volume 1088.287569
_symmetry_space_group_name_H-M "C C"
_symmetry_group_IT_number 9
_symmetry_cell_setting 'monoclinic'
loop_
_space_group_symop_operation_xyz
x,y,z
x,-y,1/2+z
1/2+x,1/2+y,z
1/2+x,1/2-y,1/2+z
loop_
_atom_site_type_symbol
_atom_site_label
_atom_site_fract_x
_atom_site_fract_y
_atom_site_fract_z
Si Si1 0.812530 0.008806 0.242110
Si Si2 0.030522 0.395627 0.245628
Si Si3 0.116366 0.053040 0.545343
Si Si4 0.655561 0.266601 0.982607
Si Si5 0.752396 0.629290 0.295685
Si Si6 0.679154 0.212703 0.668344
Si Si7 0.199852 0.387073 0.603297
O O1 0.654204 0.051361 0.133882
O O2 0.873103 0.035173 0.414518
O O3 0.670203 0.952355 0.236577
O O4 0.087205 0.996034 0.163128
O O5 0.159628 0.350078 0.146910
O O6 0.084783 0.377532 0.425430
O O7 0.721981 0.404541 0.182043
O O8 0.287279 0.078588 0.411088
O O9 0.663821 0.323189 0.900236
O O10 0.743991 0.227406 0.850621
O O11 0.375703 0.261657 0.053957
O O12 0.882962 0.265695 0.126871
O O13 0.511571 0.621215 0.156951
O O14 0.022955 0.642347 0.221802
#
# Coordination Sequence:
#
# PCOD9140792 Si02
#       7
#     4   4   4   4   4   4   4
#     4  11  26  46  69 110 149 208 249 322 378 459
#     4  12  28  45  77 109 153 204 266 314 393 461
#     4  11  26  44  70 100 154 195 255 312 377 456
#     4  12  27  54  80 120 155 206 260 327 408 460
#     4  11  26  49  75 107 153 196 254 319 393 453
#     4  12  29  50  85 116 158 207 260 332 392 481
#     4  11  28  46  76 110 148 204 254 316 377 474
#
# _framework density 25.728494000000001
#
# number of rings (size 3 to 8) (size 9 to 14) (size 15 to 20)
#    0.000    0.571    2.857    2.571   16.000    0.000 
#    0.000    0.000    0.000    0.000    0.000    0.000 
#    0.000    0.000    0.000    0.000    0.000    0.000 
#
# Total GULP energy -78084.168258 kJ/mol
# GULP energy per Si atom -5577.440590 kJ/mol
# Density = 2.566993 g / cm^3
# Si number density = 25.728494 Si / 1000 Ang^3
#
#
#
# Elastic Constant Matrix: (Units=GPa)
#
#
# Indices 1 2 3 4 5 6 
#
# 1 96.6005 17.9694 12.7102 0.0000 0.6132 0.0000
# 2 17.9694 83.6491 10.0967 0.0000 -9.9395 0.0000
# 3 12.7102 10.0967 115.4548 0.0000 9.1444 0.0000
# 4 0.0000 0.0000 0.0000 38.6161 0.0000 -5.4180
# 5 0.6132 -9.9395 9.1444 0.0000 33.4854 0.0000
# 6 0.0000 0.0000 0.0000 -5.4180 0.0000 21.1964
#
#
#
# Elastic Compliance Matrix: (Units=1/GPa)
#
#
# Indices 1 2 3 4 5 6 
#
# 1 0.010909 -0.002303 -0.000950 0.000000 -0.000624 0.000000
# 2 -0.002303 0.013105 -0.001231 0.000000 0.004268 0.000000
# 3 -0.000950 -0.001231 0.009098 0.000000 -0.002832 0.000000
# 4 0.000000 0.000000 0.000000 0.026859 0.000000 0.006865
# 5 -0.000624 0.004268 -0.002832 0.000000 0.031916 0.000000
# 6 0.000000 0.000000 0.000000 0.006865 0.000000 0.048933
#
#
# Mechanical properties :
#
#
# Convention : Reuss Voigt Hill
#
# Bulk Modulus (GPa) = 41.41662 41.91747 41.66704
# Shear Modulus (GPa) = 31.67854 35.65480 33.66667
#
# Velocity S-wave (km/s) = 3.51274 3.72669 3.62129
# Velocity P-wave (km/s) = 5.70833 5.90298 5.80647
#
# Compressibility (1/GPa) = 0.02414490
#
# Stress axis : x y z
#
# Youngs Moduli (GPa) = 91.66506 76.30602 109.91486
#
# Poissons Ratio (x) = 0.17573 0.10444
# Poissons Ratio (y) = 0.21110 0.13526
# Poissons Ratio (z) = 0.08710 0.09390
#
# Static dielectric constant tensor:
#      x y z
#    x 2.064660 0.000000 -0.024270 
#    y 0.000000 2.065580 0.000000 
#    z -0.024270 0.000000 1.988930 
# 
# From -- ./inp_files/4174.got.cif
#   From: 2010.05.17/outbox.cif.g08.bks.cpg/sg9_3_cif.got.tgz:4174.got - 2010.06.03 20:04:27.
