data_PCOD9140044
_publ_section_title
;
Structure prediction by ZEFSAII (Michael W. Deem and Ramdas Pophale) SiO2 
 PCOD9140044
Probable space group: C C
;
_chemical_formula_sum "Si O2"
_cell_formula_units_Z 32
_cell_length_a 11.950290
_cell_length_b 8.556978
_cell_length_c 14.187112
_cell_angle_alpha 90.000000
_cell_angle_beta 68.638505
_cell_angle_gamma 90.000000
_cell_volume 1351.085525
_symmetry_space_group_name_H-M "C C"
_symmetry_group_IT_number 9
_symmetry_cell_setting 'monoclinic'
loop_
_space_group_symop_operation_xyz
x,y,z
x,-y,1/2+z
1/2+x,1/2+y,z
1/2+x,1/2-y,1/2+z
loop_
_atom_site_type_symbol
_atom_site_label
_atom_site_fract_x
_atom_site_fract_y
_atom_site_fract_z
Si Si1 0.224530 0.147563 0.888480
Si Si2 0.997528 0.988123 0.913817
Si Si3 0.784190 0.509405 0.540145
Si Si4 0.634006 0.935052 0.234477
Si Si5 0.030851 0.135928 0.192143
Si Si6 0.737849 0.948998 0.016728
Si Si7 0.290095 0.719535 0.178948
Si Si8 0.044700 0.646153 0.970822
O O1 0.245014 0.302415 0.943787
O O2 0.279199 0.162492 0.769683
O O3 0.084031 0.123757 0.919746
O O4 0.277228 0.001503 0.929270
O O5 0.018321 0.943784 0.798078
O O6 0.027824 0.833029 0.966518
O O7 0.861198 0.036400 0.964146
O O8 0.656505 0.429860 0.611462
O O9 0.791574 0.676255 0.586192
O O10 0.910083 0.422093 0.522552
O O11 0.537585 0.822409 0.213340
O O12 0.611902 0.897232 0.350874
O O13 0.667532 0.117717 0.223198
O O14 0.737814 0.891808 0.125355
O O15 0.911252 0.120840 0.165315
O O16 0.626649 0.060710 0.024177
#
# Coordination Sequence:
#
# PCOD9140044 Si02
#       8
#     4   4   4   4   4   4   4   4
#     4  12  24  48  70 105 150 186 239 312 361 437
#     4  11  24  44  72 103 144 186 242 298 372 434
#     4  12  26  44  73 108 146 196 244 300 375 433
#     4  11  24  43  73 102 136 193 241 290 368 429
#     4  11  22  47  71 103 146 189 236 306 366 428
#     4  12  24  47  71 101 145 190 236 307 366 426
#     4  12  26  47  73 107 147 192 250 302 366 441
#     4  11  24  46  71 103 144 188 246 303 362 440
#
# _framework density 23.684660000000001
#
# number of rings (size 3 to 8) (size 9 to 14) (size 15 to 20)
#    0.000    0.500    6.250    1.500    3.500    0.000 
#    0.000    0.000    0.000    0.000    0.000    0.000 
#    0.000    0.000    0.000    0.000    0.000    0.000 
#
# Total GULP energy -89201.296975 kJ/mol
# GULP energy per Si atom -5575.081061 kJ/mol
# Density = 2.363075 g / cm^3
# Si number density = 23.684660 Si / 1000 Ang^3
#
#
#
# Elastic Constant Matrix: (Units=GPa)
#
#
# Indices 1 2 3 4 5 6 
#
# 1 148.4804 40.1846 21.7057 0.0000 -7.0293 0.0000
# 2 40.1846 76.5477 39.7345 0.0000 17.6340 0.0000
# 3 21.7057 39.7345 98.7865 0.0000 1.6573 0.0000
# 4 0.0000 0.0000 0.0000 34.0902 0.0000 -1.3085
# 5 -7.0293 17.6340 1.6573 0.0000 31.0344 0.0000
# 6 0.0000 0.0000 0.0000 -1.3085 0.0000 46.0794
#
#
#
# Elastic Compliance Matrix: (Units=1/GPa)
#
#
# Indices 1 2 3 4 5 6 
#
# 1 0.008520 -0.005898 0.000412 0.000000 0.005259 0.000000
# 2 -0.005898 0.023584 -0.007950 0.000000 -0.014312 0.000000
# 3 0.000412 -0.007950 0.013164 0.000000 0.003908 0.000000
# 4 0.000000 0.000000 0.000000 0.029366 0.000000 0.000834
# 5 0.005259 -0.014312 0.003908 0.000000 0.041337 0.000000
# 6 0.000000 0.000000 0.000000 0.000834 0.000000 0.021725
#
#
# Mechanical properties :
#
#
# Convention : Reuss Voigt Hill
#
# Bulk Modulus (GPa) = 54.35907 58.56269 56.46088
# Shear Modulus (GPa) = 29.29120 37.05346 33.17233
#
# Velocity S-wave (km/s) = 3.52051 3.95960 3.74650
# Velocity P-wave (km/s) = 6.28700 6.75902 6.52727
#
# Compressibility (1/GPa) = 0.01839619
#
# Stress axis : x y z
#
# Youngs Moduli (GPa) = 117.37277 42.40236 75.96248
#
# Poissons Ratio (x) = 0.25009 -0.03130
# Poissons Ratio (y) = 0.69227 0.60389
# Poissons Ratio (z) = -0.04837 0.33709
#
# Static dielectric constant tensor:
#      x y z
#    x 1.910510 0.000000 0.010660 
#    y 0.000000 1.942020 0.000000 
#    z 0.010660 0.000000 1.967830 
# 
# From -- ./inp_files/24192.got.cif
#   From: 2010.05.17/outbox.cif.g08.bks.cpg/sg9_13_cif.got.tgz:24192.got - 2010.06.03 20:04:27.
