data_PCOD9140045
_publ_section_title
;
Structure prediction by ZEFSAII (Michael W. Deem and Ramdas Pophale) SiO2 
 PCOD9140045
Probable space group: C C
;
_chemical_formula_sum "Si O2"
_cell_formula_units_Z 28
_cell_length_a 6.487277
_cell_length_b 12.212391
_cell_length_c 16.082240
_cell_angle_alpha 90.000000
_cell_angle_beta 116.718808
_cell_angle_gamma 90.000000
_cell_volume 1138.072660
_symmetry_space_group_name_H-M "C C"
_symmetry_group_IT_number 9
_symmetry_cell_setting 'monoclinic'
loop_
_space_group_symop_operation_xyz
x,y,z
x,-y,1/2+z
1/2+x,1/2+y,z
1/2+x,1/2-y,1/2+z
loop_
_atom_site_type_symbol
_atom_site_label
_atom_site_fract_x
_atom_site_fract_y
_atom_site_fract_z
Si Si1 0.002890 0.664616 0.488950
Si Si2 0.076336 0.296421 0.345208
Si Si3 0.332987 0.606704 0.242496
Si Si4 0.637173 0.598790 0.749912
Si Si5 0.291185 0.476132 0.912013
Si Si6 0.229725 0.907803 0.082403
Si Si7 0.445330 0.223509 0.104308
O O1 0.113474 0.575738 0.446571
O O2 0.183185 0.764178 0.530958
O O3 0.757201 0.711440 0.416549
O O4 0.953661 0.609078 0.568465
O O5 0.967652 0.221938 0.251408
O O6 0.841983 0.350143 0.342193
O O7 0.589763 0.115819 0.150835
O O8 0.491353 0.503363 0.252911
O O9 0.292805 0.604261 0.333780
O O10 0.223147 0.406558 0.362374
O O11 0.755068 0.560602 0.683491
O O12 0.475143 0.699012 0.691681
O O13 0.539700 0.481661 0.001578
O O14 0.092946 0.791023 0.063264
#
# Coordination Sequence:
#
# PCOD9140045 Si02
#       7
#     4   4   4   4   4   4   4
#     4  11  22  47  71 103 149 185 242 298 355 428
#     4  11  24  43  72 103 140 189 240 291 359 424
#     4  11  22  48  72  98 149 186 239 301 352 430
#     4   9  22  45  70 103 142 187 239 293 355 423
#     4  11  25  44  69 107 135 188 240 295 358 420
#     4   9  21  45  68 102 143 181 238 293 354 431
#     4   8  22  44  68 106 136 184 244 289 359 422
#
# _framework density 24.603000000000002
#
# number of rings (size 3 to 8) (size 9 to 14) (size 15 to 20)
#    0.857    1.143    1.429    0.857    0.000    5.714 
#    7.714    0.000    0.000    0.000    0.000    0.000 
#    0.000    0.000    0.000    0.000    0.000    0.000 
#
# Total GULP energy -78070.310151 kJ/mol
# GULP energy per Si atom -5576.450725 kJ/mol
# Density = 2.454700 g / cm^3
# Si number density = 24.603000 Si / 1000 Ang^3
#
#
#
# Elastic Constant Matrix: (Units=GPa)
#
#
# Indices 1 2 3 4 5 6 
#
# 1 116.9584 36.9271 31.9148 0.0000 -12.4736 0.0000
# 2 36.9271 123.9213 8.0127 0.0000 0.1970 0.0000
# 3 31.9148 8.0127 42.8188 0.0000 -4.1071 0.0000
# 4 0.0000 0.0000 0.0000 19.7814 0.0000 11.2649
# 5 -12.4736 0.1970 -4.1071 0.0000 48.9269 0.0000
# 6 0.0000 0.0000 0.0000 11.2649 0.0000 33.3838
#
#
#
# Elastic Compliance Matrix: (Units=1/GPa)
#
#
# Indices 1 2 3 4 5 6 
#
# 1 0.011987 -0.003050 -0.008135 0.000000 0.002385 0.000000
# 2 -0.003050 0.008946 0.000525 0.000000 -0.000769 0.000000
# 3 -0.008135 0.000525 0.029357 0.000000 0.000388 0.000000
# 4 0.000000 0.000000 0.000000 0.062577 0.000000 -0.021116
# 5 0.002385 -0.000769 0.000388 0.000000 0.021082 0.000000
# 6 0.000000 0.000000 0.000000 -0.021116 0.000000 0.037080
#
#
# Mechanical properties :
#
#
# Convention : Reuss Voigt Hill
#
# Bulk Modulus (GPa) = 34.51799 48.60083 41.55941
# Shear Modulus (GPa) = 24.75183 34.20802 29.47992
#
# Velocity S-wave (km/s) = 3.17527 3.73285 3.46529
# Velocity P-wave (km/s) = 5.24438 6.19482 5.73931
#
# Compressibility (1/GPa) = 0.02897040
#
# Stress axis : x y z
#
# Youngs Moduli (GPa) = 83.42213 111.78548 34.06389
#
# Poissons Ratio (x) = 0.34093 0.27711
# Poissons Ratio (y) = 0.25442 -0.01790
# Poissons Ratio (z) = 0.67865 -0.05873
#
# Static dielectric constant tensor:
#      x y z
#    x 1.931460 0.000000 0.007000 
#    y 0.000000 1.992150 0.000000 
#    z 0.007000 0.000000 1.988660 
# 
# From -- ./inp_files/21987.got.cif
#   From: 2010.05.17/outbox.cif.g08.bks.cpg/sg9_11_cif.got.tgz:21987.got - 2010.06.03 20:04:27.
