data_PCOD9140443
_publ_section_title
;
Structure prediction by ZEFSAII (Michael W. Deem and Ramdas Pophale) SiO2 
 PCOD9140443
Probable space group: C C
;
_chemical_formula_sum "Si O2"
_cell_formula_units_Z 32
_cell_length_a 8.174951
_cell_length_b 21.403948
_cell_length_c 11.285464
_cell_angle_alpha 90.000000
_cell_angle_beta 137.541542
_cell_angle_gamma 90.000000
_cell_volume 1333.023871
_symmetry_space_group_name_H-M "C C"
_symmetry_group_IT_number 9
_symmetry_cell_setting 'monoclinic'
loop_
_space_group_symop_operation_xyz
x,y,z
x,-y,1/2+z
1/2+x,1/2+y,z
1/2+x,1/2-y,1/2+z
loop_
_atom_site_type_symbol
_atom_site_label
_atom_site_fract_x
_atom_site_fract_y
_atom_site_fract_z
Si Si1 0.051120 0.918661 0.909060
Si Si2 0.756285 0.343635 0.617832
Si Si3 0.210355 0.261069 0.919020
Si Si4 0.001552 0.809720 0.717510
Si Si5 0.482462 0.199784 0.865670
Si Si6 0.834658 0.514659 0.200606
Si Si7 0.006537 0.869310 0.134947
Si Si8 0.854786 0.005039 0.610031
O O1 0.126986 0.858168 0.873848
O O2 0.924475 0.894974 0.961565
O O3 0.874140 0.960315 0.733465
O O4 0.272857 0.962971 0.068145
O O5 0.680558 0.306985 0.459680
O O6 0.566618 0.330318 0.620220
O O7 0.822302 0.415713 0.641120
O O8 0.984736 0.305396 0.787823
O O9 0.353188 0.253611 0.873325
O O10 0.388351 0.302711 0.095889
O O11 0.047235 0.737688 0.780373
O O12 0.713814 0.819198 0.564204
O O13 0.290212 0.143925 0.761721
O O14 0.594388 0.512124 0.158241
O O15 0.091706 0.502580 0.404711
O O16 0.917011 0.922843 0.174570
#
# Coordination Sequence:
#
# PCOD9140443 Si02
#       8
#     4   4   4   4   4   4   4   4
#     4  11  26  45  72 106 143 203 248 305 364 448
#     4  12  26  45  68 110 150 183 241 316 377 435
#     4  12  23  43  71 105 143 188 239 302 375 437
#     4  12  24  46  71 110 149 192 247 308 378 448
#     4  12  24  45  77 108 146 198 247 305 374 466
#     4  11  27  48  73 107 150 193 259 300 375 451
#     4  11  24  45  73 107 138 191 256 297 359 460
#     4  11  26  49  71 107 149 198 249 315 366 443
#
# _framework density 24.005572000000001
#
# number of rings (size 3 to 8) (size 9 to 14) (size 15 to 20)
#    0.000    0.500    6.250    0.750    5.250    2.000 
#    0.000    0.000    0.000    0.000    0.000    0.000 
#    0.000    0.000    0.000    0.000    0.000    0.000 
#
# Total GULP energy -89401.315973 kJ/mol
# GULP energy per Si atom -5587.582248 kJ/mol
# Density = 2.395093 g / cm^3
# Si number density = 24.005572 Si / 1000 Ang^3
#
#
#
# Elastic Constant Matrix: (Units=GPa)
#
#
# Indices 1 2 3 4 5 6 
#
# 1 39.2639 17.2967 25.5332 0.0000 8.2308 0.0000
# 2 17.2967 130.4020 51.4989 0.0000 12.1401 0.0000
# 3 25.5332 51.4989 148.5368 0.0000 22.0245 0.0000
# 4 0.0000 0.0000 0.0000 53.2840 0.0000 -6.5643
# 5 8.2308 12.1401 22.0245 0.0000 36.3625 0.0000
# 6 0.0000 0.0000 0.0000 -6.5643 0.0000 31.0674
#
#
#
# Elastic Compliance Matrix: (Units=1/GPa)
#
#
# Indices 1 2 3 4 5 6 
#
# 1 0.029648 -0.002076 -0.003828 0.000000 -0.003699 0.000000
# 2 -0.002076 0.009079 -0.002649 0.000000 -0.000957 0.000000
# 3 -0.003828 -0.002649 0.008843 0.000000 -0.003605 0.000000
# 4 0.000000 0.000000 0.000000 0.019269 0.000000 0.004071
# 5 -0.003699 -0.000957 -0.003605 0.000000 0.030841 0.000000
# 6 0.000000 0.000000 0.000000 0.004071 0.000000 0.033048
#
#
# Mechanical properties :
#
#
# Convention : Reuss Voigt Hill
#
# Bulk Modulus (GPa) = 32.82578 56.31781 44.57180
# Shear Modulus (GPa) = 31.64731 39.06770 35.35750
#
# Velocity S-wave (km/s) = 3.63482 4.03853 3.84199
# Velocity P-wave (km/s) = 5.59641 6.72738 6.18779
#
# Compressibility (1/GPa) = 0.03046386
#
# Stress axis : x y z
#
# Youngs Moduli (GPa) = 33.72880 110.14118 113.07824
#
# Poissons Ratio (x) = 0.22870 0.43287
# Poissons Ratio (y) = 0.07003 0.29955
# Poissons Ratio (z) = 0.12912 0.29177
#
# Static dielectric constant tensor:
#      x y z
#    x 1.946240 0.000000 0.001630 
#    y 0.000000 1.958510 0.000000 
#    z 0.001630 0.000000 2.000050 
# 
# From -- ./inp_files/15647.got.cif
#   From: 2010.05.17/outbox.cif.g08.bks.cpg/sg9_8_cif.got.tgz:15647.got - 2010.06.03 20:04:27.
