data_PCOD9140798
_publ_section_title
;
Structure prediction by ZEFSAII (Michael W. Deem and Ramdas Pophale) SiO2 
 PCOD9140798
Probable space group: C C
;
_chemical_formula_sum "Si O2"
_cell_formula_units_Z 32
_cell_length_a 16.768715
_cell_length_b 10.024563
_cell_length_c 13.516212
_cell_angle_alpha 90.000000
_cell_angle_beta 34.439040
_cell_angle_gamma 90.000000
_cell_volume 1284.917292
_symmetry_space_group_name_H-M "C C"
_symmetry_group_IT_number 9
_symmetry_cell_setting 'monoclinic'
loop_
_space_group_symop_operation_xyz
x,y,z
x,-y,1/2+z
1/2+x,1/2+y,z
1/2+x,1/2-y,1/2+z
loop_
_atom_site_type_symbol
_atom_site_label
_atom_site_fract_x
_atom_site_fract_y
_atom_site_fract_z
Si Si1 0.914390 0.854593 0.245200
Si Si2 0.225827 0.143931 0.339396
Si Si3 0.106863 0.387668 0.763187
Si Si4 0.388502 0.873578 0.153999
Si Si5 0.751065 0.328274 0.583701
Si Si6 0.054305 0.616065 0.680490
Si Si7 0.068150 0.909303 0.283401
Si Si8 0.837359 0.074731 0.178852
O O1 0.824986 0.724423 0.313007
O O2 0.948346 0.887304 0.323286
O O3 0.838156 0.977531 0.270015
O O4 0.066806 0.840178 0.037557
O O5 0.245371 0.198389 0.207504
O O6 0.278700 0.991253 0.284918
O O7 0.218973 0.457893 0.719721
O O8 0.090973 0.467486 0.678824
O O9 0.145187 0.232888 0.711074
O O10 0.960121 0.390605 0.973716
O O11 0.512365 0.878960 0.108911
O O12 0.321938 0.727736 0.226702
O O13 0.910629 0.342015 0.384549
O O14 0.672208 0.216838 0.599772
O O15 0.667794 0.468078 0.654729
O O16 0.987088 0.936070 0.468691
#
# Coordination Sequence:
#
# PCOD9140798 Si02
#       8
#     4   4   4   4   4   4   4   4
#     4  12  27  45  73 102 140 183 231 282 344 408
#     4  12  25  47  71 100 142 182 229 286 341 408
#     4  11  26  45  71 101 141 180 230 287 341 407
#     4  11  26  46  71 102 137 184 230 284 344 407
#     4  12  25  47  71 100 142 182 229 286 341 408
#     4  12  27  45  73 102 140 183 231 282 344 408
#     4  11  26  46  71 102 137 184 230 284 344 407
#     4  11  26  45  71 101 141 180 230 287 341 407
#
# _framework density 24.904326000000001
#
# number of rings (size 3 to 8) (size 9 to 14) (size 15 to 20)
#    0.000    0.500    2.500    4.500   10.500    1.000 
#    0.000    0.000    0.000    0.000    0.000    0.000 
#    0.000    0.000    0.000    0.000    0.000    0.000 
#
# Total GULP energy -89864.863085 kJ/mol
# GULP energy per Si atom -5616.553943 kJ/mol
# Density = 2.484764 g / cm^3
# Si number density = 24.904326 Si / 1000 Ang^3
#
#
#
# Elastic Constant Matrix: (Units=GPa)
#
#
# Indices 1 2 3 4 5 6 
#
# 1 113.2312 -9.2907 1.1922 0.0000 11.3465 0.0000
# 2 -9.2907 65.6325 18.7451 0.0000 -2.4671 0.0000
# 3 1.1922 18.7451 102.8752 0.0000 3.5566 0.0000
# 4 0.0000 0.0000 0.0000 -9.8002 0.0000 -1.6428
# 5 11.3465 -2.4671 3.5566 0.0000 46.2183 0.0000
# 6 0.0000 0.0000 0.0000 -1.6428 0.0000 51.1203
#
#
#
# Elastic Compliance Matrix: (Units=1/GPa)
#
#
# Indices 1 2 3 4 5 6 
#
# 1 0.009157 0.001291 -0.000267 0.000000 -0.002158 0.000000
# 2 0.001291 0.016309 -0.003014 0.000000 0.000786 0.000000
# 3 -0.000267 -0.003014 0.010303 0.000000 -0.000888 0.000000
# 4 0.000000 0.000000 0.000000 -0.101492 0.000000 -0.003262
# 5 -0.002158 0.000786 -0.000888 0.000000 0.022277 0.000000
# 6 0.000000 0.000000 0.000000 -0.003262 0.000000 0.019457
#
#
# Mechanical properties :
#
#
# Convention : Reuss Voigt Hill
#
# Bulk Modulus (GPa) = 31.45586 33.67024 32.56305
# Shear Modulus (GPa) = -531.18964 35.58048 -247.80458
#
# Velocity S-wave (km/s) = -14.62037 3.78390 -9.98592
# Velocity P-wave (km/s) = 16.50299 5.71312 10.94781
#
# Compressibility (1/GPa) = 0.03179058
#
# Stress axis : x y z
#
# Youngs Moduli (GPa) = 109.21161 61.31413 97.05449
#
# Poissons Ratio (x) = -0.07917 0.02589
# Poissons Ratio (y) = -0.14102 0.29251
# Poissons Ratio (z) = 0.02913 0.18479
#
# Static dielectric constant tensor:
#      x y z
#    x 1.925330 0.000000 0.015770 
#    y 0.000000 1.912650 0.000000 
#    z 0.015770 0.000000 1.956950 
# 
# From -- ./inp_files/26722.got.cif
#   From: 2010.05.17/outbox.cif.g08.bks.cpg/sg9_14_cif.got.tgz:26722.got - 2010.06.03 20:04:27.
