data_PCOD9140064
_publ_section_title
;
Structure prediction by ZEFSAII (Michael W. Deem and Ramdas Pophale) SiO2 
 PCOD9140064
Probable space group: C C
;
_chemical_formula_sum "Si O2"
_cell_formula_units_Z 32
_cell_length_a 9.856567
_cell_length_b 17.418460
_cell_length_c 9.076661
_cell_angle_alpha 90.000000
_cell_angle_beta 63.158398
_cell_angle_gamma 90.000000
_cell_volume 1390.439509
_symmetry_space_group_name_H-M "C C"
_symmetry_group_IT_number 9
_symmetry_cell_setting 'monoclinic'
loop_
_space_group_symop_operation_xyz
x,y,z
x,-y,1/2+z
1/2+x,1/2+y,z
1/2+x,1/2-y,1/2+z
loop_
_atom_site_type_symbol
_atom_site_label
_atom_site_fract_x
_atom_site_fract_y
_atom_site_fract_z
Si Si1 0.111400 0.320732 0.132410
Si Si2 0.955640 0.813116 0.894761
Si Si3 0.021205 0.382233 0.871937
Si Si4 0.509152 0.459968 0.667213
Si Si5 0.096201 0.903388 0.341353
Si Si6 0.708159 0.327555 0.006279
Si Si7 0.262532 0.655121 0.009592
Si Si8 0.691090 0.037173 0.787587
O O1 0.131351 0.405247 0.192980
O O2 0.028559 0.260054 0.277643
O O3 0.284125 0.293588 0.022099
O O4 0.028980 0.332796 0.017281
O O5 0.957577 0.885735 0.784383
O O6 0.054147 0.838664 0.989251
O O7 0.146917 0.348552 0.700823
O O8 0.075070 0.468672 0.873728
O O9 0.852604 0.377839 0.888564
O O10 0.634620 0.435687 0.484001
O O11 0.573048 0.523169 0.747674
O O12 0.356511 0.499193 0.672307
O O13 0.936535 0.862747 0.457247
O O14 0.183941 0.845104 0.191723
O O15 0.752957 0.240243 0.952225
O O16 0.212551 0.590322 0.919159
#
# Coordination Sequence:
#
# PCOD9140064 Si02
#       8
#     4   4   4   4   4   4   4   4
#     4  12  27  49  76 110 149 195 252 307 372 445
#     4  12  27  49  75 111 150 198 250 309 374 445
#     4  12  27  44  76 113 145 191 254 306 369 443
#     4  11  23  45  80 107 137 199 253 297 359 453
#     4  11  23  45  75 104 144 193 249 298 364 443
#     4  12  28  46  69 112 157 191 242 313 383 431
#     4  11  23  44  77 100 144 202 243 290 372 455
#     4  11  22  50  78 105 142 201 253 290 365 457
#
# _framework density 23.014306000000001
#
# number of rings (size 3 to 8) (size 9 to 14) (size 15 to 20)
#    0.000    0.500    3.750    4.500    7.000    0.000 
#   11.250    0.000    0.000    0.000    0.000    0.000 
#    0.000    0.000    0.000    0.000    0.000    0.000 
#
# Total GULP energy -89569.676301 kJ/mol
# GULP energy per Si atom -5598.104769 kJ/mol
# Density = 2.296192 g / cm^3
# Si number density = 23.014306 Si / 1000 Ang^3
#
#
#
# Elastic Constant Matrix: (Units=GPa)
#
#
# Indices 1 2 3 4 5 6 
#
# 1 62.1617 13.9400 27.2318 0.0000 -12.7283 0.0000
# 2 13.9400 116.0568 20.2052 0.0000 -12.8411 0.0000
# 3 27.2318 20.2052 99.8828 0.0000 -10.8780 0.0000
# 4 0.0000 0.0000 0.0000 31.6341 0.0000 -4.7455
# 5 -12.7283 -12.8411 -10.8780 0.0000 30.8400 0.0000
# 6 0.0000 0.0000 0.0000 -4.7455 0.0000 9.0105
#
#
#
# Elastic Compliance Matrix: (Units=1/GPa)
#
#
# Indices 1 2 3 4 5 6 
#
# 1 0.019494 -0.000888 -0.004471 0.000000 0.006099 0.000000
# 2 -0.000888 0.009287 -0.001305 0.000000 0.003040 0.000000
# 3 -0.004471 -0.001305 0.011683 0.000000 0.001732 0.000000
# 4 0.000000 0.000000 0.000000 0.034323 0.000000 0.018077
# 5 0.006099 0.003040 0.001732 0.000000 0.036819 0.000000
# 6 0.000000 0.000000 0.000000 0.018077 0.000000 0.120503
#
#
# Mechanical properties :
#
#
# Convention : Reuss Voigt Hill
#
# Bulk Modulus (GPa) = 36.85312 44.53947 40.69629
# Shear Modulus (GPa) = 19.64771 28.74519 24.19645
#
# Velocity S-wave (km/s) = 2.92501 3.53797 3.24599
# Velocity P-wave (km/s) = 5.23980 6.00705 5.63649
#
# Compressibility (1/GPa) = 0.02713475
#
# Stress axis : x y z
#
# Youngs Moduli (GPa) = 51.29890 107.68014 85.59179
#
# Poissons Ratio (x) = 0.09565 0.38266
# Poissons Ratio (y) = 0.04557 0.11173
# Poissons Ratio (z) = 0.22935 0.14056
#
# Static dielectric constant tensor:
#      x y z
#    x 1.868230 0.000000 0.038980 
#    y 0.000000 1.855160 0.000000 
#    z 0.038980 0.000000 1.874380 
# 
# From -- ./inp_files/8028.got.cif
#   From: 2010.05.17/outbox.cif.g08.bks.cpg/sg9_5_cif.got.tgz:8028.got - 2010.06.03 20:04:27.
