data_PCOD9140432
_publ_section_title
;
Structure prediction by ZEFSAII (Michael W. Deem and Ramdas Pophale) SiO2 
 PCOD9140432
Probable space group: C C
;
_chemical_formula_sum "Si O2"
_cell_formula_units_Z 32
_cell_length_a 13.187018
_cell_length_b 4.886297
_cell_length_c 20.396406
_cell_angle_alpha 90.000000
_cell_angle_beta 71.002188
_cell_angle_gamma 90.000000
_cell_volume 1242.670200
_symmetry_space_group_name_H-M "C C"
_symmetry_group_IT_number 9
_symmetry_cell_setting 'monoclinic'
loop_
_space_group_symop_operation_xyz
x,y,z
x,-y,1/2+z
1/2+x,1/2+y,z
1/2+x,1/2-y,1/2+z
loop_
_atom_site_type_symbol
_atom_site_label
_atom_site_fract_x
_atom_site_fract_y
_atom_site_fract_z
Si Si1 0.462870 0.337503 0.192450
Si Si2 0.009017 0.645663 0.762386
Si Si3 0.329018 0.217323 0.576951
Si Si4 0.177263 0.490511 0.451346
Si Si5 0.232292 0.409186 0.198424
Si Si6 0.444053 0.750521 0.497854
Si Si7 0.816340 0.466494 0.397047
Si Si8 0.643008 0.372068 0.584924
O O1 0.488820 0.541015 0.247587
O O2 0.337250 0.300081 0.210889
O O3 0.527289 0.492197 0.120839
O O4 0.511589 0.043563 0.196673
O O5 0.909188 0.538099 0.823749
O O6 0.127566 0.592944 0.765936
O O7 0.153767 0.652913 0.525190
O O8 0.278972 0.314167 0.656151
O O9 0.398776 0.453683 0.527160
O O10 0.225023 0.124173 0.556981
O O11 0.270281 0.267163 0.419502
O O12 0.067986 0.321104 0.460291
O O13 0.219786 0.754374 0.400989
O O14 0.192036 0.244755 0.142525
O O15 0.378133 0.844301 0.447682
O O16 0.404954 0.954968 0.563600
#
# Coordination Sequence:
#
# PCOD9140432 Si02
#       8
#     4   4   4   4   4   4   4   4
#     4  11  26  44  73 103 140 185 234 289 363 429
#     4  11  27  46  69 103 139 186 243 295 346 416
#     4  12  22  43  72 105 146 179 226 295 367 431
#     4  12  27  46  73 105 145 188 241 298 364 438
#     4  11  24  45  72 103 142 184 227 288 361 428
#     4  12  26  45  71 106 139 191 233 292 366 433
#     4  12  26  48  71  99 144 191 245 303 349 425
#     4  11  24  45  73 110 149 182 233 302 370 442
#
# _framework density 25.750997999999999
#
# number of rings (size 3 to 8) (size 9 to 14) (size 15 to 20)
#    0.000    0.500    3.750    3.750    1.750    4.000 
#    0.000    0.000    0.000    0.000    0.000    0.000 
#    0.000    0.000    0.000    0.000    0.000    0.000 
#
# Total GULP energy -89511.436429 kJ/mol
# GULP energy per Si atom -5594.464777 kJ/mol
# Density = 2.569239 g / cm^3
# Si number density = 25.750998 Si / 1000 Ang^3
#
#
#
# Elastic Constant Matrix: (Units=GPa)
#
#
# Indices 1 2 3 4 5 6 
#
# 1 147.9427 41.4226 32.1914 0.0002 -51.5023 0.0001
# 2 41.4226 154.3779 22.3830 0.0007 -24.5210 0.0007
# 3 32.1914 22.3830 98.2468 0.0001 -48.9037 0.0002
# 4 0.0002 0.0007 0.0001 23.9595 0.0001 -14.2205
# 5 -51.5023 -24.5210 -48.9037 0.0001 46.0896 0.0001
# 6 0.0001 0.0007 0.0002 -14.2205 0.0001 39.4841
#
#
#
# Elastic Compliance Matrix: (Units=1/GPa)
#
#
# Indices 1 2 3 4 5 6 
#
# 1 0.012747 -0.001108 0.006088 0.000000 0.020114 0.000000
# 2 -0.001108 0.007186 0.000027 0.000000 0.002613 0.000000
# 3 0.006088 0.000027 0.024523 -0.000001 0.032837 0.000000
# 4 0.000000 0.000000 -0.000001 0.053084 -0.000001 0.019119
# 5 0.020114 0.002613 0.032837 -0.000001 0.080405 -0.000001
# 6 0.000000 0.000000 0.000000 0.019119 -0.000001 0.032212
#
#
# Mechanical properties :
#
#
# Convention : Reuss Voigt Hill
#
# Bulk Modulus (GPa) = 18.35908 65.84017 42.09963
# Shear Modulus (GPa) = 22.90410 42.21135 32.55772
#
# Velocity S-wave (km/s) = 2.98559 4.05311 3.55960
# Velocity P-wave (km/s) = 4.36233 6.89399 5.76876
#
# Compressibility (1/GPa) = 0.05446895
#
# Stress axis : x y z
#
# Youngs Moduli (GPa) = 78.44876 139.15636 40.77865
#
# Poissons Ratio (x) = 0.15420 -0.24825
# Poissons Ratio (y) = 0.08693 -0.00109
# Poissons Ratio (z) = -0.47758 -0.00372
#
# Static dielectric constant tensor:
#      x y z
#    x 2.089380 0.000000 0.025340 
#    y 0.000000 2.012780 0.000000 
#    z 0.025340 0.000000 2.150610 
# 
# From -- ./inp_files/32979.got.cif
#   From: 2010.05.17/outbox.cif.g08.bks.cpg/sg9_17_cif.got.tgz:32979.got - 2010.06.03 20:04:27.
