data_PCOD9140434
_publ_section_title
;
Structure prediction by ZEFSAII (Michael W. Deem and Ramdas Pophale) SiO2 
 PCOD9140434
Probable space group: C C
;
_chemical_formula_sum "Si O2"
_cell_formula_units_Z 32
_cell_length_a 16.681902
_cell_length_b 16.198803
_cell_length_c 10.175353
_cell_angle_alpha 90.000000
_cell_angle_beta 147.897704
_cell_angle_gamma 90.000000
_cell_volume 1461.255320
_symmetry_space_group_name_H-M "C C"
_symmetry_group_IT_number 9
_symmetry_cell_setting 'monoclinic'
loop_
_space_group_symop_operation_xyz
x,y,z
x,-y,1/2+z
1/2+x,1/2+y,z
1/2+x,1/2-y,1/2+z
loop_
_atom_site_type_symbol
_atom_site_label
_atom_site_fract_x
_atom_site_fract_y
_atom_site_fract_z
Si Si1 0.831770 0.574028 0.397110
Si Si2 0.663847 0.492288 0.921014
Si Si3 0.389863 0.251637 0.410030
Si Si4 0.185608 0.550582 0.852120
Si Si5 0.464035 0.655156 0.255747
Si Si6 0.091073 0.831964 0.218322
Si Si7 0.446816 0.797307 0.714432
Si Si8 0.700071 0.915628 0.075266
O O1 0.757433 0.545412 0.429571
O O2 0.795197 0.669728 0.313552
O O3 0.012459 0.565452 0.650613
O O4 0.768172 0.520928 0.187119
O O5 0.549267 0.424769 0.817048
O O6 0.580326 0.573528 0.750337
O O7 0.476966 0.275904 0.662227
O O8 0.488288 0.225169 0.421896
O O9 0.300366 0.333414 0.237456
O O10 0.250020 0.475269 0.028085
O O11 0.193983 0.538069 0.706541
O O12 0.289430 0.629496 0.026110
O O13 0.529927 0.678172 0.486985
O O14 0.268194 0.809379 0.464076
O O15 0.002585 0.772162 0.193247
O O16 0.534747 0.881635 0.807901
#
# Coordination Sequence:
#
# PCOD9140434 Si02
#       8
#     4   4   4   4   4   4   4   4
#     4  12  24  48  77 102 147 189 245 297 360 441
#     4  12  26  46  75 108 143 191 243 306 365 432
#     4  11  26  47  74 105 141 196 239 296 365 431
#     4  11  25  45  71 104 141 184 238 297 357 427
#     4  11  30  45  69 110 149 182 247 302 371 422
#     4  12  27  47  70 108 144 191 244 305 365 430
#     4  12  24  47  74 100 143 192 247 292 364 439
#     4  11  24  45  72 105 138 185 243 293 357 432
#
# _framework density 21.898979000000001
#
# number of rings (size 3 to 8) (size 9 to 14) (size 15 to 20)
#    0.000    0.500    5.000    1.500    8.750    2.000 
#    2.250    0.000    0.000    0.000    0.000    0.000 
#    0.000    0.000    0.000    0.000    0.000    0.000 
#
# Total GULP energy -89585.078134 kJ/mol
# GULP energy per Si atom -5599.067383 kJ/mol
# Density = 2.184914 g / cm^3
# Si number density = 21.898979 Si / 1000 Ang^3
#
#
#
# Elastic Constant Matrix: (Units=GPa)
#
#
# Indices 1 2 3 4 5 6 
#
# 1 103.8910 53.1336 30.9953 0.0000 -33.6335 0.0000
# 2 53.1336 91.2843 15.7187 0.0000 -21.4082 0.0000
# 3 30.9953 15.7187 81.4363 0.0000 -22.9567 0.0000
# 4 0.0000 0.0000 0.0000 35.9872 0.0000 -6.8864
# 5 -33.6335 -21.4082 -22.9567 0.0000 34.4887 0.0000
# 6 0.0000 0.0000 0.0000 -6.8864 0.0000 38.9880
#
#
#
# Elastic Compliance Matrix: (Units=1/GPa)
#
#
# Indices 1 2 3 4 5 6 
#
# 1 0.017611 -0.007243 -0.002131 0.000000 0.011260 0.000000
# 2 -0.007243 0.015806 0.000592 0.000000 0.003141 0.000000
# 3 -0.002131 0.000592 0.015380 0.000000 0.008527 0.000000
# 4 0.000000 0.000000 0.000000 0.028760 0.000000 0.005080
# 5 0.011260 0.003141 0.008527 0.000000 0.047601 0.000000
# 6 0.000000 0.000000 0.000000 0.005080 0.000000 0.026546
#
#
# Mechanical properties :
#
#
# Convention : Reuss Voigt Hill
#
# Bulk Modulus (GPa) = 32.01846 52.92299 42.47073
# Shear Modulus (GPa) = 27.82750 33.67706 30.75228
#
# Velocity S-wave (km/s) = 3.56859 3.92578 3.75144
# Velocity P-wave (km/s) = 5.62427 6.69092 6.18065
#
# Compressibility (1/GPa) = 0.03123198
#
# Stress axis : x y z
#
# Youngs Moduli (GPa) = 56.78349 63.26878 65.01963
#
# Poissons Ratio (x) = 0.45826 0.13853
# Poissons Ratio (y) = 0.41129 -0.03846
# Poissons Ratio (z) = 0.12098 -0.03742
#
# Static dielectric constant tensor:
#      x y z
#    x 1.758200 0.000000 0.022170 
#    y 0.000000 1.792010 0.000000 
#    z 0.022170 0.000000 1.823160 
# 
# From -- ./inp_files/9971.got.cif
#   From: 2010.05.17/outbox.cif.g08.bks.cpg/sg9_5_cif.got.tgz:9971.got - 2010.06.03 20:04:27.
