data_PCOD9140739
_publ_section_title
;
Structure prediction by ZEFSAII (Michael W. Deem and Ramdas Pophale) SiO2 
 PCOD9140739
Probable space group: C C
;
_chemical_formula_sum "Si O2"
_cell_formula_units_Z 20
_cell_length_a 5.867423
_cell_length_b 15.864420
_cell_length_c 8.335286
_cell_angle_alpha 90.000000
_cell_angle_beta 90.090764
_cell_angle_gamma 90.000000
_cell_volume 775.874644
_symmetry_space_group_name_H-M "C C"
_symmetry_group_IT_number 9
_symmetry_cell_setting 'monoclinic'
loop_
_space_group_symop_operation_xyz
x,y,z
x,-y,1/2+z
1/2+x,1/2+y,z
1/2+x,1/2-y,1/2+z
loop_
_atom_site_type_symbol
_atom_site_label
_atom_site_fract_x
_atom_site_fract_y
_atom_site_fract_z
Si Si1 0.200080 0.844314 0.943760
Si Si2 0.345938 0.423262 0.172554
Si Si3 0.058309 0.253864 0.132642
Si Si4 0.448772 0.026975 0.243390
Si Si5 0.192140 0.097623 0.946947
O O1 0.075267 0.797956 0.797649
O O2 0.413304 0.898574 0.872174
O O3 0.307406 0.778833 0.070422
O O4 0.030151 0.907303 0.033008
O O5 0.200441 0.338123 0.157722
O O6 0.467617 0.423485 0.345788
O O7 0.191349 0.507198 0.164939
O O8 0.173247 0.194902 0.996330
O O9 0.261312 0.052514 0.112259
O O10 0.383658 0.939215 0.328540
#
# Coordination Sequence:
#
# PCOD9140739 Si02
#       5
#     4   4   4   4   4
#     4  11  27  51  82 120 163 212 276 326 406 482
#     4  12  26  48  84 115 166 215 262 340 397 477
#     4  11  25  49  80 121 162 209 271 333 402 483
#     4  11  27  50  76 118 168 209 275 325 400 490
#     4  11  25  48  78 120 161 211 272 330 401 482
#
# _framework density 25.777360999999999
#
# number of rings (size 3 to 8) (size 9 to 14) (size 15 to 20)
#    0.000    0.800    2.000    3.600    5.600    6.400 
#    0.000   16.000    0.000    0.000    0.000    0.000 
#    0.000    0.000    0.000    0.000    0.000    0.000 
#
# Total GULP energy -55987.117782 kJ/mol
# GULP energy per Si atom -5598.711778 kJ/mol
# Density = 2.571869 g / cm^3
# Si number density = 25.777361 Si / 1000 Ang^3
#
#
#
# Elastic Constant Matrix: (Units=GPa)
#
#
# Indices 1 2 3 4 5 6 
#
# 1 85.8446 56.6684 71.4368 0.0000 11.2777 0.0000
# 2 56.6684 114.8908 70.7098 0.0000 2.7354 0.0000
# 3 71.4368 70.7098 161.0686 0.0000 26.8616 0.0000
# 4 0.0000 0.0000 0.0000 64.5587 0.0000 1.4579
# 5 11.2777 2.7354 26.8616 0.0000 41.7613 0.0000
# 6 0.0000 0.0000 0.0000 1.4579 0.0000 37.5271
#
#
#
# Elastic Compliance Matrix: (Units=1/GPa)
#
#
# Indices 1 2 3 4 5 6 
#
# 1 0.021551 -0.006639 -0.006436 0.000000 -0.001245 0.000000
# 2 -0.006639 0.014293 -0.003890 0.000000 0.003359 0.000000
# 3 -0.006436 -0.003890 0.011693 0.000000 -0.005528 0.000000
# 4 0.000000 0.000000 0.000000 0.015503 0.000000 -0.000602
# 5 -0.001245 0.003359 -0.005528 0.000000 0.027618 0.000000
# 6 0.000000 0.000000 0.000000 -0.000602 0.000000 0.026671
#
#
# Mechanical properties :
#
#
# Convention : Reuss Voigt Hill
#
# Bulk Modulus (GPa) = 73.49705 84.38156 78.93930
# Shear Modulus (GPa) = 32.09354 39.63534 35.86444
#
# Velocity S-wave (km/s) = 3.53232 3.92548 3.73408
# Velocity P-wave (km/s) = 6.72388 7.30422 7.02005
#
# Compressibility (1/GPa) = 0.01360599
#
# Stress axis : x y z
#
# Youngs Moduli (GPa) = 46.40157 69.96505 85.52265
#
# Poissons Ratio (x) = 0.46450 0.55043
# Poissons Ratio (y) = 0.30806 0.33271
# Poissons Ratio (z) = 0.29864 0.27218
#
# Static dielectric constant tensor:
#      x y z
#    x 2.070970 0.000000 -0.046040 
#    y 0.000000 1.995600 0.000000 
#    z -0.046040 0.000000 2.025230 
# 
# From -- ./inp_files/3659.got.cif
#   From: 2010.05.17/outbox.cif.g08.bks.cpg/sg9_2_cif.got.tgz:3659.got - 2010.06.03 20:04:27.
