data_PCOD9140722
_publ_section_title
;
Structure prediction by ZEFSAII (Michael W. Deem and Ramdas Pophale) SiO2 
 PCOD9140722
Probable space group: C C
;
_chemical_formula_sum "Si O2"
_cell_formula_units_Z 32
_cell_length_a 13.854636
_cell_length_b 10.363253
_cell_length_c 9.037357
_cell_angle_alpha 90.000000
_cell_angle_beta 109.716102
_cell_angle_gamma 90.000000
_cell_volume 1221.506202
_symmetry_space_group_name_H-M "C C"
_symmetry_group_IT_number 9
_symmetry_cell_setting 'monoclinic'
loop_
_space_group_symop_operation_xyz
x,y,z
x,-y,1/2+z
1/2+x,1/2+y,z
1/2+x,1/2-y,1/2+z
loop_
_atom_site_type_symbol
_atom_site_label
_atom_site_fract_x
_atom_site_fract_y
_atom_site_fract_z
Si Si1 0.800950 0.469521 0.567690
Si Si2 0.070064 0.340927 0.211595
Si Si3 0.944280 0.666651 0.901891
Si Si4 0.093939 0.221815 0.703871
Si Si5 0.951049 0.347216 0.859742
Si Si6 0.159661 0.928576 0.762051
Si Si7 0.799250 0.150592 0.180992
Si Si8 0.802048 0.893746 0.338145
O O1 0.858568 0.386912 0.472012
O O2 0.887649 0.459764 0.742553
O O3 0.708525 0.418692 0.623359
O O4 0.744774 0.580386 0.439223
O O5 0.078747 0.185566 0.231559
O O6 0.184624 0.379252 0.223531
O O7 0.040405 0.392999 0.358489
O O8 0.990583 0.383119 0.043488
O O9 0.878608 0.733495 0.740199
O O10 0.004973 0.768144 0.036515
O O11 0.193738 0.294062 0.693025
O O12 0.049043 0.300279 0.818802
O O13 0.118329 0.073825 0.752517
O O14 0.875008 0.223702 0.827074
O O15 0.838552 0.029802 0.295885
O O16 0.794069 0.108316 0.010063
#
# Coordination Sequence:
#
# PCOD9140722 Si02
#       8
#     4   4   4   4   4   4   4   4
#     4  11  26  47  73 111 154 197 240 320 380 445
#     4  12  26  49  75 114 148 198 256 312 375 456
#     4  11  25  48  73 108 151 195 251 303 383 447
#     4  11  26  47  73 112 152 192 251 311 385 447
#     4  11  27  49  75 113 149 199 252 310 381 453
#     4  12  25  46  82 111 150 197 254 325 376 447
#     4  12  28  50  74 106 153 199 244 316 372 461
#     4  12  29  50  75 107 153 201 252 307 382 454
#
# _framework density 26.197164999999998
#
# number of rings (size 3 to 8) (size 9 to 14) (size 15 to 20)
#    0.000    0.500    5.000    1.500    8.750    1.000 
#    9.000    0.000    0.000    0.000    0.000    0.000 
#    0.000    0.000    0.000    0.000    0.000    0.000 
#
# Total GULP energy -89577.773880 kJ/mol
# GULP energy per Si atom -5598.610867 kJ/mol
# Density = 2.613754 g / cm^3
# Si number density = 26.197165 Si / 1000 Ang^3
#
#
#
# Elastic Constant Matrix: (Units=GPa)
#
#
# Indices 1 2 3 4 5 6 
#
# 1 126.7934 37.6782 45.7516 0.0000 -19.2432 0.0000
# 2 37.6782 104.7404 16.7991 0.0000 -15.5085 0.0000
# 3 45.7516 16.7991 156.7781 0.0000 -11.5945 0.0000
# 4 0.0000 0.0000 0.0000 42.4417 0.0000 7.7544
# 5 -19.2432 -15.5085 -11.5945 0.0000 52.0410 0.0000
# 6 0.0000 0.0000 0.0000 7.7544 0.0000 39.0976
#
#
#
# Elastic Compliance Matrix: (Units=1/GPa)
#
#
# Indices 1 2 3 4 5 6 
#
# 1 0.009960 -0.002854 -0.002431 0.000000 0.002291 0.000000
# 2 -0.002854 0.010922 -0.000178 0.000000 0.002160 0.000000
# 3 -0.002431 -0.000178 0.007154 0.000000 0.000642 0.000000
# 4 0.000000 0.000000 0.000000 0.024448 0.000000 -0.004849
# 5 0.002291 0.002160 0.000642 0.000000 0.020849 0.000000
# 6 0.000000 0.000000 0.000000 -0.004849 0.000000 0.026539
#
#
# Mechanical properties :
#
#
# Convention : Reuss Voigt Hill
#
# Bulk Modulus (GPa) = 58.44213 65.41885 61.93049
# Shear Modulus (GPa) = 42.91783 45.92161 44.41972
#
# Velocity S-wave (km/s) = 4.05194 4.19133 4.12222
# Velocity P-wave (km/s) = 6.65191 6.96053 6.80797
#
# Compressibility (1/GPa) = 0.01711094
#
# Stress axis : x y z
#
# Youngs Moduli (GPa) = 100.40332 91.55560 139.77238
#
# Poissons Ratio (x) = 0.26127 0.33983
# Poissons Ratio (y) = 0.28652 0.02486
# Poissons Ratio (z) = 0.24411 0.01628
#
# Static dielectric constant tensor:
#      x y z
#    x 2.046230 0.000000 0.036340 
#    y 0.000000 2.139010 0.000000 
#    z 0.036340 0.000000 2.032430 
# 
# From -- ./inp_files/9099.got.cif
#   From: 2010.05.17/outbox.cif.g08.bks.cpg/sg9_5_cif.got.tgz:9099.got - 2010.06.03 20:04:27.
