data_PCOD9140997
_publ_section_title
;
Structure prediction by ZEFSAII (Michael W. Deem and Ramdas Pophale) SiO2 
 PCOD9140997
Probable space group: C C
;
_chemical_formula_sum "Si O2"
_cell_formula_units_Z 16
_cell_length_a 14.804161
_cell_length_b 6.874573
_cell_length_c 20.239097
_cell_angle_alpha 90.000000
_cell_angle_beta 163.642612
_cell_angle_gamma 90.000000
_cell_volume 580.091316
_symmetry_space_group_name_H-M "C C"
_symmetry_group_IT_number 9
_symmetry_cell_setting 'monoclinic'
loop_
_space_group_symop_operation_xyz
x,y,z
x,-y,1/2+z
1/2+x,1/2+y,z
1/2+x,1/2-y,1/2+z
loop_
_atom_site_type_symbol
_atom_site_label
_atom_site_fract_x
_atom_site_fract_y
_atom_site_fract_z
Si Si1 0.643290 0.381232 0.480690
Si Si2 0.368769 0.534398 0.529134
Si Si3 0.372471 0.634536 0.388108
Si Si4 0.823836 0.948713 0.634096
O O1 0.348287 0.471268 0.315716
O O2 0.635603 0.149956 0.486290
O O3 0.590778 0.478294 0.372411
O O4 0.984197 0.447353 0.750744
O O5 0.473297 0.526738 0.525994
O O6 0.571404 0.727119 0.692306
O O7 0.431705 0.391100 0.635226
O O8 0.623523 0.786487 0.531752
#
# Coordination Sequence:
#
# PCOD9140997 Si02
#       4
#     4   4   4   4
#     4  12  25  48  77 110 155 201 264 321 382 480
#     4  12  24  48  74 108 152 198 256 318 380 458
#     4  12  26  50  76 110 162 210 248 330 400 444
#     4  12  25  48  77 110 155 201 264 321 382 480
#
# _framework density 27.581862999999998
#
# number of rings (size 3 to 8) (size 9 to 14) (size 15 to 20)
#    0.000    0.000    7.500    1.500    0.000    0.000 
#    4.500    5.000    0.000    0.000    0.000    0.000 
#    0.000    0.000    0.000    0.000    0.000    0.000 
#
# Total GULP energy -44682.616343 kJ/mol
# GULP energy per Si atom -5585.327043 kJ/mol
# Density = 2.751909 g / cm^3
# Si number density = 27.581863 Si / 1000 Ang^3
#
#
#
# Elastic Constant Matrix: (Units=GPa)
#
#
# Indices 1 2 3 4 5 6 
#
# 1 222.6017 41.3827 44.5460 0.0079 -36.5152 0.0071
# 2 41.3827 117.4001 30.7565 0.0374 18.2377 0.0183
# 3 44.5460 30.7565 122.6703 0.1910 -12.9316 -0.0023
# 4 0.0079 0.0374 0.1910 33.2498 0.0119 35.2608
# 5 -36.5152 18.2377 -12.9316 0.0119 61.1339 0.0021
# 6 0.0071 0.0183 -0.0023 35.2608 0.0021 36.1666
#
#
#
# Elastic Compliance Matrix: (Units=1/GPa)
#
#
# Indices 1 2 3 4 5 6 
#
# 1 0.005798 -0.002368 -0.001096 -0.000189 0.003938 0.000184
# 2 -0.002368 0.010774 -0.002382 -0.000268 -0.005133 0.000257
# 3 -0.001096 -0.002382 0.009359 0.001579 0.002035 -0.001537
# 4 -0.000189 -0.000268 0.001579 -0.886304 0.000444 0.864106
# 5 0.003938 -0.005133 0.002035 0.000444 0.020671 -0.000433
# 6 0.000184 0.000257 -0.001537 0.864106 -0.000433 -0.814815
#
#
# Mechanical properties :
#
#
# Convention : Reuss Voigt Hill
#
# Bulk Modulus (GPa) = 70.23262 77.33805 73.78533
# Shear Modulus (GPa) = -3.05236 49.17584 23.06174
#
# Velocity S-wave (km/s) = -1.05312 4.22703 2.89471
# Velocity P-wave (km/s) = 4.90305 7.20583 6.16295
#
# Compressibility (1/GPa) = 0.01423840
#
# Stress axis : x y z
#
# Youngs Moduli (GPa) = 172.47608 92.81559 106.84545
#
# Poissons Ratio (x) = 0.21981 0.11713
# Poissons Ratio (y) = 0.40846 0.25450
# Poissons Ratio (z) = 0.18908 0.22108
#
# Static dielectric constant tensor:
#      x y z
#    x 2.293580 -0.000010 0.033920 
#    y -0.000010 2.200690 -0.000070 
#    z 0.033920 -0.000070 2.089360 
# 
# From -- ./inp_files/8663.got.cif
#   From: 2010.05.17/outbox.cif.g08.bks.cpg/sg9_5_cif.got.tgz:8663.got - 2010.06.03 20:04:27.
