data_PCOD9140831
_publ_section_title
;
Structure prediction by ZEFSAII (Michael W. Deem and Ramdas Pophale) SiO2 
 PCOD9140831
Probable space group: C C
;
_chemical_formula_sum "Si O2"
_cell_formula_units_Z 28
_cell_length_a 13.950245
_cell_length_b 9.434596
_cell_length_c 19.703693
_cell_angle_alpha 90.000000
_cell_angle_beta 154.233751
_cell_angle_gamma 90.000000
_cell_volume 1127.309304
_symmetry_space_group_name_H-M "C C"
_symmetry_group_IT_number 9
_symmetry_cell_setting 'monoclinic'
loop_
_space_group_symop_operation_xyz
x,y,z
x,-y,1/2+z
1/2+x,1/2+y,z
1/2+x,1/2-y,1/2+z
loop_
_atom_site_type_symbol
_atom_site_label
_atom_site_fract_x
_atom_site_fract_y
_atom_site_fract_z
Si Si1 0.902050 0.408409 0.158370
Si Si2 0.564458 0.942248 0.467789
Si Si3 0.896244 0.157608 0.719501
Si Si4 0.052554 0.822976 0.046260
Si Si5 0.897241 0.302426 0.586724
Si Si6 0.254452 0.715886 0.963150
Si Si7 0.654020 0.610013 0.149913
O O1 0.772691 0.380125 0.146819
O O2 0.978688 0.561250 0.181669
O O3 0.104050 0.303634 0.301936
O O4 0.735170 0.359239 0.993210
O O5 0.744352 0.018286 0.630958
O O6 0.359395 0.043974 0.321857
O O7 0.476099 0.796230 0.444302
O O8 0.687284 0.901584 0.476055
O O9 0.923960 0.175182 0.656581
O O10 0.753275 0.292361 0.654096
O O11 0.137511 0.171155 0.905969
O O12 0.022224 0.737168 0.097251
O O13 0.983189 0.983136 0.020980
O O14 0.505562 0.709526 0.101124
#
# Coordination Sequence:
#
# PCOD9140831 Si02
#       7
#     4   4   4   4   4   4   4
#     4  11  27  51  73 117 152 201 257 314 380 463
#     4  11  26  48  74 110 146 198 257 319 382 462
#     4  12  27  50  74 111 154 196 258 315 386 468
#     4  11  27  45  77 108 151 197 255 307 389 450
#     4  12  28  48  80 110 154 203 255 316 385 458
#     4  11  27  48  76 104 163 197 250 323 388 457
#     4  12  26  48  74 108 150 198 252 320 380 460
#
# _framework density 24.837904000000002
#
# number of rings (size 3 to 8) (size 9 to 14) (size 15 to 20)
#    0.000    0.571    4.286    0.857   14.000    0.000 
#    0.000    0.000    0.000    0.000    0.000    0.000 
#    0.000    0.000    0.000    0.000    0.000    0.000 
#
# Total GULP energy -78059.001654 kJ/mol
# GULP energy per Si atom -5575.642975 kJ/mol
# Density = 2.478137 g / cm^3
# Si number density = 24.837904 Si / 1000 Ang^3
#
#
#
# Elastic Constant Matrix: (Units=GPa)
#
#
# Indices 1 2 3 4 5 6 
#
# 1 142.2041 12.1386 17.6590 -0.0007 -4.0617 -0.0001
# 2 12.1386 69.4664 10.4025 -0.0033 -5.9497 -0.0008
# 3 17.6590 10.4025 93.7216 -0.0001 1.4460 0.0008
# 4 -0.0007 -0.0033 -0.0001 34.5354 0.0006 -10.3907
# 5 -4.0617 -5.9497 1.4460 0.0006 22.6156 0.0003
# 6 -0.0001 -0.0008 0.0008 -10.3907 0.0003 27.2869
#
#
#
# Elastic Compliance Matrix: (Units=1/GPa)
#
#
# Indices 1 2 3 4 5 6 
#
# 1 0.007308 -0.000987 -0.001285 0.000000 0.001135 0.000000
# 2 -0.000987 0.015135 -0.001554 0.000002 0.003904 0.000001
# 3 -0.001285 -0.001554 0.011105 0.000000 -0.001350 0.000000
# 4 0.000000 0.000002 0.000000 0.032703 0.000000 0.012453
# 5 0.001135 0.003904 -0.001350 0.000000 0.045534 0.000000
# 6 0.000000 0.000001 0.000000 0.012453 0.000000 0.041390
#
#
# Mechanical properties :
#
#
# Convention : Reuss Voigt Hill
#
# Bulk Modulus (GPa) = 38.61624 42.86583 40.74104
# Shear Modulus (GPa) = 29.50542 34.56703 32.03623
#
# Velocity S-wave (km/s) = 3.45036 3.73460 3.59529
# Velocity P-wave (km/s) = 5.60842 5.99100 5.80286
#
# Compressibility (1/GPa) = 0.02589584
#
# Stress axis : x y z
#
# Youngs Moduli (GPa) = 136.82849 66.07168 90.04690
#
# Poissons Ratio (x) = 0.06524 0.11571
# Poissons Ratio (y) = 0.13511 0.13994
# Poissons Ratio (z) = 0.17582 0.10268
#
# Static dielectric constant tensor:
#      x y z
#    x 2.005120 0.000000 0.038320 
#    y 0.000000 1.990630 0.000000 
#    z 0.038320 0.000000 1.988340 
# 
# From -- ./inp_files/33717.got.cif
#   From: 2010.05.17/outbox.cif.g08.bks.cpg/sg9_17_cif.got.tgz:33717.got - 2010.06.03 20:04:27.
