data_PCOD9140342
_publ_section_title
;
Structure prediction by ZEFSAII (Michael W. Deem and Ramdas Pophale) SiO2 
 PCOD9140342
Probable space group: C C
;
_chemical_formula_sum "Si O2"
_cell_formula_units_Z 24
_cell_length_a 5.206057
_cell_length_b 23.928241
_cell_length_c 7.932144
_cell_angle_alpha 90.000000
_cell_angle_beta 85.598117
_cell_angle_gamma 90.000000
_cell_volume 985.206619
_symmetry_space_group_name_H-M "C C"
_symmetry_group_IT_number 9
_symmetry_cell_setting 'monoclinic'
loop_
_space_group_symop_operation_xyz
x,y,z
x,-y,1/2+z
1/2+x,1/2+y,z
1/2+x,1/2-y,1/2+z
loop_
_atom_site_type_symbol
_atom_site_label
_atom_site_fract_x
_atom_site_fract_y
_atom_site_fract_z
Si Si1 0.767120 0.418219 0.489660
Si Si2 0.419536 0.743965 0.663702
Si Si3 0.289401 0.587955 0.487701
Si Si4 0.298463 0.139956 0.349679
Si Si5 0.907967 0.696280 0.806848
Si Si6 0.275511 0.471409 0.350776
O O1 0.793630 0.396414 0.677996
O O2 0.828268 0.365274 0.367338
O O3 0.488912 0.441547 0.455868
O O4 0.989584 0.462737 0.438740
O O5 0.364576 0.797884 0.785121
O O6 0.391002 0.766210 0.476418
O O7 0.703445 0.721616 0.687595
O O8 0.197870 0.700292 0.724832
O O9 0.521627 0.631057 0.448393
O O10 0.328630 0.537146 0.353092
O O11 0.293625 0.557615 0.667968
O O12 0.019291 0.616554 0.459370
#
# Coordination Sequence:
#
# PCOD9140342 Si02
#       6
#     4   4   4   4   4   4
#     4  11  24  43  64  91 126 164 205 254 307 362
#     4  11  24  41  64  92 126 164 205 254 307 362
#     4  12  25  42  65  93 124 162 205 254 307 366
#     4  11  24  43  64  91 126 164 205 254 307 362
#     4  11  24  41  64  92 126 164 205 254 307 362
#     4  12  25  42  65  93 124 162 205 254 307 366
#
# _framework density 24.360372999999999
#
# number of rings (size 3 to 8) (size 9 to 14) (size 15 to 20)
#    0.000    0.667    0.000    8.000    0.000   13.333 
#    0.000    0.000    0.000    0.000    0.000    0.000 
#    0.000    0.000    0.000    0.000    0.000    0.000 
#
# Total GULP energy -67396.798264 kJ/mol
# GULP energy per Si atom -5616.399855 kJ/mol
# Density = 2.430493 g / cm^3
# Si number density = 24.360373 Si / 1000 Ang^3
#
#
#
# Elastic Constant Matrix: (Units=GPa)
#
#
# Indices 1 2 3 4 5 6 
#
# 1 129.1715 12.9486 40.5392 0.0000 23.5813 0.0000
# 2 12.9486 73.2721 8.1181 0.0000 15.6647 0.0000
# 3 40.5392 8.1181 108.4716 0.0000 4.8774 0.0000
# 4 0.0000 0.0000 0.0000 45.3666 0.0000 -7.1254
# 5 23.5813 15.6647 4.8774 0.0000 38.8913 0.0000
# 6 0.0000 0.0000 0.0000 -7.1254 0.0000 28.5286
#
#
#
# Elastic Compliance Matrix: (Units=1/GPa)
#
#
# Indices 1 2 3 4 5 6 
#
# 1 0.009828 -0.000193 -0.003413 0.000000 -0.005453 0.000000
# 2 -0.000193 0.015016 -0.000790 0.000000 -0.005832 0.000000
# 3 -0.003413 -0.000790 0.010506 0.000000 0.001070 0.000000
# 4 0.000000 0.000000 0.000000 0.022943 0.000000 0.005730
# 5 -0.005453 -0.005832 0.001070 0.000000 0.031234 0.000000
# 6 0.000000 0.000000 0.000000 0.005730 0.000000 0.036484
#
#
# Mechanical properties :
#
#
# Convention : Reuss Voigt Hill
#
# Bulk Modulus (GPa) = 37.65290 48.23634 42.94462
# Shear Modulus (GPa) = 34.80584 39.17792 36.99188
#
# Velocity S-wave (km/s) = 3.78403 4.01467 3.90106
# Velocity P-wave (km/s) = 5.88065 6.42917 6.16102
#
# Compressibility (1/GPa) = 0.02655838
#
# Stress axis : x y z
#
# Youngs Moduli (GPa) = 101.75290 66.59480 95.18704
#
# Poissons Ratio (x) = 0.01284 0.32490
# Poissons Ratio (y) = 0.01961 0.07515
# Poissons Ratio (z) = 0.34731 0.05258
#
# Static dielectric constant tensor:
#      x y z
#    x 1.847910 0.000000 -0.002700 
#    y 0.000000 1.919960 0.000000 
#    z -0.002700 0.000000 1.924920 
# 
# From -- ./inp_files/3828.got.cif
#   From: 2010.05.17/outbox.cif.g08.bks.cpg/sg9_2_cif.got.tgz:3828.got - 2010.06.03 20:04:27.
