data_PCOD9140086
_publ_section_title
;
Structure prediction by ZEFSAII (Michael W. Deem and Ramdas Pophale) SiO2 
 PCOD9140086
Probable space group: C C
;
_chemical_formula_sum "Si O2"
_cell_formula_units_Z 32
_cell_length_a 10.961407
_cell_length_b 15.566719
_cell_length_c 8.814693
_cell_angle_alpha 90.000000
_cell_angle_beta 102.631339
_cell_angle_gamma 90.000000
_cell_volume 1467.675998
_symmetry_space_group_name_H-M "C C"
_symmetry_group_IT_number 9
_symmetry_cell_setting 'monoclinic'
loop_
_space_group_symop_operation_xyz
x,y,z
x,-y,1/2+z
1/2+x,1/2+y,z
1/2+x,1/2-y,1/2+z
loop_
_atom_site_type_symbol
_atom_site_label
_atom_site_fract_x
_atom_site_fract_y
_atom_site_fract_z
Si Si1 0.899940 0.197706 0.881400
Si Si2 0.000892 0.461733 0.515028
Si Si3 0.751928 0.308244 0.078723
Si Si4 0.137603 0.886283 0.535647
Si Si5 0.523665 0.124179 0.716830
Si Si6 0.221744 0.028552 0.367060
Si Si7 0.721080 0.200487 0.580045
Si Si8 0.094263 0.685757 0.257029
O O1 0.831981 0.162710 0.712083
O O2 0.991186 0.269244 0.834378
O O3 0.800629 0.242815 0.963197
O O4 0.992174 0.139015 0.004414
O O5 0.861641 0.491336 0.427858
O O6 0.047009 0.550342 0.598410
O O7 0.061880 0.418807 0.384491
O O8 0.025073 0.390272 0.649944
O O9 0.658979 0.255784 0.163084
O O10 0.880595 0.343536 0.190442
O O11 0.699788 0.391826 0.976361
O O12 0.192368 0.937997 0.692290
O O13 0.225845 0.802283 0.542749
O O14 0.141455 0.946535 0.390069
O O15 0.606747 0.198814 0.669874
O O16 0.696180 0.156967 0.410891
#
# Coordination Sequence:
#
# PCOD9140086 Si02
#       8
#     4   4   4   4   4   4   4   4
#     4  11  24  44  68  99 146 186 227 302 359 425
#     4  11  24  40  71 105 141 181 247 292 356 418
#     4  11  23  43  72 103 141 189 235 296 360 426
#     4  11  24  42  68 100 141 179 236 294 356 412
#     4  11  23  41  71 105 138 193 235 299 355 428
#     4  11  24  42  70 104 140 179 243 299 347 425
#     4  11  23  46  69  99 151 183 236 296 358 429
#     4  11  25  42  71 107 138 188 245 288 363 427
#
# _framework density 21.803179
#
# number of rings (size 3 to 8) (size 9 to 14) (size 15 to 20)
#    0.000    1.000    3.750    3.750   10.500    0.000 
#    0.000    3.750    0.000    0.000    0.000    0.000 
#    0.000    0.000    0.000    0.000    0.000    0.000 
#
# Total GULP energy -89268.297476 kJ/mol
# GULP energy per Si atom -5579.268592 kJ/mol
# Density = 2.175355 g / cm^3
# Si number density = 21.803179 Si / 1000 Ang^3
#
#
#
# Elastic Constant Matrix: (Units=GPa)
#
#
# Indices 1 2 3 4 5 6 
#
# 1 30.8320 16.9918 24.6480 0.0000 1.6674 0.0000
# 2 16.9918 71.3826 37.1516 0.0000 -2.3402 0.0000
# 3 24.6480 37.1516 137.0929 0.0000 12.8411 0.0000
# 4 0.0000 0.0000 0.0000 52.0993 0.0000 -7.4315
# 5 1.6674 -2.3402 12.8411 0.0000 28.7091 0.0000
# 6 0.0000 0.0000 0.0000 -7.4315 0.0000 27.3776
#
#
#
# Elastic Compliance Matrix: (Units=1/GPa)
#
#
# Indices 1 2 3 4 5 6 
#
# 1 0.040548 -0.006868 -0.005381 0.000000 -0.000508 0.000000
# 2 -0.006868 0.017807 -0.003929 0.000000 0.003608 0.000000
# 3 -0.005381 -0.003929 0.009735 0.000000 -0.004362 0.000000
# 4 0.000000 0.000000 0.000000 0.019967 0.000000 0.005420
# 5 -0.000508 0.003608 -0.004362 0.000000 0.037107 0.000000
# 6 0.000000 0.000000 0.000000 0.005420 0.000000 0.037997
#
#
# Mechanical properties :
#
#
# Convention : Reuss Voigt Hill
#
# Bulk Modulus (GPa) = 27.98444 44.09893 36.04168
# Shear Modulus (GPa) = 24.10461 32.33829 28.22145
#
# Velocity S-wave (km/s) = 3.32860 3.85540 3.60164
# Velocity P-wave (km/s) = 5.25696 6.33156 5.81912
#
# Compressibility (1/GPa) = 0.03573415
#
# Stress axis : x y z
#
# Youngs Moduli (GPa) = 24.66191 56.15819 102.72106
#
# Poissons Ratio (x) = 0.38569 0.55279
# Poissons Ratio (y) = 0.16938 0.40356
# Poissons Ratio (z) = 0.13272 0.22063
#
# Static dielectric constant tensor:
#      x y z
#    x 1.852690 0.000000 0.058570 
#    y 0.000000 1.839640 0.000000 
#    z 0.058570 0.000000 1.855120 
# 
# From -- ./inp_files/7617.got.cif
#   From: 2010.05.17/outbox.cif.g08.bks.cpg/sg9_4_cif.got.tgz:7617.got - 2010.06.03 20:04:27.
