data_PCOD9140233
_publ_section_title
;
Structure prediction by ZEFSAII (Michael W. Deem and Ramdas Pophale) SiO2 
 PCOD9140233
Probable space group: C C
;
_chemical_formula_sum "Si O2"
_cell_formula_units_Z 32
_cell_length_a 13.365193
_cell_length_b 7.811928
_cell_length_c 20.283704
_cell_angle_alpha 90.000000
_cell_angle_beta 138.694327
_cell_angle_gamma 90.000000
_cell_volume 1397.895496
_symmetry_space_group_name_H-M "C C"
_symmetry_group_IT_number 9
_symmetry_cell_setting 'monoclinic'
loop_
_space_group_symop_operation_xyz
x,y,z
x,-y,1/2+z
1/2+x,1/2+y,z
1/2+x,1/2-y,1/2+z
loop_
_atom_site_type_symbol
_atom_site_label
_atom_site_fract_x
_atom_site_fract_y
_atom_site_fract_z
Si Si1 0.137660 0.605668 0.778600
Si Si2 0.797488 0.449500 0.877481
Si Si3 0.002399 0.276428 0.874379
Si Si4 0.546292 0.254708 0.255914
Si Si5 0.339409 0.695614 0.148369
Si Si6 0.876171 0.057082 0.313932
Si Si7 0.849969 0.885257 0.051121
Si Si8 0.485196 0.250538 0.990367
O O1 0.223114 0.552441 0.753351
O O2 0.964416 0.664220 0.691319
O O3 0.228801 0.760775 0.859649
O O4 0.945701 0.250245 0.641590
O O5 0.654926 0.579537 0.804653
O O6 0.890445 0.401418 0.857312
O O7 0.919753 0.562011 0.978471
O O8 0.904208 0.792160 0.880350
O O9 0.000669 0.081619 0.898847
O O10 0.174240 0.336908 0.961571
O O11 0.447265 0.256754 0.272615
O O12 0.636604 0.079219 0.311083
O O13 0.380876 0.625813 0.242298
O O14 0.355611 0.554812 0.098778
O O15 0.164516 0.749618 0.068247
O O16 0.932626 0.881152 0.021399
#
# Coordination Sequence:
#
# PCOD9140233 Si02
#       8
#     4   4   4   4   4   4   4   4
#     4  11  25  44  78 105 142 202 250 305 385 453
#     4  11  23  46  70 104 147 188 249 311 373 450
#     4  11  24  44  75 106 145 198 248 311 380 451
#     4  12  24  48  70 104 150 196 245 314 382 441
#     4  12  27  50  76 115 155 201 258 320 379 466
#     4  11  25  50  72 114 152 202 255 312 389 452
#     4  12  25  47  72 108 157 196 254 319 383 451
#     4  12  27  45  77 112 152 201 255 322 379 456
#
# _framework density 22.891553999999999
#
# number of rings (size 3 to 8) (size 9 to 14) (size 15 to 20)
#    0.000    0.500    6.250    0.750    3.500    1.000 
#    2.250    3.750    0.000    0.000    0.000    0.000 
#    0.000    0.000    0.000    0.000    0.000    0.000 
#
# Total GULP energy -89185.061161 kJ/mol
# GULP energy per Si atom -5574.066323 kJ/mol
# Density = 2.283945 g / cm^3
# Si number density = 22.891554 Si / 1000 Ang^3
#
#
#
# Elastic Constant Matrix: (Units=GPa)
#
#
# Indices 1 2 3 4 5 6 
#
# 1 134.3477 44.8676 47.4511 0.0000 13.4837 0.0000
# 2 44.8676 125.9450 26.2295 0.0000 -0.4074 0.0000
# 3 47.4511 26.2295 88.3963 0.0000 10.5346 0.0000
# 4 0.0000 0.0000 0.0000 25.3444 0.0000 7.6000
# 5 13.4837 -0.4074 10.5346 0.0000 40.2861 0.0000
# 6 0.0000 0.0000 0.0000 7.6000 0.0000 40.2818
#
#
#
# Elastic Compliance Matrix: (Units=1/GPa)
#
#
# Indices 1 2 3 4 5 6 
#
# 1 0.010113 -0.002703 -0.004356 0.000000 -0.002273 0.000000
# 2 -0.002703 0.009208 -0.001445 0.000000 0.001376 0.000000
# 3 -0.004356 -0.001445 0.014355 0.000000 -0.002311 0.000000
# 4 0.000000 0.000000 0.000000 0.041823 0.000000 -0.007891
# 5 -0.002273 0.001376 -0.002311 0.000000 0.026201 0.000000
# 6 0.000000 0.000000 0.000000 -0.007891 0.000000 0.026314
#
#
# Mechanical properties :
#
#
# Convention : Reuss Voigt Hill
#
# Bulk Modulus (GPa) = 59.99411 65.08728 62.54070
# Shear Modulus (GPa) = 33.20554 36.52517 34.86536
#
# Velocity S-wave (km/s) = 3.81275 3.99880 3.90688
# Velocity P-wave (km/s) = 6.75630 7.05798 6.90879
#
# Compressibility (1/GPa) = 0.01666830
#
# Stress axis : x y z
#
# Youngs Moduli (GPa) = 98.88749 108.59737 69.66217
#
# Poissons Ratio (x) = 0.29352 0.30341
# Poissons Ratio (y) = 0.26728 0.10069
# Poissons Ratio (z) = 0.43071 0.15697
#
# Static dielectric constant tensor:
#      x y z
#    x 1.985910 0.000000 0.026590 
#    y 0.000000 1.975560 0.000000 
#    z 0.026590 0.000000 1.848540 
# 
# From -- ./inp_files/35262.got.cif
#   From: 2010.05.17/outbox.cif.g08.bks.cpg/sg9_18_cif.got.tgz:35262.got - 2010.06.03 20:04:27.
