data_PCOD9140398
_publ_section_title
;
Structure prediction by ZEFSAII (Michael W. Deem and Ramdas Pophale) SiO2 
 PCOD9140398
Probable space group: C C
;
_chemical_formula_sum "Si O2"
_cell_formula_units_Z 32
_cell_length_a 8.254340
_cell_length_b 18.583294
_cell_length_c 13.999725
_cell_angle_alpha 90.000000
_cell_angle_beta 136.696973
_cell_angle_gamma 90.000000
_cell_volume 1472.848259
_symmetry_space_group_name_H-M "C C"
_symmetry_group_IT_number 9
_symmetry_cell_setting 'monoclinic'
loop_
_space_group_symop_operation_xyz
x,y,z
x,-y,1/2+z
1/2+x,1/2+y,z
1/2+x,1/2-y,1/2+z
loop_
_atom_site_type_symbol
_atom_site_label
_atom_site_fract_x
_atom_site_fract_y
_atom_site_fract_z
Si Si1 0.185170 0.362109 0.642600
Si Si2 0.146135 0.902385 0.725142
Si Si3 0.026779 0.377248 0.171929
Si Si4 0.961164 0.121239 0.449875
Si Si5 0.807945 0.743832 0.220735
Si Si6 0.316772 0.468886 0.446540
Si Si7 0.306208 0.747581 0.497609
Si Si8 0.008280 0.510037 0.498458
O O1 0.404759 0.372968 0.666752
O O2 0.310100 0.347792 0.797398
O O3 0.022199 0.294659 0.552296
O O4 0.025022 0.434401 0.563009
O O5 0.306081 0.833561 0.771943
O O6 0.266060 0.960593 0.846434
O O7 0.062248 0.936042 0.589530
O O8 0.131109 0.298784 0.195585
O O9 0.155757 0.413699 0.318135
O O10 0.743372 0.374042 0.061208
O O11 0.081604 0.428115 0.104193
O O12 0.874793 0.165209 0.505143
O O13 0.884789 0.038531 0.416210
O O14 0.754235 0.737729 0.086058
O O15 0.073190 0.771588 0.342553
O O16 0.177266 0.497465 0.479958
#
# Coordination Sequence:
#
# PCOD9140398 Si02
#       8
#     4   4   4   4   4   4   4   4
#     4  11  25  46  70 103 141 183 233 288 349 419
#     4  11  24  47  69 102 145 181 229 292 349 416
#     4  12  25  44  74 104 138 191 234 284 357 418
#     4  12  24  47  70 103 146 179 234 293 346 418
#     4  12  26  46  70 104 140 185 235 290 347 427
#     4  11  25  43  71 106 138 183 232 290 350 421
#     4  12  27  45  72 100 142 186 232 290 355 412
#     4  11  24  44  72 102 140 186 231 283 355 419
#
# _framework density 21.726610999999998
#
# number of rings (size 3 to 8) (size 9 to 14) (size 15 to 20)
#    0.000    0.500    3.750    4.500    0.000    7.000 
#    6.750    0.000    0.000    0.000    0.000    0.000 
#    0.000    0.000    0.000    0.000    0.000    0.000 
#
# Total GULP energy -89441.879083 kJ/mol
# GULP energy per Si atom -5590.117443 kJ/mol
# Density = 2.167716 g / cm^3
# Si number density = 21.726611 Si / 1000 Ang^3
#
#
#
# Elastic Constant Matrix: (Units=GPa)
#
#
# Indices 1 2 3 4 5 6 
#
# 1 47.5501 11.9054 -6.8770 0.0000 7.4869 0.0000
# 2 11.9054 65.1750 25.5815 0.0000 13.7822 0.0000
# 3 -6.8770 25.5815 93.9897 -0.0001 4.2596 0.0001
# 4 0.0000 0.0000 -0.0001 -3.5406 0.0000 32.0189
# 5 7.4869 13.7822 4.2596 0.0000 32.2086 0.0000
# 6 0.0000 0.0000 0.0001 32.0189 0.0000 4.2833
#
#
#
# Elastic Compliance Matrix: (Units=1/GPa)
#
#
# Indices 1 2 3 4 5 6 
#
# 1 0.023258 -0.004676 0.003148 0.000000 -0.003822 0.000000
# 2 -0.004676 0.019724 -0.005410 0.000000 -0.006638 0.000000
# 3 0.003148 -0.005410 0.012344 0.000000 -0.000049 0.000000
# 4 0.000000 0.000000 0.000000 -0.004117 0.000000 0.030776
# 5 -0.003822 -0.006638 -0.000049 0.000000 0.034783 0.000000
# 6 0.000000 0.000000 0.000000 0.030776 0.000000 0.003403
#
#
# Mechanical properties :
#
#
# Convention : Reuss Voigt Hill
#
# Bulk Modulus (GPa) = 24.12483 29.77049 26.94766
# Shear Modulus (GPa) = 42.70260 18.33060 30.51660
#
# Velocity S-wave (km/s) = 4.43815 2.90779 3.75183
# Velocity P-wave (km/s) = 6.11480 5.00057 5.58554
#
# Compressibility (1/GPa) = 0.04145106
#
# Stress axis : x y z
#
# Youngs Moduli (GPa) = 42.99567 50.69850 81.00841
#
# Poissons Ratio (x) = 0.23706 -0.25498
# Poissons Ratio (y) = 0.20104 0.43824
# Poissons Ratio (z) = -0.13533 0.27427
#
# Static dielectric constant tensor:
#      x y z
#    x 1.798250 0.000000 -0.029500 
#    y 0.000000 2.004560 0.000000 
#    z -0.029500 0.000000 1.819780 
# 
# From -- ./inp_files/14806.got.cif
#   From: 2010.05.17/outbox.cif.g08.bks.cpg/sg9_8_cif.got.tgz:14806.got - 2010.06.03 20:04:27.
