data_PCOD9140318
_publ_section_title
;
Structure prediction by ZEFSAII (Michael W. Deem and Ramdas Pophale) SiO2 
 PCOD9140318
Probable space group: C C
;
_chemical_formula_sum "Si O2"
_cell_formula_units_Z 20
_cell_length_a 7.227833
_cell_length_b 12.861603
_cell_length_c 13.580525
_cell_angle_alpha 90.000000
_cell_angle_beta 137.882693
_cell_angle_gamma 90.000000
_cell_volume 846.673875
_symmetry_space_group_name_H-M "C C"
_symmetry_group_IT_number 9
_symmetry_cell_setting 'monoclinic'
loop_
_space_group_symop_operation_xyz
x,y,z
x,-y,1/2+z
1/2+x,1/2+y,z
1/2+x,1/2-y,1/2+z
loop_
_atom_site_type_symbol
_atom_site_label
_atom_site_fract_x
_atom_site_fract_y
_atom_site_fract_z
Si Si1 0.549470 0.541587 0.540420
Si Si2 0.849010 0.821358 0.479937
Si Si3 0.971235 0.733013 0.007615
Si Si4 0.143860 0.532751 0.198824
Si Si5 0.332079 0.316584 0.241575
O O1 0.403197 0.441433 0.529935
O O2 0.530969 0.655059 0.580966
O O3 0.376438 0.555155 0.371374
O O4 0.859818 0.506612 0.637535
O O5 0.635280 0.770980 0.469846
O O6 0.763616 0.813101 0.332286
O O7 0.136801 0.761538 0.607002
O O8 0.648856 0.715176 0.861357
O O9 0.576704 0.864504 0.612046
O O10 0.260707 0.434624 0.183883
#
# Coordination Sequence:
#
# PCOD9140318 Si02
#       5
#     4   4   4   4   4
#     4  11  25  49  73 110 154 187 255 314 362 456
#     4  11  26  48  77 112 147 200 252 304 380 450
#     4  12  26  46  80 103 151 206 238 310 390 426
#     4  11  23  49  72 106 156 186 246 324 355 443
#     4  11  26  50  76 113 154 191 259 316 361 463
#
# _framework density 23.621849000000001
#
# number of rings (size 3 to 8) (size 9 to 14) (size 15 to 20)
#    0.000    0.800    6.000    1.200    2.800    1.600 
#   10.800    0.000    0.000    0.000    0.000    0.000 
#    0.000    0.000    0.000    0.000    0.000    0.000 
#
# Total GULP energy -56038.845416 kJ/mol
# GULP energy per Si atom -5603.884542 kJ/mol
# Density = 2.356808 g / cm^3
# Si number density = 23.621849 Si / 1000 Ang^3
#
#
#
# Elastic Constant Matrix: (Units=GPa)
#
#
# Indices 1 2 3 4 5 6 
#
# 1 52.1866 9.7058 13.1722 0.0001 11.7562 -0.0001
# 2 9.7058 206.0110 24.4154 0.0001 -10.1173 0.0000
# 3 13.1722 24.4154 69.5484 0.0014 -4.4317 0.0004
# 4 0.0001 0.0001 0.0014 49.4611 0.0003 2.5128
# 5 11.7562 -10.1173 -4.4317 0.0003 32.4718 0.0000
# 6 -0.0001 0.0000 0.0004 2.5128 0.0000 41.7555
#
#
#
# Elastic Compliance Matrix: (Units=1/GPa)
#
#
# Indices 1 2 3 4 5 6 
#
# 1 0.022523 -0.000973 -0.004502 0.000000 -0.009072 0.000000
# 2 -0.000973 0.005166 -0.001517 0.000000 0.001755 0.000000
# 3 -0.004502 -0.001517 0.015977 0.000000 0.003338 0.000000
# 4 0.000000 0.000000 0.000000 0.020280 0.000000 -0.001220
# 5 -0.009072 0.001755 0.003338 0.000000 0.035083 0.000000
# 6 0.000000 0.000000 0.000000 -0.001220 0.000000 0.024022
#
#
# Mechanical properties :
#
#
# Convention : Reuss Voigt Hill
#
# Bulk Modulus (GPa) = 33.69264 46.92587 40.30925
# Shear Modulus (GPa) = 34.02995 43.43453 38.73224
#
# Velocity S-wave (km/s) = 3.79966 4.29271 4.05369
# Velocity P-wave (km/s) = 5.79173 6.66921 6.24590
#
# Compressibility (1/GPa) = 0.02968008
#
# Stress axis : x y z
#
# Youngs Moduli (GPa) = 44.39896 193.57446 62.59167
#
# Poissons Ratio (x) = 0.18836 0.28180
# Poissons Ratio (y) = 0.04320 0.09498
# Poissons Ratio (z) = 0.19989 0.29374
#
# Static dielectric constant tensor:
#      x y z
#    x 1.899460 0.000000 -0.023350 
#    y 0.000000 1.926920 0.000000 
#    z -0.023350 0.000000 1.831460 
# 
# From -- ./inp_files/12845.got.cif
#   From: 2010.05.17/outbox.cif.g08.bks.cpg/sg9_7_cif.got.tgz:12845.got - 2010.06.03 20:04:27.
