data_PCOD9140153
_publ_section_title
;
Structure prediction by ZEFSAII (Michael W. Deem and Ramdas Pophale) SiO2 
 PCOD9140153
Probable space group: C C
;
_chemical_formula_sum "Si O2"
_cell_formula_units_Z 32
_cell_length_a 10.967541
_cell_length_b 15.520044
_cell_length_c 9.096226
_cell_angle_alpha 90.000000
_cell_angle_beta 66.147936
_cell_angle_gamma 90.000000
_cell_volume 1416.090916
_symmetry_space_group_name_H-M "C C"
_symmetry_group_IT_number 9
_symmetry_cell_setting 'monoclinic'
loop_
_space_group_symop_operation_xyz
x,y,z
x,-y,1/2+z
1/2+x,1/2+y,z
1/2+x,1/2-y,1/2+z
loop_
_atom_site_type_symbol
_atom_site_label
_atom_site_fract_x
_atom_site_fract_y
_atom_site_fract_z
Si Si1 0.019740 0.486305 0.215480
Si Si2 0.512785 0.187251 0.571477
Si Si3 0.211894 0.248877 0.712524
Si Si4 0.912860 0.911145 0.928867
Si Si5 0.919206 0.381433 0.540785
Si Si6 0.734438 0.242153 0.649636
Si Si7 0.803897 0.065071 0.151875
Si Si8 0.609552 0.714721 0.470816
O O1 0.036763 0.414566 0.078989
O O2 0.163007 0.515748 0.206185
O O3 0.953515 0.440243 0.385970
O O4 0.936828 0.562992 0.180304
O O5 0.355555 0.204047 0.666583
O O6 0.604818 0.225587 0.393142
O O7 0.582127 0.229064 0.679599
O O8 0.262730 0.339912 0.620726
O O9 0.137529 0.194033 0.625187
O O10 0.869523 0.921456 0.780479
O O11 0.050283 0.866020 0.910450
O O12 0.810967 0.840277 0.049547
O O13 0.898854 0.004883 0.008615
O O14 0.783226 0.333231 0.567194
O O15 0.013768 0.298033 0.516752
O O16 0.740963 0.252809 0.821153
#
# Coordination Sequence:
#
# PCOD9140153 Si02
#       8
#     4   4   4   4   4   4   4   4
#     4  12  23  41  73 108 142 184 250 302 358 429
#     4  12  25  47  70 108 144 187 240 299 364 436
#     4  12  27  43  73 105 145 188 243 296 363 434
#     4  11  25  42  70 102 142 177 243 296 360 410
#     4  11  24  41  69 105 144 186 241 309 358 423
#     4  11  23  44  69  97 145 187 231 293 371 427
#     4  12  22  42  71 109 135 187 244 302 343 431
#     4  11  25  44  67 102 141 194 230 299 365 434
#
# _framework density 22.59742
#
# number of rings (size 3 to 8) (size 9 to 14) (size 15 to 20)
#    0.000    0.500    5.000    3.000    5.250    0.000 
#    0.000    6.250    0.000    0.000    0.000    0.000 
#    0.000    0.000    0.000    0.000    0.000    0.000 
#
# Total GULP energy -89251.534780 kJ/mol
# GULP energy per Si atom -5578.220924 kJ/mol
# Density = 2.254599 g / cm^3
# Si number density = 22.597420 Si / 1000 Ang^3
#
#
#
# Elastic Constant Matrix: (Units=GPa)
#
#
# Indices 1 2 3 4 5 6 
#
# 1 76.5828 23.6397 27.5250 0.0000 5.5990 0.0000
# 2 23.6397 81.1208 2.0023 0.0000 3.9269 0.0000
# 3 27.5250 2.0023 63.7727 0.0000 12.9676 0.0000
# 4 0.0000 0.0000 0.0000 18.5171 0.0000 -2.1825
# 5 5.5990 3.9269 12.9676 0.0000 18.3325 0.0000
# 6 0.0000 0.0000 0.0000 -2.1825 0.0000 36.6065
#
#
#
# Elastic Compliance Matrix: (Units=1/GPa)
#
#
# Indices 1 2 3 4 5 6 
#
# 1 0.017170 -0.004872 -0.007480 0.000000 0.001090 0.000000
# 2 -0.004872 0.013840 0.002299 0.000000 -0.003103 0.000000
# 3 -0.007480 0.002299 0.021576 0.000000 -0.013470 0.000000
# 4 0.000000 0.000000 0.000000 0.054386 0.000000 0.003243
# 5 0.001090 -0.003103 -0.013470 0.000000 0.064408 0.000000
# 6 0.000000 0.000000 0.000000 0.003243 0.000000 0.027511
#
#
# Mechanical properties :
#
#
# Convention : Reuss Voigt Hill
#
# Bulk Modulus (GPa) = 30.78631 36.42335 33.60483
# Shear Modulus (GPa) = 21.75588 25.91184 23.83386
#
# Velocity S-wave (km/s) = 3.10620 3.38993 3.25116
# Velocity P-wave (km/s) = 5.14957 5.61030 5.38487
#
# Compressibility (1/GPa) = 0.03248197
#
# Stress axis : x y z
#
# Youngs Moduli (GPa) = 58.24063 72.25194 46.34838
#
# Poissons Ratio (x) = 0.35199 0.34666
# Poissons Ratio (y) = 0.28373 -0.10656
# Poissons Ratio (z) = 0.43561 -0.16612
#
# Static dielectric constant tensor:
#      x y z
#    x 1.964910 0.000000 -0.078080 
#    y 0.000000 1.835460 0.000000 
#    z -0.078080 0.000000 1.929260 
# 
# From -- ./inp_files/7425.got.cif
#   From: 2010.05.17/outbox.cif.g08.bks.cpg/sg9_4_cif.got.tgz:7425.got - 2010.06.03 20:04:27.
