data_PCOD9140247
_publ_section_title
;
Structure prediction by ZEFSAII (Michael W. Deem and Ramdas Pophale) SiO2 
 PCOD9140247
Probable space group: C C
;
_chemical_formula_sum "Si O2"
_cell_formula_units_Z 32
_cell_length_a 11.504776
_cell_length_b 8.586902
_cell_length_c 27.360597
_cell_angle_alpha 90.000000
_cell_angle_beta 32.905969
_cell_angle_gamma 90.000000
_cell_volume 1468.417343
_symmetry_space_group_name_H-M "C C"
_symmetry_group_IT_number 9
_symmetry_cell_setting 'monoclinic'
loop_
_space_group_symop_operation_xyz
x,y,z
x,-y,1/2+z
1/2+x,1/2+y,z
1/2+x,1/2-y,1/2+z
loop_
_atom_site_type_symbol
_atom_site_label
_atom_site_fract_x
_atom_site_fract_y
_atom_site_fract_z
Si Si1 0.248160 0.667183 0.420780
Si Si2 0.395279 0.378226 0.681271
Si Si3 0.515550 0.269894 0.161353
Si Si4 0.338106 0.696659 0.539143
Si Si5 0.593239 0.255614 0.369684
Si Si6 0.111853 0.357359 0.525790
Si Si7 0.634400 0.377865 0.844769
Si Si8 0.893212 0.870311 0.569818
O O1 0.175688 0.667356 0.389592
O O2 0.162893 0.528733 0.486547
O O3 0.500556 0.653410 0.341886
O O4 0.141961 0.827635 0.477170
O O5 0.449485 0.555227 0.674765
O O6 0.606793 0.271078 0.612062
O O7 0.211835 0.316627 0.781533
O O8 0.331206 0.381570 0.647517
O O9 0.364149 0.196847 0.255942
O O10 0.759185 0.269008 0.093476
O O11 0.504218 0.163510 0.116634
O O12 0.459039 0.783229 0.539845
O O13 0.489723 0.698681 0.438097
O O14 0.328156 0.519264 0.561358
O O15 0.336980 0.263611 0.452172
O O16 0.653828 0.439393 0.350241
#
# Coordination Sequence:
#
# PCOD9140247 Si02
#       8
#     4   4   4   4   4   4   4   4
#     4  11  23  46  73  98 141 186 233 293 353 416
#     4  12  29  45  71 108 140 189 238 292 353 424
#     4  12  27  46  70 107 143 185 240 290 354 422
#     4  12  25  47  71 103 143 185 240 293 352 421
#     4  11  26  46  69 105 141 184 239 288 355 421
#     4  11  26  45  70 105 143 186 236 292 351 425
#     4  11  26  43  72 105 138 187 236 291 355 424
#     4  12  24  48  74  97 141 190 230 293 353 419
#
# _framework density 21.792168
#
# number of rings (size 3 to 8) (size 9 to 14) (size 15 to 20)
#    0.000    0.500    5.000    2.250    7.000    3.000 
#    0.000    0.000    0.000    0.000    0.000    0.000 
#    0.000    0.000    0.000    0.000    0.000    0.000 
#
# Total GULP energy -89456.603375 kJ/mol
# GULP energy per Si atom -5591.037711 kJ/mol
# Density = 2.174257 g / cm^3
# Si number density = 21.792168 Si / 1000 Ang^3
#
#
#
# Elastic Constant Matrix: (Units=GPa)
#
#
# Indices 1 2 3 4 5 6 
#
# 1 70.9187 12.5999 36.6838 -0.0001 -3.3704 0.0001
# 2 12.5999 63.1289 14.4433 0.0001 -3.3531 0.0000
# 3 36.6838 14.4433 110.5012 0.0010 19.1705 -0.0002
# 4 -0.0001 0.0001 0.0010 29.7047 -0.0001 -4.2238
# 5 -3.3704 -3.3531 19.1705 -0.0001 31.9926 0.0000
# 6 0.0001 0.0000 -0.0002 -4.2238 0.0000 40.0405
#
#
#
# Elastic Compliance Matrix: (Units=1/GPa)
#
#
# Indices 1 2 3 4 5 6 
#
# 1 0.018224 -0.001765 -0.006830 0.000000 0.005828 0.000000
# 2 -0.001765 0.016826 -0.002106 0.000000 0.002839 0.000000
# 3 -0.006830 -0.002106 0.013119 0.000000 -0.008802 0.000000
# 4 0.000000 0.000000 0.000000 0.034177 0.000000 0.003605
# 5 0.005828 0.002839 -0.008802 0.000000 0.037443 0.000000
# 6 0.000000 0.000000 0.000000 0.003605 0.000000 0.025355
#
#
# Mechanical properties :
#
#
# Convention : Reuss Voigt Hill
#
# Bulk Modulus (GPa) = 37.35996 41.33363 39.34679
# Shear Modulus (GPa) = 28.49500 32.40235 30.44867
#
# Velocity S-wave (km/s) = 3.61997 3.86019 3.74201
# Velocity P-wave (km/s) = 5.88670 6.23510 6.06340
#
# Compressibility (1/GPa) = 0.02676662
#
# Stress axis : x y z
#
# Youngs Moduli (GPa) = 54.87165 59.43352 76.22284
#
# Poissons Ratio (x) = 0.10491 0.52063
# Poissons Ratio (y) = 0.09685 0.16051
# Poissons Ratio (z) = 0.37480 0.12516
#
# Static dielectric constant tensor:
#      x y z
#    x 1.798690 0.000000 0.004760 
#    y 0.000000 1.805520 0.000000 
#    z 0.004760 0.000000 1.768070 
# 
# From -- ./inp_files/24238.got.cif
#   From: 2010.05.17/outbox.cif.g08.bks.cpg/sg9_13_cif.got.tgz:24238.got - 2010.06.03 20:04:27.
