data_PCOD9140989
_publ_section_title
;
Structure prediction by ZEFSAII (Michael W. Deem and Ramdas Pophale) SiO2 
 PCOD9140989
Probable space group: C C
;
_chemical_formula_sum "Si O2"
_cell_formula_units_Z 28
_cell_length_a 13.447367
_cell_length_b 9.382790
_cell_length_c 13.366965
_cell_angle_alpha 90.000000
_cell_angle_beta 136.692598
_cell_angle_gamma 90.000000
_cell_volume 1156.833079
_symmetry_space_group_name_H-M "C C"
_symmetry_group_IT_number 9
_symmetry_cell_setting 'monoclinic'
loop_
_space_group_symop_operation_xyz
x,y,z
x,-y,1/2+z
1/2+x,1/2+y,z
1/2+x,1/2-y,1/2+z
loop_
_atom_site_type_symbol
_atom_site_label
_atom_site_fract_x
_atom_site_fract_y
_atom_site_fract_z
Si Si1 0.425780 0.451850 0.292690
Si Si2 0.218304 0.685873 0.243267
Si Si3 0.489390 0.166686 0.429130
Si Si4 0.290468 0.276728 0.029771
Si Si5 0.969858 0.503897 0.108557
Si Si6 0.685302 0.359217 0.041491
Si Si7 0.501588 0.891698 0.309724
O O1 0.324440 0.580137 0.258699
O O2 0.400228 0.307348 0.336325
O O3 0.398376 0.394801 0.159406
O O4 0.586727 0.510740 0.433153
O O5 0.259736 0.701924 0.389175
O O6 0.203900 0.835423 0.174205
O O7 0.061456 0.619973 0.113927
O O8 0.649231 0.203338 0.498625
O O9 0.457115 0.122603 0.518907
O O10 0.456453 0.021243 0.346324
O O11 0.357323 0.116743 0.077628
O O12 0.086673 0.455319 0.278336
O O13 0.855907 0.351279 0.138745
O O14 0.594960 0.227256 0.930127
#
# Coordination Sequence:
#
# PCOD9140989 Si02
#       7
#     4   4   4   4   4   4   4
#     4  12  26  46  82 115 159 214 282 340 416 512
#     4  12  24  46  77 114 161 210 273 338 411 500
#     4  12  26  49  76 112 157 207 281 340 405 507
#     4  12  24  49  79 113 158 219 269 342 427 493
#     4  12  25  44  76 113 154 208 260 340 414 488
#     4  12  26  48  78 118 157 217 267 344 427 498
#     4  12  25  48  76 107 162 207 268 338 416 500
#
# _framework density 24.204013
#
# number of rings (size 3 to 8) (size 9 to 14) (size 15 to 20)
#    0.000    0.000    7.143    2.571    0.000    2.286 
#    0.000    1.429    0.000    0.000    0.000    0.000 
#    0.000    0.000    0.000    0.000    0.000    0.000 
#
# Total GULP energy -77939.645711 kJ/mol
# GULP energy per Si atom -5567.117551 kJ/mol
# Density = 2.414892 g / cm^3
# Si number density = 24.204013 Si / 1000 Ang^3
#
#
#
# Elastic Constant Matrix: (Units=GPa)
#
#
# Indices 1 2 3 4 5 6 
#
# 1 78.8214 21.4230 56.3826 0.0000 -15.2906 0.0000
# 2 21.4230 105.2476 73.3594 0.0000 -4.3028 0.0000
# 3 56.3826 73.3594 153.8391 0.0000 -24.4726 0.0000
# 4 0.0000 0.0000 0.0000 56.6404 0.0000 0.9392
# 5 -15.2906 -4.3028 -24.4726 0.0000 65.7414 0.0000
# 6 0.0000 0.0000 0.0000 0.9392 0.0000 17.6045
#
#
#
# Elastic Compliance Matrix: (Units=1/GPa)
#
#
# Indices 1 2 3 4 5 6 
#
# 1 0.017485 0.001187 -0.006713 0.000000 0.001646 0.000000
# 2 0.001187 0.014492 -0.007601 0.000000 -0.001605 0.000000
# 3 -0.006713 -0.007601 0.013029 0.000000 0.002791 0.000000
# 4 0.000000 0.000000 0.000000 0.017671 0.000000 -0.000943
# 5 0.001646 -0.001605 0.002791 0.000000 0.016528 0.000000
# 6 0.000000 0.000000 0.000000 -0.000943 0.000000 0.056854
#
#
# Mechanical properties :
#
#
# Convention : Reuss Voigt Hill
#
# Bulk Modulus (GPa) = 53.32407 71.13755 62.23081
# Shear Modulus (GPa) = 29.66228 40.44678 35.05453
#
# Velocity S-wave (km/s) = 3.50453 4.09232 3.80977
# Velocity P-wave (km/s) = 6.20117 7.19611 6.71709
#
# Compressibility (1/GPa) = 0.01875326
#
# Stress axis : x y z
#
# Youngs Moduli (GPa) = 57.19103 69.00215 76.75043
#
# Poissons Ratio (x) = -0.08191 0.51520
# Poissons Ratio (y) = -0.06789 0.58339
# Poissons Ratio (z) = 0.38390 0.52449
#
# Static dielectric constant tensor:
#      x y z
#    x 2.224420 0.000000 0.025660 
#    y 0.000000 2.055140 0.000000 
#    z 0.025660 0.000000 2.044190 
# 
# From -- ./inp_files/25758.got.cif
#   From: 2010.05.17/outbox.cif.g08.bks.cpg/sg9_13_cif.got.tgz:25758.got - 2010.06.03 20:04:27.
