data_PCOD9141731
_publ_section_title
;
Structure prediction by ZEFSAII (Michael W. Deem and Ramdas Pophale) SiO2 
 PCOD9141731
Probable space group: P 2/M
;
_chemical_formula_sum "Si O2"
_cell_formula_units_Z 24
_cell_length_a 20.499783
_cell_length_b 8.459094
_cell_length_c 11.827814
_cell_angle_alpha 90.000000
_cell_angle_beta 136.392408
_cell_angle_gamma 90.000000
_cell_volume 1414.645374
_symmetry_space_group_name_H-M "P 2/M"
_symmetry_group_IT_number 10
_symmetry_cell_setting 'monoclinic'
loop_
_space_group_symop_operation_xyz
x,y,z
-x,y,-z
-x,-y,-z
x,-y,z
loop_
_atom_site_type_symbol
_atom_site_label
_atom_site_fract_x
_atom_site_fract_y
_atom_site_fract_z
Si Si1 0.409533 0.308623 0.312494
Si Si2 0.183757 0.688204 0.395714
Si Si3 0.781471 0.189661 0.813225
Si Si4 0.644936 0.692619 0.238570
Si Si5 0.984365 0.183163 0.116436
Si Si6 0.449111 0.692665 0.108013
O O1 0.500000 0.258204 0.500000
O O2 0.408243 0.500000 0.311019
O O3 0.312932 0.250011 0.246692
O O4 0.422012 0.253590 0.198874
O O5 0.192126 0.500000 0.398062
O O6 0.212763 0.757093 0.310033
O O7 0.257555 0.746072 0.582915
O O8 0.074655 0.730859 0.281689
O O9 0.784470 0.000000 0.818810
O O10 0.877984 0.247043 0.996556
O O11 0.646116 0.500000 0.238118
O O12 0.555235 0.738633 0.203783
O O13 0.620621 0.744084 0.080577
O O14 0.987517 0.000000 0.155241
O O15 0.000000 0.187686 0.000000
O O16 0.448237 0.500000 0.108245
#
# Coordination Sequence:
#
# PCOD9141731 Si02
#       6
#     4   4   4   4   4   4
#     4  10  19  30  47  71  94 116 148 187 222 261
#     4  10  17  26  46  73  93 111 147 192 226 262
#     4  10  20  32  45  63  92 126 152 178 220 272
#     4   8  14  25  43  67  92 117 144 177 221 269
#     4   8  16  30  44  61  88 120 150 181 223 270
#     4   8  14  26  43  64  93 122 143 173 222 269
#
# _framework density 16.965382999999999
#
# number of rings (size 3 to 8) (size 9 to 14) (size 15 to 20)
#    0.000    3.000    0.000    4.000    0.000    6.667 
#    0.000    0.000    0.000    3.000    0.000   14.000 
#    0.000    0.000    0.000    0.000    0.000    0.000 
#
# Total GULP energy -133675.369425 kJ/mol
# GULP energy per Si atom -5569.807059 kJ/mol
# Density = 1.692677 g / cm^3
# Si number density = 16.965383 Si / 1000 Ang^3
#
#
#
# Elastic Constant Matrix: (Units=GPa)
#
#
# Indices 1 2 3 4 5 6 
#
# 1 109.4690 15.6521 83.5957 0.0000 12.8488 0.0000
# 2 15.6521 11.3229 23.6188 0.0000 1.6252 0.0000
# 3 83.5957 23.6188 177.7633 0.0000 20.8125 0.0000
# 4 0.0000 0.0000 0.0000 -19.7107 0.0000 14.6076
# 5 12.8488 1.6252 20.8125 0.0000 24.7011 0.0000
# 6 0.0000 0.0000 0.0000 14.6076 0.0000 11.3046
#
#
#
# Elastic Compliance Matrix: (Units=1/GPa)
#
#
# Indices 1 2 3 4 5 6 
#
# 1 0.014922 -0.008634 -0.005578 0.000000 -0.002494 0.000000
# 2 -0.008634 0.128051 -0.013860 0.000000 0.007744 0.000000
# 3 -0.005578 -0.013860 0.010699 0.000000 -0.005201 0.000000
# 4 0.000000 0.000000 0.000000 -0.025916 0.000000 0.033488
# 5 -0.002494 0.007744 -0.005201 0.000000 0.045654 0.000000
# 6 0.000000 0.000000 0.000000 0.033488 0.000000 0.045187
#
#
# Mechanical properties :
#
#
# Convention : Reuss Voigt Hill
#
# Bulk Modulus (GPa) = 10.25345 60.47650 35.36498
# Shear Modulus (GPa) = 16.27331 14.97155 15.62243
#
# Velocity S-wave (km/s) = 3.10047 2.97387 3.03783
# Velocity P-wave (km/s) = 4.34443 6.89321 5.76153
#
# Compressibility (1/GPa) = 0.09752813
#
# Stress axis : x y z
#
# Youngs Moduli (GPa) = 67.01557 7.80937 93.46485
#
# Poissons Ratio (x) = 0.06742 0.52136
# Poissons Ratio (y) = 0.57859 1.29546
# Poissons Ratio (z) = 0.37382 0.10824
#
# Static dielectric constant tensor:
#      x y z
#    x 1.552670 0.000000 0.014530 
#    y 0.000000 1.585450 0.000000 
#    z 0.014530 0.000000 1.598270 
# 
# From -- ./inp_files/52863.got.cif
#   From: 2010.05.17/outbox.cif.g08.bks.cpg/sg10_27_cif.got.tgz:52863.got - 2010.06.03 11:33:40.
