data_PCOD9141092
_publ_section_title
;
Structure prediction by ZEFSAII (Michael W. Deem and Ramdas Pophale) SiO2 
 PCOD9141092
Probable space group: C C
;
_chemical_formula_sum "Si O2"
_cell_formula_units_Z 32
_cell_length_a 21.907260
_cell_length_b 14.578153
_cell_length_c 8.273756
_cell_angle_alpha 90.000000
_cell_angle_beta 30.265349
_cell_angle_gamma 90.000000
_cell_volume 1331.767589
_symmetry_space_group_name_H-M "C C"
_symmetry_group_IT_number 9
_symmetry_cell_setting 'monoclinic'
loop_
_space_group_symop_operation_xyz
x,y,z
x,-y,1/2+z
1/2+x,1/2+y,z
1/2+x,1/2-y,1/2+z
loop_
_atom_site_type_symbol
_atom_site_label
_atom_site_fract_x
_atom_site_fract_y
_atom_site_fract_z
Si Si1 0.563780 0.480986 0.306210
Si Si2 0.867581 0.157144 0.399420
Si Si3 0.928094 0.349855 0.189881
Si Si4 0.122326 0.451536 0.936258
Si Si5 0.243170 0.981655 0.143286
Si Si6 0.858546 0.885353 0.292423
Si Si7 0.879939 0.295710 0.931760
Si Si8 0.615543 0.869197 0.306772
O O1 0.473983 0.398122 0.560857
O O2 0.700582 0.466681 0.057157
O O3 0.491644 0.573995 0.512603
O O4 0.607980 0.496088 0.020876
O O5 0.905600 0.261406 0.350658
O O6 0.842050 0.119902 0.637406
O O7 0.746238 0.160854 0.568524
O O8 0.835356 0.433461 0.432125
O O9 0.906826 0.306997 0.060627
O O10 0.057724 0.388451 0.950071
O O11 0.262712 0.460602 0.571620
O O12 0.068969 0.552454 0.037602
O O13 0.112089 0.413391 0.138222
O O14 0.301749 0.886257 0.067277
O O15 0.825203 0.796561 0.477752
O O16 0.012523 0.294009 0.546805
#
# Coordination Sequence:
#
# PCOD9141092 Si02
#       8
#     4   4   4   4   4   4   4   4
#     4  12  28  49  76 106 152 198 249 305 375 443
#     4  12  28  48  76 110 148 197 246 307 374 443
#     4  12  28  48  76 110 148 197 246 307 374 443
#     4  12  26  46  74 104 144 189 245 300 367 438
#     4  12  28  49  76 106 152 198 249 305 375 443
#     4  12  28  48  76 110 149 194 249 308 371 444
#     4  12  28  48  76 110 149 194 249 308 371 444
#     4  12  26  46  74 104 144 189 245 300 367 438
#
# _framework density 24.028217999999999
#
# number of rings (size 3 to 8) (size 9 to 14) (size 15 to 20)
#    0.000    0.000    5.000    3.750   10.500    1.000 
#    0.000    0.000    0.000    0.000    0.000    0.000 
#    0.000    0.000    0.000    0.000    0.000    0.000 
#
# Total GULP energy -89373.793472 kJ/mol
# GULP energy per Si atom -5585.862092 kJ/mol
# Density = 2.397353 g / cm^3
# Si number density = 24.028218 Si / 1000 Ang^3
#
#
#
# Elastic Constant Matrix: (Units=GPa)
#
#
# Indices 1 2 3 4 5 6 
#
# 1 82.4863 31.4658 24.9395 0.0000 8.6889 0.0000
# 2 31.4658 71.8624 12.5252 0.0000 -13.9417 0.0000
# 3 24.9395 12.5252 85.7465 0.0000 -7.5320 0.0000
# 4 0.0000 0.0000 0.0000 33.7169 0.0000 -2.1469
# 5 8.6889 -13.9417 -7.5320 0.0000 27.8244 0.0000
# 6 0.0000 0.0000 0.0000 -2.1469 0.0000 26.1000
#
#
#
# Elastic Compliance Matrix: (Units=1/GPa)
#
#
# Indices 1 2 3 4 5 6 
#
# 1 0.018558 -0.009565 -0.005051 0.000000 -0.011955 0.000000
# 2 -0.009565 0.020564 0.000969 0.000000 0.013553 0.000000
# 3 -0.005051 0.000969 0.013492 0.000000 0.005715 0.000000
# 4 0.000000 0.000000 0.000000 0.029815 0.000000 0.002452
# 5 -0.011955 0.013553 0.005715 0.000000 0.048011 0.000000
# 6 0.000000 0.000000 0.000000 0.002452 0.000000 0.038516
#
#
# Mechanical properties :
#
#
# Convention : Reuss Voigt Hill
#
# Bulk Modulus (GPa) = 39.49427 41.99515 40.74471
# Shear Modulus (GPa) = 24.42715 28.93923 26.68319
#
# Velocity S-wave (km/s) = 3.19188 3.47419 3.33602
# Velocity P-wave (km/s) = 5.48237 5.79730 5.64204
#
# Compressibility (1/GPa) = 0.02532013
#
# Stress axis : x y z
#
# Youngs Moduli (GPa) = 53.88396 48.62819 74.11924
#
# Poissons Ratio (x) = 0.46513 0.37435
# Poissons Ratio (y) = 0.51540 -0.07180
# Poissons Ratio (z) = 0.27215 -0.04710
#
# Static dielectric constant tensor:
#      x y z
#    x 1.952950 0.000000 0.102060 
#    y 0.000000 1.875980 0.000000 
#    z 0.102060 0.000000 1.925390 
# 
# From -- ./inp_files/11778.got.cif
#   From: 2010.05.17/outbox.cif.g08.bks.cpg/sg9_6_cif.got.tgz:11778.got - 2010.06.03 20:04:27.
