data_PCOD9141073
_publ_section_title
;
Structure prediction by ZEFSAII (Michael W. Deem and Ramdas Pophale) SiO2 
 PCOD9141073
Probable space group: C C
;
_chemical_formula_sum "Si O2"
_cell_formula_units_Z 28
_cell_length_a 15.641552
_cell_length_b 11.302598
_cell_length_c 10.238132
_cell_angle_alpha 90.000000
_cell_angle_beta 33.309180
_cell_angle_gamma 90.000000
_cell_volume 993.974299
_symmetry_space_group_name_H-M "C C"
_symmetry_group_IT_number 9
_symmetry_cell_setting 'monoclinic'
loop_
_space_group_symop_operation_xyz
x,y,z
x,-y,1/2+z
1/2+x,1/2+y,z
1/2+x,1/2-y,1/2+z
loop_
_atom_site_type_symbol
_atom_site_label
_atom_site_fract_x
_atom_site_fract_y
_atom_site_fract_z
Si Si1 0.234790 0.430251 0.425950
Si Si2 0.887800 0.146680 0.322733
Si Si3 0.478176 0.743359 0.492685
Si Si4 0.236786 0.132577 0.054259
Si Si5 0.925704 0.315514 0.922243
Si Si6 0.493763 0.008785 0.570871
Si Si7 0.583384 0.603533 0.819990
O O1 0.286079 0.528326 0.464590
O O2 0.075655 0.358166 0.649213
O O3 0.173722 0.509367 0.382308
O O4 0.370970 0.341972 0.214339
O O5 0.949654 0.211846 0.375076
O O6 0.773899 0.252100 0.417372
O O7 0.022148 0.109306 0.048248
O O8 0.453519 0.880490 0.559000
O O9 0.659092 0.702961 0.277777
O O10 0.390912 0.053641 0.826880
O O11 0.113823 0.022806 0.215791
O O12 0.957289 0.179083 0.905996
O O13 0.950541 0.395710 0.017943
O O14 0.750592 0.333078 0.099744
#
# Coordination Sequence:
#
# PCOD9141073 Si02
#       7
#     4   4   4   4   4   4   4
#     4  12  27  50  76 118 164 213 276 348 412 498
#     4  12  28  50  83 115 164 217 282 341 420 494
#     4  12  27  50  78 119 158 220 273 342 414 507
#     4  12  25  50  80 111 163 209 273 339 415 493
#     4  12  27  47  81 113 166 217 273 339 416 502
#     4  12  27  49  80 115 166 212 272 342 420 491
#     4  12  27  50  78 121 157 220 279 341 413 501
#
# _framework density 28.169741999999999
#
# number of rings (size 3 to 8) (size 9 to 14) (size 15 to 20)
#    0.000    0.000    4.286    5.143    4.000    1.143 
#    2.571    0.000    0.000    0.000    0.000    0.000 
#    0.000    0.000    0.000    0.000    0.000    0.000 
#
# Total GULP energy -78237.072566 kJ/mol
# GULP energy per Si atom -5588.362326 kJ/mol
# Density = 2.810563 g / cm^3
# Si number density = 28.169742 Si / 1000 Ang^3
#
#
#
# Elastic Constant Matrix: (Units=GPa)
#
#
# Indices 1 2 3 4 5 6 
#
# 1 94.8156 32.0046 29.4036 0.0000 9.8724 0.0000
# 2 32.0046 213.3673 69.0217 0.0000 1.1701 0.0000
# 3 29.4036 69.0217 195.8720 0.0000 5.0593 0.0000
# 4 0.0000 0.0000 0.0000 63.1392 0.0000 -4.1132
# 5 9.8724 1.1701 5.0593 0.0000 37.7309 0.0000
# 6 0.0000 0.0000 0.0000 -4.1132 0.0000 44.4024
#
#
#
# Elastic Compliance Matrix: (Units=1/GPa)
#
#
# Indices 1 2 3 4 5 6 
#
# 1 0.011671 -0.001345 -0.001204 0.000000 -0.002851 0.000000
# 2 -0.001345 0.005445 -0.001728 0.000000 0.000415 0.000000
# 3 -0.001204 -0.001728 0.005906 0.000000 -0.000423 0.000000
# 4 0.000000 0.000000 0.000000 0.015934 0.000000 0.001476
# 5 -0.002851 0.000415 -0.000423 0.000000 0.027293 0.000000
# 6 0.000000 0.000000 0.000000 0.001476 0.000000 0.022658
#
#
# Mechanical properties :
#
#
# Convention : Reuss Voigt Hill
#
# Bulk Modulus (GPa) = 69.11963 84.99051 77.05507
# Shear Modulus (GPa) = 48.88319 53.96284 51.42302
#
# Velocity S-wave (km/s) = 4.17022 4.38154 4.27719
# Velocity P-wave (km/s) = 6.91215 7.47219 7.19762
#
# Compressibility (1/GPa) = 0.01446767
#
# Stress axis : x y z
#
# Youngs Moduli (GPa) = 85.68091 183.65075 169.32413
#
# Poissons Ratio (x) = 0.24709 0.20392
# Poissons Ratio (y) = 0.11528 0.29251
# Poissons Ratio (z) = 0.10319 0.31726
#
# Static dielectric constant tensor:
#      x y z
#    x 2.558970 0.000000 -0.032440 
#    y 0.000000 2.197900 0.000000 
#    z -0.032440 0.000000 2.272940 
# 
# From -- ./inp_files/19291.got.cif
#   From: 2010.05.17/outbox.cif.g08.bks.cpg/sg9_10_cif.got.tgz:19291.got - 2010.06.03 20:04:27.
