data_PCOD9141012
_publ_section_title
;
Structure prediction by ZEFSAII (Michael W. Deem and Ramdas Pophale) SiO2 
 PCOD9141012
Probable space group: C C
;
_chemical_formula_sum "Si O2"
_cell_formula_units_Z 20
_cell_length_a 11.612015
_cell_length_b 9.294636
_cell_length_c 8.230867
_cell_angle_alpha 90.000000
_cell_angle_beta 57.597673
_cell_angle_gamma 90.000000
_cell_volume 750.041887
_symmetry_space_group_name_H-M "C C"
_symmetry_group_IT_number 9
_symmetry_cell_setting 'monoclinic'
loop_
_space_group_symop_operation_xyz
x,y,z
x,-y,1/2+z
1/2+x,1/2+y,z
1/2+x,1/2-y,1/2+z
loop_
_atom_site_type_symbol
_atom_site_label
_atom_site_fract_x
_atom_site_fract_y
_atom_site_fract_z
Si Si1 0.842200 0.946593 0.931360
Si Si2 0.129258 0.694360 0.145666
Si Si3 0.763749 0.484695 0.945514
Si Si4 0.893019 0.670005 0.065746
Si Si5 0.011586 0.151383 0.010905
O O1 0.884741 0.868769 0.731093
O O2 0.825740 0.820269 0.072576
O O3 0.716856 0.054476 0.037077
O O4 0.969001 0.042593 0.898554
O O5 0.020745 0.704067 0.081403
O O6 0.054238 0.706562 0.378117
O O7 0.225407 0.836617 0.066399
O O8 0.790968 0.426000 0.745933
O O9 0.898343 0.571803 0.901283
O O10 0.640153 0.596313 0.017313
#
# Coordination Sequence:
#
# PCOD9141012 Si02
#       5
#     4   4   4   4   4
#     4  12  27  52  86 118 166 226 276 350 425 500
#     4  12  27  53  84 117 166 221 278 347 423 509
#     4  12  25  52  80 114 168 219 265 359 419 497
#     4  12  29  52  80 123 165 213 289 341 424 510
#     4  12  24  53  84 116 171 215 274 351 419 490
#
# _framework density 26.665175999999999
#
# number of rings (size 3 to 8) (size 9 to 14) (size 15 to 20)
#    0.000    0.000    6.000    2.400    2.800    4.800 
#    3.600    0.000    0.000    0.000    0.000    0.000 
#    0.000    0.000    0.000    0.000    0.000    0.000 
#
# Total GULP energy -55986.832592 kJ/mol
# GULP energy per Si atom -5598.683259 kJ/mol
# Density = 2.660449 g / cm^3
# Si number density = 26.665176 Si / 1000 Ang^3
#
#
#
# Elastic Constant Matrix: (Units=GPa)
#
#
# Indices 1 2 3 4 5 6 
#
# 1 109.6826 80.3519 43.8701 0.0000 10.8225 0.0000
# 2 80.3519 170.3283 57.6122 0.0000 -1.0241 0.0000
# 3 43.8701 57.6122 125.7841 0.0000 7.8171 0.0000
# 4 0.0000 0.0000 0.0000 37.0143 0.0000 9.1280
# 5 10.8225 -1.0241 7.8171 0.0000 21.0510 0.0000
# 6 0.0000 0.0000 0.0000 9.1280 0.0000 60.9759
#
#
#
# Elastic Compliance Matrix: (Units=1/GPa)
#
#
# Indices 1 2 3 4 5 6 
#
# 1 0.015568 -0.006762 -0.001858 0.000000 -0.007643 0.000000
# 2 -0.006762 0.009934 -0.002496 0.000000 0.004886 0.000000
# 3 -0.001858 -0.002496 0.009918 0.000000 -0.002849 0.000000
# 4 0.000000 0.000000 0.000000 0.028052 0.000000 -0.004199
# 5 -0.007643 0.004886 -0.002849 0.000000 0.052729 0.000000
# 6 0.000000 0.000000 0.000000 -0.004199 0.000000 0.017029
#
#
# Mechanical properties :
#
#
# Convention : Reuss Voigt Hill
#
# Bulk Modulus (GPa) = 75.81197 85.49593 80.65395
# Shear Modulus (GPa) = 31.27807 38.73895 35.00851
#
# Velocity S-wave (km/s) = 3.42861 3.81569 3.62732
# Velocity P-wave (km/s) = 6.64580 7.17948 6.91779
#
# Compressibility (1/GPa) = 0.01319053
#
# Stress axis : x y z
#
# Youngs Moduli (GPa) = 64.23484 100.66127 100.82556
#
# Poissons Ratio (x) = 0.68064 0.18730
# Poissons Ratio (y) = 0.43434 0.25161
# Poissons Ratio (z) = 0.11933 0.25120
#
# Static dielectric constant tensor:
#      x y z
#    x 2.071330 0.000000 0.046650 
#    y 0.000000 2.059680 0.000000 
#    z 0.046650 0.000000 2.194460 
# 
# From -- ./inp_files/6631.got.cif
#   From: 2010.05.17/outbox.cif.g08.bks.cpg/sg9_4_cif.got.tgz:6631.got - 2010.06.03 20:04:27.
