data_PCOD9141349
_publ_section_title
;
Structure prediction by ZEFSAII (Michael W. Deem and Ramdas Pophale) SiO2 
 PCOD9141349
Probable space group: P 2/M
;
_chemical_formula_sum "Si O2"
_cell_formula_units_Z 32
_cell_length_a 22.878194
_cell_length_b 15.961450
_cell_length_c 11.550100
_cell_angle_alpha 90.000000
_cell_angle_beta 22.683941
_cell_angle_gamma 90.000000
_cell_volume 1626.560776
_symmetry_space_group_name_H-M "P 2/M"
_symmetry_group_IT_number 10
_symmetry_cell_setting 'monoclinic'
loop_
_space_group_symop_operation_xyz
x,y,z
-x,y,-z
-x,-y,-z
x,-y,z
loop_
_atom_site_type_symbol
_atom_site_label
_atom_site_fract_x
_atom_site_fract_y
_atom_site_fract_z
Si Si1 0.330792 0.908152 0.958058
Si Si2 0.672496 0.317827 0.222785
Si Si3 0.758954 0.595012 0.288591
Si Si4 0.662350 0.272332 0.645443
Si Si5 0.946941 0.692113 0.273641
Si Si6 0.682427 0.872156 0.286994
Si Si7 0.136935 0.751381 0.327464
Si Si8 0.878174 0.856830 0.137514
O O1 0.511698 0.894947 0.636812
O O2 0.297101 0.905195 0.881072
O O3 0.289110 0.000000 0.079428
O O4 0.242103 0.829343 0.172881
O O5 0.500000 0.325672 0.500000
O O6 0.720251 0.388473 0.225038
O O7 0.691182 0.228538 0.255059
O O8 0.769982 0.308308 0.928543
O O9 0.730873 0.500000 0.374190
O O10 0.662609 0.661546 0.539412
O O11 0.935907 0.620295 0.976393
O O12 0.783730 0.311291 0.513137
O O13 0.737142 0.185433 0.464083
O O14 0.500000 0.260861 0.000000
O O15 0.927092 0.702009 0.446619
O O16 0.026540 0.777271 0.084005
O O17 0.804221 0.899352 0.160051
O O18 0.000000 0.786470 0.500000
O O19 0.000000 0.900358 0.000000
#
# Coordination Sequence:
#
# PCOD9141349 Si02
#       8
#     4   4   4   4   4   4   4   4
#     4  10  21  32  54  93 122 148 185 237 306 347
#     4  11  20  35  59  85 112 152 197 236 286 348
#     4  11  23  41  59  79 119 156 191 243 299 346
#     4  10  22  34  59  86 114 140 201 251 288 335
#     4  10  20  36  57  85 114 154 201 235 283 345
#     4  10  15  32  59  80 115 154 192 234 279 348
#     4  11  20  35  60  87 116 153 191 240 280 349
#     4   9  18  34  54  85 114 148 200 246 278 332
#
# _framework density 19.673411999999999
#
# number of rings (size 3 to 8) (size 9 to 14) (size 15 to 20)
#    0.000    1.750    6.250    2.625    3.500    1.750 
#    0.000    1.250    0.000    1.500    0.000    8.750 
#    0.000    1.250    0.000    0.000    0.000    0.000 
#
# Total GULP energy -178579.755508 kJ/mol
# GULP energy per Si atom -5580.617360 kJ/mol
# Density = 1.962863 g / cm^3
# Si number density = 19.673412 Si / 1000 Ang^3
#
#
#
# Elastic Constant Matrix: (Units=GPa)
#
#
# Indices 1 2 3 4 5 6 
#
# 1 93.5184 1.0852 22.3696 0.0000 -12.7298 0.0000
# 2 1.0852 45.6624 3.9111 0.0000 7.4289 0.0000
# 3 22.3696 3.9111 112.4735 0.0000 6.2150 0.0000
# 4 0.0000 0.0000 0.0000 18.0211 0.0000 -7.3460
# 5 -12.7298 7.4289 6.2150 0.0000 31.9203 0.0000
# 6 0.0000 0.0000 0.0000 -7.3460 0.0000 8.2969
#
#
#
# Elastic Compliance Matrix: (Units=1/GPa)
#
#
# Indices 1 2 3 4 5 6 
#
# 1 0.012105 -0.000965 -0.002682 0.000000 0.005574 0.000000
# 2 -0.000965 0.022867 -0.000291 0.000000 -0.005650 0.000000
# 3 -0.002682 -0.000291 0.009593 0.000000 -0.002870 0.000000
# 4 0.000000 0.000000 0.000000 0.086827 0.000000 0.076876
# 5 0.005574 -0.005650 -0.002870 0.000000 0.035425 0.000000
# 6 0.000000 0.000000 0.000000 0.076876 0.000000 0.188593
#
#
# Mechanical properties :
#
#
# Convention : Reuss Voigt Hill
#
# Bulk Modulus (GPa) = 27.25617 34.04290 30.64953
# Shear Modulus (GPa) = 13.31507 26.60023 19.95765
#
# Velocity S-wave (km/s) = 2.60437 3.68107 3.18850
# Velocity P-wave (km/s) = 4.78832 5.95051 5.40077
#
# Compressibility (1/GPa) = 0.03668895
#
# Stress axis : x y z
#
# Youngs Moduli (GPa) = 82.61377 43.73134 104.24197
#
# Poissons Ratio (x) = 0.04219 0.27957
# Poissons Ratio (y) = 0.07971 0.03034
# Poissons Ratio (z) = 0.22156 0.01273
#
# Static dielectric constant tensor:
#      x y z
#    x 1.748510 0.000000 -0.014660 
#    y 0.000000 1.681430 0.000000 
#    z -0.014660 0.000000 1.688520 
# 
# From -- ./inp_files/57085.got.cif
#   From: 2010.05.17/outbox.cif.g08.bks.cpg/sg10_29_cif.got.tgz:57085.got - 2010.06.03 11:33:40.
