data_PCOD9141221
_publ_section_title
;
Structure prediction by ZEFSAII (Michael W. Deem and Ramdas Pophale) SiO2 
 PCOD9141221
Probable space group: C C
;
_chemical_formula_sum "Si O2"
_cell_formula_units_Z 14
_cell_length_a 15.000000
_cell_length_b 12.000000
_cell_length_c 9.000000
_cell_angle_alpha 90.000000
_cell_angle_beta 120.000000
_cell_angle_gamma 90.000000
_cell_volume 1402.961154
_symmetry_space_group_name_H-M "C C"
_symmetry_group_IT_number 9
_symmetry_cell_setting 'monoclinic'
loop_
_space_group_symop_operation_xyz
x,y,z
x,-y,1/2+z
1/2+x,1/2+y,z
1/2+x,1/2-y,1/2+z
loop_
_atom_site_type_symbol
_atom_site_label
_atom_site_fract_x
_atom_site_fract_y
_atom_site_fract_z
Si Si1 0.809310 0.588248 0.760800
Si Si2 0.712193 0.073695 0.333372
Si Si3 0.553223 0.824055 0.921558
Si Si4 0.868516 0.624350 0.476482
Si Si5 0.701974 0.192197 0.791410
Si Si6 0.120531 0.757853 0.034450
Si Si7 0.916100 0.223944 0.543029
O O1 0.869765 0.593311 0.652788
O O2 0.805159 0.467414 0.830327
O O3 0.699196 0.641564 0.632398
O O4 0.861506 0.666294 0.929748
O O5 0.621716 0.090842 0.380601
O O6 0.667495 0.151009 0.162645
O O7 0.824010 0.130420 0.471533
O O8 0.720232 0.942037 0.303686
O O9 0.478280 0.874528 0.984914
O O10 0.478601 0.753553 0.747860
O O11 0.643913 0.766588 0.093864
O O12 0.808520 0.741501 0.407431
O O13 0.629402 0.225168 0.869980
O O14 0.009082 0.794162 0.002312
#
# Coordination Sequence:
#
# PCOD9141221 Si02
#       7
#     4   4   4   4   4   4   4
#     4  10  22  40  63  92 125 166 216 262 314 382
#     4  10  22  40  66  94 130 166 214 264 317 390
#     4  11  23  36  65  95 128 166 213 262 316 382
#     4  11  24  40  64  93 128 166 214 269 316 377
#     4  11  23  41  62  99 129 161 215 274 314 382
#     4   9  21  40  65  90 126 172 210 259 322 382
#     4  10  21  41  65  93 128 173 210 256 325 387
#
# _framework density 9.9788940000000004
#
# number of rings (size 3 to 8) (size 9 to 14) (size 15 to 20)
#    0.000    1.714    0.000    3.429    8.000    2.286 
#    2.571    0.000    3.143    0.000    0.000    0.000 
#    0.000    0.000    0.000    0.000    0.000    0.000 
#
# Total GULP energy -78144.861871 kJ/mol
# GULP energy per Si atom -5581.775848 kJ/mol
# Density = 0.995618 g / cm^3
# Si number density = 9.978894 Si / 1000 Ang^3
#
#
#
# Elastic Constant Matrix: (Units=GPa)
#
#
# Indices 1 2 3 4 5 6 
#
# 1 109.5900 29.7385 4.7755 0.0000 4.0514 0.0000
# 2 29.7385 92.7678 19.5241 0.0000 3.0568 0.0000
# 3 4.7755 19.5241 106.3990 0.0000 -1.6666 0.0000
# 4 0.0000 0.0000 0.0000 20.8414 0.0000 -3.5358
# 5 4.0514 3.0568 -1.6666 0.0000 35.5711 0.0000
# 6 0.0000 0.0000 0.0000 -3.5358 0.0000 15.7301
#
#
#
# Elastic Compliance Matrix: (Units=1/GPa)
#
#
# Indices 1 2 3 4 5 6 
#
# 1 0.010023 -0.003211 0.000126 0.000000 -0.000860 0.000000
# 2 -0.003211 0.012282 -0.002122 0.000000 -0.000789 0.000000
# 3 0.000126 -0.002122 0.009792 0.000000 0.000627 0.000000
# 4 0.000000 0.000000 0.000000 0.049884 0.000000 0.011213
# 5 -0.000860 -0.000789 0.000627 0.000000 0.028308 0.000000
# 6 0.000000 0.000000 0.000000 0.011213 0.000000 0.066093
#
#
# Mechanical properties :
#
#
# Convention : Reuss Voigt Hill
#
# Bulk Modulus (GPa) = 46.12096 46.31479 46.21788
# Shear Modulus (GPa) = 25.77029 31.40976 28.59003
#
# Velocity S-wave (km/s) = 3.59728 3.97143 3.78898
# Velocity P-wave (km/s) = 6.35715 6.65481 6.50768
#
# Compressibility (1/GPa) = 0.02168211
#
# Stress axis : x y z
#
# Youngs Moduli (GPa) = 99.77461 81.42283 102.12298
#
# Poissons Ratio (x) = 0.26146 -0.01286
# Poissons Ratio (y) = 0.32039 0.21669
# Poissons Ratio (z) = -0.01256 0.17277
#
# Static dielectric constant tensor:
#      x y z
#    x 1.725790 0.000000 -0.011930 
#    y 0.000000 1.681830 0.000000 
#    z -0.011930 0.000000 1.746320 
# 
# From -- ./inp_files/8903.got.cif
#   From: 2010.05.17/outbox.ucp.g08.bks.cvg/sg9_5_cif.got.tgz:8903.got - 2010.06.11 13:03:20.
