data_PCOD9141601
_publ_section_title
;
Structure prediction by ZEFSAII (Michael W. Deem and Ramdas Pophale) SiO2 
 PCOD9141601
Probable space group: P 2/M
;
_chemical_formula_sum "Si O2"
_cell_formula_units_Z 28
_cell_length_a 18.118627
_cell_length_b 9.270322
_cell_length_c 14.640293
_cell_angle_alpha 90.000000
_cell_angle_beta 129.364723
_cell_angle_gamma 90.000000
_cell_volume 1901.162140
_symmetry_space_group_name_H-M "P 2/M"
_symmetry_group_IT_number 10
_symmetry_cell_setting 'monoclinic'
loop_
_space_group_symop_operation_xyz
x,y,z
-x,y,-z
-x,-y,-z
x,-y,z
loop_
_atom_site_type_symbol
_atom_site_label
_atom_site_fract_x
_atom_site_fract_y
_atom_site_fract_z
Si Si1 0.031886 0.827056 0.811686
Si Si2 0.196582 0.327571 0.056639
Si Si3 0.452451 0.165916 0.861329
Si Si4 0.099566 0.833834 0.135589
Si Si5 0.074760 0.827564 0.637507
Si Si6 0.723570 0.328802 0.201562
Si Si7 0.371863 0.329323 0.071952
O O1 0.935223 0.789429 0.790888
O O2 0.031945 0.797791 0.704408
O O3 0.045969 0.000000 0.836316
O O4 0.119289 0.743719 0.927622
O O5 0.185223 0.500000 0.046360
O O6 0.172543 0.264590 0.137376
O O7 0.301042 0.292573 0.099147
O O8 0.355575 0.255943 0.795819
O O9 0.531323 0.239099 0.858880
O O10 0.434081 0.000000 0.822639
O O11 0.500000 0.167929 0.000000
O O12 0.132102 0.000000 0.161738
O O13 0.000000 0.829424 0.000000
O O14 0.173986 0.743917 0.706194
O O15 0.000000 0.789191 0.500000
O O16 0.092966 0.000000 0.646558
O O17 0.727703 0.500000 0.219339
O O18 0.687263 0.304720 0.068645
O O19 0.393982 0.500000 0.092211
#
# Coordination Sequence:
#
# PCOD9141601 Si02
#       7
#     4   4   4   4   4   4   4
#     4   9  17  29  42  55  79 111 141 175 214 251
#     4  10  17  25  39  61  85 110 140 171 204 246
#     4   9  17  27  41  61  81 107 142 173 204 247
#     4   8  15  26  38  55  78 108 140 168 205 251
#     4  10  20  32  46  63  82 109 148 188 218 246
#     4  10  18  30  44  58  82 113 141 174 215 253
#     4   9  17  27  39  59  86 113 139 168 206 250
#
# _framework density 14.727834
#
# number of rings (size 3 to 8) (size 9 to 14) (size 15 to 20)
#    0.000    2.714    1.429    2.143    0.000    6.286 
#    0.000    0.000    0.000    0.000    0.000    0.000 
#    0.000    1.143    0.000   13.143    0.000    3.286 
#
# Total GULP energy -155947.065864 kJ/mol
# GULP energy per Si atom -5569.538067 kJ/mol
# Density = 1.469431 g / cm^3
# Si number density = 14.727834 Si / 1000 Ang^3
#
#
#
# Elastic Constant Matrix: (Units=GPa)
#
#
# Indices 1 2 3 4 5 6 
#
# 1 164.2396 75.0273 46.4452 0.0000 9.1709 0.0000
# 2 75.0273 63.4929 32.4502 0.0000 8.4160 0.0000
# 3 46.4452 32.4502 45.9497 0.0000 2.2548 0.0000
# 4 0.0000 0.0000 0.0000 13.1188 0.0000 5.8947
# 5 9.1709 8.4160 2.2548 0.0000 11.6896 0.0000
# 6 0.0000 0.0000 0.0000 5.8947 0.0000 29.2713
#
#
#
# Elastic Compliance Matrix: (Units=1/GPa)
#
#
# Indices 1 2 3 4 5 6 
#
# 1 0.013634 -0.014235 -0.003742 0.000000 0.000274 0.000000
# 2 -0.014235 0.042219 -0.014621 0.000000 -0.016407 0.000000
# 3 -0.003742 -0.014621 0.035547 0.000000 0.006606 0.000000
# 4 0.000000 0.000000 0.000000 0.083811 0.000000 -0.016878
# 5 0.000274 -0.016407 0.006606 0.000000 0.095869 0.000000
# 6 0.000000 0.000000 0.000000 -0.016878 0.000000 0.037562
#
#
# Mechanical properties :
#
#
# Convention : Reuss Voigt Hill
#
# Bulk Modulus (GPa) = 38.16376 64.61420 51.38898
# Shear Modulus (GPa) = 13.06941 18.79989 15.93465
#
# Velocity S-wave (km/s) = 2.98215 3.57667 3.29286
# Velocity P-wave (km/s) = 6.15033 7.81180 7.03032
#
# Compressibility (1/GPa) = 0.02620287
#
# Stress axis : x y z
#
# Youngs Moduli (GPa) = 73.34394 23.68630 28.13200
#
# Poissons Ratio (x) = 0.33718 0.10526
# Poissons Ratio (y) = 1.04407 0.41133
# Poissons Ratio (z) = 0.27444 0.34633
#
# Static dielectric constant tensor:
#      x y z
#    x 1.512470 0.000000 -0.013760 
#    y 0.000000 1.491050 0.000000 
#    z -0.013760 0.000000 1.446680 
# 
# From -- ./inp_files/63366.got.cif
#   From: 2010.05.17/outbox.cif.g08.bks.cpg/sg10_32_cif.got.tgz:63366.got - 2010.06.03 11:33:40.
