data_PCOD9141729
_publ_section_title
;
Structure prediction by ZEFSAII (Michael W. Deem and Ramdas Pophale) SiO2 
 PCOD9141729
Probable space group: P 2/M
;
_chemical_formula_sum "Si O2"
_cell_formula_units_Z 26
_cell_length_a 8.044830
_cell_length_b 20.638395
_cell_length_c 7.567433
_cell_angle_alpha 90.000000
_cell_angle_beta 79.392372
_cell_angle_gamma 90.000000
_cell_volume 1234.967433
_symmetry_space_group_name_H-M "P 2/M"
_symmetry_group_IT_number 10
_symmetry_cell_setting 'monoclinic'
loop_
_space_group_symop_operation_xyz
x,y,z
-x,y,-z
-x,-y,-z
x,-y,z
loop_
_atom_site_type_symbol
_atom_site_label
_atom_site_fract_x
_atom_site_fract_y
_atom_site_fract_z
Si Si1 0.354003 0.928880 0.380335
Si Si2 0.491492 0.199231 0.794121
Si Si3 0.897584 0.781252 0.197371
Si Si4 0.151431 0.424633 0.203829
Si Si5 0.000000 0.133776 0.500000
Si Si6 0.179932 0.628574 0.793626
Si Si7 0.544808 0.341359 0.776486
O O1 0.500000 0.931951 0.500000
O O2 0.408281 0.865548 0.263844
O O3 0.165421 0.911430 0.479796
O O4 0.352313 0.000000 0.292582
O O5 0.296908 0.194866 0.771632
O O6 0.566283 0.267123 0.709204
O O7 0.500000 0.207482 0.000000
O O8 0.993007 0.817811 0.334974
O O9 0.882590 0.703151 0.209076
O O10 0.000000 0.796394 0.000000
O O11 0.193335 0.500000 0.200781
O O12 0.286600 0.382049 0.282050
O O13 0.955330 0.412823 0.288536
O O14 0.168685 0.398227 0.997768
O O15 0.378851 0.629511 0.716060
O O16 0.500000 0.341434 0.000000
#
# Coordination Sequence:
#
# PCOD9141729 Si02
#       7
#     4   4   4   4   2   4   4
#     4  11  24  44  64  89 130 163 202 261 317 383
#     4  10  20  38  64  90 122 168 209 262 318 367
#     4  11  21  38  62  94 129 164 212 268 315 364
#     4  10  17  26  45  77 114 158 199 245 312 367
#     4  12  25  40  68  98 123 168 212 256 323 378
#     4   9  17  29  46  72 113 154 192 251 299 349
#     4   8  17  28  45  75 109 147 195 251 298 351
#
# _framework density 21.053187999999999
#
# number of rings (size 3 to 8) (size 9 to 14) (size 15 to 20)
#    0.000    2.000    3.077    3.000    2.154    3.692 
#    0.000    0.000    0.000    2.308    0.000    2.154 
#    0.000    3.692    0.000    0.000    0.000    0.000 
#
# Total GULP energy -145061.824193 kJ/mol
# GULP energy per Si atom -5579.300930 kJ/mol
# Density = 2.100527 g / cm^3
# Si number density = 21.053188 Si / 1000 Ang^3
#
#
#
# Elastic Constant Matrix: (Units=GPa)
#
#
# Indices 1 2 3 4 5 6 
#
# 1 148.0217 79.2888 21.7266 0.0000 5.7874 0.0000
# 2 79.2888 149.6996 20.7116 0.0000 -5.2963 0.0000
# 3 21.7266 20.7116 28.4490 0.0000 9.9490 0.0000
# 4 0.0000 0.0000 0.0000 81.1490 0.0000 96.6505
# 5 5.7874 -5.2963 9.9490 0.0000 21.7816 0.0000
# 6 0.0000 0.0000 0.0000 96.6505 0.0000 139.9227
#
#
#
# Elastic Compliance Matrix: (Units=1/GPa)
#
#
# Indices 1 2 3 4 5 6 
#
# 1 0.009948 -0.004912 -0.003188 0.000000 -0.002381 0.000000
# 2 -0.004912 0.010360 -0.006103 0.000000 0.006612 0.000000
# 3 -0.003188 -0.006103 0.050284 0.000000 -0.023605 0.000000
# 4 0.000000 0.000000 0.000000 0.069500 0.000000 -0.048007
# 5 -0.002381 0.006612 -0.023605 0.000000 0.058933 0.000000
# 6 0.000000 0.000000 0.000000 -0.048007 0.000000 0.040307
#
#
# Mechanical properties :
#
#
# Convention : Reuss Voigt Hill
#
# Bulk Modulus (GPa) = 23.70551 63.29158 43.49854
# Shear Modulus (GPa) = 17.74299 62.20022 39.97161
#
# Velocity S-wave (km/s) = 2.90620 5.44137 4.36202
# Velocity P-wave (km/s) = 4.74822 8.34302 6.78791
#
# Compressibility (1/GPa) = 0.04218429
#
# Stress axis : x y z
#
# Youngs Moduli (GPa) = 100.52181 96.52392 19.88705
#
# Poissons Ratio (x) = 0.47414 0.06341
# Poissons Ratio (y) = 0.49378 0.12138
# Poissons Ratio (z) = 0.32051 0.58912
#
# Static dielectric constant tensor:
#      x y z
#    x 1.788190 0.000000 -0.002660 
#    y 0.000000 1.758530 0.000000 
#    z -0.002660 0.000000 1.794180 
# 
# From -- ./inp_files/19607.got.cif
#   From: 2010.05.17/outbox.cif.g08.bks.cpg/sg10_10_cif.got.tgz:19607.got - 2010.06.03 11:33:40.
