data_PCOD9141641
_publ_section_title
;
Structure prediction by ZEFSAII (Michael W. Deem and Ramdas Pophale) SiO2 
 PCOD9141641
Probable space group: P 2/M
;
_chemical_formula_sum "Si O2"
_cell_formula_units_Z 24
_cell_length_a 7.881584
_cell_length_b 8.399605
_cell_length_c 14.596960
_cell_angle_alpha 90.000000
_cell_angle_beta 77.723196
_cell_angle_gamma 90.000000
_cell_volume 944.251993
_symmetry_space_group_name_H-M "P 2/M"
_symmetry_group_IT_number 10
_symmetry_cell_setting 'monoclinic'
loop_
_space_group_symop_operation_xyz
x,y,z
-x,y,-z
-x,-y,-z
x,-y,z
loop_
_atom_site_type_symbol
_atom_site_label
_atom_site_fract_x
_atom_site_fract_y
_atom_site_fract_z
Si Si1 0.001980 0.188271 0.803012
Si Si2 0.756183 0.810603 0.470453
Si Si3 0.130162 0.683745 0.364124
Si Si4 0.481308 0.318170 0.135418
Si Si5 0.598684 0.811563 0.304913
Si Si6 0.231498 0.184305 0.016625
O O1 0.885244 0.275657 0.740760
O O2 0.946766 0.232833 0.912218
O O3 0.202196 0.210037 0.754137
O O4 0.967528 0.000000 0.798116
O O5 0.746701 0.779998 0.580188
O O6 0.615521 0.763029 0.409780
O O7 0.933846 0.724968 0.419893
O O8 0.777867 0.000000 0.455403
O O9 0.167321 0.500000 0.373852
O O10 0.428701 0.500000 0.124406
O O11 0.488984 0.282473 0.242292
O O12 0.362973 0.200256 0.089109
O O13 0.673087 0.288820 0.070303
O O14 0.558218 0.000000 0.303950
O O15 0.222099 0.000000 0.986742
#
# Coordination Sequence:
#
# PCOD9141641 Si02
#       6
#     4   4   4   4   4   4
#     4   9  19  34  53  76 100 130 169 210 248 289
#     4   9  16  28  46  67  97 134 171 206 238 284
#     4  10  17  25  43  71 103 133 161 199 249 299
#     4  11  22  35  52  75 103 132 163 203 252 303
#     4   9  18  33  52  75 101 131 168 207 246 289
#     4  10  20  37  58  74  94 130 173 209 243 294
#
# _framework density 25.416944000000001
#
# number of rings (size 3 to 8) (size 9 to 14) (size 15 to 20)
#    0.000    2.333    0.000    7.000    0.000    5.333 
#    0.000    3.333    0.000    1.000    0.000    7.000 
#    0.000    0.000    0.000    0.000    0.000    0.000 
#
# Total GULP energy -134268.675121 kJ/mol
# GULP energy per Si atom -5594.528130 kJ/mol
# Density = 2.535909 g / cm^3
# Si number density = 25.416944 Si / 1000 Ang^3
#
#
#
# Elastic Constant Matrix: (Units=GPa)
#
#
# Indices 1 2 3 4 5 6 
#
# 1 73.1868 16.4229 -1.7805 0.0000 11.7217 0.0000
# 2 16.4229 45.4879 20.3118 0.0000 9.9400 0.0000
# 3 -1.7805 20.3118 166.7158 0.0000 2.8687 0.0000
# 4 0.0000 0.0000 0.0000 37.7880 0.0000 14.7587
# 5 11.7217 9.9400 2.8687 0.0000 52.5589 0.0000
# 6 0.0000 0.0000 0.0000 14.7587 0.0000 30.2915
#
#
#
# Elastic Compliance Matrix: (Units=1/GPa)
#
#
# Indices 1 2 3 4 5 6 
#
# 1 0.015280 -0.005367 0.000859 0.000000 -0.002440 0.000000
# 2 -0.005367 0.026121 -0.003178 0.000000 -0.003570 0.000000
# 3 0.000859 -0.003178 0.006394 0.000000 0.000061 0.000000
# 4 0.000000 0.000000 0.000000 0.032683 0.000000 -0.015924
# 5 -0.002440 -0.003570 0.000061 0.000000 0.020242 0.000000
# 6 0.000000 0.000000 0.000000 -0.015924 0.000000 0.040771
#
#
# Mechanical properties :
#
#
# Convention : Reuss Voigt Hill
#
# Bulk Modulus (GPa) = 30.84381 39.47766 35.16074
# Shear Modulus (GPa) = 29.82056 40.82344 35.32200
#
# Velocity S-wave (km/s) = 3.42900 4.01203 3.73192
# Velocity P-wave (km/s) = 5.27625 6.08503 5.69502
#
# Compressibility (1/GPa) = 0.03242141
#
# Stress axis : x y z
#
# Youngs Moduli (GPa) = 65.44657 38.28366 156.40648
#
# Poissons Ratio (x) = 0.20547 -0.13436
# Poissons Ratio (y) = 0.35125 0.49711
# Poissons Ratio (z) = -0.05622 0.12168
#
# Static dielectric constant tensor:
#      x y z
#    x 2.152570 0.000000 -0.072640 
#    y 0.000000 1.838620 0.000000 
#    z -0.072640 0.000000 2.084570 
# 
# From -- ./inp_files/57227.got.cif
#   From: 2010.05.17/outbox.cif.g08.bks.cpg/sg10_29_cif.got.tgz:57227.got - 2010.06.03 11:33:40.
