data_PCOD9141500
_publ_section_title
;
Structure prediction by ZEFSAII (Michael W. Deem and Ramdas Pophale) SiO2 
 PCOD9141500
Probable space group: P 2/M
;
_chemical_formula_sum "Si O2"
_cell_formula_units_Z 26
_cell_length_a 7.403914
_cell_length_b 14.381884
_cell_length_c 10.765944
_cell_angle_alpha 90.000000
_cell_angle_beta 69.609122
_cell_angle_gamma 90.000000
_cell_volume 1074.546573
_symmetry_space_group_name_H-M "P 2/M"
_symmetry_group_IT_number 10
_symmetry_cell_setting 'monoclinic'
loop_
_space_group_symop_operation_xyz
x,y,z
-x,y,-z
-x,-y,-z
x,-y,z
loop_
_atom_site_type_symbol
_atom_site_label
_atom_site_fract_x
_atom_site_fract_y
_atom_site_fract_z
Si Si1 0.464672 0.306151 0.752798
Si Si2 0.784235 0.828112 0.588738
Si Si3 0.401471 0.000000 0.285365
Si Si4 0.285946 0.861743 0.673442
Si Si5 0.807743 0.304191 0.957365
Si Si6 0.895251 0.900372 0.889379
Si Si7 0.614681 0.500000 0.342815
Si Si8 0.951182 0.500000 0.862162
O O1 0.665610 0.257265 0.672375
O O2 0.313248 0.244395 0.708788
O O3 0.379593 0.307967 0.910575
O O4 0.458426 0.409221 0.707676
O O5 0.694549 0.865550 0.479268
O O6 0.000000 0.802702 0.500000
O O7 0.759978 0.916948 0.681905
O O8 0.565743 0.080242 0.278134
O O9 0.077654 0.897535 0.756472
O O10 0.796993 0.200763 0.900895
O O11 0.838512 0.400763 0.873288
O O12 0.000000 0.301515 0.000000
O O13 0.781210 0.000000 0.912921
O O14 0.000000 0.900201 0.000000
O O15 0.500000 0.500000 0.500000
O O16 0.850036 0.500000 0.266338
O O17 0.000000 0.500000 0.000000
#
# Coordination Sequence:
#
# PCOD9141500 Si02
#       8
#     4   4   2   4   4   4   2   2
#     4  11  20  35  56  84 112 145 194 242 291 344
#     4  11  24  37  52  77 117 156 189 228 286 351
#     4  10  20  34  58  82 101 136 194 239 281 335
#     4  11  18  34  55  83 108 141 185 242 283 342
#     4  10  16  30  51  81 111 145 182 239 296 348
#     4  10  18  27  48  81 115 136 176 231 293 341
#     4  12  20  30  53  90 121 145 180 253 308 333
#     4  10  16  30  50  76 122 144 182 233 314 349
#
# _framework density 24.196252999999999
#
# number of rings (size 3 to 8) (size 9 to 14) (size 15 to 20)
#    0.000    1.385    6.923    3.923    0.000    0.000 
#    0.000    0.385    0.000    0.923    0.000    2.154 
#    0.000    6.462    0.000    0.000    0.000    0.000 
#
# Total GULP energy -144769.589405 kJ/mol
# GULP energy per Si atom -5568.061131 kJ/mol
# Density = 2.414118 g / cm^3
# Si number density = 24.196253 Si / 1000 Ang^3
#
#
#
# Elastic Constant Matrix: (Units=GPa)
#
#
# Indices 1 2 3 4 5 6 
#
# 1 65.5382 14.8838 33.4940 0.0000 -25.5373 0.0000
# 2 14.8838 283.9560 71.4495 0.0000 -25.7128 0.0000
# 3 33.4940 71.4495 149.0368 0.0000 -44.0006 0.0000
# 4 0.0000 0.0000 0.0000 25.8218 0.0000 10.2057
# 5 -25.5373 -25.7128 -44.0006 0.0000 44.7419 0.0000
# 6 0.0000 0.0000 0.0000 10.2057 0.0000 -4.3725
#
#
#
# Elastic Compliance Matrix: (Units=1/GPa)
#
#
# Indices 1 2 3 4 5 6 
#
# 1 0.019900 0.000276 -0.001697 0.000000 0.009848 0.000000
# 2 0.000276 0.004019 -0.001776 0.000000 0.000721 0.000000
# 3 -0.001697 -0.001776 0.010365 0.000000 0.008203 0.000000
# 4 0.000000 0.000000 0.000000 0.020144 0.000000 0.047017
# 5 0.009848 0.000721 0.008203 0.000000 0.036453 0.000000
# 6 0.000000 0.000000 0.000000 0.047017 0.000000 -0.118960
#
#
# Mechanical properties :
#
#
# Convention : Reuss Voigt Hill
#
# Bulk Modulus (GPa) = 35.85613 82.02064 58.93838
# Shear Modulus (GPa) = -403.64397 38.48513 -182.57942
#
# Velocity S-wave (km/s) = -12.92993 3.99249 -8.69606
# Velocity P-wave (km/s) = 14.42427 7.43135 8.74170
#
# Compressibility (1/GPa) = 0.02788923
#
# Stress axis : x y z
#
# Youngs Moduli (GPa) = 50.25053 248.79402 96.48236
#
# Poissons Ratio (x) = -0.06859 0.16373
# Poissons Ratio (y) = -0.01385 0.17137
# Poissons Ratio (z) = 0.08528 0.44190
#
# Static dielectric constant tensor:
#      x y z
#    x 2.154860 0.000000 0.102580 
#    y 0.000000 2.400680 0.000000 
#    z 0.102580 0.000000 2.028530 
# 
# From -- ./inp_files/62047.got.cif
#   From: 2010.05.17/outbox.cif.g08.bks.cpg/sg10_32_cif.got.tgz:62047.got - 2010.06.03 11:33:40.
