data_PCOD9141884
_publ_section_title
;
Structure prediction by ZEFSAII (Michael W. Deem and Ramdas Pophale) SiO2 
 PCOD9141884
Probable space group: P 2/M
;
_chemical_formula_sum "Si O2"
_cell_formula_units_Z 32
_cell_length_a 21.819070
_cell_length_b 13.481648
_cell_length_c 14.752475
_cell_angle_alpha 90.000000
_cell_angle_beta 22.328263
_cell_angle_gamma 90.000000
_cell_volume 1648.647063
_symmetry_space_group_name_H-M "P 2/M"
_symmetry_group_IT_number 10
_symmetry_cell_setting 'monoclinic'
loop_
_space_group_symop_operation_xyz
x,y,z
-x,y,-z
-x,-y,-z
x,-y,z
loop_
_atom_site_type_symbol
_atom_site_label
_atom_site_fract_x
_atom_site_fract_y
_atom_site_fract_z
Si Si1 0.128328 0.883088 0.743229
Si Si2 0.675533 0.390251 0.304079
Si Si3 0.402775 0.744096 0.435607
Si Si4 0.334259 0.615172 0.019817
Si Si5 0.974180 0.175387 0.317261
Si Si6 0.316203 0.113095 0.929977
Si Si7 0.820917 0.803940 0.701445
Si Si8 0.915913 0.609149 0.806722
O O1 0.286207 0.815961 0.540368
O O2 0.060547 0.857707 0.736520
O O3 0.167344 0.000000 0.694414
O O4 0.000000 0.863283 0.000000
O O5 0.500000 0.376420 0.500000
O O6 0.676244 0.500000 0.345360
O O7 0.699783 0.308818 0.346491
O O8 0.803227 0.388893 0.049328
O O9 0.498775 0.660352 0.247235
O O10 0.543215 0.811142 0.287728
O O11 0.347135 0.500000 0.029963
O O12 0.264883 0.696291 0.184663
O O13 0.203785 0.619024 0.115620
O O14 0.975917 0.294423 0.329545
O O15 0.848594 0.143185 0.567467
O O16 0.151800 0.137709 0.102111
O O17 0.362614 0.000000 0.851733
O O18 0.277291 0.134004 0.089296
O O19 0.000000 0.790900 0.500000
O O20 0.994223 0.500000 0.692771
#
# Coordination Sequence:
#
# PCOD9141884 Si02
#       8
#     4   4   4   4   4   4   4   4
#     4  11  26  44  61  81 112 155 198 242 295 351
#     4  10  17  28  52  85 113 144 186 228 280 340
#     4  11  20  37  57  83 116 152 193 242 288 339
#     4  10  18  32  56  89 123 152 183 227 287 344
#     4  11  20  39  59  83 117 153 194 235 293 343
#     4  10  20  35  58  86 113 142 191 251 298 343
#     4   9  18  32  54  90 117 148 188 236 291 347
#     4  10  18  30  53  86 119 147 183 228 278 341
#
# _framework density 19.409853999999999
#
# number of rings (size 3 to 8) (size 9 to 14) (size 15 to 20)
#    0.000    1.750    5.000    1.875    0.000    3.500 
#    0.000    3.750    0.000   11.625    0.000    0.000 
#    0.000    0.000    0.000    0.000    0.000    0.000 
#
# Total GULP energy -178552.254899 kJ/mol
# GULP energy per Si atom -5579.757966 kJ/mol
# Density = 1.936568 g / cm^3
# Si number density = 19.409854 Si / 1000 Ang^3
#
#
#
# Elastic Constant Matrix: (Units=GPa)
#
#
# Indices 1 2 3 4 5 6 
#
# 1 87.8991 20.4799 16.9757 0.0000 12.2164 0.0000
# 2 20.4799 81.5789 5.4644 0.0000 -1.6343 0.0000
# 3 16.9757 5.4644 19.2501 0.0000 7.7972 0.0000
# 4 0.0000 0.0000 0.0000 -6.6769 0.0000 -18.4054
# 5 12.2164 -1.6343 7.7972 0.0000 18.4650 0.0000
# 6 0.0000 0.0000 0.0000 -18.4054 0.0000 6.3119
#
#
#
# Elastic Compliance Matrix: (Units=1/GPa)
#
#
# Indices 1 2 3 4 5 6 
#
# 1 0.014835 -0.003191 -0.009755 0.000000 -0.005978 0.000000
# 2 -0.003191 0.013335 -0.002780 0.000000 0.004465 0.000000
# 3 -0.009755 -0.002780 0.070962 0.000000 -0.023757 0.000000
# 4 0.000000 0.000000 0.000000 -0.016571 0.000000 -0.048320
# 5 -0.005978 0.004465 -0.023757 0.000000 0.068539 0.000000
# 6 0.000000 0.000000 0.000000 -0.048320 0.000000 0.017529
#
#
# Mechanical properties :
#
#
# Convention : Reuss Voigt Hill
#
# Bulk Modulus (GPa) = 14.77540 30.50757 22.64148
# Shear Modulus (GPa) = 22.45771 13.34052 17.89912
#
# Velocity S-wave (km/s) = 3.40520 2.62450 3.04001
# Velocity P-wave (km/s) = 4.80514 4.99356 4.90026
#
# Compressibility (1/GPa) = 0.06768006
#
# Stress axis : x y z
#
# Youngs Moduli (GPa) = 67.40892 74.99224 14.09200
#
# Poissons Ratio (x) = 0.23927 0.13747
# Poissons Ratio (y) = 0.21507 0.03918
# Poissons Ratio (z) = 0.65758 0.20849
#
# Static dielectric constant tensor:
#      x y z
#    x 1.688650 0.000000 0.031230 
#    y 0.000000 1.718370 0.000000 
#    z 0.031230 0.000000 1.689800 
# 
# From -- ./inp_files/70758.got.cif
#   From: 2010.05.17/outbox.cif.g08.bks.cpg/sg10_36_cif.got.tgz:70758.got - 2010.06.03 11:33:40.
