data_PCOD9141678
_publ_section_title
;
Structure prediction by ZEFSAII (Michael W. Deem and Ramdas Pophale) SiO2 
 PCOD9141678
Probable space group: P 2/M
;
_chemical_formula_sum "Si O2"
_cell_formula_units_Z 32
_cell_length_a 31.295798
_cell_length_b 8.795681
_cell_length_c 16.565266
_cell_angle_alpha 90.000000
_cell_angle_beta 29.723185
_cell_angle_gamma 90.000000
_cell_volume 2260.837271
_symmetry_space_group_name_H-M "P 2/M"
_symmetry_group_IT_number 10
_symmetry_cell_setting 'monoclinic'
loop_
_space_group_symop_operation_xyz
x,y,z
-x,y,-z
-x,-y,-z
x,-y,z
loop_
_atom_site_type_symbol
_atom_site_label
_atom_site_fract_x
_atom_site_fract_y
_atom_site_fract_z
Si Si1 0.811939 0.818108 0.386383
Si Si2 0.513478 0.317131 0.283430
Si Si3 0.179558 0.316807 0.807129
Si Si4 0.635615 0.815685 0.754872
Si Si5 0.662291 0.819656 0.355611
Si Si6 0.472116 0.815911 0.915453
Si Si7 0.597933 0.325255 0.304889
Si Si8 0.989173 0.675416 0.115323
O O1 0.805523 0.745938 0.307728
O O2 0.730168 0.765615 0.573148
O O3 0.903671 0.769942 0.273141
O O4 0.808667 0.000000 0.383577
O O5 0.505821 0.500000 0.298512
O O6 0.421957 0.246523 0.460536
O O7 0.536473 0.259427 0.157181
O O8 0.584345 0.273687 0.235118
O O9 0.181343 0.500000 0.801386
O O10 0.253236 0.253727 0.743956
O O11 0.082443 0.270893 0.993042
O O12 0.563680 0.773370 0.806372
O O13 0.635891 0.000000 0.755765
O O14 0.600179 0.768834 0.900572
O O15 0.651707 0.774447 0.279031
O O16 0.663868 0.000000 0.362836
O O17 0.470546 0.000000 0.910168
O O18 0.500000 0.325861 0.500000
O O19 0.628728 0.500000 0.256595
O O20 0.975639 0.500000 0.161252
O O21 0.000000 0.677705 0.000000
#
# Coordination Sequence:
#
# PCOD9141678 Si02
#       8
#     4   4   4   4   4   4   4   4
#     4  10  17  26  42  62  83 108 141 175 206 240
#     4  10  19  30  43  60  83 110 139 168 203 242
#     4  10  19  30  42  57  82 112 139 168 205 246
#     4   8  16  28  41  59  82 109 138 172 211 240
#     4  11  20  28  42  63  83 105 138 172 201 239
#     4   9  16  29  45  58  79 110 143 174 202 236
#     4   8  16  30  43  56  80 110 134 162 201 241
#     4   8  16  29  41  55  78 109 139 166 202 245
#
# _framework density 14.154048
#
# number of rings (size 3 to 8) (size 9 to 14) (size 15 to 20)
#    0.000    2.750    0.000    5.250    0.000    6.500 
#    0.000    3.125    0.000    0.000    0.000    0.000 
#    0.000    1.000    0.000   11.250    0.000    5.000 
#
# Total GULP energy -178234.859791 kJ/mol
# GULP energy per Si atom -5569.839368 kJ/mol
# Density = 1.412183 g / cm^3
# Si number density = 14.154048 Si / 1000 Ang^3
#
#
#
# Elastic Constant Matrix: (Units=GPa)
#
#
# Indices 1 2 3 4 5 6 
#
# 1 104.3476 37.5308 57.9919 0.0000 -0.2650 0.0000
# 2 37.5308 49.8143 33.6880 0.0000 -5.1341 0.0000
# 3 57.9919 33.6880 98.1120 0.0000 -6.7999 0.0000
# 4 0.0000 0.0000 0.0000 8.7726 0.0000 -4.0187
# 5 -0.2650 -5.1341 -6.7999 0.0000 24.5039 0.0000
# 6 0.0000 0.0000 0.0000 -4.0187 0.0000 20.0745
#
#
#
# Elastic Compliance Matrix: (Units=1/GPa)
#
#
# Indices 1 2 3 4 5 6 
#
# 1 0.016424 -0.007820 -0.007264 0.000000 -0.003477 0.000000
# 2 -0.007820 0.030094 -0.005383 0.000000 0.004727 0.000000
# 3 -0.007264 -0.005383 0.016569 0.000000 0.003392 0.000000
# 4 0.000000 0.000000 0.000000 0.125500 0.000000 0.025124
# 5 -0.003477 0.004727 0.003392 0.000000 0.042704 0.000000
# 6 0.000000 0.000000 0.000000 0.025124 0.000000 0.054844
#
#
# Mechanical properties :
#
#
# Convention : Reuss Voigt Hill
#
# Bulk Modulus (GPa) = 45.14014 56.74392 50.94203
# Shear Modulus (GPa) = 14.94973 18.87441 16.91207
#
# Velocity S-wave (km/s) = 3.25347 3.65567 3.46042
# Velocity P-wave (km/s) = 6.78784 7.61550 7.21355
#
# Compressibility (1/GPa) = 0.02215323
#
# Stress axis : x y z
#
# Youngs Moduli (GPa) = 60.88618 33.22908 60.35246
#
# Poissons Ratio (x) = 0.25986 0.43838
# Poissons Ratio (y) = 0.47614 0.32489
# Poissons Ratio (z) = 0.44226 0.17888
#
# Static dielectric constant tensor:
#      x y z
#    x 1.469720 0.000000 -0.006710 
#    y 0.000000 1.475540 0.000000 
#    z -0.006710 0.000000 1.462500 
# 
# From -- ./inp_files/72526.got.cif
#   From: 2010.05.17/outbox.cif.g08.bks.cpg/sg10_37_cif.got.tgz:72526.got - 2010.06.03 11:33:40.
