data_PCOD9141954
_publ_section_title
;
Structure prediction by ZEFSAII (Michael W. Deem and Ramdas Pophale) SiO2 
 PCOD9141954
Probable space group: P 2/M
;
_chemical_formula_sum "Si O2"
_cell_formula_units_Z 26
_cell_length_a 6.984414
_cell_length_b 20.858713
_cell_length_c 11.152939
_cell_angle_alpha 90.000000
_cell_angle_beta 136.720832
_cell_angle_gamma 90.000000
_cell_volume 1113.905345
_symmetry_space_group_name_H-M "P 2/M"
_symmetry_group_IT_number 10
_symmetry_cell_setting 'monoclinic'
loop_
_space_group_symop_operation_xyz
x,y,z
-x,y,-z
-x,-y,-z
x,-y,z
loop_
_atom_site_type_symbol
_atom_site_label
_atom_site_fract_x
_atom_site_fract_y
_atom_site_fract_z
Si Si1 0.071839 0.204576 0.854151
Si Si2 0.589685 0.777884 0.241212
Si Si3 0.000000 0.121825 0.500000
Si Si4 0.098251 0.341077 0.278373
Si Si5 0.161421 0.928053 0.828822
Si Si6 0.369181 0.363720 0.637288
Si Si7 0.260578 0.429883 0.025757
O O1 0.252169 0.210891 0.812707
O O2 0.996894 0.129628 0.819362
O O3 0.875893 0.265432 0.741360
O O4 0.268349 0.214246 0.059114
O O5 0.632165 0.706530 0.305518
O O6 0.734834 0.829592 0.394701
O O7 0.923143 0.080443 0.348995
O O8 0.121678 0.362057 0.427436
O O9 0.359609 0.369040 0.325753
O O10 0.817493 0.370535 0.095099
O O11 0.097525 0.000000 0.840690
O O12 0.500000 0.918750 0.000000
O O13 0.451992 0.416119 0.773560
O O14 0.257293 0.500000 0.966667
O O15 0.000000 0.430542 0.000000
#
# Coordination Sequence:
#
# PCOD9141954 Si02
#       7
#     4   4   2   4   4   4   4
#     4  10  18  33  50  75  99 133 161 208 245 293
#     4  10  18  30  51  73 101 127 166 201 251 281
#     4  10  17  30  46  72  97 130 160 204 245 290
#     4  10  20  32  52  75 102 126 170 199 248 287
#     4  10  18  29  45  70 100 129 161 202 246 289
#     4  10  19  32  51  77  97 130 164 207 240 293
#     4   9  18  32  49  72 104 131 158 201 247 289
#
# _framework density 23.3413
#
# number of rings (size 3 to 8) (size 9 to 14) (size 15 to 20)
#    0.000    2.154    4.615    2.077    0.000    0.615 
#    0.000    3.077    0.000    1.846    0.000   17.769 
#    0.000    0.000    0.000    0.000    0.000    0.000 
#
# Total GULP energy -145008.850817 kJ/mol
# GULP energy per Si atom -5577.263493 kJ/mol
# Density = 2.328817 g / cm^3
# Si number density = 23.341300 Si / 1000 Ang^3
#
#
#
# Elastic Constant Matrix: (Units=GPa)
#
#
# Indices 1 2 3 4 5 6 
#
# 1 41.4441 -7.2855 5.3594 0.0000 9.9157 0.0000
# 2 -7.2855 121.1245 40.1949 0.0000 -8.2159 0.0000
# 3 5.3594 40.1949 142.2097 0.0000 -1.8363 0.0000
# 4 0.0000 0.0000 0.0000 38.3211 0.0000 -13.2157
# 5 9.9157 -8.2159 -1.8363 0.0000 17.5646 0.0000
# 6 0.0000 0.0000 0.0000 -13.2157 0.0000 22.0637
#
#
#
# Elastic Compliance Matrix: (Units=1/GPa)
#
#
# Indices 1 2 3 4 5 6 
#
# 1 0.028269 0.001174 -0.001598 0.000000 -0.015576 0.000000
# 2 0.001174 0.009448 -0.002670 0.000000 0.003478 0.000000
# 3 -0.001598 -0.002670 0.007853 0.000000 0.000474 0.000000
# 4 0.000000 0.000000 0.000000 0.032889 0.000000 0.019700
# 5 -0.015576 0.003478 0.000474 0.000000 0.067402 0.000000
# 6 0.000000 0.000000 0.000000 0.019700 0.000000 0.057123
#
#
# Mechanical properties :
#
#
# Convention : Reuss Voigt Hill
#
# Bulk Modulus (GPa) = 25.39239 42.36842 33.88041
# Shear Modulus (GPa) = 22.49214 33.35719 27.92466
#
# Velocity S-wave (km/s) = 3.10759 3.78445 3.46260
# Velocity P-wave (km/s) = 4.87632 6.10633 5.52565
#
# Compressibility (1/GPa) = 0.03938187
#
# Stress axis : x y z
#
# Youngs Moduli (GPa) = 35.37486 105.83708 127.34192
#
# Poissons Ratio (x) = -0.12427 0.20354
# Poissons Ratio (y) = -0.04154 0.33999
# Poissons Ratio (z) = 0.05654 0.28258
#
# Static dielectric constant tensor:
#      x y z
#    x 2.000960 0.000000 0.013920 
#    y 0.000000 1.870170 0.000000 
#    z 0.013920 0.000000 1.942120 
# 
# From -- ./inp_files/65448.got.cif
#   From: 2010.05.17/outbox.cif.g08.bks.cpg/sg10_33_cif.got.tgz:65448.got - 2010.06.03 11:33:40.
