data_PCOD9141404
_publ_section_title
;
Structure prediction by ZEFSAII (Michael W. Deem and Ramdas Pophale) SiO2 
 PCOD9141404
Probable space group: P 2/M
;
_chemical_formula_sum "Si O2"
_cell_formula_units_Z 26
_cell_length_a 18.999306
_cell_length_b 20.296729
_cell_length_c 5.407730
_cell_angle_alpha 90.000000
_cell_angle_beta 73.463384
_cell_angle_gamma 90.000000
_cell_volume 1999.095059
_symmetry_space_group_name_H-M "P 2/M"
_symmetry_group_IT_number 10
_symmetry_cell_setting 'monoclinic'
loop_
_space_group_symop_operation_xyz
x,y,z
-x,y,-z
-x,-y,-z
x,-y,z
loop_
_atom_site_type_symbol
_atom_site_label
_atom_site_fract_x
_atom_site_fract_y
_atom_site_fract_z
Si Si1 0.541602 0.080295 0.208398
Si Si2 0.045033 0.142794 0.704967
Si Si3 0.711506 0.080214 0.038494
Si Si4 0.911376 0.353717 0.838624
Si Si5 0.204921 0.079581 0.545079
Si Si6 0.921937 0.298423 0.328063
Si Si7 0.950966 0.500000 0.799034
O O1 0.500000 0.101102 0.500000
O O2 0.626563 0.101023 0.123437
O O3 0.541183 0.000000 0.208817
O O4 0.500000 0.101102 0.000000
O O5 0.122419 0.106014 0.627581
O O6 0.060781 0.221278 0.689219
O O7 0.000000 0.127232 0.500000
O O8 0.000000 0.127231 0.000000
O O9 0.753033 0.100959 0.247256
O O10 0.711600 0.000000 0.038400
O O11 0.753033 0.100959 0.746678
O O12 0.882526 0.320972 0.617277
O O13 0.905904 0.432204 0.844096
O O14 0.998984 0.335812 0.751016
O O15 0.882525 0.320972 0.117671
O O16 0.203623 0.000000 0.546376
O O17 0.000000 0.500000 0.500000
O O18 0.000000 0.500000 0.000000
#
# Coordination Sequence:
#
# PCOD9141404 Si02
#       7
#     4   4   4   4   4   4   2
#     4   9  15  23  40  64  81  95 113 129 152 203
#     4  12  21  31  45  55  65  88 126 168 204 235
#     4   9  17  31  44  56  79  99 111 136 178 229
#     4  10  16  25  36  51  70  86 104 131 180 228
#     4  10  21  33  43  55  71  95 121 153 201 241
#     4  10  16  27  37  49  66  85 107 144 186 220
#     4  12  16  20  34  52  68  88 104 120 158 240
#
# _framework density 13.005884999999999
#
# number of rings (size 3 to 8) (size 9 to 14) (size 15 to 20)
#    0.000    1.846    6.154    1.846    0.000    4.308 
#    0.000    0.000    0.000    0.000    0.000    0.000 
#    0.000    0.000    0.000    0.000    0.000    0.000 
#
# Total GULP energy -144818.455366 kJ/mol
# GULP energy per Si atom -5569.940591 kJ/mol
# Density = 1.297628 g / cm^3
# Si number density = 13.005885 Si / 1000 Ang^3
#
#
#
# Elastic Constant Matrix: (Units=GPa)
#
#
# Indices 1 2 3 4 5 6 
#
# 1 92.4799 18.8497 70.3930 0.0000 4.7078 0.0000
# 2 18.8497 15.0399 16.9812 0.0000 -0.5633 0.0000
# 3 70.3930 16.9812 161.7562 0.0000 16.1770 0.0000
# 4 0.0000 0.0000 0.0000 7.4119 0.0000 2.3115
# 5 4.7078 -0.5633 16.1770 0.0000 22.3092 0.0000
# 6 0.0000 0.0000 0.0000 2.3115 0.0000 -0.2553
#
#
#
# Elastic Compliance Matrix: (Units=1/GPa)
#
#
# Indices 1 2 3 4 5 6 
#
# 1 0.019256 -0.016584 -0.006674 0.000000 0.000358 0.000000
# 2 -0.016584 0.091147 -0.003161 0.000000 0.008093 0.000000
# 3 -0.006674 -0.003161 0.010012 0.000000 -0.005931 0.000000
# 4 0.000000 0.000000 0.000000 0.035287 0.000000 0.319473
# 5 0.000358 0.008093 -0.005931 0.000000 0.049254 0.000000
# 6 0.000000 0.000000 0.000000 0.319473 0.000000 -1.024415
#
#
# Mechanical properties :
#
#
# Convention : Reuss Voigt Hill
#
# Bulk Modulus (GPa) = 14.79825 53.52487 34.16156
# Shear Modulus (GPa) = -6.71958 16.76329 5.02186
#
# Velocity S-wave (km/s) = -2.27547 3.59402 1.96713
# Velocity P-wave (km/s) = 2.12111 7.64633 5.61095
#
# Compressibility (1/GPa) = 0.06757556
#
# Stress axis : x y z
#
# Youngs Moduli (GPa) = 51.93304 10.97127 99.88304
#
# Poissons Ratio (x) = 0.18195 0.66666
# Poissons Ratio (y) = 0.86126 0.31573
# Poissons Ratio (z) = 0.34662 0.03468
#
# Static dielectric constant tensor:
#      x y z
#    x 1.402010 0.000000 0.038760 
#    y 0.000000 1.410790 0.000000 
#    z 0.038760 0.000000 1.530590 
# 
# From -- ./inp_files/9897.got.cif
#   From: 2010.05.17/outbox.cif.g08.bks.cpg/sg10_5_cif.got.tgz:9897.got - 2010.06.03 11:33:40.
