data_PCOD9141634
_publ_section_title
;
Structure prediction by ZEFSAII (Michael W. Deem and Ramdas Pophale) SiO2 
 PCOD9141634
Probable space group: P 2/M
;
_chemical_formula_sum "Si O2"
_cell_formula_units_Z 32
_cell_length_a 12.840285
_cell_length_b 7.684525
_cell_length_c 24.795720
_cell_angle_alpha 90.000000
_cell_angle_beta 46.550275
_cell_angle_gamma 90.000000
_cell_volume 1776.200277
_symmetry_space_group_name_H-M "P 2/M"
_symmetry_group_IT_number 10
_symmetry_cell_setting 'monoclinic'
loop_
_space_group_symop_operation_xyz
x,y,z
-x,y,-z
-x,-y,-z
x,-y,z
loop_
_atom_site_type_symbol
_atom_site_label
_atom_site_fract_x
_atom_site_fract_y
_atom_site_fract_z
Si Si1 0.115320 0.286975 0.684279
Si Si2 0.379758 0.789823 0.999513
Si Si3 0.822873 0.705781 0.839588
Si Si4 0.674167 0.710982 0.582679
Si Si5 0.061503 0.704846 0.581658
Si Si6 0.581290 0.797671 0.839777
Si Si7 0.438783 0.287581 0.580139
Si Si8 0.263789 0.795667 0.319891
O O1 0.116120 0.500000 0.683934
O O2 0.084143 0.226476 0.634164
O O3 0.274215 0.231117 0.644518
O O4 0.982769 0.232633 0.768920
O O5 0.440868 0.724841 0.920544
O O6 0.381897 0.000000 0.997420
O O7 0.500000 0.731647 0.000000
O O8 0.231690 0.736650 0.080157
O O9 0.816205 0.500000 0.831238
O O10 0.710262 0.789618 0.837701
O O11 0.675013 0.500000 0.583584
O O12 0.822671 0.773882 0.502151
O O13 0.544427 0.767703 0.590261
O O14 0.666407 0.770383 0.646837
O O15 0.093245 0.500000 0.574342
O O16 0.897477 0.723064 0.622596
O O17 0.642209 0.719720 0.762811
O O18 0.548649 0.000000 0.840488
O O19 0.500000 0.233365 0.500000
O O20 0.440111 0.500000 0.579409
O O21 0.246446 0.000000 0.315282
#
# Coordination Sequence:
#
# PCOD9141634 Si02
#       8
#     4   4   4   4   4   4   4   4
#     4   9  16  26  44  70  96 119 146 188 231 266
#     4   8  15  28  43  59  86 120 152 181 215 268
#     4  10  17  25  42  69  96 117 142 182 230 271
#     4  10  20  32  50  70  89 119 160 198 227 264
#     4  10  18  31  48  68  93 121 155 191 226 267
#     4   9  18  31  44  60  86 125 158 180 216 269
#     4   9  15  28  49  70  89 115 155 194 228 267
#     4  11  22  33  46  65  94 127 157 188 228 275
#
# _framework density 18.015985000000001
#
# number of rings (size 3 to 8) (size 9 to 14) (size 15 to 20)
#    0.000    2.500    2.500    1.875    0.000    4.750 
#    0.000    0.000    0.000    2.625    0.000    0.875 
#    0.000    7.000    0.000    0.000    0.000    0.000 
#
# Total GULP energy -178364.077828 kJ/mol
# GULP energy per Si atom -5573.877432 kJ/mol
# Density = 1.797498 g / cm^3
# Si number density = 18.015985 Si / 1000 Ang^3
#
#
#
# Elastic Constant Matrix: (Units=GPa)
#
#
# Indices 1 2 3 4 5 6 
#
# 1 75.6890 -14.5291 61.1792 0.0000 8.1961 0.0000
# 2 -14.5291 24.5089 -3.1545 0.0000 -0.0415 0.0000
# 3 61.1792 -3.1545 180.3489 0.0000 -1.3034 0.0000
# 4 0.0000 0.0000 0.0000 22.3404 0.0000 -12.1239
# 5 8.1961 -0.0415 -1.3034 0.0000 15.0349 0.0000
# 6 0.0000 0.0000 0.0000 -12.1239 0.0000 32.3105
#
#
#
# Elastic Compliance Matrix: (Units=1/GPa)
#
#
# Indices 1 2 3 4 5 6 
#
# 1 0.023473 0.012884 -0.007834 0.000000 -0.013440 0.000000
# 2 0.012884 0.047966 -0.003584 0.000000 -0.007202 0.000000
# 3 -0.007834 -0.003584 0.008176 0.000000 0.004970 0.000000
# 4 0.000000 0.000000 0.000000 0.056208 0.000000 0.021091
# 5 -0.013440 -0.007202 0.004970 0.000000 0.074249 0.000000
# 6 0.000000 0.000000 0.000000 0.021091 0.000000 0.038864
#
#
# Mechanical properties :
#
#
# Convention : Reuss Voigt Hill
#
# Bulk Modulus (GPa) = 12.11446 40.83755 26.47600
# Shear Modulus (GPa) = 18.28025 29.74056 24.01040
#
# Velocity S-wave (km/s) = 3.18884 4.06740 3.65461
# Velocity P-wave (km/s) = 4.50524 6.69140 5.70404
#
# Compressibility (1/GPa) = 0.08254601
#
# Stress axis : x y z
#
# Youngs Moduli (GPa) = 42.60209 20.84824 122.31371
#
# Poissons Ratio (x) = -0.26861 0.95826
# Poissons Ratio (y) = -0.54888 0.43833
# Poissons Ratio (z) = 0.33376 0.07471
#
# Static dielectric constant tensor:
#      x y z
#    x 1.569720 0.000000 -0.001150 
#    y 0.000000 1.682160 0.000000 
#    z -0.001150 0.000000 1.673670 
# 
# From -- ./inp_files/54868.got.cif
#   From: 2010.05.17/outbox.cif.g08.bks.cpg/sg10_28_cif.got.tgz:54868.got - 2010.06.03 11:33:40.
