data_PCOD9141257
_publ_section_title
;
Structure prediction by ZEFSAII (Michael W. Deem and Ramdas Pophale) SiO2 
 PCOD9141257
Probable space group: C C
;
_chemical_formula_sum "Si O2"
_cell_formula_units_Z 14
_cell_length_a 12.000000
_cell_length_b 15.000000
_cell_length_c 15.000000
_cell_angle_alpha 90.000000
_cell_angle_beta 30.000000
_cell_angle_gamma 90.000000
_cell_volume 1350.000000
_symmetry_space_group_name_H-M "C C"
_symmetry_group_IT_number 9
_symmetry_cell_setting 'monoclinic'
loop_
_space_group_symop_operation_xyz
x,y,z
x,-y,1/2+z
1/2+x,1/2+y,z
1/2+x,1/2-y,1/2+z
loop_
_atom_site_type_symbol
_atom_site_label
_atom_site_fract_x
_atom_site_fract_y
_atom_site_fract_z
Si Si1 0.531210 0.021542 0.561490
Si Si2 0.970786 0.633960 0.858097
Si Si3 0.928165 0.556473 0.321014
Si Si4 0.002313 0.154873 0.523434
Si Si5 0.227593 0.830336 0.353090
Si Si6 0.736441 0.136210 0.263838
Si Si7 0.335379 0.161707 0.137877
O O1 0.338932 0.094760 0.713134
O O2 0.697083 0.071209 0.377227
O O3 0.569457 0.979722 0.635660
O O4 0.450015 0.933367 0.568116
O O5 0.878692 0.534586 0.907222
O O6 0.903950 0.682025 0.812274
O O7 0.238031 0.628454 0.696686
O O8 0.834548 0.677804 0.033284
O O9 0.695908 0.601540 0.445269
O O10 0.075003 0.612266 0.291042
O O11 0.980308 0.255949 0.575704
O O12 0.109180 0.157270 0.350373
O O13 0.192264 0.736885 0.328103
O O14 0.992290 0.865737 0.553625
#
# Coordination Sequence:
#
# PCOD9141257 Si02
#       7
#     4   4   4   4   4   4   4
#     4  10  24  48  66 112 144 200 257 300 388 443
#     4  11  25  45  71 105 142 192 248 311 369 445
#     4  10  26  45  76 106 149 197 252 309 378 444
#     4  11  25  46  69 107 145 189 256 303 370 449
#     4  11  27  44  72 108 148 196 252 309 387 450
#     4  12  24  48  74 108 154 194 255 317 378 457
#     4  11  23  42  74 102 144 192 248 301 374 442
#
# _framework density 10.370369999999999
#
# number of rings (size 3 to 8) (size 9 to 14) (size 15 to 20)
#    0.000    1.143    4.286    0.000    8.000    4.571 
#    0.000    4.286    0.000    0.000    0.000    0.000 
#    0.000    0.000    0.000    0.000    0.000    0.000 
#
# Total GULP energy -78056.045292 kJ/mol
# GULP energy per Si atom -5575.431807 kJ/mol
# Density = 1.034677 g / cm^3
# Si number density = 10.370370 Si / 1000 Ang^3
#
#
#
# Elastic Constant Matrix: (Units=GPa)
#
#
# Indices 1 2 3 4 5 6 
#
# 1 134.7321 51.8407 42.7550 -0.0010 -9.0536 -0.0012
# 2 51.8407 136.7719 33.0260 0.0067 2.0794 -0.0023
# 3 42.7550 33.0260 144.6145 0.0036 -3.0642 -0.0020
# 4 -0.0010 0.0067 0.0036 35.8173 0.0020 3.0733
# 5 -9.0536 2.0794 -3.0642 0.0020 28.0396 0.0010
# 6 -0.0012 -0.0023 -0.0020 3.0733 0.0010 37.1115
#
#
#
# Elastic Compliance Matrix: (Units=1/GPa)
#
#
# Indices 1 2 3 4 5 6 
#
# 1 0.009483 -0.003154 -0.002018 0.000001 0.003075 0.000000
# 2 -0.003154 0.008804 -0.001116 -0.000002 -0.001793 0.000001
# 3 -0.002018 -0.001116 0.007772 -0.000001 0.000281 0.000000
# 4 0.000001 -0.000002 -0.000001 0.028119 -0.000002 -0.002329
# 5 0.003075 -0.001793 0.000281 -0.000002 0.036820 -0.000001
# 6 0.000000 0.000001 0.000000 -0.002329 -0.000001 0.027139
#
#
# Mechanical properties :
#
#
# Convention : Reuss Voigt Hill
#
# Bulk Modulus (GPa) = 74.16870 74.59579 74.38225
# Shear Modulus (GPa) = 36.98034 39.42680 38.20357
#
# Velocity S-wave (km/s) = 4.22712 4.36470 4.29646
# Velocity P-wave (km/s) = 7.72413 7.83867 7.78161
#
# Compressibility (1/GPa) = 0.01348278
#
# Stress axis : x y z
#
# Youngs Moduli (GPa) = 105.45607 113.59081 128.65983
#
# Poissons Ratio (x) = 0.35822 0.25966
# Poissons Ratio (y) = 0.33257 0.14360
# Poissons Ratio (z) = 0.21283 0.12678
#
# Static dielectric constant tensor:
#      x y z
#    x 1.791260 0.000000 0.045190 
#    y 0.000000 1.789070 0.000000 
#    z 0.045190 0.000000 1.747650 
# 
# From -- ./inp_files/24903.got.cif
#   From: 2010.05.17/outbox.ucp.g08.bks.cvg/sg9_13_cif.got.tgz:24903.got - 2010.06.11 13:03:20.
