data_PCOD9141218
_publ_section_title
;
Structure prediction by ZEFSAII (Michael W. Deem and Ramdas Pophale) SiO2 
 PCOD9141218
Probable space group: C C
;
_chemical_formula_sum "Si O2"
_cell_formula_units_Z 16
_cell_length_a 15.000000
_cell_length_b 21.000000
_cell_length_c 15.000000
_cell_angle_alpha 90.000000
_cell_angle_beta 20.000000
_cell_angle_gamma 90.000000
_cell_volume 1616.045177
_symmetry_space_group_name_H-M "C C"
_symmetry_group_IT_number 9
_symmetry_cell_setting 'monoclinic'
loop_
_space_group_symop_operation_xyz
x,y,z
x,-y,1/2+z
1/2+x,1/2+y,z
1/2+x,1/2-y,1/2+z
loop_
_atom_site_type_symbol
_atom_site_label
_atom_site_fract_x
_atom_site_fract_y
_atom_site_fract_z
Si Si1 0.809280 0.883372 0.845210
Si Si2 0.259183 0.102370 0.439909
Si Si3 0.283486 0.967297 0.319343
Si Si4 0.277075 0.657207 0.185135
Si Si5 0.412615 0.295067 0.920480
Si Si6 0.624183 0.786751 0.654096
Si Si7 0.013557 0.204091 0.532065
Si Si8 0.252865 0.083103 0.657598
O O1 0.788969 0.833648 0.780295
O O2 0.865760 0.847974 0.886386
O O3 0.042707 0.930403 0.593589
O O4 0.542520 0.924820 0.095639
O O5 0.512125 0.147225 0.221198
O O6 0.082225 0.147499 0.539130
O O7 0.182533 0.081829 0.616243
O O8 0.308940 0.037186 0.339083
O O9 0.234935 0.968965 0.256356
O O10 0.171813 0.709387 0.215717
O O11 0.056456 0.602727 0.377508
O O12 0.555038 0.635437 0.884564
O O13 0.660583 0.251150 0.661991
O O14 0.464474 0.319061 0.974535
O O15 0.893209 0.763940 0.359697
O O16 0.759128 0.246686 0.795696
#
# Coordination Sequence:
#
# PCOD9141218 Si02
#       8
#     4   4   4   4   4   4   4   4
#     4  10  21  40  61  89 124 159 197 244 295 351
#     4  11  23  40  64  86 117 164 198 241 308 357
#     4  10  23  39  60  89 123 157 200 246 291 356
#     4   9  19  36  56  80 117 153 188 238 292 341
#     4  10  21  39  64  92 122 157 200 246 294 353
#     4  11  22  35  55  86 118 150 195 245 290 347
#     4  10  23  41  60  88 121 153 201 256 297 351
#     4   9  20  38  56  82 114 147 193 242 283 346
#
# _framework density 9.9007129999999997
#
# number of rings (size 3 to 8) (size 9 to 14) (size 15 to 20)
#    0.000    2.000    0.000    3.000    0.000    8.000 
#    0.000    3.750    0.000    0.000    0.000    0.000 
#    0.000    0.000    0.000    0.000    0.000    0.000 
#
# Total GULP energy -89157.909103 kJ/mol
# GULP energy per Si atom -5572.369319 kJ/mol
# Density = 0.987818 g / cm^3
# Si number density = 9.900713 Si / 1000 Ang^3
#
#
#
# Elastic Constant Matrix: (Units=GPa)
#
#
# Indices 1 2 3 4 5 6 
#
# 1 203.3586 63.3771 16.1400 -0.2459 16.3063 0.0388
# 2 63.3771 85.1834 26.0209 -0.0968 2.4927 0.1078
# 3 16.1400 26.0209 93.7240 -0.4765 -15.4171 0.0827
# 4 -0.2459 -0.0968 -0.4765 18.7983 0.1501 1.7287
# 5 16.3063 2.4927 -15.4171 0.1501 35.8579 -0.0952
# 6 0.0388 0.1078 0.0827 1.7287 -0.0952 47.5155
#
#
#
# Elastic Compliance Matrix: (Units=1/GPa)
#
#
# Indices 1 2 3 4 5 6 
#
# 1 0.006657 -0.004784 -0.000281 0.000078 -0.002816 -0.000003
# 2 -0.004784 0.016497 -0.003860 -0.000068 -0.000631 -0.000026
# 3 -0.000281 -0.003860 0.012758 0.000254 0.005880 -0.000011
# 4 0.000078 -0.000068 0.000254 0.053383 -0.000150 -0.001943
# 5 -0.002816 -0.000631 0.005880 -0.000150 0.031741 0.000063
# 6 -0.000003 -0.000026 -0.000011 -0.001943 0.000063 0.021117
#
#
# Mechanical properties :
#
#
# Convention : Reuss Voigt Hill
#
# Bulk Modulus (GPa) = 55.36814 65.92690 60.64752
# Shear Modulus (GPa) = 30.11626 38.88287 34.49957
#
# Velocity S-wave (km/s) = 3.90412 4.43610 4.17859
# Velocity P-wave (km/s) = 6.95308 7.72043 7.34678
#
# Compressibility (1/GPa) = 0.01806093
#
# Stress axis : x y z
#
# Youngs Moduli (GPa) = 150.22670 60.61890 78.38051
#
# Poissons Ratio (x) = 0.29002 0.02201
# Poissons Ratio (y) = 0.71873 0.30256
# Poissons Ratio (z) = 0.04218 0.23400
#
# Static dielectric constant tensor:
#      x y z
#    x 1.759820 0.000010 0.005540 
#    y 0.000010 1.703760 0.000240 
#    z 0.005540 0.000240 1.710450 
# 
# From -- ./inp_files/26124.got.cif
#   From: 2010.05.17/outbox.ucp.g08.bks.cvg/sg9_14_cif.got.tgz:26124.got - 2010.06.11 13:03:20.
