data_PCOD9141124
_publ_section_title
;
Structure prediction by ZEFSAII (Michael W. Deem and Ramdas Pophale) SiO2 
 PCOD9141124
Probable space group: C C
;
_chemical_formula_sum "Si O2"
_cell_formula_units_Z 32
_cell_length_a 13.978026
_cell_length_b 5.398838
_cell_length_c 18.257873
_cell_angle_alpha 90.000000
_cell_angle_beta 68.962881
_cell_angle_gamma 90.000000
_cell_volume 1285.996990
_symmetry_space_group_name_H-M "C C"
_symmetry_group_IT_number 9
_symmetry_cell_setting 'monoclinic'
loop_
_space_group_symop_operation_xyz
x,y,z
x,-y,1/2+z
1/2+x,1/2+y,z
1/2+x,1/2-y,1/2+z
loop_
_atom_site_type_symbol
_atom_site_label
_atom_site_fract_x
_atom_site_fract_y
_atom_site_fract_z
Si Si1 0.933620 0.446242 0.613550
Si Si2 0.740769 0.310508 0.592920
Si Si3 0.309226 0.844857 0.772767
Si Si4 0.013223 0.286511 0.951507
Si Si5 0.908487 0.993256 0.345902
Si Si6 0.587694 0.881854 0.306508
Si Si7 0.235938 0.145574 0.927142
Si Si8 0.120490 0.693492 0.157630
O O1 0.851672 0.268931 0.597566
O O2 0.864549 0.532827 0.701853
O O3 0.962681 0.639112 0.542343
O O4 0.031045 0.312459 0.621404
O O5 0.754788 0.400651 0.506283
O O6 0.677842 0.543446 0.643763
O O7 0.685112 0.047936 0.613716
O O8 0.390827 0.637109 0.772708
O O9 0.201044 0.737338 0.774909
O O10 0.288887 0.963660 0.856508
O O11 0.057136 0.524865 0.895619
O O12 0.116246 0.139011 0.942384
O O13 0.944180 0.153594 0.909212
O O14 0.795720 0.100385 0.394542
O O15 0.997472 0.195568 0.309970
O O16 0.589050 0.110247 0.248760
#
# Coordination Sequence:
#
# PCOD9141124 Si02
#       8
#     4   4   4   4   4   4   4   4
#     4  12  28  50  80 118 162 220 266 346 414 486
#     4  12  30  51  81 120 164 211 273 338 404 488
#     4  12  27  49  81 113 160 208 277 337 417 490
#     4  12  27  49  81 113 160 208 277 337 417 490
#     4  12  26  50  84 110 156 212 274 338 410 490
#     4  12  27  51  79 116 155 214 270 339 405 503
#     4  12  27  51  79 116 155 214 270 339 405 503
#     4  12  30  51  81 120 164 211 273 338 404 488
#
# _framework density 24.883417999999999
#
# number of rings (size 3 to 8) (size 9 to 14) (size 15 to 20)
#    0.000    0.000    5.000    3.750   10.500    3.000 
#    0.000    0.000    0.000    0.000    0.000    0.000 
#    0.000    0.000    0.000    0.000    0.000    0.000 
#
# Total GULP energy -89559.487390 kJ/mol
# GULP energy per Si atom -5597.467962 kJ/mol
# Density = 2.482678 g / cm^3
# Si number density = 24.883418 Si / 1000 Ang^3
#
#
#
# Elastic Constant Matrix: (Units=GPa)
#
#
# Indices 1 2 3 4 5 6 
#
# 1 163.7836 33.4496 -7.4253 0.0001 21.7940 0.0003
# 2 33.4496 69.1778 20.8429 0.0003 0.5643 0.0007
# 3 -7.4253 20.8429 83.9365 0.0001 16.2293 0.0001
# 4 0.0001 0.0003 0.0001 36.0112 0.0000 -1.4715
# 5 21.7940 0.5643 16.2293 0.0000 33.5429 0.0001
# 6 0.0003 0.0007 0.0001 -1.4715 0.0001 33.8433
#
#
#
# Elastic Compliance Matrix: (Units=1/GPa)
#
#
# Indices 1 2 3 4 5 6 
#
# 1 0.008147 -0.004860 0.003238 0.000000 -0.006778 0.000000
# 2 -0.004860 0.018620 -0.006182 0.000000 0.005835 0.000000
# 3 0.003238 -0.006182 0.015579 0.000000 -0.009538 0.000000
# 4 0.000000 0.000000 0.000000 0.027819 0.000000 0.001210
# 5 -0.006778 0.005835 -0.009538 0.000000 0.038733 0.000000
# 6 0.000000 0.000000 0.000000 0.001210 0.000000 0.029601
#
#
# Mechanical properties :
#
#
# Convention : Reuss Voigt Hill
#
# Bulk Modulus (GPa) = 37.39775 45.62583 41.51179
# Shear Modulus (GPa) = 30.67135 38.68154 34.67644
#
# Velocity S-wave (km/s) = 3.51465 3.94701 3.73709
# Velocity P-wave (km/s) = 5.61535 6.25679 5.94473
#
# Compressibility (1/GPa) = 0.02673958
#
# Stress axis : x y z
#
# Youngs Moduli (GPa) = 122.74724 53.70513 64.18736
#
# Poissons Ratio (x) = 0.26098 -0.20784
# Poissons Ratio (y) = 0.59649 0.39680
# Poissons Ratio (z) = -0.39745 0.33200
#
# Static dielectric constant tensor:
#      x y z
#    x 1.945800 0.000000 -0.024980 
#    y 0.000000 2.029110 0.000000 
#    z -0.024980 0.000000 2.051100 
# 
# From -- ./inp_files/30452.got.cif
#   From: 2010.05.17/outbox.cif.g08.bks.cpg/sg9_16_cif.got.tgz:30452.got - 2010.06.03 20:04:27.
