data_PCOD9141770
_publ_section_title
;
Structure prediction by ZEFSAII (Michael W. Deem and Ramdas Pophale) SiO2 
 PCOD9141770
Probable space group: P 2/M
;
_chemical_formula_sum "Si O2"
_cell_formula_units_Z 32
_cell_length_a 21.771401
_cell_length_b 8.691280
_cell_length_c 11.929905
_cell_angle_alpha 90.000000
_cell_angle_beta 55.803206
_cell_angle_gamma 90.000000
_cell_volume 1867.116592
_symmetry_space_group_name_H-M "P 2/M"
_symmetry_group_IT_number 10
_symmetry_cell_setting 'monoclinic'
loop_
_space_group_symop_operation_xyz
x,y,z
-x,y,-z
-x,-y,-z
x,-y,z
loop_
_atom_site_type_symbol
_atom_site_label
_atom_site_fract_x
_atom_site_fract_y
_atom_site_fract_z
Si Si1 0.107407 0.815879 0.442366
Si Si2 0.321537 0.182440 0.456280
Si Si3 0.450522 0.321490 0.883622
Si Si4 0.983023 0.184180 0.146894
Si Si5 0.478553 0.815073 0.398950
Si Si6 0.831787 0.682804 0.403642
Si Si7 0.953892 0.315877 0.704531
Si Si8 0.615132 0.320230 0.824816
O O1 0.165395 0.752209 0.473120
O O2 0.108899 0.747864 0.315271
O O3 0.029967 0.755105 0.575504
O O4 0.107592 0.000000 0.439135
O O5 0.395863 0.234990 0.445654
O O6 0.246561 0.267804 0.568016
O O7 0.337151 0.221831 0.309918
O O8 0.312690 0.000000 0.479624
O O9 0.433225 0.500000 0.880061
O O10 0.462120 0.234986 0.755654
O O11 0.531965 0.316737 0.858037
O O12 0.393862 0.264988 0.037753
O O13 0.902145 0.248170 0.265046
O O14 0.042778 0.258737 0.171020
O O15 0.983360 0.000000 0.162816
O O16 0.000000 0.218165 0.000000
O O17 0.500000 0.758160 0.500000
O O18 0.476834 0.000000 0.402337
O O19 0.839518 0.500000 0.401631
O O20 0.956513 0.500000 0.696197
O O21 0.638715 0.500000 0.799970
#
# Coordination Sequence:
#
# PCOD9141770 Si02
#       8
#     4   4   4   4   4   4   4   4
#     4  10  17  28  46  68  95 123 154 190 234 286
#     4  10  19  31  48  70  96 126 161 201 248 301
#     4   8  14  25  43  66  91 118 148 187 232 279
#     4  10  20  34  52  74 100 131 169 210 250 294
#     4   9  18  31  47  69  97 129 166 207 246 288
#     4  11  21  33  50  72  99 128 161 204 254 304
#     4  10  17  27  45  70  98 124 154 192 236 281
#     4   8  14  26  43  65  92 118 146 184 234 284
#
# _framework density 17.138725000000001
#
# number of rings (size 3 to 8) (size 9 to 14) (size 15 to 20)
#    0.000    2.500    0.000    7.125    0.000    2.250 
#    0.000    2.500    0.000    1.500    0.000    1.750 
#    0.000    0.000    0.000    0.000    0.000    0.000 
#
# Total GULP energy -178214.440067 kJ/mol
# GULP energy per Si atom -5569.201252 kJ/mol
# Density = 1.709972 g / cm^3
# Si number density = 17.138725 Si / 1000 Ang^3
#
#
#
# Elastic Constant Matrix: (Units=GPa)
#
#
# Indices 1 2 3 4 5 6 
#
# 1 75.2083 32.6643 50.5315 0.0000 17.4383 0.0000
# 2 32.6643 88.9589 35.1945 0.0000 12.1635 0.0000
# 3 50.5315 35.1945 86.4374 0.0000 24.7628 0.0000
# 4 0.0000 0.0000 0.0000 24.8578 0.0000 0.8038
# 5 17.4383 12.1635 24.7628 0.0000 27.8805 0.0000
# 6 0.0000 0.0000 0.0000 0.8038 0.0000 18.2897
#
#
#
# Elastic Compliance Matrix: (Units=1/GPa)
#
#
# Indices 1 2 3 4 5 6 
#
# 1 0.023054 -0.003653 -0.011154 0.000000 -0.002919 0.000000
# 2 -0.003653 0.014016 -0.003318 0.000000 -0.000883 0.000000
# 3 -0.011154 -0.003318 0.022839 0.000000 -0.011861 0.000000
# 4 0.000000 0.000000 0.000000 0.040286 0.000000 -0.001770
# 5 -0.002919 -0.000883 -0.011861 0.000000 0.048613 0.000000
# 6 0.000000 0.000000 0.000000 -0.001770 0.000000 0.054753
#
#
# Mechanical properties :
#
#
# Convention : Reuss Voigt Hill
#
# Bulk Modulus (GPa) = 42.26872 54.15392 48.21132
# Shear Modulus (GPa) = 20.18595 23.01989 21.60292
#
# Velocity S-wave (km/s) = 3.43563 3.66888 3.55417
# Velocity P-wave (km/s) = 6.36037 7.04369 6.71073
#
# Compressibility (1/GPa) = 0.02365815
#
# Stress axis : x y z
#
# Youngs Moduli (GPa) = 43.37659 71.34678 43.78570
#
# Poissons Ratio (x) = 0.26065 0.48837
# Poissons Ratio (y) = 0.15846 0.14530
# Poissons Ratio (z) = 0.48380 0.23675
#
# Static dielectric constant tensor:
#      x y z
#    x 1.640150 0.000000 0.010080 
#    y 0.000000 1.576850 0.000000 
#    z 0.010080 0.000000 1.598470 
# 
# From -- ./inp_files/56387.got.cif
#   From: 2010.05.17/outbox.cif.g08.bks.cpg/sg10_29_cif.got.tgz:56387.got - 2010.06.03 11:33:40.
