data_PCOD9141275
_publ_section_title
;
Structure prediction by ZEFSAII (Michael W. Deem and Ramdas Pophale) SiO2 
 PCOD9141275
Probable space group: C C
;
_chemical_formula_sum "Si O2"
_cell_formula_units_Z 16
_cell_length_a 9.000000
_cell_length_b 12.000000
_cell_length_c 15.000000
_cell_angle_alpha 90.000000
_cell_angle_beta 70.000000
_cell_angle_gamma 90.000000
_cell_volume 1522.302046
_symmetry_space_group_name_H-M "C C"
_symmetry_group_IT_number 9
_symmetry_cell_setting 'monoclinic'
loop_
_space_group_symop_operation_xyz
x,y,z
x,-y,1/2+z
1/2+x,1/2+y,z
1/2+x,1/2-y,1/2+z
loop_
_atom_site_type_symbol
_atom_site_label
_atom_site_fract_x
_atom_site_fract_y
_atom_site_fract_z
Si Si1 0.230230 0.425597 0.017110
Si Si2 0.695226 0.913054 0.359123
Si Si3 0.005957 0.820265 0.197449
Si Si4 0.945076 0.327104 0.999710
Si Si5 0.381728 0.603349 0.108305
Si Si6 0.137527 0.631068 0.292037
Si Si7 0.214121 0.004330 0.081738
Si Si8 0.433772 0.781879 0.522269
O O1 0.275982 0.504511 0.089700
O O2 0.329351 0.311586 0.993855
O O3 0.255484 0.503802 0.925326
O O4 0.047686 0.387395 0.055682
O O5 0.576944 0.827070 0.431600
O O6 0.842413 0.860399 0.276402
O O7 0.602394 0.000117 0.314162
O O8 0.056860 0.706014 0.233927
O O9 0.986877 0.785054 0.098888
O O10 0.136484 0.920799 0.172505
O O11 0.072379 0.311855 0.895232
O O12 0.873725 0.212871 0.049106
O O13 0.812092 0.416636 0.001543
O O14 0.319301 0.630592 0.220573
O O15 0.559740 0.559765 0.070906
O O16 0.330887 0.109471 0.073745
#
# Coordination Sequence:
#
# PCOD9141275 Si02
#       8
#     4   4   4   4   4   4   4   4
#     4  11  23  42  72  97 136 185 217 281 341 395
#     4  11  25  45  65 103 141 177 234 279 340 413
#     4  12  26  43  69 102 139 184 227 282 345 408
#     4  11  25  44  67 100 136 177 228 278 341 405
#     4  12  23  44  70  97 138 177 223 281 338 399
#     4  11  23  42  69  97 133 181 225 278 335 403
#     4  12  24  42  68 101 133 174 228 276 336 409
#     4  12  25  44  70 103 140 181 226 285 344 408
#
# _framework density 10.510398
#
# number of rings (size 3 to 8) (size 9 to 14) (size 15 to 20)
#    0.000    0.500    7.500    1.500    1.750    1.000 
#    0.000    5.000    0.000    0.000    0.000    0.000 
#    0.000    0.000    0.000    0.000    0.000    0.000 
#
# Total GULP energy -89240.631322 kJ/mol
# GULP energy per Si atom -5577.539458 kJ/mol
# Density = 1.048648 g / cm^3
# Si number density = 10.510398 Si / 1000 Ang^3
#
#
#
# Elastic Constant Matrix: (Units=GPa)
#
#
# Indices 1 2 3 4 5 6 
#
# 1 70.1722 41.2396 36.4330 0.0000 -21.2741 0.0000
# 2 41.2396 138.9848 47.6568 0.0000 -18.3774 0.0000
# 3 36.4330 47.6568 102.6490 0.0000 -33.6540 0.0000
# 4 0.0000 0.0000 0.0000 37.4486 0.0000 -0.5070
# 5 -21.2741 -18.3774 -33.6540 0.0000 29.5649 0.0000
# 6 0.0000 0.0000 0.0000 -0.5070 0.0000 51.0657
#
#
#
# Elastic Compliance Matrix: (Units=1/GPa)
#
#
# Indices 1 2 3 4 5 6 
#
# 1 0.020822 -0.004102 -0.002249 0.000000 0.009873 0.000000
# 2 -0.004102 0.009395 -0.003126 0.000000 -0.000669 0.000000
# 3 -0.002249 -0.003126 0.017268 0.000000 0.016095 0.000000
# 4 0.000000 0.000000 0.000000 0.026707 0.000000 0.000265
# 5 0.009873 -0.000669 0.016095 0.000000 0.058834 0.000000
# 6 0.000000 0.000000 0.000000 0.000265 0.000000 0.019585
#
#
# Mechanical properties :
#
#
# Convention : Reuss Voigt Hill
#
# Bulk Modulus (GPa) = 35.04690 62.49609 48.77150
# Shear Modulus (GPa) = 27.61277 36.04761 31.83019
#
# Velocity S-wave (km/s) = 3.62828 4.14557 3.89552
# Velocity P-wave (km/s) = 5.85331 7.26013 6.59435
#
# Compressibility (1/GPa) = 0.02853319
#
# Stress axis : x y z
#
# Youngs Moduli (GPa) = 48.02569 106.43594 57.90966
#
# Poissons Ratio (x) = 0.43656 0.13024
# Poissons Ratio (y) = 0.19699 0.18100
# Poissons Ratio (z) = 0.10801 0.33267
#
# Static dielectric constant tensor:
#      x y z
#    x 1.818060 0.000000 0.029190 
#    y 0.000000 1.762630 0.000000 
#    z 0.029190 0.000000 1.794540 
# 
# From -- ./inp_files/22696.got.cif
#   From: 2010.05.17/outbox.ucp.g08.bks.cvg/sg9_12_cif.got.tgz:22696.got - 2010.06.11 13:03:20.
