data_PCOD9141978
_publ_section_title
;
Structure prediction by ZEFSAII (Michael W. Deem and Ramdas Pophale) SiO2 
 PCOD9141978
Probable space group: P 2/M
;
_chemical_formula_sum "Si O2"
_cell_formula_units_Z 20
_cell_length_a 10.097004
_cell_length_b 13.621292
_cell_length_c 17.116399
_cell_angle_alpha 90.000000
_cell_angle_beta 159.955638
_cell_angle_gamma 90.000000
_cell_volume 806.859038
_symmetry_space_group_name_H-M "P 2/M"
_symmetry_group_IT_number 10
_symmetry_cell_setting 'monoclinic'
loop_
_space_group_symop_operation_xyz
x,y,z
-x,y,-z
-x,-y,-z
x,-y,z
loop_
_atom_site_type_symbol
_atom_site_label
_atom_site_fract_x
_atom_site_fract_y
_atom_site_fract_z
Si Si1 0.817542 0.113206 0.505420
Si Si2 0.427976 0.609014 0.700378
Si Si3 0.166462 0.390762 0.379255
Si Si4 0.400114 0.806918 0.136294
Si Si5 0.094676 0.180944 0.808629
O O1 0.459670 0.137013 0.250713
O O2 0.179849 0.177764 0.673690
O O3 0.778506 0.137190 0.575020
O O4 0.922536 0.000000 0.553518
O O5 0.589792 0.500000 0.801223
O O6 0.358045 0.628936 0.570056
O O7 0.655360 0.693960 0.870647
O O8 0.000000 0.609256 0.500000
O O9 0.500000 0.395651 0.500000
O O10 0.982508 0.500000 0.282383
O O11 0.916653 0.297970 0.214006
O O12 0.101647 0.838119 0.904505
O O13 0.500000 0.139924 0.000000
#
# Coordination Sequence:
#
# PCOD9141978 Si02
#       5
#     4   4   4   4   4
#     4  10  19  32  51  81 118 147 183 240 296 337
#     4  10  17  30  54  80 111 147 185 228 277 336
#     4  10  21  38  58  82 118 160 192 227 284 348
#     4  10  17  30  50  79 111 143 182 230 288 331
#     4  10  20  33  56  85 113 145 194 239 283 336
#
# _framework density 24.787478
#
# number of rings (size 3 to 8) (size 9 to 14) (size 15 to 20)
#    0.000    2.000    4.000    2.400    0.000    5.600 
#    0.000    1.000    0.000    4.200    0.000    1.400 
#    0.000    0.000    0.000    0.000    0.000    0.000 
#
# Total GULP energy -111783.805857 kJ/mol
# GULP energy per Si atom -5589.190293 kJ/mol
# Density = 2.473106 g / cm^3
# Si number density = 24.787478 Si / 1000 Ang^3
#
#
#
# Elastic Constant Matrix: (Units=GPa)
#
#
# Indices 1 2 3 4 5 6 
#
# 1 134.8732 18.7175 78.2346 0.0000 -50.4757 0.0000
# 2 18.7175 103.7526 28.4792 0.0000 -19.2868 0.0000
# 3 78.2346 28.4792 132.0103 0.0000 -45.2664 0.0000
# 4 0.0000 0.0000 0.0000 -4.6058 0.0000 8.1639
# 5 -50.4757 -19.2868 -45.2664 0.0000 68.7566 0.0000
# 6 0.0000 0.0000 0.0000 8.1639 0.0000 -93.9052
#
#
#
# Elastic Compliance Matrix: (Units=1/GPa)
#
#
# Indices 1 2 3 4 5 6 
#
# 1 0.012830 0.000320 -0.005699 0.000000 0.005757 0.000000
# 2 0.000320 0.010435 -0.001752 0.000000 0.002008 0.000000
# 3 -0.005699 -0.001752 0.012564 0.000000 0.003596 0.000000
# 4 0.000000 0.000000 0.000000 -0.256670 0.000000 -0.022314
# 5 0.005757 0.002008 0.003596 0.000000 0.021701 0.000000
# 6 0.000000 0.000000 0.000000 -0.022314 0.000000 -0.012589
#
#
# Mechanical properties :
#
#
# Convention : Reuss Voigt Hill
#
# Bulk Modulus (GPa) = 46.36757 69.05542 57.71150
# Shear Modulus (GPa) = -26.27726 10.39610 -7.94058
#
# Velocity S-wave (km/s) = -3.25945 2.05017 -1.79176
# Velocity P-wave (km/s) = 2.14039 5.78997 4.36492
#
# Compressibility (1/GPa) = 0.02156680
#
# Stress axis : x y z
#
# Youngs Moduli (GPa) = 77.94285 95.83253 79.59558
#
# Poissons Ratio (x) = -0.03064 0.45358
# Poissons Ratio (y) = -0.02492 0.13945
# Poissons Ratio (z) = 0.44416 0.16790
#
# Static dielectric constant tensor:
#      x y z
#    x 1.961340 0.000000 -0.013030 
#    y 0.000000 1.945730 0.000000 
#    z -0.013030 0.000000 1.989080 
# 
# From -- ./inp_files/18672.got.cif
#   From: 2010.05.17/outbox.cif.g08.bks.cpg/sg10_10_cif.got.tgz:18672.got - 2010.06.03 11:33:40.
