data_PCOD9141263
_publ_section_title
;
Structure prediction by ZEFSAII (Michael W. Deem and Ramdas Pophale) SiO2 
 PCOD9141263
Probable space group: C C
;
_chemical_formula_sum "Si O2"
_cell_formula_units_Z 16
_cell_length_a 12.000000
_cell_length_b 15.000000
_cell_length_c 9.000000
_cell_angle_alpha 90.000000
_cell_angle_beta 70.000000
_cell_angle_gamma 90.000000
_cell_volume 1522.302046
_symmetry_space_group_name_H-M "C C"
_symmetry_group_IT_number 9
_symmetry_cell_setting 'monoclinic'
loop_
_space_group_symop_operation_xyz
x,y,z
x,-y,1/2+z
1/2+x,1/2+y,z
1/2+x,1/2-y,1/2+z
loop_
_atom_site_type_symbol
_atom_site_label
_atom_site_fract_x
_atom_site_fract_y
_atom_site_fract_z
Si Si1 0.737250 0.930419 0.968940
Si Si2 0.831243 0.559852 0.383611
Si Si3 0.095838 0.286649 0.504011
Si Si4 0.702044 0.414724 0.244795
Si Si5 0.918327 0.091680 0.937962
Si Si6 0.848374 0.754618 0.251368
Si Si7 0.765313 0.788173 0.722773
Si Si8 0.579254 0.038620 0.826293
O O1 0.759621 0.832516 0.890054
O O2 0.847268 0.996403 0.964973
O O3 0.674923 0.972921 0.853664
O O4 0.639927 0.929675 0.144943
O O5 0.767529 0.497406 0.292470
O O6 0.733047 0.572051 0.557431
O O7 0.871438 0.658755 0.316825
O O8 0.952421 0.508578 0.369819
O O9 0.200064 0.251707 0.339355
O O10 0.161141 0.292965 0.638585
O O11 0.068797 0.383352 0.450870
O O12 0.962754 0.243443 0.582297
O O13 0.561769 0.414747 0.353822
O O14 0.764330 0.318768 0.250878
O O15 0.872487 0.152026 0.822349
O O16 0.872912 0.155023 0.095805
#
# Coordination Sequence:
#
# PCOD9141263 Si02
#       8
#     4   4   4   4   4   4   4   4
#     4  12  23  42  73 108 136 177 239 297 341 411
#     4  12  26  44  70 101 143 185 235 284 354 426
#     4  11  22  44  74 100 139 187 238 284 360 424
#     4  12  27  48  69 102 144 192 227 289 361 423
#     4  11  23  42  76 100 137 181 237 284 359 415
#     4  11  20  43  71 103 133 192 230 284 351 432
#     4  11  23  46  70 102 136 189 233 288 353 422
#     4  12  24  43  73 104 138 181 239 292 343 419
#
# _framework density 10.510398
#
# number of rings (size 3 to 8) (size 9 to 14) (size 15 to 20)
#    0.000    0.500    7.500    3.000    1.750    1.000 
#    6.750    0.000    0.000    0.000    0.000    0.000 
#    0.000    0.000    0.000    0.000    0.000    0.000 
#
# Total GULP energy -89071.198197 kJ/mol
# GULP energy per Si atom -5566.949887 kJ/mol
# Density = 1.048648 g / cm^3
# Si number density = 10.510398 Si / 1000 Ang^3
#
#
#
# Elastic Constant Matrix: (Units=GPa)
#
#
# Indices 1 2 3 4 5 6 
#
# 1 75.5684 -4.7993 10.1926 0.0000 -32.3816 0.0000
# 2 -4.7993 79.1200 -1.2194 0.0000 6.1599 0.0000
# 3 10.1926 -1.2194 70.4469 0.0000 -28.3557 0.0000
# 4 0.0000 0.0000 0.0000 40.9353 0.0000 -8.5930
# 5 -32.3816 6.1599 -28.3557 0.0000 41.8544 0.0000
# 6 0.0000 0.0000 0.0000 -8.5930 0.0000 22.6780
#
#
#
# Elastic Compliance Matrix: (Units=1/GPa)
#
#
# Indices 1 2 3 4 5 6 
#
# 1 0.020913 -0.000172 0.004804 0.000000 0.019460 0.000000
# 2 -0.000172 0.012815 -0.000778 0.000000 -0.002547 0.000000
# 3 0.004804 -0.000778 0.020663 0.000000 0.017830 0.000000
# 4 0.000000 0.000000 0.000000 0.026540 0.000000 0.010056
# 5 0.019460 -0.002547 0.017830 0.000000 0.051402 0.000000
# 6 0.000000 0.000000 0.000000 0.010056 0.000000 0.047906
#
#
# Mechanical properties :
#
#
# Convention : Reuss Voigt Hill
#
# Bulk Modulus (GPa) = 16.10372 25.94256 21.02314
# Shear Modulus (GPa) = 25.87561 35.82429 30.84995
#
# Velocity S-wave (km/s) = 3.51230 4.13271 3.83507
# Velocity P-wave (km/s) = 4.91180 5.92795 5.44364
#
# Compressibility (1/GPa) = 0.06209745
#
# Stress axis : x y z
#
# Youngs Moduli (GPa) = 47.81778 78.03449 48.39451
#
# Poissons Ratio (x) = 0.01346 -0.23249
# Poissons Ratio (y) = 0.00825 0.03767
# Poissons Ratio (z) = -0.22972 0.06074
#
# Static dielectric constant tensor:
#      x y z
#    x 1.790420 0.000000 -0.015610 
#    y 0.000000 1.795350 0.000000 
#    z -0.015610 0.000000 1.814690 
# 
# From -- ./inp_files/7496.got.cif
#   From: 2010.05.17/outbox.ucp.g08.bks.cvg/sg9_4_cif.got.tgz:7496.got - 2010.06.11 13:03:20.
