data_PCOD9141739
_publ_section_title
;
Structure prediction by ZEFSAII (Michael W. Deem and Ramdas Pophale) SiO2 
 PCOD9141739
Probable space group: P 2/M
;
_chemical_formula_sum "Si O2"
_cell_formula_units_Z 28
_cell_length_a 17.901209
_cell_length_b 7.674225
_cell_length_c 15.121903
_cell_angle_alpha 90.000000
_cell_angle_beta 130.681346
_cell_angle_gamma 90.000000
_cell_volume 1575.400882
_symmetry_space_group_name_H-M "P 2/M"
_symmetry_group_IT_number 10
_symmetry_cell_setting 'monoclinic'
loop_
_space_group_symop_operation_xyz
x,y,z
-x,y,-z
-x,-y,-z
x,-y,z
loop_
_atom_site_type_symbol
_atom_site_label
_atom_site_fract_x
_atom_site_fract_y
_atom_site_fract_z
Si Si1 0.086511 0.286416 0.687250
Si Si2 0.932861 0.205897 0.812013
Si Si3 0.146999 0.699936 0.921787
Si Si4 0.390642 0.296147 0.417491
Si Si5 0.755105 0.205083 0.551685
Si Si6 0.783082 0.712076 0.843677
Si Si7 0.865829 0.709564 0.470408
O O1 0.085340 0.500000 0.689434
O O2 0.137157 0.222288 0.816122
O O3 0.137018 0.234058 0.634000
O O4 0.971853 0.231011 0.591345
O O5 0.850736 0.272863 0.679149
O O6 0.881108 0.232705 0.866380
O O7 0.035736 0.297531 0.874115
O O8 0.948970 0.000000 0.810638
O O9 0.179369 0.500000 0.935176
O O10 0.211725 0.776036 0.051421
O O11 0.500000 0.218986 0.500000
O O12 0.399937 0.500000 0.401793
O O13 0.340358 0.283081 0.475040
O O14 0.310352 0.224595 0.285690
O O15 0.778399 0.235137 0.467364
O O16 0.749946 0.000000 0.564414
O O17 0.782786 0.500000 0.844016
O O18 0.868390 0.500000 0.472060
#
# Coordination Sequence:
#
# PCOD9141739 Si02
#       7
#     4   4   4   4   4   4   4
#     4   8  15  25  41  62  84 114 149 180 206 239
#     4  10  19  28  38  57  87 119 146 171 201 243
#     4  10  17  27  42  60  84 114 145 174 205 243
#     4   9  18  33  50  66  84 108 140 178 219 262
#     4  10  19  29  43  65  90 115 143 177 216 251
#     4   9  18  29  43  62  82 108 141 175 211 252
#     4   9  15  27  44  61  83 115 151 178 205 246
#
# _framework density 17.773253
#
# number of rings (size 3 to 8) (size 9 to 14) (size 15 to 20)
#    0.000    2.714    1.429    2.143    0.000    3.714 
#    0.000    2.143    0.000    0.000    0.000    1.000 
#    0.000    8.000    0.000    0.000    0.000    0.000 
#
# Total GULP energy -156049.673427 kJ/mol
# GULP energy per Si atom -5573.202622 kJ/mol
# Density = 1.773280 g / cm^3
# Si number density = 17.773253 Si / 1000 Ang^3
#
#
#
# Elastic Constant Matrix: (Units=GPa)
#
#
# Indices 1 2 3 4 5 6 
#
# 1 96.4860 -6.9607 63.7181 0.0000 -17.4220 0.0000
# 2 -6.9607 34.6603 0.1051 0.0000 1.6137 0.0000
# 3 63.7181 0.1051 82.5781 0.0000 -21.8835 0.0000
# 4 0.0000 0.0000 0.0000 12.1415 0.0000 -54.9440
# 5 -17.4220 1.6137 -21.8835 0.0000 34.1498 0.0000
# 6 0.0000 0.0000 0.0000 -54.9440 0.0000 329.6199
#
#
#
# Elastic Compliance Matrix: (Units=1/GPa)
#
#
# Indices 1 2 3 4 5 6 
#
# 1 0.021792 0.004420 -0.016779 0.000000 0.000156 0.000000
# 2 0.004420 0.029827 -0.003884 0.000000 -0.001643 0.000000
# 3 -0.016779 -0.003884 0.027514 0.000000 0.009255 0.000000
# 4 0.000000 0.000000 0.000000 0.335239 0.000000 0.055881
# 5 0.000156 -0.001643 0.009255 0.000000 0.035371 0.000000
# 6 0.000000 0.000000 0.000000 0.055881 0.000000 0.012348
#
#
# Mechanical properties :
#
#
# Convention : Reuss Voigt Hill
#
# Bulk Modulus (GPa) = 21.43744 36.38326 28.91035
# Shear Modulus (GPa) = 9.80149 85.63970 47.72059
#
# Velocity S-wave (km/s) = 2.35090 6.94904 5.18729
# Velocity P-wave (km/s) = 4.41098 9.21416 7.22349
#
# Compressibility (1/GPa) = 0.04664736
#
# Stress axis : x y z
#
# Youngs Moduli (GPa) = 45.88841 33.52623 36.34494
#
# Poissons Ratio (x) = -0.14818 0.60984
# Poissons Ratio (y) = -0.20283 0.14116
# Poissons Ratio (z) = 0.76997 0.13021
#
# Static dielectric constant tensor:
#      x y z
#    x 1.603840 0.000000 -0.037300 
#    y 0.000000 1.642020 0.000000 
#    z -0.037300 0.000000 1.646800 
# 
# From -- ./inp_files/49599.got.cif
#   From: 2010.05.17/outbox.cif.g08.bks.cpg/sg10_25_cif.got.tgz:49599.got - 2010.06.03 11:33:40.
