data_PCOD9141344
_publ_section_title
;
Structure prediction by ZEFSAII (Michael W. Deem and Ramdas Pophale) SiO2 
 PCOD9141344
Probable space group: P 2/M
;
_chemical_formula_sum "Si O2"
_cell_formula_units_Z 28
_cell_length_a 8.182079
_cell_length_b 17.192938
_cell_length_c 9.571746
_cell_angle_alpha 90.000000
_cell_angle_beta 71.447518
_cell_angle_gamma 90.000000
_cell_volume 1276.521718
_symmetry_space_group_name_H-M "P 2/M"
_symmetry_group_IT_number 10
_symmetry_cell_setting 'monoclinic'
loop_
_space_group_symop_operation_xyz
x,y,z
-x,y,-z
-x,-y,-z
x,-y,z
loop_
_atom_site_type_symbol
_atom_site_label
_atom_site_fract_x
_atom_site_fract_y
_atom_site_fract_z
Si Si1 0.814132 0.000000 0.972653
Si Si2 0.136268 0.667264 0.661277
Si Si3 0.619732 0.326184 0.142490
Si Si4 0.034151 0.165886 0.654669
Si Si5 0.625506 0.590160 0.603466
Si Si6 0.808708 0.174072 0.979148
Si Si7 0.966615 0.000000 0.343737
Si Si8 0.868921 0.412471 0.901911
O O1 0.740837 0.085913 0.025142
O O2 0.858134 0.000000 0.795049
O O3 0.000000 0.000000 0.000000
O O4 0.258215 0.652463 0.759838
O O5 0.150378 0.759098 0.638519
O O6 0.196933 0.619409 0.511812
O O7 0.948855 0.643331 0.764765
O O8 0.438736 0.350205 0.259719
O O9 0.678213 0.240679 0.069808
O O10 0.685787 0.383949 0.005233
O O11 0.000000 0.161483 0.500000
O O12 0.866855 0.177416 0.800149
O O13 0.116340 0.082519 0.673246
O O14 0.500000 0.593524 0.500000
O O15 0.625536 0.500000 0.649238
O O16 0.000000 0.185131 0.000000
O O17 0.000000 0.000000 0.500000
O O18 0.868177 0.500000 0.850890
O O19 0.000000 0.409848 0.000000
#
# Coordination Sequence:
#
# PCOD9141344 Si02
#       8
#     2   4   4   4   4   4   2   4
#     4   8  16  22  40  65  95 121 145 181 236 283
#     4  10  17  28  43  66  95 122 151 194 233 275
#     4  10  16  26  44  67  95 119 154 194 228 272
#     4  10  18  29  47  71  97 124 155 191 235 280
#     4   9  18  29  43  66  95 126 158 192 235 278
#     4  10  15  28  44  70  95 120 152 193 234 276
#     4   8  16  28  42  65  95 123 153 189 225 274
#     4   9  15  23  40  64  87 112 146 191 232 264
#
# _framework density 21.934602999999999
#
# number of rings (size 3 to 8) (size 9 to 14) (size 15 to 20)
#    0.000    2.571    2.857    1.286    0.000    3.429 
#    0.000    0.000    0.000    3.429    0.000    4.000 
#    0.000    6.857    0.000    0.000    0.000    0.000 
#
# Total GULP energy -155924.717936 kJ/mol
# GULP energy per Si atom -5568.739926 kJ/mol
# Density = 2.188468 g / cm^3
# Si number density = 21.934603 Si / 1000 Ang^3
#
#
#
# Elastic Constant Matrix: (Units=GPa)
#
#
# Indices 1 2 3 4 5 6 
#
# 1 39.6947 3.3213 30.8466 0.0000 6.5041 0.0000
# 2 3.3213 142.2256 53.0076 0.0000 -18.3776 0.0000
# 3 30.8466 53.0076 144.8579 0.0000 0.4348 0.0000
# 4 0.0000 0.0000 0.0000 40.7710 0.0000 23.0319
# 5 6.5041 -18.3776 0.4348 0.0000 25.7849 0.0000
# 6 0.0000 0.0000 0.0000 23.0319 0.0000 86.4106
#
#
#
# Elastic Compliance Matrix: (Units=1/GPa)
#
#
# Indices 1 2 3 4 5 6 
#
# 1 0.031818 0.000975 -0.007111 0.000000 -0.007211 0.000000
# 2 0.000975 0.009162 -0.003579 0.000000 0.006344 0.000000
# 3 -0.007111 -0.003579 0.009730 0.000000 -0.000922 0.000000
# 4 0.000000 0.000000 0.000000 0.028875 0.000000 -0.007696
# 5 -0.007211 0.006344 -0.000922 0.000000 0.045139 0.000000
# 6 0.000000 0.000000 0.000000 -0.007696 0.000000 0.013624
#
#
# Mechanical properties :
#
#
# Convention : Reuss Voigt Hill
#
# Bulk Modulus (GPa) = 31.96862 55.68101 43.82482
# Shear Modulus (GPa) = 29.72576 46.56681 38.14629
#
# Velocity S-wave (km/s) = 3.68530 4.61258 4.17477
# Velocity P-wave (km/s) = 5.71968 7.33540 6.57734
#
# Compressibility (1/GPa) = 0.03128067
#
# Stress axis : x y z
#
# Youngs Moduli (GPa) = 31.42882 109.14466 102.77404
#
# Poissons Ratio (x) = -0.10646 0.73080
# Poissons Ratio (y) = -0.03066 0.36787
# Poissons Ratio (z) = 0.22348 0.39068
#
# Static dielectric constant tensor:
#      x y z
#    x 2.027870 0.000000 0.143050 
#    y 0.000000 1.841400 0.000000 
#    z 0.143050 0.000000 1.903140 
# 
# From -- ./inp_files/47757.got.cif
#   From: 2010.05.17/outbox.cif.g08.bks.cpg/sg10_24_cif.got.tgz:47757.got - 2010.06.03 11:33:40.
