data_PCOD9141064
_publ_section_title
;
Structure prediction by ZEFSAII (Michael W. Deem and Ramdas Pophale) SiO2 
 PCOD9141064
Probable space group: C C
;
_chemical_formula_sum "Si O2"
_cell_formula_units_Z 28
_cell_length_a 14.146833
_cell_length_b 11.652947
_cell_length_c 10.450153
_cell_angle_alpha 90.000000
_cell_angle_beta 138.638449
_cell_angle_gamma 90.000000
_cell_volume 1138.395489
_symmetry_space_group_name_H-M "C C"
_symmetry_group_IT_number 9
_symmetry_cell_setting 'monoclinic'
loop_
_space_group_symop_operation_xyz
x,y,z
x,-y,1/2+z
1/2+x,1/2+y,z
1/2+x,1/2-y,1/2+z
loop_
_atom_site_type_symbol
_atom_site_label
_atom_site_fract_x
_atom_site_fract_y
_atom_site_fract_z
Si Si1 0.431440 0.115678 0.924030
Si Si2 0.246812 0.339928 0.457428
Si Si3 0.566918 0.619020 0.382263
Si Si4 0.880589 0.744691 0.368741
Si Si5 0.461822 0.062125 0.666824
Si Si6 0.131148 0.855910 0.455373
Si Si7 0.172929 0.238412 0.724728
O O1 0.401958 0.074618 0.749715
O O2 0.338869 0.228031 0.861605
O O3 0.401223 0.037504 0.016125
O O4 0.597356 0.148206 0.097740
O O5 0.165023 0.220180 0.415967
O O6 0.279936 0.334447 0.339915
O O7 0.132417 0.440720 0.361093
O O8 0.280341 0.164896 0.180378
O O9 0.400279 0.641045 0.180365
O O10 0.603474 0.487714 0.387968
O O11 0.604756 0.636492 0.569783
O O12 0.937757 0.669312 0.546144
O O13 0.004267 0.807690 0.416387
O O14 0.139053 0.779340 0.336904
#
# Coordination Sequence:
#
# PCOD9141064 Si02
#       7
#     4   4   4   4   4   4   4
#     4  12  30  50  86 112 164 210 264 327 406 465
#     4  12  25  49  82 108 158 200 271 312 398 473
#     4  12  27  49  79 116 154 214 256 333 395 478
#     4  12  25  51  76 116 159 207 261 333 385 483
#     4  12  28  50  85 116 158 211 267 326 403 475
#     4  12  30  46  81 119 163 207 271 329 404 463
#     4  12  27  49  77 115 164 199 270 328 391 477
#
# _framework density 24.596022000000001
#
# number of rings (size 3 to 8) (size 9 to 14) (size 15 to 20)
#    0.000    0.000    4.286    3.429   12.000    3.429 
#    0.000    0.000    0.000    0.000    0.000    0.000 
#    0.000    0.000    0.000    0.000    0.000    0.000 
#
# Total GULP energy -78296.185740 kJ/mol
# GULP energy per Si atom -5592.584696 kJ/mol
# Density = 2.454004 g / cm^3
# Si number density = 24.596022 Si / 1000 Ang^3
#
#
#
# Elastic Constant Matrix: (Units=GPa)
#
#
# Indices 1 2 3 4 5 6 
#
# 1 142.5545 28.6584 55.2591 0.0000 -11.3242 0.0000
# 2 28.6584 68.5541 31.3635 0.0000 -0.5489 0.0000
# 3 55.2591 31.3635 152.6287 0.0000 -11.7322 0.0000
# 4 0.0000 0.0000 0.0000 35.3681 0.0000 -0.5462
# 5 -11.3242 -0.5489 -11.7322 0.0000 64.0105 0.0000
# 6 0.0000 0.0000 0.0000 -0.5462 0.0000 33.3365
#
#
#
# Elastic Compliance Matrix: (Units=1/GPa)
#
#
# Indices 1 2 3 4 5 6 
#
# 1 0.008561 -0.002416 -0.002524 0.000000 0.001031 0.000000
# 2 -0.002416 0.016797 -0.002636 0.000000 -0.000766 0.000000
# 3 -0.002524 -0.002636 0.008085 0.000000 0.001013 0.000000
# 4 0.000000 0.000000 0.000000 0.028281 0.000000 0.000463
# 5 0.001031 -0.000766 0.001013 0.000000 0.015984 0.000000
# 6 0.000000 0.000000 0.000000 0.000463 0.000000 0.030005
#
#
# Mechanical properties :
#
#
# Convention : Reuss Voigt Hill
#
# Bulk Modulus (GPa) = 54.66956 66.03328 60.35142
# Shear Modulus (GPa) = 38.77160 43.10677 40.93918
#
# Velocity S-wave (km/s) = 3.97462 4.19094 4.08421
# Velocity P-wave (km/s) = 6.58321 7.09394 6.84334
#
# Compressibility (1/GPa) = 0.01829172
#
# Stress axis : x y z
#
# Youngs Moduli (GPa) = 116.81247 59.53547 123.68542
#
# Poissons Ratio (x) = 0.14383 0.31214
# Poissons Ratio (y) = 0.28221 0.32601
# Poissons Ratio (z) = 0.29480 0.15692
#
# Static dielectric constant tensor:
#      x y z
#    x 1.995530 0.000000 0.032430 
#    y 0.000000 2.002620 0.000000 
#    z 0.032430 0.000000 1.961880 
# 
# From -- ./inp_files/8079.got.cif
#   From: 2010.05.17/outbox.cif.g08.bks.cpg/sg9_5_cif.got.tgz:8079.got - 2010.06.03 20:04:27.
