data_PCOD9141292
_publ_section_title
;
Structure prediction by ZEFSAII (Michael W. Deem and Ramdas Pophale) SiO2 
 PCOD9141292
Probable space group: C C
;
_chemical_formula_sum "Si O2"
_cell_formula_units_Z 16
_cell_length_a 15.000000
_cell_length_b 12.000000
_cell_length_c 9.000000
_cell_angle_alpha 90.000000
_cell_angle_beta 110.000000
_cell_angle_gamma 90.000000
_cell_volume 1522.302046
_symmetry_space_group_name_H-M "C C"
_symmetry_group_IT_number 9
_symmetry_cell_setting 'monoclinic'
loop_
_space_group_symop_operation_xyz
x,y,z
x,-y,1/2+z
1/2+x,1/2+y,z
1/2+x,1/2-y,1/2+z
loop_
_atom_site_type_symbol
_atom_site_label
_atom_site_fract_x
_atom_site_fract_y
_atom_site_fract_z
Si Si1 0.805940 0.339232 0.565450
Si Si2 0.481412 0.541643 0.299388
Si Si3 0.155223 0.566682 0.841585
Si Si4 0.837895 0.569456 0.423425
Si Si5 0.846902 0.076738 0.502465
Si Si6 0.050267 0.604502 0.473730
Si Si7 0.101829 0.182495 0.808431
Si Si8 0.658818 0.688538 0.482994
O O1 0.843831 0.437154 0.473668
O O2 0.813985 0.390203 0.738458
O O3 0.839823 0.206942 0.561271
O O4 0.697250 0.333066 0.455803
O O5 0.421551 0.576648 0.409864
O O6 0.396035 0.516649 0.135667
O O7 0.535596 0.422402 0.313910
O O8 0.568869 0.630580 0.345535
O O9 0.125612 0.596277 0.654192
O O10 0.244498 0.478603 0.899822
O O11 0.070940 0.503977 0.883410
O O12 0.172683 0.683962 0.936324
O O13 0.755733 0.623047 0.484867
O O14 0.947331 0.609675 0.493565
O O15 0.058431 0.705492 0.358176
O O16 0.131130 0.184949 0.646717
#
# Coordination Sequence:
#
# PCOD9141292 Si02
#       8
#     4   4   4   4   4   4   4   4
#     4  12  27  52  80 115 162 209 262 336 396 476
#     4  12  28  50  80 113 157 209 269 324 398 471
#     4  12  28  48  77 116 160 210 263 325 402 470
#     4  12  28  49  82 115 155 208 267 325 404 475
#     4  12  29  51  81 117 161 210 267 330 400 474
#     4  12  27  50  78 111 158 207 263 332 393 479
#     4  12  26  51  77 109 163 206 265 334 394 467
#     4  12  29  49  77 116 160 211 264 330 397 472
#
# _framework density 10.510398
#
# number of rings (size 3 to 8) (size 9 to 14) (size 15 to 20)
#    0.000    0.000    3.750    4.500   10.500    0.000 
#    0.000    0.000    0.000    0.000    0.000    0.000 
#    0.000    0.000    0.000    0.000    0.000    0.000 
#
# Total GULP energy -89264.085952 kJ/mol
# GULP energy per Si atom -5579.005372 kJ/mol
# Density = 1.048648 g / cm^3
# Si number density = 10.510398 Si / 1000 Ang^3
#
#
#
# Elastic Constant Matrix: (Units=GPa)
#
#
# Indices 1 2 3 4 5 6 
#
# 1 140.2112 41.9178 32.7531 0.0000 -9.8467 0.0000
# 2 41.9178 149.7624 29.6522 0.0000 -10.1853 0.0000
# 3 32.7531 29.6522 108.3646 0.0000 -1.9821 0.0000
# 4 0.0000 0.0000 0.0000 39.1269 0.0000 -6.4178
# 5 -9.8467 -10.1853 -1.9821 0.0000 41.1851 0.0000
# 6 0.0000 0.0000 0.0000 -6.4178 0.0000 48.5503
#
#
#
# Elastic Compliance Matrix: (Units=1/GPa)
#
#
# Indices 1 2 3 4 5 6 
#
# 1 0.008235 -0.001819 -0.001965 0.000000 0.001424 0.000000
# 2 -0.001819 0.007576 -0.001498 0.000000 0.001367 0.000000
# 3 -0.001965 -0.001498 0.010226 0.000000 -0.000348 0.000000
# 4 0.000000 0.000000 0.000000 0.026124 0.000000 0.003453
# 5 0.001424 0.001367 -0.000348 0.000000 0.024942 0.000000
# 6 0.000000 0.000000 0.000000 0.003453 0.000000 0.021054
#
#
# Mechanical properties :
#
#
# Convention : Reuss Voigt Hill
#
# Bulk Modulus (GPa) = 64.63397 67.44273 66.03835
# Shear Modulus (GPa) = 43.90618 45.37346 44.63982
#
# Velocity S-wave (km/s) = 4.57519 4.65101 4.61326
# Velocity P-wave (km/s) = 7.66317 7.80999 7.73693
#
# Compressibility (1/GPa) = 0.01547174
#
# Stress axis : x y z
#
# Youngs Moduli (GPa) = 121.43276 131.99666 97.79285
#
# Poissons Ratio (x) = 0.24010 0.19219
# Poissons Ratio (y) = 0.22088 0.14652
# Poissons Ratio (z) = 0.23864 0.19777
#
# Static dielectric constant tensor:
#      x y z
#    x 1.789600 0.000000 0.007170 
#    y 0.000000 1.782190 0.000000 
#    z 0.007170 0.000000 1.833910 
# 
# From -- ./inp_files/9297.got.cif
#   From: 2010.05.17/outbox.ucp.g08.bks.cvg/sg9_5_cif.got.tgz:9297.got - 2010.06.11 13:03:20.
