data_PCOD9141396
_publ_section_title
;
Structure prediction by ZEFSAII (Michael W. Deem and Ramdas Pophale) SiO2 
 PCOD9141396
Probable space group: P 2/M
;
_chemical_formula_sum "Si O2"
_cell_formula_units_Z 32
_cell_length_a 14.067085
_cell_length_b 8.553246
_cell_length_c 17.826454
_cell_angle_alpha 90.000000
_cell_angle_beta 79.255230
_cell_angle_gamma 90.000000
_cell_volume 2107.260346
_symmetry_space_group_name_H-M "P 2/M"
_symmetry_group_IT_number 10
_symmetry_cell_setting 'monoclinic'
loop_
_space_group_symop_operation_xyz
x,y,z
-x,y,-z
-x,-y,-z
x,-y,z
loop_
_atom_site_type_symbol
_atom_site_label
_atom_site_fract_x
_atom_site_fract_y
_atom_site_fract_z
Si Si1 0.928246 0.310437 0.337322
Si Si2 0.257649 0.184080 0.179495
Si Si3 0.609363 0.189240 0.970663
Si Si4 0.116248 0.688928 0.821665
Si Si5 0.116405 0.318794 0.495727
Si Si6 0.144187 0.186813 0.334566
Si Si7 0.084404 0.817207 0.085607
Si Si8 0.772445 0.314148 0.054803
O O1 0.930073 0.500000 0.339847
O O2 0.882309 0.260056 0.265253
O O3 0.872907 0.257393 0.420998
O O4 0.039404 0.254331 0.326200
O O5 0.225866 0.248084 0.264942
O O6 0.161844 0.194965 0.141848
O O7 0.279390 0.000000 0.186953
O O8 0.343124 0.249214 0.114416
O O9 0.681436 0.236895 0.026997
O O10 0.609577 0.000000 0.967419
O O11 0.500000 0.242732 0.000000
O O12 0.114084 0.500000 0.822469
O O13 0.202699 0.738316 0.864326
O O14 0.016411 0.749012 0.872099
O O15 0.146402 0.500000 0.487898
O O16 0.161189 0.230107 0.418676
O O17 0.000000 0.314733 0.500000
O O18 0.138460 0.000000 0.327872
O O19 0.074337 0.000000 0.068159
O O20 0.133642 0.728771 0.009123
O O21 0.758975 0.500000 0.055842
#
# Coordination Sequence:
#
# PCOD9141396 Si02
#       8
#     4   4   4   4   4   4   4   4
#     4   9  17  28  39  52  77 113 147 172 200 239
#     4   8  15  26  40  61  83 104 134 170 206 244
#     4   9  18  34  52  65  81 107 138 172 212 257
#     4  10  19  29  41  58  83 114 145 175 207 245
#     4   8  15  26  37  51  74 107 143 174 202 238
#     4  10  16  24  38  57  81 106 137 174 207 240
#     4  10  18  29  42  58  83 114 146 176 206 241
#     4  10  20  31  43  62  85 108 138 174 212 252
#
# _framework density 15.185594
#
# number of rings (size 3 to 8) (size 9 to 14) (size 15 to 20)
#    0.000    2.750    1.250    3.000    0.000    5.000 
#    0.000    0.625    0.000    0.000    0.000    0.000 
#    0.000    1.000    0.000   12.500    0.000    0.000 
#
# Total GULP energy -178154.147320 kJ/mol
# GULP energy per Si atom -5567.317104 kJ/mol
# Density = 1.515103 g / cm^3
# Si number density = 15.185594 Si / 1000 Ang^3
#
#
#
# Elastic Constant Matrix: (Units=GPa)
#
#
# Indices 1 2 3 4 5 6 
#
# 1 51.3634 7.0993 60.1927 0.0000 -2.3761 0.0000
# 2 7.0993 8.1951 17.7721 0.0000 -0.4294 0.0000
# 3 60.1927 17.7721 138.9238 0.0000 2.5564 0.0000
# 4 0.0000 0.0000 0.0000 15.5881 0.0000 2.1642
# 5 -2.3761 -0.4294 2.5564 0.0000 15.0996 0.0000
# 6 0.0000 0.0000 0.0000 2.1642 0.0000 8.3533
#
#
#
# Elastic Compliance Matrix: (Units=1/GPa)
#
#
# Indices 1 2 3 4 5 6 
#
# 1 0.041026 0.005411 -0.018648 0.000000 0.009767 0.000000
# 2 0.005411 0.170678 -0.024360 0.000000 0.009829 0.000000
# 3 -0.018648 -0.024360 0.018519 0.000000 -0.006762 0.000000
# 4 0.000000 0.000000 0.000000 0.066545 0.000000 -0.017240
# 5 0.009767 0.009829 -0.006762 0.000000 0.069188 0.000000
# 6 0.000000 0.000000 0.000000 -0.017240 0.000000 0.124179
#
#
# Mechanical properties :
#
#
# Convention : Reuss Voigt Hill
#
# Bulk Modulus (GPa) = 6.45037 40.95674 23.70355
# Shear Modulus (GPa) = 8.10366 15.36940 11.73653
#
# Velocity S-wave (km/s) = 2.31257 3.18481 2.78307
# Velocity P-wave (km/s) = 3.37455 6.36815 5.09612
#
# Compressibility (1/GPa) = 0.15502988
#
# Stress axis : x y z
#
# Youngs Moduli (GPa) = 24.37453 5.85900 53.99972
#
# Poissons Ratio (x) = -0.03170 1.00698
# Poissons Ratio (y) = -0.13189 1.31542
# Poissons Ratio (z) = 0.45453 0.14272
#
# Static dielectric constant tensor:
#      x y z
#    x 1.475510 0.000000 0.017170 
#    y 0.000000 1.518890 0.000000 
#    z 0.017170 0.000000 1.561540 
# 
# From -- ./inp_files/77390.got.cif
#   From: 2010.05.17/outbox.cif.g08.bks.cpg/sg10_39_cif.got.tgz:77390.got - 2010.06.03 11:33:40.
