data_PCOD9141935
_publ_section_title
;
Structure prediction by ZEFSAII (Michael W. Deem and Ramdas Pophale) SiO2 
 PCOD9141935
Probable space group: P 2/M
;
_chemical_formula_sum "Si O2"
_cell_formula_units_Z 32
_cell_length_a 24.141326
_cell_length_b 7.677263
_cell_length_c 18.079825
_cell_angle_alpha 90.000000
_cell_angle_beta 148.228683
_cell_angle_gamma 90.000000
_cell_volume 1764.351451
_symmetry_space_group_name_H-M "P 2/M"
_symmetry_group_IT_number 10
_symmetry_cell_setting 'monoclinic'
loop_
_space_group_symop_operation_xyz
x,y,z
-x,y,-z
-x,-y,-z
x,-y,z
loop_
_atom_site_type_symbol
_atom_site_label
_atom_site_fract_x
_atom_site_fract_y
_atom_site_fract_z
Si Si1 0.148946 0.700914 0.544079
Si Si2 0.325611 0.797943 0.631173
Si Si3 0.474938 0.786874 0.055801
Si Si4 0.915729 0.295251 0.247578
Si Si5 0.939253 0.788834 0.108439
Si Si6 0.823816 0.785636 0.664919
Si Si7 0.762324 0.201950 0.201215
Si Si8 0.123787 0.202689 0.118133
O O1 0.148184 0.500000 0.518605
O O2 0.239353 0.790943 0.598766
O O3 0.177885 0.708530 0.663045
O O4 0.032807 0.775533 0.398090
O O5 0.433536 0.721964 0.785770
O O6 0.268047 0.723707 0.493505
O O7 0.346972 0.000000 0.638181
O O8 0.478828 0.000000 0.061730
O O9 0.500000 0.734646 0.000000
O O10 0.356923 0.731923 0.941805
O O11 0.917247 0.500000 0.266454
O O12 0.897267 0.268922 0.139770
O O13 0.828393 0.215676 0.201477
O O14 0.061742 0.735068 0.237823
O O15 0.938505 0.000000 0.105307
O O16 0.875580 0.723701 0.964019
O O17 0.818380 0.724569 0.743902
O O18 0.823915 0.000000 0.665730
O O19 0.754746 0.000000 0.214706
O O20 0.155577 0.000000 0.148555
O O21 0.000000 0.204639 0.000000
#
# Coordination Sequence:
#
# PCOD9141935 Si02
#       8
#     4   4   4   4   4   4   4   4
#     4  11  22  34  47  67  97 126 152 190 237 273
#     4  10  17  29  51  73  94 124 159 189 226 279
#     4   9  17  31  50  72  94 114 148 202 243 263
#     4  11  23  35  46  66  99 127 153 194 236 272
#     4   9  15  26  46  69  93 124 159 185 220 278
#     4   8  13  22  42  71  97 121 152 187 225 272
#     4  11  22  36  53  68  87 121 163 198 231 277
#     4   7  11  20  37  66  98 120 145 188 226 261
#
# _framework density 18.136977000000002
#
# number of rings (size 3 to 8) (size 9 to 14) (size 15 to 20)
#    0.000    2.500    2.500    3.000    0.000    3.000 
#    0.000    1.875    0.000    4.125    0.000    0.875 
#    0.000    7.000    0.000    0.000    0.000    0.000 
#
# Total GULP energy -178415.822683 kJ/mol
# GULP energy per Si atom -5575.494459 kJ/mol
# Density = 1.809570 g / cm^3
# Si number density = 18.136977 Si / 1000 Ang^3
#
#
#
# Elastic Constant Matrix: (Units=GPa)
#
#
# Indices 1 2 3 4 5 6 
#
# 1 92.8146 -8.3386 77.7328 0.0000 -14.5004 0.0000
# 2 -8.3386 34.0541 0.8549 0.0000 2.2339 0.0000
# 3 77.7328 0.8549 119.9887 0.0000 -28.4203 0.0000
# 4 0.0000 0.0000 0.0000 5.3120 0.0000 -2.2560
# 5 -14.5004 2.2339 -28.4203 0.0000 32.4411 0.0000
# 6 0.0000 0.0000 0.0000 -2.2560 0.0000 -28.2267
#
#
#
# Elastic Compliance Matrix: (Units=1/GPa)
#
#
# Indices 1 2 3 4 5 6 
#
# 1 0.025430 0.006966 -0.017596 0.000000 -0.004529 0.000000
# 2 0.006966 0.031479 -0.005694 0.000000 -0.004043 0.000000
# 3 -0.017596 -0.005694 0.022718 0.000000 0.012429 0.000000
# 4 0.000000 0.000000 0.000000 0.182073 0.000000 -0.014552
# 5 -0.004529 -0.004043 0.012429 0.000000 0.039968 0.000000
# 6 0.000000 0.000000 0.000000 -0.014552 0.000000 -0.034264
#
#
# Mechanical properties :
#
#
# Convention : Reuss Voigt Hill
#
# Bulk Modulus (GPa) = 21.28740 43.03951 32.16346
# Shear Modulus (GPa) = 15.83718 13.67916 14.75817
#
# Velocity S-wave (km/s) = 2.95820 2.74928 2.85565
# Velocity P-wave (km/s) = 4.84050 5.81892 5.35211
#
# Compressibility (1/GPa) = 0.04697614
#
# Stress axis : x y z
#
# Youngs Moduli (GPa) = 39.32423 31.76744 44.01737
#
# Poissons Ratio (x) = -0.22128 0.77455
# Poissons Ratio (y) = -0.27392 0.25065
# Poissons Ratio (z) = 0.69197 0.18090
#
# Static dielectric constant tensor:
#      x y z
#    x 1.598620 0.000000 -0.029110 
#    y 0.000000 1.672690 0.000000 
#    z -0.029110 0.000000 1.647830 
# 
# From -- ./inp_files/56414.got.cif
#   From: 2010.05.17/outbox.cif.g08.bks.cpg/sg10_29_cif.got.tgz:56414.got - 2010.06.03 11:33:40.
