data_PCOD9141104
_publ_section_title
;
Structure prediction by ZEFSAII (Michael W. Deem and Ramdas Pophale) SiO2 
 PCOD9141104
Probable space group: C C
;
_chemical_formula_sum "Si O2"
_cell_formula_units_Z 32
_cell_length_a 14.573941
_cell_length_b 11.673142
_cell_length_c 9.097241
_cell_angle_alpha 90.000000
_cell_angle_beta 60.079983
_cell_angle_gamma 90.000000
_cell_volume 1341.388467
_symmetry_space_group_name_H-M "C C"
_symmetry_group_IT_number 9
_symmetry_cell_setting 'monoclinic'
loop_
_space_group_symop_operation_xyz
x,y,z
x,-y,1/2+z
1/2+x,1/2+y,z
1/2+x,1/2-y,1/2+z
loop_
_atom_site_type_symbol
_atom_site_label
_atom_site_fract_x
_atom_site_fract_y
_atom_site_fract_z
Si Si1 0.723110 0.391159 0.295020
Si Si2 0.092700 0.550373 0.681259
Si Si3 0.443007 0.023005 0.070585
Si Si4 0.405786 0.484858 0.110488
Si Si5 0.680810 0.706543 0.144146
Si Si6 0.745767 0.155255 0.145675
Si Si7 0.543464 0.477080 0.754229
Si Si8 0.337059 0.239134 0.274069
O O1 0.837001 0.445462 0.159968
O O2 0.720579 0.374572 0.476579
O O3 0.698871 0.260860 0.270479
O O4 0.637889 0.458257 0.261051
O O5 0.169282 0.659195 0.629443
O O6 0.162076 0.436360 0.651494
O O7 0.038021 0.546573 0.568017
O O8 0.993627 0.557939 0.874316
O O9 0.421869 0.137151 0.186933
O O10 0.320561 0.584431 0.199037
O O11 0.516590 0.498160 0.108038
O O12 0.369704 0.357696 0.171947
O O13 0.433162 0.504936 0.918974
O O14 0.563512 0.656922 0.258771
O O15 0.743005 0.690900 0.246393
O O16 0.803325 0.222246 0.963680
#
# Coordination Sequence:
#
# PCOD9141104 Si02
#       8
#     4   4   4   4   4   4   4   4
#     4  12  29  47  77 110 152 195 253 311 378 451
#     4  12  27  48  76 110 149 196 247 309 381 449
#     4  12  27  48  76 110 149 196 247 309 381 449
#     4  12  27  48  75 108 148 198 252 308 376 445
#     4  12  26  48  77 107 152 197 248 313 379 448
#     4  12  29  47  77 110 152 195 253 311 378 451
#     4  12  27  48  75 108 148 198 252 308 376 445
#     4  12  26  48  77 107 152 197 248 313 379 448
#
# _framework density 23.855879000000002
#
# number of rings (size 3 to 8) (size 9 to 14) (size 15 to 20)
#    0.000    0.000    5.000    3.750   10.500    1.000 
#    0.000    0.000    0.000    0.000    0.000    0.000 
#    0.000    0.000    0.000    0.000    0.000    0.000 
#
# Total GULP energy -89305.021822 kJ/mol
# GULP energy per Si atom -5581.563864 kJ/mol
# Density = 2.380158 g / cm^3
# Si number density = 23.855879 Si / 1000 Ang^3
#
#
#
# Elastic Constant Matrix: (Units=GPa)
#
#
# Indices 1 2 3 4 5 6 
#
# 1 90.7344 18.6209 -3.4549 0.0000 11.6178 0.0000
# 2 18.6209 106.6989 4.1912 0.0000 -3.2944 0.0000
# 3 -3.4549 4.1912 67.8748 0.0000 6.4271 0.0000
# 4 0.0000 0.0000 0.0000 1743.5479 0.0000 -531.1893
# 5 11.6178 -3.2944 6.4271 0.0000 14.5407 0.0000
# 6 0.0000 0.0000 0.0000 -531.1893 0.0000 207.3846
#
#
#
# Elastic Compliance Matrix: (Units=1/GPa)
#
#
# Indices 1 2 3 4 5 6 
#
# 1 0.013205 -0.002755 0.001983 0.000000 -0.012051 0.000000
# 2 -0.002755 0.010057 -0.001237 0.000000 0.005026 0.000000
# 3 0.001983 -0.001237 0.015746 0.000000 -0.008825 0.000000
# 4 0.000000 0.000000 0.000000 0.002611 0.000000 0.006688
# 5 -0.012051 0.005026 -0.008825 0.000000 0.083441 0.000000
# 6 0.000000 0.000000 0.000000 0.006688 0.000000 0.021953
#
#
# Mechanical properties :
#
#
# Convention : Reuss Voigt Hill
#
# Bulk Modulus (GPa) = 28.57863 33.78029 31.17946
# Shear Modulus (GPa) = 30.73281 409.49136 220.11209
#
# Velocity S-wave (km/s) = 3.59314 13.11582 9.61601
# Velocity P-wave (km/s) = 5.40555 15.60632 11.67855
#
# Compressibility (1/GPa) = 0.03499118
#
# Stress axis : x y z
#
# Youngs Moduli (GPa) = 75.72846 99.43655 63.50831
#
# Poissons Ratio (x) = 0.27390 -0.12596
# Poissons Ratio (y) = 0.20860 0.07857
# Poissons Ratio (z) = -0.15020 0.12302
#
# Static dielectric constant tensor:
#      x y z
#    x 1.951300 0.000000 -0.022220 
#    y 0.000000 -18.923160 0.000000 
#    z -0.022220 0.000000 2.000470 
# 
# From -- ./inp_files/9189.got.cif
#   From: 2010.05.17/outbox.cif.g08.bks.cpg/sg9_5_cif.got.tgz:9189.got - 2010.06.03 20:04:27.
