data_PCOD9141672
_publ_section_title
;
Structure prediction by ZEFSAII (Michael W. Deem and Ramdas Pophale) SiO2 
 PCOD9141672
Probable space group: P 2/M
;
_chemical_formula_sum "Si O2"
_cell_formula_units_Z 32
_cell_length_a 17.807127
_cell_length_b 15.010537
_cell_length_c 22.014275
_cell_angle_alpha 90.000000
_cell_angle_beta 17.945973
_cell_angle_gamma 90.000000
_cell_volume 1813.069473
_symmetry_space_group_name_H-M "P 2/M"
_symmetry_group_IT_number 10
_symmetry_cell_setting 'monoclinic'
loop_
_space_group_symop_operation_xyz
x,y,z
-x,y,-z
-x,-y,-z
x,-y,z
loop_
_atom_site_type_symbol
_atom_site_label
_atom_site_fract_x
_atom_site_fract_y
_atom_site_fract_z
Si Si1 0.603385 0.285326 0.555278
Si Si2 0.793831 0.608320 0.706173
Si Si3 0.911309 0.901186 0.185426
Si Si4 0.144502 0.601299 0.535138
Si Si5 0.524428 0.098814 0.378848
Si Si6 0.574090 0.398702 0.105541
Si Si7 0.031247 0.285326 0.127427
Si Si8 0.719086 0.602548 0.280921
O O1 0.741635 0.333045 0.503581
O O2 0.515476 0.184205 0.632565
O O3 0.385275 0.345721 0.696916
O O4 0.798371 0.281019 0.350825
O O5 0.796022 0.500000 0.703983
O O6 0.535995 0.632153 0.874495
O O7 0.000000 0.639865 0.500000
O O8 0.894085 0.632153 0.695438
O O9 0.699157 0.902614 0.400431
O O10 0.765163 0.888096 0.234845
O O11 0.076675 0.815798 0.071384
O O12 0.023437 0.000000 0.098940
O O13 0.115105 0.500000 0.581997
O O14 0.342567 0.595524 0.328706
O O15 0.534011 0.000000 0.343629
O O16 0.673329 0.500000 0.023758
O O17 0.760801 0.333042 0.993971
O O18 0.943491 0.345714 0.138711
O O19 0.500000 0.602589 0.500000
O O20 0.776091 0.500000 0.223918
#
# Coordination Sequence:
#
# PCOD9141672 Si02
#       8
#     4   4   4   4   4   4   4   4
#     4  10  17  26  41  62  84 109 139 170 204 240
#     4   7  12  26  45  59  74 103 140 170 199 241
#     4   8  13  23  40  60  80 104 139 178 206 233
#     4   9  17  29  44  61  82 109 139 169 202 243
#     4   8  13  23  40  60  80 104 139 178 206 233
#     4   9  17  29  44  61  82 109 139 169 202 243
#     4  10  17  26  41  62  84 109 139 170 204 240
#     4   9  16  24  34  52  82 115 139 157 186 233
#
# _framework density 17.649626999999999
#
# number of rings (size 3 to 8) (size 9 to 14) (size 15 to 20)
#    0.000    3.250    1.250    3.000    0.000    1.500 
#    0.000    1.250    0.000    5.250    0.000    2.625 
#    0.000    7.000    0.000    0.000    0.000    0.000 
#
# Total GULP energy -178278.141575 kJ/mol
# GULP energy per Si atom -5571.191924 kJ/mol
# Density = 1.760946 g / cm^3
# Si number density = 17.649627 Si / 1000 Ang^3
#
#
#
# Elastic Constant Matrix: (Units=GPa)
#
#
# Indices 1 2 3 4 5 6 
#
# 1 106.9451 79.8176 28.7017 0.0000 -40.7163 0.0000
# 2 79.8176 162.4763 31.7118 0.0000 -41.8537 0.0000
# 3 28.7017 31.7118 49.7203 0.0000 -9.0634 0.0000
# 4 0.0000 0.0000 0.0000 13.4689 0.0000 2.4295
# 5 -40.7163 -41.8537 -9.0634 0.0000 43.2591 0.0000
# 6 0.0000 0.0000 0.0000 2.4295 0.0000 10.6687
#
#
#
# Elastic Compliance Matrix: (Units=1/GPa)
#
#
# Indices 1 2 3 4 5 6 
#
# 1 0.019382 -0.005370 -0.005599 0.000000 0.011874 0.000000
# 2 -0.005370 0.010499 -0.002772 0.000000 0.004523 0.000000
# 3 -0.005599 -0.002772 0.024603 0.000000 -0.002797 0.000000
# 4 0.000000 0.000000 0.000000 0.077425 0.000000 -0.017632
# 5 0.011874 0.004523 -0.002797 0.000000 0.038082 0.000000
# 6 0.000000 0.000000 0.000000 -0.017632 0.000000 0.097747
#
#
# Mechanical properties :
#
#
# Convention : Reuss Voigt Hill
#
# Bulk Modulus (GPa) = 37.03473 66.62264 51.82869
# Shear Modulus (GPa) = 16.43548 25.40672 20.92110
#
# Velocity S-wave (km/s) = 3.05488 3.79820 3.44664
# Velocity P-wave (km/s) = 5.78549 7.55409 6.72816
#
# Compressibility (1/GPa) = 0.02700168
#
# Stress axis : x y z
#
# Youngs Moduli (GPa) = 51.59528 95.24906 40.64607
#
# Poissons Ratio (x) = 0.51148 0.22757
# Poissons Ratio (y) = 0.27706 0.11267
# Poissons Ratio (z) = 0.28888 0.26402
#
# Static dielectric constant tensor:
#      x y z
#    x 1.630630 0.000000 0.034900 
#    y 0.000000 1.604200 0.000000 
#    z 0.034900 0.000000 1.670760 
# 
# From -- ./inp_files/61555.got.cif
#   From: 2010.05.17/outbox.cif.g08.bks.cpg/sg10_31_cif.got.tgz:61555.got - 2010.06.03 11:33:40.
