data_PCOD9141061
_publ_section_title
;
Structure prediction by ZEFSAII (Michael W. Deem and Ramdas Pophale) SiO2 
 PCOD9141061
Probable space group: C C
;
_chemical_formula_sum "Si O2"
_cell_formula_units_Z 28
_cell_length_a 16.052893
_cell_length_b 5.780060
_cell_length_c 13.708514
_cell_angle_alpha 90.000000
_cell_angle_beta 56.912953
_cell_angle_gamma 90.000000
_cell_volume 1065.708045
_symmetry_space_group_name_H-M "C C"
_symmetry_group_IT_number 9
_symmetry_cell_setting 'monoclinic'
loop_
_space_group_symop_operation_xyz
x,y,z
x,-y,1/2+z
1/2+x,1/2+y,z
1/2+x,1/2-y,1/2+z
loop_
_atom_site_type_symbol
_atom_site_label
_atom_site_fract_x
_atom_site_fract_y
_atom_site_fract_z
Si Si1 0.879200 0.957027 0.862720
Si Si2 0.773129 0.653440 0.760539
Si Si3 0.231056 0.145193 0.471259
Si Si4 0.147891 0.513528 0.765781
Si Si5 0.572443 0.684833 0.150290
Si Si6 0.546101 0.919207 0.533237
Si Si7 0.353123 0.773736 0.587343
O O1 0.820990 0.838336 0.807196
O O2 0.991442 0.977833 0.752921
O O3 0.827625 0.197228 0.928075
O O4 0.874404 0.789944 0.961138
O O5 0.747880 0.450797 0.852004
O O6 0.832106 0.540399 0.632374
O O7 0.675286 0.750872 0.771294
O O8 0.179331 0.933151 0.562476
O O9 0.139982 0.321843 0.530800
O O10 0.085484 0.604628 0.716635
O O11 0.085561 0.584445 0.898785
O O12 0.257928 0.624836 0.680457
O O13 0.531961 0.818695 0.080605
O O14 0.452167 0.747236 0.590368
#
# Coordination Sequence:
#
# PCOD9141061 Si02
#       7
#     4   4   4   4   4   4   4
#     4  12  27  50  80 124 163 211 279 333 409 488
#     4  12  25  51  81 113 170 212 264 344 401 477
#     4  12  26  50  77 117 171 212 267 343 402 479
#     4  12  26  52  79 121 163 214 274 332 411 484
#     4  12  28  51  88 119 163 215 272 343 407 489
#     4  12  25  49  79 121 164 213 276 329 411 483
#     4  12  27  47  80 121 166 215 268 336 411 484
#
# _framework density 26.273613999999998
#
# number of rings (size 3 to 8) (size 9 to 14) (size 15 to 20)
#    0.000    0.000    7.143    1.714    4.000    4.571 
#    0.000    1.429    0.000    0.000    0.000    0.000 
#    0.000    0.000    0.000    0.000    0.000    0.000 
#
# Total GULP energy -78225.010005 kJ/mol
# GULP energy per Si atom -5587.500715 kJ/mol
# Density = 2.621381 g / cm^3
# Si number density = 26.273614 Si / 1000 Ang^3
#
#
#
# Elastic Constant Matrix: (Units=GPa)
#
#
# Indices 1 2 3 4 5 6 
#
# 1 78.0330 26.1757 49.7907 0.0001 -13.8928 0.0004
# 2 26.1757 77.3483 49.9043 0.0002 14.5890 0.0020
# 3 49.7907 49.9043 161.4668 -0.0002 8.9396 0.0003
# 4 0.0001 0.0002 -0.0002 50.7561 0.0000 9.5555
# 5 -13.8928 14.5890 8.9396 0.0000 44.1106 0.0000
# 6 0.0004 0.0020 0.0003 9.5555 0.0000 36.7462
#
#
#
# Elastic Compliance Matrix: (Units=1/GPa)
#
#
# Indices 1 2 3 4 5 6 
#
# 1 0.019107 -0.004979 -0.004832 0.000000 0.008644 0.000000
# 2 -0.004979 0.018328 -0.003749 0.000000 -0.006870 -0.000001
# 3 -0.004832 -0.003749 0.008958 0.000000 -0.002097 0.000000
# 4 0.000000 0.000000 0.000000 0.020716 0.000000 -0.005387
# 5 0.008644 -0.006870 -0.002097 0.000000 0.028090 0.000000
# 6 0.000000 -0.000001 0.000000 -0.005387 0.000000 0.028615
#
#
# Mechanical properties :
#
#
# Convention : Reuss Voigt Hill
#
# Bulk Modulus (GPa) = 51.88378 63.17660 57.53019
# Shear Modulus (GPa) = 31.77468 39.05440 35.41454
#
# Velocity S-wave (km/s) = 3.48138 3.85963 3.67538
# Velocity P-wave (km/s) = 5.99586 6.63025 6.32102
#
# Compressibility (1/GPa) = 0.01927385
#
# Stress axis : x y z
#
# Youngs Moduli (GPa) = 52.33624 54.56113 111.63319
#
# Poissons Ratio (x) = 0.27167 0.53937
# Poissons Ratio (y) = 0.26059 0.41850
# Poissons Ratio (z) = 0.25287 0.20454
#
# Static dielectric constant tensor:
#      x y z
#    x 2.184350 0.000000 0.010420 
#    y 0.000000 2.129210 0.000000 
#    z 0.010420 0.000000 2.008180 
# 
# From -- ./inp_files/26438.got.cif
#   From: 2010.05.17/outbox.cif.g08.bks.cpg/sg9_14_cif.got.tgz:26438.got - 2010.06.03 20:04:27.
