data_PCOD9141543
_publ_section_title
;
Structure prediction by ZEFSAII (Michael W. Deem and Ramdas Pophale) SiO2 
 PCOD9141543
Probable space group: P 2/M
;
_chemical_formula_sum "Si O2"
_cell_formula_units_Z 32
_cell_length_a 23.734548
_cell_length_b 7.545284
_cell_length_c 22.640568
_cell_angle_alpha 90.000000
_cell_angle_beta 17.189637
_cell_angle_gamma 90.000000
_cell_volume 1198.265861
_symmetry_space_group_name_H-M "P 2/M"
_symmetry_group_IT_number 10
_symmetry_cell_setting 'monoclinic'
loop_
_space_group_symop_operation_xyz
x,y,z
-x,y,-z
-x,-y,-z
x,-y,z
loop_
_atom_site_type_symbol
_atom_site_label
_atom_site_fract_x
_atom_site_fract_y
_atom_site_fract_z
Si Si1 0.047729 0.298228 0.149614
Si Si2 0.769452 0.287126 0.781039
Si Si3 0.686094 0.713039 0.739224
Si Si4 0.472377 0.196382 0.712811
Si Si5 0.522712 0.700680 0.415249
Si Si6 0.146844 0.283807 0.176158
Si Si7 0.027120 0.704470 0.039923
Si Si8 0.404524 0.287760 0.293304
O O1 0.972991 0.500000 0.225945
O O2 0.033550 0.222449 0.231038
O O3 0.281680 0.311838 0.910622
O O4 0.982289 0.220667 0.151174
O O5 0.801183 0.500000 0.747052
O O6 0.793028 0.218677 0.690445
O O7 0.880681 0.223953 0.728095
O O8 0.541990 0.263978 0.021138
O O9 0.719654 0.500000 0.704373
O O10 0.711632 0.779877 0.646803
O O11 0.559290 0.218100 0.561321
O O12 0.626534 0.228976 0.608856
O O13 0.395504 0.000000 0.795607
O O14 0.500000 0.794856 0.500000
O O15 0.450149 0.500000 0.492585
O O16 0.746500 0.695457 0.183074
O O17 0.128091 0.500000 0.195266
O O18 0.371446 0.241788 0.940743
O O19 0.956109 0.500000 0.108724
O O20 0.000000 0.781068 0.000000
O O21 0.390448 0.500000 0.306185
#
# Coordination Sequence:
#
# PCOD9141543 Si02
#       8
#     4   4   4   4   4   4   4   4
#     4   8  13  22  34  47  64  87 114 141 171 207
#     4   7   8  10  17  33  53  69  93 132 170 194
#     4   7   9  12  20  34  51  71  97 132 168 197
#     4  10  17  23  33  49  67  86 110 142 176 205
#     4   9  17  29  43  56  71  93 119 144 172 208
#     4   7   9  13  23  38  55  75 101 135 168 196
#     4   8  13  22  38  58  75  90 113 146 177 203
#     4   8  12  19  29  40  56  79 107 137 169 204
#
# _framework density 26.705258000000001
#
# number of rings (size 3 to 8) (size 9 to 14) (size 15 to 20)
#    0.000    4.000    0.000    4.875    0.000    0.250 
#    0.000    0.000    0.000    6.000    0.000   15.750 
#    0.000    0.000    0.000    0.000    0.000    1.250 
#
# Total GULP energy -178307.096578 kJ/mol
# GULP energy per Si atom -5572.096768 kJ/mol
# Density = 2.664448 g / cm^3
# Si number density = 26.705258 Si / 1000 Ang^3
#
#
#
# Elastic Constant Matrix: (Units=GPa)
#
#
# Indices 1 2 3 4 5 6 
#
# 1 347.6631 14.2341 85.0098 0.0000 76.1265 0.0000
# 2 14.2341 72.3038 1.7983 0.0000 10.3061 0.0000
# 3 85.0098 1.7983 78.8879 0.0000 7.1826 0.0000
# 4 0.0000 0.0000 0.0000 10.2702 0.0000 35.0593
# 5 76.1265 10.3061 7.1826 0.0000 79.5857 0.0000
# 6 0.0000 0.0000 0.0000 35.0593 0.0000 47.0747
#
#
#
# Elastic Compliance Matrix: (Units=1/GPa)
#
#
# Indices 1 2 3 4 5 6 
#
# 1 0.005086 -0.000251 -0.005076 0.000000 -0.004374 0.000000
# 2 -0.000251 0.014105 0.000095 0.000000 -0.001595 0.000000
# 3 -0.005076 0.000095 0.017850 0.000000 0.003232 0.000000
# 4 0.000000 0.000000 0.000000 -0.063129 0.000000 0.047016
# 5 -0.004374 -0.001595 0.003232 0.000000 0.016664 0.000000
# 6 0.000000 0.000000 0.000000 0.047016 0.000000 -0.013773
#
#
# Mechanical properties :
#
#
# Convention : Reuss Voigt Hill
#
# Bulk Modulus (GPa) = 37.63040 77.88213 57.75627
# Shear Modulus (GPa) = -1290.80634 53.90696 -618.44969
#
# Velocity S-wave (km/s) = -22.00914 4.49775 -15.23438
# Velocity P-wave (km/s) = 25.13460 7.49666 16.96390
#
# Compressibility (1/GPa) = 0.02657426
#
# Stress axis : x y z
#
# Youngs Moduli (GPa) = 196.63270 70.89704 56.02244
#
# Poissons Ratio (x) = 0.01783 0.28439
# Poissons Ratio (y) = 0.04945 -0.00530
# Poissons Ratio (z) = 0.99817 -0.00671
#
# Static dielectric constant tensor:
#      x y z
#    x 2.206130 0.000000 -0.042240 
#    y 0.000000 1.984920 0.000000 
#    z -0.042240 0.000000 2.774870 
# 
# From -- ./inp_files/86409.got.cif
#   From: 2010.05.17/outbox.cif.g08.bks.cpg/sg10_44_cif.got.tgz:86409.got - 2010.06.03 11:33:40.
