data_PCOD9141897
_publ_section_title
;
Structure prediction by ZEFSAII (Michael W. Deem and Ramdas Pophale) SiO2 
 PCOD9141897
Probable space group: P 2/M
;
_chemical_formula_sum "Si O2"
_cell_formula_units_Z 22
_cell_length_a 20.704274
_cell_length_b 9.692732
_cell_length_c 5.553038
_cell_angle_alpha 90.000000
_cell_angle_beta 114.483598
_cell_angle_gamma 90.000000
_cell_volume 1014.183176
_symmetry_space_group_name_H-M "P 2/M"
_symmetry_group_IT_number 10
_symmetry_cell_setting 'monoclinic'
loop_
_space_group_symop_operation_xyz
x,y,z
-x,y,-z
-x,-y,-z
x,-y,z
loop_
_atom_site_type_symbol
_atom_site_label
_atom_site_fract_x
_atom_site_fract_y
_atom_site_fract_z
Si Si1 0.341498 0.737838 0.459374
Si Si2 0.543568 0.500000 0.316947
Si Si3 0.229777 0.500000 0.749286
Si Si4 0.082761 0.164670 0.183090
Si Si5 0.861873 0.843744 0.231856
Si Si6 0.701265 0.206925 0.105503
Si Si7 0.222248 0.500000 0.238838
O O1 0.407232 0.636138 0.602433
O O2 0.328368 0.830006 0.676915
O O3 0.273708 0.634310 0.325287
O O4 0.345392 0.812668 0.205977
O O5 0.500000 0.500000 0.500000
O O6 0.500000 0.500000 0.000000
O O7 0.282270 0.370050 0.837940
O O8 0.185041 0.500000 0.437455
O O9 0.185466 0.500000 0.925031
O O10 0.102822 0.222310 0.476815
O O11 0.099601 0.000000 0.227866
O O12 0.124634 0.217932 0.012273
O O13 0.000000 0.180068 0.000000
O O14 0.778922 0.850974 0.165834
O O15 0.891553 0.000000 0.257967
#
# Coordination Sequence:
#
# PCOD9141897 Si02
#       7
#     4   2   2   4   4   4   2
#     4   9  17  28  42  62  90 124 148 176 224 274
#     4  11  20  31  48  72 102 128 153 190 233 278
#     4   8  14  23  38  57  77 108 143 168 205 260
#     4   9  17  30  46  65  92 123 154 192 241 287
#     4  10  19  29  45  71  96 119 153 196 236 279
#     4  10  17  29  45  64  93 123 153 187 227 278
#     4   7  12  22  36  53  76 104 136 164 193 242
#
# _framework density 21.692333000000001
#
# number of rings (size 3 to 8) (size 9 to 14) (size 15 to 20)
#    0.000    2.727    0.000    3.818    0.000    3.636 
#    0.000    0.000    0.000    0.000    0.000    3.818 
#    0.000   14.545    0.000    0.000    0.000    0.000 
#
# Total GULP energy -122575.061898 kJ/mol
# GULP energy per Si atom -5571.593723 kJ/mol
# Density = 2.164296 g / cm^3
# Si number density = 21.692333 Si / 1000 Ang^3
#
#
#
# Elastic Constant Matrix: (Units=GPa)
#
#
# Indices 1 2 3 4 5 6 
#
# 1 71.4629 2.1846 41.6329 0.0000 -22.6726 0.0000
# 2 2.1846 38.3871 -3.9300 0.0000 -2.3234 0.0000
# 3 41.6329 -3.9300 206.9185 0.0000 -41.7798 0.0000
# 4 0.0000 0.0000 0.0000 -2.9098 0.0000 6.4503
# 5 -22.6726 -2.3234 -41.7798 0.0000 46.2477 0.0000
# 6 0.0000 0.0000 0.0000 6.4503 0.0000 24.1258
#
#
#
# Elastic Compliance Matrix: (Units=1/GPa)
#
#
# Indices 1 2 3 4 5 6 
#
# 1 0.017356 -0.000821 -0.002199 0.000000 0.006481 0.000000
# 2 -0.000821 0.026316 0.001040 0.000000 0.001860 0.000000
# 3 -0.002199 0.001040 0.006223 0.000000 0.004596 0.000000
# 4 0.000000 0.000000 0.000000 -0.215779 0.000000 0.057691
# 5 0.006481 0.001860 0.004596 0.000000 0.029045 0.000000
# 6 0.000000 0.000000 0.000000 0.057691 0.000000 0.026025
#
#
# Mechanical properties :
#
#
# Convention : Reuss Voigt Hill
#
# Bulk Modulus (GPa) = 21.76928 44.06041 32.91484
# Shear Modulus (GPa) = -54.61919 31.95147 -11.33386
#
# Velocity S-wave (km/s) = -5.02331 3.84205 -2.28827
# Velocity P-wave (km/s) = 4.85671 6.32751 2.86790
#
# Compressibility (1/GPa) = 0.04593630
#
# Stress axis : x y z
#
# Youngs Moduli (GPa) = 57.61838 37.99943 160.69293
#
# Poissons Ratio (x) = 0.03118 0.35338
# Poissons Ratio (y) = 0.04728 -0.16719
# Poissons Ratio (z) = 0.12671 -0.03954
#
# Static dielectric constant tensor:
#      x y z
#    x 1.778110 0.000000 -0.087950 
#    y 0.000000 1.836140 0.000000 
#    z -0.087950 0.000000 1.898590 
# 
# From -- ./inp_files/11023.got.cif
#   From: 2010.05.17/outbox.cif.g08.bks.cpg/sg10_6_cif.got.tgz:11023.got - 2010.06.03 11:33:40.
