data_PCOD9141123
_publ_section_title
;
Structure prediction by ZEFSAII (Michael W. Deem and Ramdas Pophale) SiO2 
 PCOD9141123
Probable space group: C C
;
_chemical_formula_sum "Si O2"
_cell_formula_units_Z 24
_cell_length_a 8.977061
_cell_length_b 16.207007
_cell_length_c 8.330024
_cell_angle_alpha 90.000000
_cell_angle_beta 49.648839
_cell_angle_gamma 90.000000
_cell_volume 923.612475
_symmetry_space_group_name_H-M "C C"
_symmetry_group_IT_number 9
_symmetry_cell_setting 'monoclinic'
loop_
_space_group_symop_operation_xyz
x,y,z
x,-y,1/2+z
1/2+x,1/2+y,z
1/2+x,1/2-y,1/2+z
loop_
_atom_site_type_symbol
_atom_site_label
_atom_site_fract_x
_atom_site_fract_y
_atom_site_fract_z
Si Si1 0.573390 0.713983 0.991860
Si Si2 0.284482 0.623337 0.434018
Si Si3 0.096727 0.933881 0.975599
Si Si4 0.938217 0.331203 0.593726
Si Si5 0.878767 0.822395 0.320784
Si Si6 0.882429 0.588918 0.782070
O O1 0.664096 0.788658 0.031695
O O2 0.456682 0.732288 0.911838
O O3 0.763191 0.665475 0.794489
O O4 0.438268 0.651596 0.189775
O O5 0.419063 0.577615 0.472161
O O6 0.087216 0.568025 0.551603
O O7 0.261603 0.867984 0.816086
O O8 0.224565 0.016027 0.895115
O O9 0.000376 0.905595 0.209444
O O10 0.905238 0.232900 0.641005
O O11 0.927485 0.377230 0.430192
O O12 0.155852 0.344936 0.503194
#
# Coordination Sequence:
#
# PCOD9141123 Si02
#       6
#     4   4   4   4   4   4
#     4  12  27  47  86 125 157 211 280 343 410 491
#     4  12  26  52  83 120 164 214 278 341 407 489
#     4  12  29  49  82 118 169 217 273 339 418 488
#     4  12  26  50  83 117 162 215 278 338 408 488
#     4  12  27  49  84 124 157 214 278 346 407 494
#     4  12  29  49  82 120 165 219 271 339 422 484
#
# _framework density 25.984921
#
# number of rings (size 3 to 8) (size 9 to 14) (size 15 to 20)
#    0.000    0.000    6.667    2.000    2.333    4.000 
#    0.000    0.000    0.000    0.000    0.000    0.000 
#    0.000    0.000    0.000    0.000    0.000    0.000 
#
# Total GULP energy -67037.434476 kJ/mol
# GULP energy per Si atom -5586.452873 kJ/mol
# Density = 2.592578 g / cm^3
# Si number density = 25.984921 Si / 1000 Ang^3
#
#
#
# Elastic Constant Matrix: (Units=GPa)
#
#
# Indices 1 2 3 4 5 6 
#
# 1 193.3681 52.9262 67.4961 0.0000 -21.7249 0.0000
# 2 52.9262 111.8476 29.3143 0.0000 -15.4593 0.0000
# 3 67.4961 29.3143 138.7166 0.0000 -47.4718 0.0000
# 4 0.0000 0.0000 0.0000 24.6993 0.0000 -13.5955
# 5 -21.7249 -15.4593 -47.4718 0.0000 60.5730 0.0000
# 6 0.0000 0.0000 0.0000 -13.5955 0.0000 30.2060
#
#
#
# Elastic Compliance Matrix: (Units=1/GPa)
#
#
# Indices 1 2 3 4 5 6 
#
# 1 0.006844 -0.002531 -0.002974 0.000000 -0.000522 0.000000
# 2 -0.002531 0.010461 -0.000514 0.000000 0.001359 0.000000
# 3 -0.002974 -0.000514 0.011417 0.000000 0.007750 0.000000
# 4 0.000000 0.000000 0.000000 0.053821 0.000000 0.024224
# 5 -0.000522 0.001359 0.007750 0.000000 0.022742 0.000000
# 6 0.000000 0.000000 0.000000 0.024224 0.000000 0.044009
#
#
# Mechanical properties :
#
#
# Convention : Reuss Voigt Hill
#
# Bulk Modulus (GPa) = 59.93874 82.60061 71.26967
# Shear Modulus (GPa) = 29.95942 42.70870 36.33406
#
# Velocity S-wave (km/s) = 3.39920 4.05853 3.74341
# Velocity P-wave (km/s) = 6.20668 7.33615 6.79492
#
# Compressibility (1/GPa) = 0.01668370
#
# Stress axis : x y z
#
# Youngs Moduli (GPa) = 146.12168 95.59269 87.59222
#
# Poissons Ratio (x) = 0.24196 0.26047
# Poissons Ratio (y) = 0.36986 0.04501
# Poissons Ratio (z) = 0.43452 0.04913
#
# Static dielectric constant tensor:
#      x y z
#    x 2.066430 0.000000 0.021080 
#    y 0.000000 2.187590 0.000000 
#    z 0.021080 0.000000 2.027080 
# 
# From -- ./inp_files/5317.got.cif
#   From: 2010.05.17/outbox.cif.g08.bks.cpg/sg9_3_cif.got.tgz:5317.got - 2010.06.03 20:04:27.
