data_PCOD9141433
_publ_section_title
;
Structure prediction by ZEFSAII (Michael W. Deem and Ramdas Pophale) SiO2 
 PCOD9141433
Probable space group: P 2/M
;
_chemical_formula_sum "Si O2"
_cell_formula_units_Z 24
_cell_length_a 10.838988
_cell_length_b 14.103004
_cell_length_c 14.271566
_cell_angle_alpha 90.000000
_cell_angle_beta 148.144580
_cell_angle_gamma 90.000000
_cell_volume 1151.391351
_symmetry_space_group_name_H-M "P 2/M"
_symmetry_group_IT_number 10
_symmetry_cell_setting 'monoclinic'
loop_
_space_group_symop_operation_xyz
x,y,z
-x,y,-z
-x,-y,-z
x,-y,z
loop_
_atom_site_type_symbol
_atom_site_label
_atom_site_fract_x
_atom_site_fract_y
_atom_site_fract_z
Si Si1 0.504302 0.890888 0.891779
Si Si2 0.476817 0.265168 0.735644
Si Si3 0.265210 0.898879 0.205962
Si Si4 0.911539 0.612256 0.049132
Si Si5 0.274684 0.705232 0.424844
Si Si6 0.048297 0.897285 0.262009
O O1 0.380372 0.808027 0.752192
O O2 0.423150 0.000000 0.824342
O O3 0.500000 0.872693 0.000000
O O4 0.784676 0.888259 0.052066
O O5 0.597889 0.189460 0.743469
O O6 0.343565 0.330417 0.573367
O O7 0.674621 0.329200 0.910511
O O8 0.230180 0.900666 0.293818
O O9 0.369414 0.000000 0.243126
O O10 0.000000 0.894159 0.000000
O O11 0.875950 0.500000 0.030755
O O12 0.098035 0.644967 0.246907
O O13 0.000000 0.635223 0.000000
O O14 0.500000 0.714901 0.500000
O O15 0.132132 0.801165 0.362296
O O16 0.056147 0.000000 0.316649
#
# Coordination Sequence:
#
# PCOD9141433 Si02
#       6
#     4   4   4   4   4   4
#     4  10  21  38  61  86 118 164 208 244 288 343
#     4  12  21  36  60  84 117 158 198 239 294 353
#     4  10  16  25  48  79 112 148 180 221 275 336
#     4  11  23  39  58  85 124 158 190 238 300 362
#     4  12  22  34  56  91 123 154 194 235 290 367
#     4  10  19  32  51  81 122 154 187 234 283 345
#
# _framework density 20.844346999999999
#
# number of rings (size 3 to 8) (size 9 to 14) (size 15 to 20)
#    0.000    1.167    6.667    1.000    0.000    2.667 
#    0.000    0.833    0.000    3.500    0.000    1.167 
#    0.000    0.000    0.000    0.000    0.000    0.000 
#
# Total GULP energy -133726.468128 kJ/mol
# GULP energy per Si atom -5571.936172 kJ/mol
# Density = 2.079690 g / cm^3
# Si number density = 20.844347 Si / 1000 Ang^3
#
#
#
# Elastic Constant Matrix: (Units=GPa)
#
#
# Indices 1 2 3 4 5 6 
#
# 1 63.2999 9.1438 7.4727 0.0000 -29.8434 0.0000
# 2 9.1438 79.5177 24.2782 0.0000 -7.4157 0.0000
# 3 7.4727 24.2782 88.7172 0.0000 -21.7291 0.0000
# 4 0.0000 0.0000 0.0000 -2.8002 0.0000 -2.5233
# 5 -29.8434 -7.4157 -21.7291 0.0000 24.6868 0.0000
# 6 0.0000 0.0000 0.0000 -2.5233 0.0000 12.7183
#
#
#
# Elastic Compliance Matrix: (Units=1/GPa)
#
#
# Indices 1 2 3 4 5 6 
#
# 1 0.045857 -0.003134 0.013185 0.000000 0.066099 0.000000
# 2 -0.003134 0.013958 -0.004407 0.000000 -0.003475 0.000000
# 3 0.013185 -0.004407 0.019054 0.000000 0.031386 0.000000
# 4 0.000000 0.000000 0.000000 -0.302953 0.000000 -0.060105
# 5 0.066099 -0.003475 0.031386 0.000000 0.146995 0.000000
# 6 0.000000 0.000000 0.000000 -0.060105 0.000000 0.066703
#
#
# Mechanical properties :
#
#
# Convention : Reuss Voigt Hill
#
# Bulk Modulus (GPa) = 11.09186 34.81381 22.95283
# Shear Modulus (GPa) = 596.70536 19.63031 308.16784
#
# Velocity S-wave (km/s) = 16.93779 3.07214 12.17224
# Velocity P-wave (km/s) = 19.69394 5.41499 14.44253
#
# Compressibility (1/GPa) = 0.09015619
#
# Stress axis : x y z
#
# Youngs Moduli (GPa) = 21.80681 71.64550 52.48114
#
# Poissons Ratio (x) = 0.22456 -0.69194
# Poissons Ratio (y) = 0.06835 0.23127
# Poissons Ratio (z) = -0.28751 0.31572
#
# Static dielectric constant tensor:
#      x y z
#    x 1.806010 0.000000 -0.048280 
#    y 0.000000 1.791190 0.000000 
#    z -0.048280 0.000000 1.868840 
# 
# From -- ./inp_files/51675.got.cif
#   From: 2010.05.17/outbox.cif.g08.bks.cpg/sg10_26_cif.got.tgz:51675.got - 2010.06.03 11:33:40.
