data_PCOD9141823
_publ_section_title
;
Structure prediction by ZEFSAII (Michael W. Deem and Ramdas Pophale) SiO2 
 PCOD9141823
Probable space group: P 2/M
;
_chemical_formula_sum "Si O2"
_cell_formula_units_Z 28
_cell_length_a 14.578450
_cell_length_b 7.357138
_cell_length_c 11.242754
_cell_angle_alpha 90.000000
_cell_angle_beta 101.323362
_cell_angle_gamma 90.000000
_cell_volume 1182.376859
_symmetry_space_group_name_H-M "P 2/M"
_symmetry_group_IT_number 10
_symmetry_cell_setting 'monoclinic'
loop_
_space_group_symop_operation_xyz
x,y,z
-x,y,-z
-x,-y,-z
x,-y,z
loop_
_atom_site_type_symbol
_atom_site_label
_atom_site_fract_x
_atom_site_fract_y
_atom_site_fract_z
Si Si1 0.212253 0.777256 0.792336
Si Si2 0.400225 0.217237 0.733789
Si Si3 0.212222 0.791853 0.049383
Si Si4 0.394678 0.780180 0.469746
Si Si5 0.789272 0.776990 0.692201
Si Si6 0.891590 0.221256 0.475388
Si Si7 0.428250 0.291026 0.081932
O O1 0.320937 0.722547 0.804887
O O2 0.157253 0.719496 0.660294
O O3 0.210916 0.000000 0.793026
O O4 0.180134 0.714030 0.914238
O O5 0.360394 0.260863 0.594080
O O6 0.504020 0.284860 0.785980
O O7 0.407390 0.000000 0.740482
O O8 0.182339 0.713445 0.169159
O O9 0.326647 0.794044 0.074594
O O10 0.179725 0.000000 0.041622
O O11 0.500000 0.711789 0.500000
O O12 0.317763 0.717812 0.357987
O O13 0.399740 0.000000 0.457482
O O14 0.846272 0.720815 0.589433
O O15 0.790909 0.000000 0.694517
O O16 0.000000 0.271315 0.500000
O O17 0.884764 0.000000 0.473403
O O18 0.411146 0.500000 0.047104
O O19 0.500000 0.212383 0.000000
#
# Coordination Sequence:
#
# PCOD9141823 Si02
#       7
#     4   4   4   4   4   4   4
#     4   9  16  27  44  68  93 123 164 203 235 284
#     4  10  17  28  47  66  89 125 170 208 234 270
#     4  10  19  31  49  70  96 129 168 208 239 273
#     4   9  15  23  39  64  90 118 159 204 236 268
#     4   9  16  27  43  69  97 125 166 205 239 288
#     4   9  16  28  46  70 103 134 154 191 258 313
#     4  11  22  32  43  66 102 136 167 200 242 296
#
# _framework density 23.681114999999998
#
# number of rings (size 3 to 8) (size 9 to 14) (size 15 to 20)
#    0.000    2.429    2.857    1.286    0.000    2.857 
#    0.000    0.714    0.000    8.143    0.000    0.000 
#    0.000    6.286    0.000    0.000    0.000    0.000 
#
# Total GULP energy -156291.733678 kJ/mol
# GULP energy per Si atom -5581.847631 kJ/mol
# Density = 2.362722 g / cm^3
# Si number density = 23.681115 Si / 1000 Ang^3
#
#
#
# Elastic Constant Matrix: (Units=GPa)
#
#
# Indices 1 2 3 4 5 6 
#
# 1 93.0851 -3.6868 70.5789 0.0000 -11.2671 0.0000
# 2 -3.6868 86.4350 11.3396 0.0000 -4.6180 0.0000
# 3 70.5789 11.3396 188.3391 0.0000 -25.5232 0.0000
# 4 0.0000 0.0000 0.0000 -123.4868 0.0000 -54.1919
# 5 -11.2671 -4.6180 -25.5232 0.0000 29.7619 0.0000
# 6 0.0000 0.0000 0.0000 -54.1919 0.0000 -43.9097
#
#
#
# Elastic Compliance Matrix: (Units=1/GPa)
#
#
# Indices 1 2 3 4 5 6 
#
# 1 0.015209 0.001449 -0.005630 0.000000 0.001154 0.000000
# 2 0.001449 0.011849 -0.001056 0.000000 0.001482 0.000000
# 3 -0.005630 -0.001056 0.008115 0.000000 0.004664 0.000000
# 4 0.000000 0.000000 0.000000 -0.017666 0.000000 0.021803
# 5 0.001154 0.001482 0.004664 0.000000 0.038267 0.000000
# 6 0.000000 0.000000 0.000000 0.021803 0.000000 -0.049683
#
#
# Mechanical properties :
#
#
# Convention : Reuss Voigt Hill
#
# Bulk Modulus (GPa) = 40.48715 58.25805 49.37260
# Shear Modulus (GPa) = 201.63283 -8.21844 96.70720
#
# Velocity S-wave (km/s) = 9.23741 -1.86494 6.39734
# Velocity P-wave (km/s) = 11.44146 4.47405 8.68689
#
# Compressibility (1/GPa) = 0.02469919
#
# Stress axis : x y z
#
# Youngs Moduli (GPa) = 65.75079 84.39632 123.22688
#
# Poissons Ratio (x) = -0.12229 0.69380
# Poissons Ratio (y) = -0.09528 0.13008
# Poissons Ratio (z) = 0.37020 0.08909
#
# Static dielectric constant tensor:
#      x y z
#    x 1.860960 0.000000 -0.054120 
#    y 0.000000 1.888540 0.000000 
#    z -0.054120 0.000000 1.973630 
# 
# From -- ./inp_files/49365.got.cif
#   From: 2010.05.17/outbox.cif.g08.bks.cpg/sg10_25_cif.got.tgz:49365.got - 2010.06.03 11:33:40.
