data_PCOD9141050
_publ_section_title
;
Structure prediction by ZEFSAII (Michael W. Deem and Ramdas Pophale) SiO2 
 PCOD9141050
Probable space group: C C
;
_chemical_formula_sum "Si O2"
_cell_formula_units_Z 32
_cell_length_a 6.302808
_cell_length_b 14.084229
_cell_length_c 15.819888
_cell_angle_alpha 90.000000
_cell_angle_beta 64.759471
_cell_angle_gamma 90.000000
_cell_volume 1270.256554
_symmetry_space_group_name_H-M "C C"
_symmetry_group_IT_number 9
_symmetry_cell_setting 'monoclinic'
loop_
_space_group_symop_operation_xyz
x,y,z
x,-y,1/2+z
1/2+x,1/2+y,z
1/2+x,1/2-y,1/2+z
loop_
_atom_site_type_symbol
_atom_site_label
_atom_site_fract_x
_atom_site_fract_y
_atom_site_fract_z
Si Si1 0.726420 0.960760 0.366480
Si Si2 0.111489 0.196167 0.513827
Si Si3 0.673929 0.249069 0.825889
Si Si4 0.569439 0.114253 0.263224
Si Si5 0.420583 0.656780 0.055710
Si Si6 0.243218 0.032034 0.736544
Si Si7 0.604016 0.794156 0.163280
Si Si8 0.785173 0.504843 0.034423
O O1 0.645916 0.864701 0.332934
O O2 0.001791 0.943897 0.323556
O O3 0.686091 0.056976 0.319769
O O4 0.558293 0.968716 0.476196
O O5 0.041433 0.207619 0.428197
O O6 0.271371 0.287215 0.510520
O O7 0.253186 0.100248 0.503665
O O8 0.881559 0.185262 0.610982
O O9 0.577839 0.273178 0.749614
O O10 0.944895 0.283173 0.793705
O O11 0.735453 0.114446 0.153822
O O12 0.351131 0.050234 0.273953
O O13 0.545353 0.738926 0.088439
O O14 0.618697 0.576690 0.010019
O O15 0.429499 0.117561 0.698522
O O16 0.211108 0.996998 0.645092
#
# Coordination Sequence:
#
# PCOD9141050 Si02
#       8
#     4   4   4   4   4   4   4   4
#     4  12  27  50  72 113 153 200 266 321 394 478
#     4  12  27  50  77 117 157 206 267 331 400 482
#     4  12  26  49  76 111 158 199 263 320 396 481
#     4  12  25  48  76 107 150 208 255 323 397 470
#     4  12  26  49  81 112 156 207 260 330 404 472
#     4  12  26  49  79 109 156 207 255 331 392 471
#     4  12  25  50  78 112 157 209 256 329 401 475
#     4  12  26  51  77 115 155 204 270 325 400 477
#
# _framework density 25.191763999999999
#
# number of rings (size 3 to 8) (size 9 to 14) (size 15 to 20)
#    0.000    0.000    6.250    3.750    1.750    2.000 
#    9.000    0.000    0.000    0.000    0.000    0.000 
#    0.000    0.000    0.000    0.000    0.000    0.000 
#
# Total GULP energy -89590.032201 kJ/mol
# GULP energy per Si atom -5599.377013 kJ/mol
# Density = 2.513443 g / cm^3
# Si number density = 25.191764 Si / 1000 Ang^3
#
#
#
# Elastic Constant Matrix: (Units=GPa)
#
#
# Indices 1 2 3 4 5 6 
#
# 1 72.1788 46.3600 45.1590 0.0000 -11.3869 0.0000
# 2 46.3600 119.7339 27.1676 0.0000 -11.5329 0.0000
# 3 45.1590 27.1676 123.1380 0.0000 -19.1356 0.0000
# 4 0.0000 0.0000 0.0000 21.9657 0.0000 -3.7077
# 5 -11.3869 -11.5329 -19.1356 0.0000 43.3532 0.0000
# 6 0.0000 0.0000 0.0000 -3.7077 0.0000 50.7020
#
#
#
# Elastic Compliance Matrix: (Units=1/GPa)
#
#
# Indices 1 2 3 4 5 6 
#
# 1 0.022796 -0.007220 -0.006587 0.000000 0.001159 0.000000
# 2 -0.007220 0.011182 0.000374 0.000000 0.001243 0.000000
# 3 -0.006587 0.000374 0.010952 0.000000 0.003203 0.000000
# 4 0.000000 0.000000 0.000000 0.046095 0.000000 0.003371
# 5 0.001159 0.001243 0.003203 0.000000 0.025116 0.000000
# 6 0.000000 0.000000 0.000000 0.003371 0.000000 0.019970
#
#
# Mechanical properties :
#
#
# Convention : Reuss Voigt Hill
#
# Bulk Modulus (GPa) = 55.35872 61.38041 58.36956
# Shear Modulus (GPa) = 29.58620 36.29513 32.94067
#
# Velocity S-wave (km/s) = 3.43073 3.79984 3.61999
# Velocity P-wave (km/s) = 6.14132 6.60832 6.37910
#
# Compressibility (1/GPa) = 0.01806400
#
# Stress axis : x y z
#
# Youngs Moduli (GPa) = 43.86728 89.42658 91.30798
#
# Poissons Ratio (x) = 0.64568 0.60144
# Poissons Ratio (y) = 0.31673 -0.03415
# Poissons Ratio (z) = 0.28895 -0.03344
#
# Static dielectric constant tensor:
#      x y z
#    x 2.064460 0.000000 -0.032130 
#    y 0.000000 2.007510 0.000000 
#    z -0.032130 0.000000 2.012600 
# 
# From -- ./inp_files/28672.got.cif
#   From: 2010.05.17/outbox.cif.g08.bks.cpg/sg9_15_cif.got.tgz:28672.got - 2010.06.03 20:04:27.
