data_PCOD9141875
_publ_section_title
;
Structure prediction by ZEFSAII (Michael W. Deem and Ramdas Pophale) SiO2 
 PCOD9141875
Probable space group: P 2/M
;
_chemical_formula_sum "Si O2"
_cell_formula_units_Z 28
_cell_length_a 10.145595
_cell_length_b 16.887150
_cell_length_c 16.038642
_cell_angle_alpha 90.000000
_cell_angle_beta 37.436344
_cell_angle_gamma 90.000000
_cell_volume 1670.394567
_symmetry_space_group_name_H-M "P 2/M"
_symmetry_group_IT_number 10
_symmetry_cell_setting 'monoclinic'
loop_
_space_group_symop_operation_xyz
x,y,z
-x,y,-z
-x,-y,-z
x,-y,z
loop_
_atom_site_type_symbol
_atom_site_label
_atom_site_fract_x
_atom_site_fract_y
_atom_site_fract_z
Si Si1 0.306058 0.000000 0.482444
Si Si2 0.249246 0.747287 0.594178
Si Si3 0.657119 0.765045 0.150039
Si Si4 0.040186 0.171329 0.852111
Si Si5 0.772180 0.166550 0.568606
Si Si6 0.255439 0.590357 0.852179
Si Si7 0.820580 0.000000 0.262106
Si Si8 0.254466 0.584701 0.654657
O O1 0.254526 0.921303 0.456033
O O2 0.564407 0.000000 0.369568
O O3 0.183282 0.000000 0.634120
O O4 0.500000 0.751384 0.500000
O O5 0.240227 0.775448 0.504719
O O6 0.161753 0.658926 0.652689
O O7 0.109605 0.800959 0.725822
O O8 0.426578 0.807789 0.272404
O O9 0.641875 0.669030 0.158451
O O10 0.789685 0.790876 0.167192
O O11 0.808024 0.797148 0.999540
O O12 0.069319 0.077197 0.833272
O O13 0.000000 0.173184 0.500000
O O14 0.332208 0.500000 0.834455
O O15 0.270498 0.600111 0.744948
O O16 0.000000 0.593269 0.000000
O O17 0.500000 0.578729 0.500000
O O18 0.143638 0.500000 0.697437
#
# Coordination Sequence:
#
# PCOD9141875 Si02
#       8
#     2   4   4   4   4   4   2   4
#     4  11  21  37  59  82 111 142 194 232 273 338
#     4  11  17  34  57  79 105 145 188 226 275 333
#     4  11  20  35  53  85 119 143 185 232 281 329
#     4  11  20  32  57  84 110 143 181 235 277 328
#     4  12  25  39  57  80 112 152 193 232 280 335
#     4  10  17  28  50  83 119 145 173 229 291 331
#     4  11  20  34  60  91 106 141 188 233 284 334
#     4   9  16  25  44  75 106 135 173 222 273 320
#
# _framework density 16.762505999999998
#
# number of rings (size 3 to 8) (size 9 to 14) (size 15 to 20)
#    0.000    1.286    7.143    1.071    0.000    1.714 
#    0.000    0.714    0.000    2.571    0.000    0.000 
#    0.000    5.714    0.000    0.000    0.000    0.000 
#
# Total GULP energy -156077.504377 kJ/mol
# GULP energy per Si atom -5574.196585 kJ/mol
# Density = 1.672435 g / cm^3
# Si number density = 16.762506 Si / 1000 Ang^3
#
#
#
# Elastic Constant Matrix: (Units=GPa)
#
#
# Indices 1 2 3 4 5 6 
#
# 1 54.7797 25.2650 30.0290 0.0000 -10.8590 0.0000
# 2 25.2650 153.0903 24.0957 0.0000 -3.0431 0.0000
# 3 30.0290 24.0957 114.2586 0.0000 2.3781 0.0000
# 4 0.0000 0.0000 0.0000 27.2732 0.0000 4.8014
# 5 -10.8590 -3.0431 2.3781 0.0000 19.9543 0.0000
# 6 0.0000 0.0000 0.0000 4.8014 0.0000 -2.4100
#
#
#
# Elastic Compliance Matrix: (Units=1/GPa)
#
#
# Indices 1 2 3 4 5 6 
#
# 1 0.026091 -0.002990 -0.006529 0.000000 0.014521 0.000000
# 2 -0.002990 0.007128 -0.000708 0.000000 -0.000456 0.000000
# 3 -0.006529 -0.000708 0.010720 0.000000 -0.004939 0.000000
# 4 0.000000 0.000000 0.000000 0.027145 0.000000 0.054081
# 5 0.014521 -0.000456 -0.004939 0.000000 0.058536 0.000000
# 6 0.000000 0.000000 0.000000 0.054081 0.000000 -0.307197
#
#
# Mechanical properties :
#
#
# Convention : Reuss Voigt Hill
#
# Bulk Modulus (GPa) = 42.57844 53.43422 48.00633
# Shear Modulus (GPa) = -33.49068 25.14612 -4.17228
#
# Velocity S-wave (km/s) = -4.47469 3.87737 -1.57939
# Velocity P-wave (km/s) = 1.11402 7.21053 5.03739
#
# Compressibility (1/GPa) = 0.02348607
#
# Stress axis : x y z
#
# Youngs Moduli (GPa) = 38.32698 140.29461 93.28287
#
# Poissons Ratio (x) = 0.41943 0.60904
# Poissons Ratio (y) = 0.11458 0.06604
# Poissons Ratio (z) = 0.25024 0.09932
#
# Static dielectric constant tensor:
#      x y z
#    x 1.523710 0.000000 0.005000 
#    y 0.000000 1.661390 0.000000 
#    z 0.005000 0.000000 1.564400 
# 
# From -- ./inp_files/30143.got.cif
#   From: 2010.05.17/outbox.cif.g08.bks.cpg/sg10_16_cif.got.tgz:30143.got - 2010.06.03 11:33:40.
