data_PCOD9141102
_publ_section_title
;
Structure prediction by ZEFSAII (Michael W. Deem and Ramdas Pophale) SiO2 
 PCOD9141102
Probable space group: C C
;
_chemical_formula_sum "Si O2"
_cell_formula_units_Z 28
_cell_length_a 6.459029
_cell_length_b 16.302642
_cell_length_c 13.776919
_cell_angle_alpha 90.000000
_cell_angle_beta 125.016994
_cell_angle_gamma 90.000000
_cell_volume 1188.096255
_symmetry_space_group_name_H-M "C C"
_symmetry_group_IT_number 9
_symmetry_cell_setting 'monoclinic'
loop_
_space_group_symop_operation_xyz
x,y,z
x,-y,1/2+z
1/2+x,1/2+y,z
1/2+x,1/2-y,1/2+z
loop_
_atom_site_type_symbol
_atom_site_label
_atom_site_fract_x
_atom_site_fract_y
_atom_site_fract_z
Si Si1 0.139490 0.211943 0.585310
Si Si2 0.273369 0.075073 0.070100
Si Si3 0.231489 0.655678 0.237395
Si Si4 0.294595 0.680084 0.943141
Si Si5 0.879599 0.564484 0.735950
Si Si6 0.571189 0.823845 0.915526
Si Si7 0.693617 0.468437 0.860673
O O1 0.300485 0.256410 0.712887
O O2 0.181506 0.261370 0.496990
O O3 0.260197 0.121931 0.621042
O O4 0.847951 0.194676 0.533571
O O5 0.501701 0.134281 0.102309
O O6 0.417059 0.019724 0.188191
O O7 0.038570 0.127646 0.046577
O O8 0.190863 0.020377 0.958063
O O9 0.125901 0.667657 0.316286
O O10 0.454483 0.591314 0.291825
O O11 0.402379 0.744581 0.893657
O O12 0.111744 0.611365 0.848232
O O13 0.699436 0.534557 0.775051
O O14 0.435462 0.907051 0.915984
#
# Coordination Sequence:
#
# PCOD9141102 Si02
#       7
#     4   4   4   4   4   4   4
#     4  12  27  47  78 109 150 207 254 307 383 452
#     4  12  26  48  76 110 151 201 245 318 384 442
#     4  12  26  49  73 108 150 200 254 306 384 452
#     4  12  28  51  74 116 156 197 265 308 373 475
#     4  12  27  46  80 108 154 202 244 320 385 436
#     4  12  26  49  76 109 154 200 254 308 372 469
#     4  12  28  48  75 114 157 191 260 319 375 464
#
# _framework density 23.567112999999999
#
# number of rings (size 3 to 8) (size 9 to 14) (size 15 to 20)
#    0.000    0.000    2.857    6.857    8.000    1.143 
#    0.000    0.000    0.000    0.000    0.000    0.000 
#    0.000    0.000    0.000    0.000    0.000    0.000 
#
# Total GULP energy -78288.250574 kJ/mol
# GULP energy per Si atom -5592.017898 kJ/mol
# Density = 2.351347 g / cm^3
# Si number density = 23.567113 Si / 1000 Ang^3
#
#
#
# Elastic Constant Matrix: (Units=GPa)
#
#
# Indices 1 2 3 4 5 6 
#
# 1 108.7028 37.1146 32.2944 0.0000 11.2946 0.0000
# 2 37.1146 93.0503 26.1443 0.0000 3.6377 0.0000
# 3 32.2944 26.1443 65.6335 0.0000 5.2601 0.0000
# 4 0.0000 0.0000 0.0000 58.3838 0.0000 -2.0137
# 5 11.2946 3.6377 5.2601 0.0000 41.9003 0.0000
# 6 0.0000 0.0000 0.0000 -2.0137 0.0000 46.9402
#
#
#
# Elastic Compliance Matrix: (Units=1/GPa)
#
#
# Indices 1 2 3 4 5 6 
#
# 1 0.011897 -0.003447 -0.004291 0.000000 -0.002369 0.000000
# 2 -0.003447 0.013108 -0.003544 0.000000 0.000236 0.000000
# 3 -0.004291 -0.003544 0.018831 0.000000 -0.000900 0.000000
# 4 0.000000 0.000000 0.000000 0.017153 0.000000 0.000736
# 5 -0.002369 0.000236 -0.000900 0.000000 0.024597 0.000000
# 6 0.000000 0.000000 0.000000 0.000736 0.000000 0.021335
#
#
# Mechanical properties :
#
#
# Convention : Reuss Voigt Hill
#
# Bulk Modulus (GPa) = 47.00977 50.94368 48.97672
# Shear Modulus (GPa) = 36.60890 40.90044 38.75467
#
# Velocity S-wave (km/s) = 3.94558 4.17044 4.05957
# Velocity P-wave (km/s) = 6.38336 6.69727 6.54220
#
# Compressibility (1/GPa) = 0.02127217
#
# Stress axis : x y z
#
# Youngs Moduli (GPa) = 84.05243 76.28662 53.10277
#
# Poissons Ratio (x) = 0.26297 0.22786
# Poissons Ratio (y) = 0.28974 0.18821
# Poissons Ratio (z) = 0.36067 0.27039
#
# Static dielectric constant tensor:
#      x y z
#    x 1.885680 0.000000 0.011910 
#    y 0.000000 1.892320 0.000000 
#    z 0.011910 0.000000 1.914260 
# 
# From -- ./inp_files/13141.got.cif
#   From: 2010.05.17/outbox.cif.g08.bks.cpg/sg9_7_cif.got.tgz:13141.got - 2010.06.03 20:04:27.
