data_PCOD9141512
_publ_section_title
;
Structure prediction by ZEFSAII (Michael W. Deem and Ramdas Pophale) SiO2 
 PCOD9141512
Probable space group: P 2/M
;
_chemical_formula_sum "Si O2"
_cell_formula_units_Z 16
_cell_length_a 11.576292
_cell_length_b 7.710399
_cell_length_c 10.734103
_cell_angle_alpha 90.000000
_cell_angle_beta 70.869481
_cell_angle_gamma 90.000000
_cell_volume 905.191024
_symmetry_space_group_name_H-M "P 2/M"
_symmetry_group_IT_number 10
_symmetry_cell_setting 'monoclinic'
loop_
_space_group_symop_operation_xyz
x,y,z
-x,y,-z
-x,-y,-z
x,-y,z
loop_
_atom_site_type_symbol
_atom_site_label
_atom_site_fract_x
_atom_site_fract_y
_atom_site_fract_z
Si Si1 0.131223 0.791616 0.592971
Si Si2 0.438331 0.000000 0.824698
Si Si3 0.616560 0.199024 0.391561
Si Si4 0.697257 0.000000 0.866823
Si Si5 0.142180 0.303227 0.297781
O O1 0.250163 0.728753 0.626284
O O2 0.151797 0.745827 0.440777
O O3 0.002207 0.713098 0.680097
O O4 0.117578 0.000000 0.608678
O O5 0.410777 0.163106 0.743508
O O6 0.577870 0.000000 0.820171
O O7 0.352862 0.000000 0.975164
O O8 0.500000 0.282483 0.500000
O O9 0.623951 0.000000 0.443595
O O10 0.778665 0.167241 0.807145
O O11 0.182896 0.500000 0.265014
#
# Coordination Sequence:
#
# PCOD9141512 Si02
#       5
#     4   2   4   2   4
#     4  10  16  31  55  81 106 135 175 218 267 309
#     4   9  19  33  55  84 100 138 184 217 258 323
#     4   8  15  28  53  84 103 129 174 219 263 313
#     4  11  20  36  57  77 104 146 180 209 269 316
#     4  11  21  33  53  82 111 139 177 220 260 313
#
# _framework density 17.675827999999999
#
# number of rings (size 3 to 8) (size 9 to 14) (size 15 to 20)
#    0.750    1.500    2.500    3.750    0.000    0.000 
#    0.000    5.000    0.000   18.000    0.000    0.000 
#    0.000    0.000    0.000    0.000    0.000    0.000 
#
# Total GULP energy -89120.456110 kJ/mol
# GULP energy per Si atom -5570.028507 kJ/mol
# Density = 1.763560 g / cm^3
# Si number density = 17.675828 Si / 1000 Ang^3
#
#
#
# Elastic Constant Matrix: (Units=GPa)
#
#
# Indices 1 2 3 4 5 6 
#
# 1 135.8067 12.5792 73.9579 0.0000 -2.5925 0.0000
# 2 12.5792 86.7564 32.3219 0.0000 -9.9667 0.0000
# 3 73.9579 32.3219 108.2782 0.0000 -12.5885 0.0000
# 4 0.0000 0.0000 0.0000 -4.5972 0.0000 2.6462
# 5 -2.5925 -9.9667 -12.5885 0.0000 23.9987 0.0000
# 6 0.0000 0.0000 0.0000 2.6462 0.0000 -10.9356
#
#
#
# Elastic Compliance Matrix: (Units=1/GPa)
#
#
# Indices 1 2 3 4 5 6 
#
# 1 0.012066 0.001255 -0.008950 0.000000 -0.002870 0.000000
# 2 0.001255 0.013394 -0.004465 0.000000 0.003356 0.000000
# 3 -0.008950 -0.004465 0.017416 0.000000 0.006314 0.000000
# 4 0.000000 0.000000 0.000000 -0.252725 0.000000 -0.061154
# 5 -0.002870 0.003356 0.006314 0.000000 0.046065 0.000000
# 6 0.000000 0.000000 0.000000 -0.061154 0.000000 -0.106242
#
#
# Mechanical properties :
#
#
# Convention : Reuss Voigt Hill
#
# Bulk Modulus (GPa) = 53.89304 63.17326 58.53315
# Shear Modulus (GPa) = -20.87503 15.82532 -2.52485
#
# Velocity S-wave (km/s) = -3.44029 2.99542 -1.19646
# Velocity P-wave (km/s) = 3.84384 6.91237 5.59267
#
# Compressibility (1/GPa) = 0.01855527
#
# Stress axis : x y z
#
# Youngs Moduli (GPa) = 82.87433 74.66241 57.41918
#
# Poissons Ratio (x) = -0.09372 0.51391
# Poissons Ratio (y) = -0.10402 0.25639
# Poissons Ratio (z) = 0.74174 0.33339
#
# Static dielectric constant tensor:
#      x y z
#    x 1.643580 0.000000 -0.011630 
#    y 0.000000 1.622270 0.000000 
#    z -0.011630 0.000000 1.568380 
# 
# From -- ./inp_files/44163.got.cif
#   From: 2010.05.17/outbox.cif.g08.bks.cpg/sg10_23_cif.got.tgz:44163.got - 2010.06.03 11:33:40.
