data_PCOD9141197
_publ_section_title
;
Structure prediction by ZEFSAII (Michael W. Deem and Ramdas Pophale) SiO2 
 PCOD9141197
Probable space group: C C
;
_chemical_formula_sum "Si O2"
_cell_formula_units_Z 32
_cell_length_a 12.065318
_cell_length_b 7.078543
_cell_length_c 14.597195
_cell_angle_alpha 90.000000
_cell_angle_beta 118.032620
_cell_angle_gamma 90.000000
_cell_volume 1100.412274
_symmetry_space_group_name_H-M "C C"
_symmetry_group_IT_number 9
_symmetry_cell_setting 'monoclinic'
loop_
_space_group_symop_operation_xyz
x,y,z
x,-y,1/2+z
1/2+x,1/2+y,z
1/2+x,1/2-y,1/2+z
loop_
_atom_site_type_symbol
_atom_site_label
_atom_site_fract_x
_atom_site_fract_y
_atom_site_fract_z
Si Si1 0.807330 0.163135 0.703960
Si Si2 0.913611 0.758230 0.523105
Si Si3 0.552337 0.289950 0.408439
Si Si4 0.805745 0.258736 0.158934
Si Si5 0.546624 0.741766 0.447831
Si Si6 0.154491 0.258737 0.312003
Si Si7 0.152908 0.836861 0.266978
Si Si8 0.407899 0.289954 0.062499
O O1 0.923742 0.253095 0.803328
O O2 0.693669 0.148467 0.731707
O O3 0.800978 0.249006 0.598280
O O4 0.846777 0.948276 0.703857
O O5 0.027698 0.704695 0.499848
O O6 0.899146 0.662734 0.617225
O O7 0.784830 0.727643 0.417837
O O8 0.910514 0.984445 0.541571
O O9 0.549723 0.515552 0.429365
O O10 0.659258 0.250991 0.372657
O O11 0.766570 0.351523 0.239233
O O12 0.675406 0.227644 0.053099
O O13 0.561089 0.837264 0.353711
O O14 0.432538 0.795302 0.471089
O O15 0.113463 0.051723 0.267079
O O16 0.036494 0.746907 0.167609
#
# Coordination Sequence:
#
# PCOD9141197 Si02
#       8
#     4   4   4   4   4   4   4   4
#     4   9  16  26  44  67  88 112 142 177 212 248
#     4   8  14  26  46  64  82 110 150 180 202 242
#     4   8  14  26  46  66  82 110 152 180 198 244
#     4   9  16  26  44  67  88 110 140 179 216 250
#     4   8  14  26  46  64  82 110 150 180 202 242
#     4   9  16  26  44  67  88 110 140 179 216 250
#     4   9  16  26  44  67  88 112 142 177 212 248
#     4   8  14  26  46  66  82 110 152 180 198 244
#
# _framework density 29.080009
#
# number of rings (size 3 to 8) (size 9 to 14) (size 15 to 20)
#    0.000    3.500    0.000    0.000    0.000    0.000 
#    0.000    0.000    0.000   81.000    0.000    0.000 
#    0.000    0.000    0.000    0.000    0.000    0.000 
#
# Total GULP energy -89406.902585 kJ/mol
# GULP energy per Si atom -5587.931412 kJ/mol
# Density = 2.901382 g / cm^3
# Si number density = 29.080009 Si / 1000 Ang^3
#
#
#
# Elastic Constant Matrix: (Units=GPa)
#
#
# Indices 1 2 3 4 5 6 
#
# 1 232.1303 16.5718 125.0361 0.0000 -93.7077 0.0000
# 2 16.5718 81.1738 21.2685 0.0000 2.1509 0.0000
# 3 125.0361 21.2685 207.3544 0.0000 -69.9174 0.0000
# 4 0.0000 0.0000 0.0000 13.5853 0.0000 -5.5207
# 5 -93.7077 2.1509 -69.9174 0.0000 88.6066 0.0000
# 6 0.0000 0.0000 0.0000 -5.5207 0.0000 30.8709
#
#
#
# Elastic Compliance Matrix: (Units=1/GPa)
#
#
# Indices 1 2 3 4 5 6 
#
# 1 0.008751 -0.001255 -0.002749 0.000000 0.007116 0.000000
# 2 -0.001255 0.013057 -0.001549 0.000000 -0.002866 0.000000
# 3 -0.002749 -0.001549 0.007728 0.000000 0.003228 0.000000
# 4 0.000000 0.000000 0.000000 0.079377 0.000000 0.014195
# 5 0.007116 -0.002866 0.003228 0.000000 0.021429 0.000000
# 6 0.000000 0.000000 0.000000 0.014195 0.000000 0.034932
#
#
# Mechanical properties :
#
#
# Convention : Reuss Voigt Hill
#
# Bulk Modulus (GPa) = 54.25823 94.04571 74.15197
# Shear Modulus (GPa) = 27.39404 50.46471 38.92938
#
# Velocity S-wave (km/s) = 3.07257 4.17030 3.66279
# Velocity P-wave (km/s) = 5.59342 7.45648 6.59111
#
# Compressibility (1/GPa) = 0.01843038
#
# Stress axis : x y z
#
# Youngs Moduli (GPa) = 114.27708 76.58562 129.40736
#
# Poissons Ratio (x) = 0.09611 0.35568
# Poissons Ratio (y) = 0.14340 0.20047
# Poissons Ratio (z) = 0.31409 0.11864
#
# Static dielectric constant tensor:
#      x y z
#    x 2.431690 0.000000 -0.089740 
#    y 0.000000 2.286340 0.000000 
#    z -0.089740 0.000000 2.284770 
# 
# From -- ./inp_files/23072.got.cif
#   From: 2010.05.17/outbox.cif.g08.bks.cpg/sg9_12_cif.got.tgz:23072.got - 2010.06.03 20:04:27.
