data_PCOD9141304
_publ_section_title
;
Structure prediction by ZEFSAII (Michael W. Deem and Ramdas Pophale) SiO2 
 PCOD9141304
Probable space group: P 2/M
;
_chemical_formula_sum "Si O2"
_cell_formula_units_Z 32
_cell_length_a 12.226464
_cell_length_b 22.981924
_cell_length_c 8.377028
_cell_angle_alpha 90.000000
_cell_angle_beta 49.978730
_cell_angle_gamma 90.000000
_cell_volume 1802.585434
_symmetry_space_group_name_H-M "P 2/M"
_symmetry_group_IT_number 10
_symmetry_cell_setting 'monoclinic'
loop_
_space_group_symop_operation_xyz
x,y,z
-x,y,-z
-x,-y,-z
x,-y,z
loop_
_atom_site_type_symbol
_atom_site_label
_atom_site_fract_x
_atom_site_fract_y
_atom_site_fract_z
Si Si1 0.674635 0.379982 0.680944
Si Si2 0.553917 0.838804 0.621259
Si Si3 0.658597 0.248291 0.774141
Si Si4 0.955660 0.065925 0.857225
Si Si5 0.265983 0.066766 0.418777
Si Si6 0.644327 0.569114 0.032212
Si Si7 0.726308 0.142828 0.904829
Si Si8 0.326452 0.567910 0.649286
O O1 0.705622 0.313293 0.693222
O O2 0.503581 0.394275 0.830838
O O3 0.726905 0.397643 0.455550
O O4 0.721007 0.416984 0.793073
O O5 0.500000 0.820696 0.500000
O O6 0.640789 0.788163 0.628214
O O7 0.650604 0.896410 0.526273
O O8 0.418400 0.853362 0.858879
O O9 0.749389 0.207091 0.807634
O O10 0.500000 0.252429 0.000000
O O11 0.848971 0.115224 0.897563
O O12 0.098713 0.068427 0.617184
O O13 0.894617 0.000000 0.896453
O O14 0.000000 0.072838 0.000000
O O15 0.292770 0.099744 0.227673
O O16 0.311996 0.000000 0.369525
O O17 0.608785 0.500000 0.071513
O O18 0.723335 0.583594 0.124443
O O19 0.500000 0.573350 0.500000
O O20 0.296091 0.500000 0.649468
#
# Coordination Sequence:
#
# PCOD9141304 Si02
#       8
#     4   4   4   4   4   4   4   4
#     4  10  14  23  37  50  76 113 154 200 229 272
#     4  10  21  34  48  68  98 129 160 202 239 288
#     4   9  18  31  41  59  84 121 166 196 226 283
#     4  10  20  34  55  80  99 117 154 203 252 302
#     4  10  20  34  53  75  96 123 157 194 243 299
#     4   9  15  21  34  55  78 109 153 201 242 278
#     4  10  20  34  50  68  98 128 159 201 238 295
#     4   8  14  21  30  51  77 103 146 197 240 279
#
# _framework density 17.752279000000001
#
# number of rings (size 3 to 8) (size 9 to 14) (size 15 to 20)
#    0.000    2.500    1.250    4.875    0.000    4.250 
#    0.000    0.000    0.000    0.000    0.000    0.000 
#    0.000    0.000    0.000    0.000    0.000   95.625 
#
# Total GULP energy -178211.634499 kJ/mol
# GULP energy per Si atom -5569.113578 kJ/mol
# Density = 1.771187 g / cm^3
# Si number density = 17.752279 Si / 1000 Ang^3
#
#
#
# Elastic Constant Matrix: (Units=GPa)
#
#
# Indices 1 2 3 4 5 6 
#
# 1 62.6773 41.8791 22.0403 0.0000 23.8796 0.0000
# 2 41.8791 116.3249 18.7590 0.0000 12.0728 0.0000
# 3 22.0403 18.7590 44.1325 0.0000 22.3363 0.0000
# 4 0.0000 0.0000 0.0000 -1.1609 0.0000 5.0388
# 5 23.8796 12.0728 22.3363 0.0000 26.8930 0.0000
# 6 0.0000 0.0000 0.0000 5.0388 0.0000 8.2816
#
#
#
# Elastic Compliance Matrix: (Units=1/GPa)
#
#
# Indices 1 2 3 4 5 6 
#
# 1 0.030565 -0.008611 0.000303 0.000000 -0.023526 0.000000
# 2 -0.008611 0.011692 -0.003248 0.000000 0.005095 0.000000
# 3 0.000303 -0.003248 0.040174 0.000000 -0.032178 0.000000
# 4 0.000000 0.000000 0.000000 -0.236587 0.000000 0.143948
# 5 -0.023526 0.005095 -0.032178 0.000000 0.082513 0.000000
# 6 0.000000 0.000000 0.000000 0.143948 0.000000 0.033166
#
#
# Mechanical properties :
#
#
# Convention : Reuss Voigt Hill
#
# Bulk Modulus (GPa) = 16.85827 43.16572 30.01199
# Shear Modulus (GPa) = 1134.18584 16.16649 575.17617
#
# Velocity S-wave (km/s) = 25.30381 3.02101 18.01956
# Velocity P-wave (km/s) = 29.38073 6.04459 21.21043
#
# Compressibility (1/GPa) = 0.05931807
#
# Stress axis : x y z
#
# Youngs Moduli (GPa) = 32.71681 85.53020 24.89148
#
# Poissons Ratio (x) = 0.73652 -0.00753
# Poissons Ratio (y) = 0.28173 0.08085
# Poissons Ratio (z) = -0.00990 0.27780
#
# Static dielectric constant tensor:
#      x y z
#    x 1.617140 0.000000 0.036710 
#    y 0.000000 1.606550 0.000000 
#    z 0.036710 0.000000 1.633440 
# 
# From -- ./inp_files/26041.got.cif
#   From: 2010.05.17/outbox.cif.g08.bks.cpg/sg10_14_cif.got.tgz:26041.got - 2010.06.03 11:33:40.
