data_PCOD9141352
_publ_section_title
;
Structure prediction by ZEFSAII (Michael W. Deem and Ramdas Pophale) SiO2 
 PCOD9141352
Probable space group: P 2/M
;
_chemical_formula_sum "Si O2"
_cell_formula_units_Z 20
_cell_length_a 16.262032
_cell_length_b 14.123584
_cell_length_c 9.111310
_cell_angle_alpha 90.000000
_cell_angle_beta 22.168516
_cell_angle_gamma 90.000000
_cell_volume 789.630924
_symmetry_space_group_name_H-M "P 2/M"
_symmetry_group_IT_number 10
_symmetry_cell_setting 'monoclinic'
loop_
_space_group_symop_operation_xyz
x,y,z
-x,y,-z
-x,-y,-z
x,-y,z
loop_
_atom_site_type_symbol
_atom_site_label
_atom_site_fract_x
_atom_site_fract_y
_atom_site_fract_z
Si Si1 0.235879 0.305414 0.532299
Si Si2 0.234538 0.101441 0.534012
Si Si3 0.614515 0.101518 0.151123
Si Si4 0.889955 0.500000 0.344249
Si Si5 0.737669 0.500000 0.030838
Si Si6 0.387212 0.305414 0.847365
O O1 0.253968 0.203110 0.423231
O O2 0.239834 0.401488 0.433416
O O3 0.419508 0.310979 0.353237
O O4 0.000000 0.302972 0.000000
O O5 0.419902 0.101847 0.352601
O O6 0.251649 0.000000 0.424886
O O7 0.000000 0.100909 0.000000
O O8 0.500000 0.101401 0.500000
O O9 0.728933 0.203386 0.947669
O O10 0.732102 0.000000 0.944723
O O11 0.000000 0.500000 0.000000
O O12 0.083774 0.500000 0.138804
O O13 0.500000 0.500000 0.500000
O O14 0.747406 0.402270 0.925888
O O15 0.500000 0.303787 0.500000
#
# Coordination Sequence:
#
# PCOD9141352 Si02
#       6
#     4   4   4   2   2   4
#     4   9  14  19  25  30  35  40  45  50  55  61
#     4   8  13  19  25  31  36  40  44  49  55  61
#     4   8  13  19  25  31  36  40  44  49  55  61
#     4  10  16  20  24  28  34  40  46  52  56  60
#     4  10  16  20  24  28  34  40  46  52  56  60
#     4   9  14  19  25  30  35  40  45  50  55  61
#
# _framework density 25.328289000000002
#
# number of rings (size 3 to 8) (size 9 to 14) (size 15 to 20)
#    0.000    3.200    0.000    5.400    0.000    1.600 
#    0.000    0.000    0.000    0.000    0.000    0.000 
#    0.000    0.000    0.000    0.000    0.000    0.000 
#
# Total GULP energy -111707.673936 kJ/mol
# GULP energy per Si atom -5585.383697 kJ/mol
# Density = 2.527064 g / cm^3
# Si number density = 25.328289 Si / 1000 Ang^3
#
#
#
# Elastic Constant Matrix: (Units=GPa)
#
#
# Indices 1 2 3 4 5 6 
#
# 1 112.6790 59.8991 32.3029 0.0000 -2.9859 0.0000
# 2 59.8991 376.0471 33.7152 0.0000 -33.7224 0.0000
# 3 32.3029 33.7152 111.5261 0.0000 -2.5027 0.0000
# 4 0.0000 0.0000 0.0000 -12.8469 0.0000 -28.8979
# 5 -2.9859 -33.7224 -2.5027 0.0000 34.9245 0.0000
# 6 0.0000 0.0000 0.0000 -28.8979 0.0000 3.2165
#
#
#
# Elastic Compliance Matrix: (Units=1/GPa)
#
#
# Indices 1 2 3 4 5 6 
#
# 1 0.010385 -0.001489 -0.002574 0.000000 -0.000735 0.000000
# 2 -0.001489 0.003201 -0.000471 0.000000 0.002930 0.000000
# 3 -0.002574 -0.000471 0.009855 0.000000 0.000032 0.000000
# 4 0.000000 0.000000 0.000000 -0.003670 0.000000 -0.032973
# 5 -0.000735 0.002930 0.000032 0.000000 0.031402 0.000000
# 6 0.000000 0.000000 0.000000 -0.032973 0.000000 0.014659
#
#
# Mechanical properties :
#
#
# Convention : Reuss Voigt Hill
#
# Bulk Modulus (GPa) = 69.57419 94.67630 82.12524
# Shear Modulus (GPa) = 62.74209 36.68116 49.71163
#
# Velocity S-wave (km/s) = 4.98250 3.80969 4.43503
# Velocity P-wave (km/s) = 7.78646 7.53740 7.66295
#
# Compressibility (1/GPa) = 0.01437315
#
# Stress axis : x y z
#
# Youngs Moduli (GPa) = 96.29318 312.36045 101.47011
#
# Poissons Ratio (x) = 0.46519 0.26121
# Poissons Ratio (y) = 0.14341 0.04776
# Poissons Ratio (z) = 0.24788 0.14703
#
# Static dielectric constant tensor:
#      x y z
#    x 1.936340 0.000000 0.038740 
#    y 0.000000 2.130850 0.000000 
#    z 0.038740 0.000000 1.894810 
# 
# From -- ./inp_files/53871.got.cif
#   From: 2010.05.17/outbox.cif.g08.bks.cpg/sg10_27_cif.got.tgz:53871.got - 2010.06.03 11:33:40.
