data_PCOD9141457
_publ_section_title
;
Structure prediction by ZEFSAII (Michael W. Deem and Ramdas Pophale) SiO2 
 PCOD9141457
Probable space group: P 2/M
;
_chemical_formula_sum "Si O2"
_cell_formula_units_Z 28
_cell_length_a 26.248954
_cell_length_b 7.958167
_cell_length_c 20.869168
_cell_angle_alpha 90.000000
_cell_angle_beta 157.666208
_cell_angle_gamma 90.000000
_cell_volume 1656.592915
_symmetry_space_group_name_H-M "P 2/M"
_symmetry_group_IT_number 10
_symmetry_cell_setting 'monoclinic'
loop_
_space_group_symop_operation_xyz
x,y,z
-x,y,-z
-x,-y,-z
x,-y,z
loop_
_atom_site_type_symbol
_atom_site_label
_atom_site_fract_x
_atom_site_fract_y
_atom_site_fract_z
Si Si1 0.777789 0.684577 0.440336
Si Si2 0.521551 0.692065 0.845966
Si Si3 0.898674 0.803695 0.709089
Si Si4 0.388669 0.796531 0.420771
Si Si5 0.593136 0.000000 0.010481
Si Si6 0.912646 0.205456 0.959741
Si Si7 0.710266 0.000000 0.283522
Si Si8 0.621423 0.301129 0.446152
O O1 0.798884 0.500000 0.436805
O O2 0.627507 0.688989 0.295740
O O3 0.874188 0.713292 0.613286
O O4 0.781958 0.835052 0.394800
O O5 0.573097 0.500000 0.909067
O O6 0.491586 0.743307 0.737674
O O7 0.603042 0.832653 0.978948
O O8 0.760135 0.788374 0.588154
O O9 0.921195 0.000000 0.721647
O O10 0.015683 0.738780 0.891532
O O11 0.500000 0.738926 0.500000
O O12 0.240064 0.740697 0.227046
O O13 0.415238 0.738565 0.523950
O O14 0.388473 0.000000 0.420873
O O15 0.441004 0.000000 0.862496
O O16 0.690774 0.000000 0.184825
O O17 0.915447 0.000000 0.963716
O O18 0.000000 0.259000 0.000000
O O19 0.645415 0.500000 0.466332
#
# Coordination Sequence:
#
# PCOD9141457 Si02
#       8
#     4   4   4   4   2   4   2   4
#     4   9  16  26  38  57  85 115 150 188 231 278
#     4   8  16  26  37  58  82 109 148 192 227 265
#     4  10  16  26  46  63  85 115 154 200 238 275
#     4  10  20  33  48  66  89 122 160 195 240 290
#     4   9  16  24  40  56  80 115 152 185 221 281
#     4   9  16  28  45  68  90 114 152 201 243 272
#     4   9  16  26  36  58  82 116 152 180 231 275
#     4  10  19  29  43  63  87 116 152 194 240 280
#
# _framework density 16.902161
#
# number of rings (size 3 to 8) (size 9 to 14) (size 15 to 20)
#    0.000    2.714    2.143    1.714    4.000    0.857 
#    0.000    5.000    0.000    0.000    0.000    0.000 
#    0.000    0.000    0.000    2.571    0.000    8.429 
#
# Total GULP energy -156032.999716 kJ/mol
# GULP energy per Si atom -5572.607133 kJ/mol
# Density = 1.686369 g / cm^3
# Si number density = 16.902161 Si / 1000 Ang^3
#
#
#
# Elastic Constant Matrix: (Units=GPa)
#
#
# Indices 1 2 3 4 5 6 
#
# 1 73.3265 38.2370 61.9373 0.0000 -29.2782 0.0000
# 2 38.2370 81.0311 44.4505 0.0000 -26.8409 0.0000
# 3 61.9373 44.4505 82.4854 0.0000 -30.7374 0.0000
# 4 0.0000 0.0000 0.0000 -2.8081 0.0000 -1.5393
# 5 -29.2782 -26.8409 -30.7374 0.0000 35.2966 0.0000
# 6 0.0000 0.0000 0.0000 -1.5393 0.0000 9.0651
#
#
#
# Elastic Compliance Matrix: (Units=1/GPa)
#
#
# Indices 1 2 3 4 5 6 
#
# 1 0.039815 -0.001655 -0.025414 0.000000 0.009637 0.000000
# 2 -0.001655 0.019063 -0.006129 0.000000 0.007787 0.000000
# 3 -0.025414 -0.006129 0.036887 0.000000 0.006381 0.000000
# 4 0.000000 0.000000 0.000000 -0.325790 0.000000 -0.055320
# 5 0.009637 0.007787 0.006381 0.000000 0.047803 0.000000
# 6 0.000000 0.000000 0.000000 -0.055320 0.000000 0.100920
#
#
# Mechanical properties :
#
#
# Convention : Reuss Voigt Hill
#
# Bulk Modulus (GPa) = 34.04823 58.45474 46.25148
# Shear Modulus (GPa) = -976.88287 14.45860 -481.21213
#
# Velocity S-wave (km/s) = -24.06695 2.92795 -16.89149
# Velocity P-wave (km/s) = 27.42449 6.78894 18.78847
#
# Compressibility (1/GPa) = 0.02937010
#
# Stress axis : x y z
#
# Youngs Moduli (GPa) = 25.11640 52.45765 27.10999
#
# Poissons Ratio (x) = 0.08681 0.68896
# Poissons Ratio (y) = 0.04156 0.16615
# Poissons Ratio (z) = 0.63830 0.32150
#
# Static dielectric constant tensor:
#      x y z
#    x 1.546320 0.000000 -0.024020 
#    y 0.000000 1.604990 0.000000 
#    z -0.024020 0.000000 1.561770 
# 
# From -- ./inp_files/79878.got.cif
#   From: 2010.05.17/outbox.cif.g08.bks.cpg/sg10_40_cif.got.tgz:79878.got - 2010.06.03 11:33:40.
