data_PCOD9141994
_publ_section_title
;
Structure prediction by ZEFSAII (Michael W. Deem and Ramdas Pophale) SiO2 
 PCOD9141994
Probable space group: P 2/M
;
_chemical_formula_sum "Si O2"
_cell_formula_units_Z 32
_cell_length_a 21.623680
_cell_length_b 7.716092
_cell_length_c 26.541846
_cell_angle_alpha 90.000000
_cell_angle_beta 21.863184
_cell_angle_gamma 90.000000
_cell_volume 1649.141439
_symmetry_space_group_name_H-M "P 2/M"
_symmetry_group_IT_number 10
_symmetry_cell_setting 'monoclinic'
loop_
_space_group_symop_operation_xyz
x,y,z
-x,y,-z
-x,-y,-z
x,-y,z
loop_
_atom_site_type_symbol
_atom_site_label
_atom_site_fract_x
_atom_site_fract_y
_atom_site_fract_z
Si Si1 0.016462 0.791703 0.142203
Si Si2 0.352602 0.294617 0.840870
Si Si3 0.921675 0.787170 0.400810
Si Si4 0.643975 0.212729 0.428673
Si Si5 0.484222 0.705113 0.178224
Si Si6 0.889004 0.796932 0.539145
Si Si7 0.820331 0.791213 0.876332
Si Si8 0.615588 0.796761 0.564224
O O1 0.829891 0.732805 0.272682
O O2 0.079618 0.729212 0.149489
O O3 0.012366 0.000000 0.147942
O O4 0.158794 0.742804 0.995122
O O5 0.374933 0.500000 0.823007
O O6 0.445641 0.226181 0.821043
O O7 0.442239 0.221650 0.724169
O O8 0.916530 0.724274 0.462111
O O9 0.760193 0.726678 0.491460
O O10 0.083083 0.735152 0.246662
O O11 0.916279 0.000000 0.406152
O O12 0.500000 0.271409 0.500000
O O13 0.615779 0.272734 0.507477
O O14 0.640393 0.000000 0.430938
O O15 0.461299 0.500000 0.200449
O O16 0.306011 0.783505 0.301302
O O17 0.630264 0.737596 0.027768
O O18 0.000000 0.720156 0.500000
O O19 0.933566 0.000000 0.501851
O O20 0.825108 0.000000 0.873515
O O21 0.654381 0.000000 0.529450
#
# Coordination Sequence:
#
# PCOD9141994 Si02
#       8
#     4   4   4   4   4   4   4   4
#     4   9  16  29  50  74  98 129 164 200 251 301
#     4  10  20  32  48  74 103 130 166 211 249 289
#     4   9  16  29  51  77  99 123 165 210 245 288
#     4   9  17  30  51  80 107 128 161 210 257 300
#     4  10  20  33  49  73 103 133 164 203 253 299
#     4  10  20  34  53  76 102 133 167 204 247 297
#     4   9  16  29  51  75  97 125 164 208 248 292
#     4  10  17  30  53  77 100 130 166 207 252 295
#
# _framework density 19.404036999999999
#
# number of rings (size 3 to 8) (size 9 to 14) (size 15 to 20)
#    0.000    2.500    2.500    0.750    0.000    1.250 
#    0.000    3.125    0.000    9.000    0.000    0.000 
#    0.000    0.000    0.000    0.000    0.000    0.000 
#
# Total GULP energy -178504.361376 kJ/mol
# GULP energy per Si atom -5578.261293 kJ/mol
# Density = 1.935987 g / cm^3
# Si number density = 19.404037 Si / 1000 Ang^3
#
#
#
# Elastic Constant Matrix: (Units=GPa)
#
#
# Indices 1 2 3 4 5 6 
#
# 1 116.9360 3.6221 72.5747 0.0000 0.5136 0.0000
# 2 3.6221 26.5026 -15.0665 0.0000 -0.6101 0.0000
# 3 72.5747 -15.0665 127.5402 0.0000 4.2121 0.0000
# 4 0.0000 0.0000 0.0000 -107.1573 0.0000 -18.4427
# 5 0.5136 -0.6101 4.2121 0.0000 25.6001 0.0000
# 6 0.0000 0.0000 0.0000 -18.4427 0.0000 -0.8238
#
#
#
# Elastic Compliance Matrix: (Units=1/GPa)
#
#
# Indices 1 2 3 4 5 6 
#
# 1 0.014390 -0.007094 -0.009061 0.000000 0.001033 0.000000
# 2 -0.007094 0.043946 0.009239 0.000000 -0.000331 0.000000
# 3 -0.009061 0.009239 0.014152 0.000000 -0.001926 0.000000
# 4 0.000000 0.000000 0.000000 0.003271 0.000000 -0.073227
# 5 0.001033 -0.000331 -0.001926 0.000000 0.039351 0.000000
# 6 0.000000 0.000000 0.000000 -0.073227 0.000000 0.425467
#
#
# Mechanical properties :
#
#
# Convention : Reuss Voigt Hill
#
# Bulk Modulus (GPa) = 17.04825 43.69326 30.37075
# Shear Modulus (GPa) = 8.71141 -2.48630 3.11256
#
# Velocity S-wave (km/s) = 2.12114 -1.13319 1.26790
# Velocity P-wave (km/s) = 3.84759 4.56666 4.22246
#
# Compressibility (1/GPa) = 0.05865705
#
# Stress axis : x y z
#
# Youngs Moduli (GPa) = 69.49158 22.75505 70.66384
#
# Poissons Ratio (x) = 0.16142 0.64026
# Poissons Ratio (y) = 0.49296 -0.65286
# Poissons Ratio (z) = 0.62964 -0.21023
#
# Static dielectric constant tensor:
#      x y z
#    x 1.671840 0.000000 0.006320 
#    y 0.000000 1.708510 0.000000 
#    z 0.006320 0.000000 1.670120 
# 
# From -- ./inp_files/86884.got.cif
#   From: 2010.05.17/outbox.cif.g08.bks.cpg/sg10_44_cif.got.tgz:86884.got - 2010.06.03 11:33:40.
