data_PCOD9141709
_publ_section_title
;
Structure prediction by ZEFSAII (Michael W. Deem and Ramdas Pophale) SiO2 
 PCOD9141709
Probable space group: P 2/M
;
_chemical_formula_sum "Si O2"
_cell_formula_units_Z 19
_cell_length_a 5.619515
_cell_length_b 20.550281
_cell_length_c 7.012178
_cell_angle_alpha 90.000000
_cell_angle_beta 103.197483
_cell_angle_gamma 90.000000
_cell_volume 788.397358
_symmetry_space_group_name_H-M "P 2/M"
_symmetry_group_IT_number 10
_symmetry_cell_setting 'monoclinic'
loop_
_space_group_symop_operation_xyz
x,y,z
-x,y,-z
-x,-y,-z
x,-y,z
loop_
_atom_site_type_symbol
_atom_site_label
_atom_site_fract_x
_atom_site_fract_y
_atom_site_fract_z
Si Si1 0.690131 0.577013 0.294021
Si Si2 0.924559 0.772203 0.706783
Si Si3 0.820643 0.373298 0.741095
Si Si4 0.500000 0.138943 0.500000
Si Si5 0.258934 0.110744 0.827999
Si Si6 0.000000 0.000000 0.000000
O O1 0.687349 0.500000 0.328781
O O2 0.416809 0.599640 0.194680
O O3 0.751907 0.613129 0.505230
O O4 0.914790 0.593057 0.195245
O O5 0.862812 0.702885 0.783026
O O6 0.681465 0.815648 0.654263
O O7 0.000000 0.759954 0.500000
O O8 0.140066 0.817565 0.827653
O O9 0.339031 0.101305 0.623693
O O10 0.500000 0.102100 0.000000
O O11 0.068501 0.057152 0.858101
#
# Coordination Sequence:
#
# PCOD9141709 Si02
#       6
#     4   4   4   2   4   1
#     4  10  17  26  43  76 126 177 224 285 347 408
#     4  10  20  36  60  93 127 176 224 284 351 402
#     4  10  17  27  46  75 120 175 222 280 343 404
#     4  10  22  41  70 100 133 180 224 288 344 422
#     4  11  25  45  71  99 138 175 229 285 351 430
#     4  12  26  50  70 104 134 182 218 290 358 416
#
# _framework density 24.099522
#
# number of rings (size 3 to 8) (size 9 to 14) (size 15 to 20)
#    0.000    1.684    2.105    6.000    2.947    0.421 
#    0.000   10.000    0.000    0.000    0.000    0.000 
#    0.000    9.263    0.000    0.000    0.000    0.000 
#
# Total GULP energy -106057.523301 kJ/mol
# GULP energy per Si atom -5581.974911 kJ/mol
# Density = 2.404467 g / cm^3
# Si number density = 24.099522 Si / 1000 Ang^3
#
#
#
# Elastic Constant Matrix: (Units=GPa)
#
#
# Indices 1 2 3 4 5 6 
#
# 1 169.7018 34.6557 33.5092 0.0000 -23.9450 0.0000
# 2 34.6557 151.1234 27.2642 0.0000 -22.5173 0.0000
# 3 33.5092 27.2642 84.0419 0.0000 -0.5366 0.0000
# 4 0.0000 0.0000 0.0000 -38.8810 0.0000 -115.5851
# 5 -23.9450 -22.5173 -0.5366 0.0000 48.2851 0.0000
# 6 0.0000 0.0000 0.0000 -115.5851 0.0000 -212.0265
#
#
#
# Elastic Compliance Matrix: (Units=1/GPa)
#
#
# Indices 1 2 3 4 5 6 
#
# 1 0.006972 -0.000677 -0.002540 0.000000 0.003114 0.000000
# 2 -0.000677 0.007645 -0.002190 0.000000 0.003205 0.000000
# 3 -0.002540 -0.002190 0.013609 0.000000 -0.002130 0.000000
# 4 0.000000 0.000000 0.000000 0.041443 0.000000 -0.022592
# 5 0.003114 0.003205 -0.002130 0.000000 0.023726 0.000000
# 6 0.000000 0.000000 0.000000 -0.022592 0.000000 0.007600
#
#
# Mechanical properties :
#
#
# Convention : Reuss Voigt Hill
#
# Bulk Modulus (GPa) = 57.43298 66.19167 61.81232
# Shear Modulus (GPa) = 42.51300 -19.89528 11.30886
#
# Velocity S-wave (km/s) = 4.20463 -2.87635 2.16858
# Velocity P-wave (km/s) = 6.88877 4.06133 5.65463
#
# Compressibility (1/GPa) = 0.01741160
#
# Stress axis : x y z
#
# Youngs Moduli (GPa) = 143.43452 130.80583 73.48301
#
# Poissons Ratio (x) = 0.08849 0.18668
# Poissons Ratio (y) = 0.09704 0.16092
# Poissons Ratio (z) = 0.36439 0.28645
#
# Static dielectric constant tensor:
#      x y z
#    x 1.954970 0.000000 -0.008040 
#    y 0.000000 0.896770 0.000000 
#    z -0.008040 0.000000 1.988140 
# 
# From -- ./inp_files/15036.got.cif
#   From: 2010.05.17/outbox.cif.g08.bks.cpg/sg10_8_cif.got.tgz:15036.got - 2010.06.03 11:33:40.
