data_PCOD9141245
_publ_section_title
;
Structure prediction by ZEFSAII (Michael W. Deem and Ramdas Pophale) SiO2 
 PCOD9141245
Probable space group: C C
;
_chemical_formula_sum "Si O2"
_cell_formula_units_Z 16
_cell_length_a 15.000000
_cell_length_b 12.000000
_cell_length_c 9.000000
_cell_angle_alpha 90.000000
_cell_angle_beta 110.000000
_cell_angle_gamma 90.000000
_cell_volume 1522.302046
_symmetry_space_group_name_H-M "C C"
_symmetry_group_IT_number 9
_symmetry_cell_setting 'monoclinic'
loop_
_space_group_symop_operation_xyz
x,y,z
x,-y,1/2+z
1/2+x,1/2+y,z
1/2+x,1/2-y,1/2+z
loop_
_atom_site_type_symbol
_atom_site_label
_atom_site_fract_x
_atom_site_fract_y
_atom_site_fract_z
Si Si1 0.573010 0.901109 0.275860
Si Si2 0.462953 0.429961 0.409907
Si Si3 0.637366 0.318994 0.648524
Si Si4 0.866777 0.122883 0.162179
Si Si5 0.256180 0.991372 0.872941
Si Si6 0.607365 0.690277 0.818195
Si Si7 0.865238 0.388572 0.197872
Si Si8 0.151327 0.601464 0.138871
O O1 0.599591 0.776804 0.235312
O O2 0.463673 0.927602 0.183362
O O3 0.585470 0.906637 0.458245
O O4 0.634918 0.996130 0.234877
O O5 0.559409 0.415388 0.564083
O O6 0.431806 0.542337 0.305578
O O7 0.388246 0.397708 0.497795
O O8 0.498321 0.343892 0.298720
O O9 0.727148 0.383439 0.760657
O O10 0.650224 0.261076 0.496610
O O11 0.874868 0.254667 0.201981
O O12 0.758444 0.097304 0.140595
O O13 0.168148 0.077634 0.828758
O O14 0.340442 0.060502 0.843804
O O15 0.283122 0.938899 0.046331
O O16 0.625650 0.782038 0.704890
#
# Coordination Sequence:
#
# PCOD9141245 Si02
#       8
#     4   4   4   4   4   4   4   4
#     4  12  26  46  71 103 150 189 239 302 367 435
#     4  10  24  43  71 105 145 183 237 310 348 439
#     4  10  23  43  70 102 144 184 236 291 372 422
#     4  12  24  47  71 107 147 183 250 297 366 430
#     4  12  23  43  70 105 138 186 234 304 349 446
#     4  10  23  43  72 106 140 183 244 286 379 420
#     4  12  25  44  70 104 145 185 244 297 368 428
#     4  12  26  47  75 104 147 197 240 299 369 442
#
# _framework density 10.510398
#
# number of rings (size 3 to 8) (size 9 to 14) (size 15 to 20)
#    0.750    0.000    3.750    3.750    0.000    3.000 
#    0.000    1.250    0.000    0.000    0.000    0.000 
#    0.000    0.000    0.000    0.000    0.000    0.000 
#
# Total GULP energy -89204.847953 kJ/mol
# GULP energy per Si atom -5575.302997 kJ/mol
# Density = 1.048648 g / cm^3
# Si number density = 10.510398 Si / 1000 Ang^3
#
#
#
# Elastic Constant Matrix: (Units=GPa)
#
#
# Indices 1 2 3 4 5 6 
#
# 1 109.1173 43.5302 8.4170 0.0000 -25.2874 0.0000
# 2 43.5302 109.0637 49.1755 0.0000 -8.5097 0.0000
# 3 8.4170 49.1755 83.6177 0.0000 -13.6015 0.0000
# 4 0.0000 0.0000 0.0000 37.8223 0.0000 -8.6095
# 5 -25.2874 -8.5097 -13.6015 0.0000 30.7731 0.0000
# 6 0.0000 0.0000 0.0000 -8.6095 0.0000 35.7149
#
#
#
# Elastic Compliance Matrix: (Units=1/GPa)
#
#
# Indices 1 2 3 4 5 6 
#
# 1 0.014270 -0.006794 0.004483 0.000000 0.011829 0.000000
# 2 -0.006794 0.015714 -0.009437 0.000000 -0.005409 0.000000
# 3 0.004483 -0.009437 0.018568 0.000000 0.009281 0.000000
# 4 0.000000 0.000000 0.000000 0.027975 0.000000 0.006744
# 5 0.011829 -0.005409 0.009281 0.000000 0.044823 0.000000
# 6 0.000000 0.000000 0.000000 0.006744 0.000000 0.029625
#
#
# Mechanical properties :
#
#
# Convention : Reuss Voigt Hill
#
# Bulk Modulus (GPa) = 39.91080 56.00488 47.95784
# Shear Modulus (GPa) = 27.34889 34.24045 30.79467
#
# Velocity S-wave (km/s) = 3.61091 4.04032 3.83163
# Velocity P-wave (km/s) = 6.03427 6.96176 6.51454
#
# Compressibility (1/GPa) = 0.02505587
#
# Stress axis : x y z
#
# Youngs Moduli (GPa) = 70.07484 63.63824 53.85710
#
# Poissons Ratio (x) = 0.43237 -0.24147
# Poissons Ratio (y) = 0.47611 0.50826
# Poissons Ratio (z) = -0.31418 0.60057
#
# Static dielectric constant tensor:
#      x y z
#    x 1.813480 0.000000 -0.001020 
#    y 0.000000 1.720670 0.000000 
#    z -0.001020 0.000000 1.809590 
# 
# From -- ./inp_files/9295.got.cif
#   From: 2010.05.17/outbox.ucp.g08.bks.cvg/sg9_5_cif.got.tgz:9295.got - 2010.06.11 13:03:20.
