data_PCOD9141243
_publ_section_title
;
Structure prediction by ZEFSAII (Michael W. Deem and Ramdas Pophale) SiO2 
 PCOD9141243
Probable space group: C C
;
_chemical_formula_sum "Si O2"
_cell_formula_units_Z 16
_cell_length_a 15.000000
_cell_length_b 12.000000
_cell_length_c 27.000000
_cell_angle_alpha 90.000000
_cell_angle_beta 160.000000
_cell_angle_gamma 90.000000
_cell_volume 1662.217897
_symmetry_space_group_name_H-M "C C"
_symmetry_group_IT_number 9
_symmetry_cell_setting 'monoclinic'
loop_
_space_group_symop_operation_xyz
x,y,z
x,-y,1/2+z
1/2+x,1/2+y,z
1/2+x,1/2-y,1/2+z
loop_
_atom_site_type_symbol
_atom_site_label
_atom_site_fract_x
_atom_site_fract_y
_atom_site_fract_z
Si Si1 0.525870 0.959790 0.427770
Si Si2 0.003938 0.104440 0.719660
Si Si3 0.416154 0.083650 0.572987
Si Si4 0.347845 0.838527 0.767258
Si Si5 0.843853 0.635171 0.148388
Si Si6 0.209888 0.579468 0.824062
Si Si7 0.479537 0.589359 0.825337
Si Si8 0.234366 0.314592 0.446213
O O1 0.585933 0.867719 0.416029
O O2 0.280012 0.919989 0.334394
O O3 0.787602 0.009426 0.591426
O O4 0.449624 0.068375 0.356562
O O5 0.901296 0.235647 0.659673
O O6 0.033183 0.091373 0.794410
O O7 0.538290 0.129461 0.688808
O O8 0.250120 0.180113 0.458400
O O9 0.680887 0.050118 0.681218
O O10 0.209877 0.982847 0.470230
O O11 0.391203 0.862206 0.732160
O O12 0.470706 0.716810 0.839896
O O13 0.038046 0.841561 0.611634
O O14 0.071544 0.545185 0.251050
O O15 0.528589 0.596151 0.979927
O O16 0.161172 0.636187 0.853136
#
# Coordination Sequence:
#
# PCOD9141243 Si02
#       8
#     4   4   4   4   4   4   4   4
#     4  12  22  41  68 102 134 180 226 278 344 410
#     4  11  26  40  72  99 140 181 228 285 349 406
#     4  11  24  42  69  95 134 183 227 278 354 401
#     4   9  20  42  66  92 137 177 219 277 344 392
#     4  10  23  43  66 101 137 179 227 287 337 407
#     4  11  23  42  70  96 137 183 231 281 346 413
#     4  10  23  46  61  98 136 177 228 283 334 414
#     4  10  23  42  64 101 135 174 228 283 336 415
#
# _framework density 9.6256939999999993
#
# number of rings (size 3 to 8) (size 9 to 14) (size 15 to 20)
#    0.000    1.500    2.500    2.250    5.250    3.000 
#    0.000    1.250    0.000    0.000    0.000    0.000 
#    0.000    0.000    0.000    0.000    0.000    0.000 
#
# Total GULP energy -89088.668298 kJ/mol
# GULP energy per Si atom -5568.041769 kJ/mol
# Density = 0.960378 g / cm^3
# Si number density = 9.625694 Si / 1000 Ang^3
#
#
#
# Elastic Constant Matrix: (Units=GPa)
#
#
# Indices 1 2 3 4 5 6 
#
# 1 143.5621 40.7994 52.7464 0.0025 15.3292 0.0007
# 2 40.7994 91.8008 61.1225 0.0007 10.0517 0.0005
# 3 52.7464 61.1225 108.1500 0.0197 5.8916 0.0007
# 4 0.0025 0.0007 0.0197 43.9076 -0.0015 4.0840
# 5 15.3292 10.0517 5.8916 -0.0015 45.7882 -0.0012
# 6 0.0007 0.0005 0.0007 4.0840 -0.0012 35.1493
#
#
#
# Elastic Compliance Matrix: (Units=1/GPa)
#
#
# Indices 1 2 3 4 5 6 
#
# 1 0.008854 -0.001440 -0.003384 0.000001 -0.002213 0.000000
# 2 -0.001440 0.018008 -0.009352 0.000004 -0.002268 -0.000001
# 3 -0.003384 -0.009352 0.016122 -0.000007 0.001112 0.000001
# 4 0.000001 0.000004 -0.000007 0.023024 0.000000 -0.002675
# 5 -0.002213 -0.002268 0.001112 0.000000 0.022935 0.000001
# 6 0.000000 -0.000001 0.000001 -0.002675 0.000001 0.028761
#
#
# Mechanical properties :
#
#
# Convention : Reuss Voigt Hill
#
# Bulk Modulus (GPa) = 68.33986 72.53882 70.43934
# Shear Modulus (GPa) = 33.12728 37.55864 35.34296
#
# Velocity S-wave (km/s) = 4.15272 4.42176 4.28935
# Velocity P-wave (km/s) = 7.65305 7.98942 7.82304
#
# Compressibility (1/GPa) = 0.01463275
#
# Stress axis : x y z
#
# Youngs Moduli (GPa) = 112.93729 55.53140 62.02822
#
# Poissons Ratio (x) = 0.07994 0.20992
# Poissons Ratio (y) = 0.16259 0.58007
# Poissons Ratio (z) = 0.38221 0.51931
#
# Static dielectric constant tensor:
#      x y z
#    x 1.718550 0.000000 -0.017890 
#    y 0.000000 1.738950 0.000000 
#    z -0.017890 0.000000 1.684210 
# 
# From -- ./inp_files/9187.got.cif
#   From: 2010.05.17/outbox.ucp.g08.bks.cvg/sg9_5_cif.got.tgz:9187.got - 2010.06.11 13:03:20.
