data_PCOD9141784
_publ_section_title
;
Structure prediction by ZEFSAII (Michael W. Deem and Ramdas Pophale) SiO2 
 PCOD9141784
Probable space group: P 2/M
;
_chemical_formula_sum "Si O2"
_cell_formula_units_Z 32
_cell_length_a 14.657236
_cell_length_b 13.155071
_cell_length_c 11.700184
_cell_angle_alpha 90.000000
_cell_angle_beta 135.429611
_cell_angle_gamma 90.000000
_cell_volume 1583.222802
_symmetry_space_group_name_H-M "P 2/M"
_symmetry_group_IT_number 10
_symmetry_cell_setting 'monoclinic'
loop_
_space_group_symop_operation_xyz
x,y,z
-x,y,-z
-x,-y,-z
x,-y,z
loop_
_atom_site_type_symbol
_atom_site_label
_atom_site_fract_x
_atom_site_fract_y
_atom_site_fract_z
Si Si1 0.679807 0.385378 0.631642
Si Si2 0.708021 0.112567 0.741195
Si Si3 0.257105 0.881544 0.906276
Si Si4 0.569289 0.190943 0.414050
Si Si5 0.695458 0.117195 0.313447
Si Si6 0.952265 0.886676 0.686858
Si Si7 0.960467 0.315744 0.833559
Si Si8 0.229856 0.285934 0.060957
O O1 0.635997 0.500000 0.579172
O O2 0.593029 0.302080 0.488833
O O3 0.824165 0.373885 0.704591
O O4 0.693899 0.356266 0.779867
O O5 0.675699 0.124835 0.579372
O O6 0.568709 0.142963 0.674220
O O7 0.805617 0.192975 0.882347
O O8 0.746987 0.000000 0.804322
O O9 0.307327 0.863772 0.823422
O O10 0.099174 0.881933 0.769107
O O11 0.295512 0.000000 0.973123
O O12 0.291745 0.783050 0.015670
O O13 0.604198 0.183910 0.313196
O O14 0.843154 0.126988 0.491937
O O15 0.655661 0.000000 0.296563
O O16 0.936880 0.796514 0.763242
O O17 0.936452 0.000000 0.722382
O O18 0.000000 0.328986 0.000000
O O19 0.100517 0.342261 0.901148
#
# Coordination Sequence:
#
# PCOD9141784 Si02
#       8
#     4   4   4   4   4   4   4   4
#     4  10  20  35  55  75  98 128 170 227 278 310
#     4  10  19  33  52  73 109 143 165 204 257 309
#     4   9  17  29  45  70 104 139 169 201 246 303
#     4  10  19  33  50  75 100 132 175 212 255 307
#     4  10  17  27  47  72 101 137 174 204 243 307
#     4   9  16  26  41  68 103 136 167 200 244 303
#     4   9  17  30  45  72 101 129 165 204 255 311
#     4   9  19  32  49  71  99 135 172 202 250 309
#
# _framework density 20.211939000000001
#
# number of rings (size 3 to 8) (size 9 to 14) (size 15 to 20)
#    0.000    2.500    1.250    2.250    0.000    4.500 
#    0.000    7.500    0.000    3.000    0.000    1.750 
#    0.000   10.000    0.000    0.000    0.000    0.000 
#
# Total GULP energy -178236.596995 kJ/mol
# GULP energy per Si atom -5569.893656 kJ/mol
# Density = 2.016594 g / cm^3
# Si number density = 20.211939 Si / 1000 Ang^3
#
#
#
# Elastic Constant Matrix: (Units=GPa)
#
#
# Indices 1 2 3 4 5 6 
#
# 1 87.3179 12.7033 25.1293 0.0000 -8.6399 0.0000
# 2 12.7033 75.4251 -4.1453 0.0000 -13.8110 0.0000
# 3 25.1293 -4.1453 36.8818 0.0000 -11.9752 0.0000
# 4 0.0000 0.0000 0.0000 6.9008 0.0000 -13.1623
# 5 -8.6399 -13.8110 -11.9752 0.0000 43.6879 0.0000
# 6 0.0000 0.0000 0.0000 -13.1623 0.0000 -2.4928
#
#
#
# Elastic Compliance Matrix: (Units=1/GPa)
#
#
# Indices 1 2 3 4 5 6 
#
# 1 0.014973 -0.003321 -0.010927 0.000000 -0.001084 0.000000
# 2 -0.003321 0.015190 0.005835 0.000000 0.005745 0.000000
# 3 -0.010927 0.005835 0.038542 0.000000 0.010248 0.000000
# 4 0.000000 0.000000 0.000000 0.013089 0.000000 -0.069112
# 5 -0.001084 0.005745 0.010248 0.000000 0.027300 0.000000
# 6 0.000000 0.000000 0.000000 -0.069112 0.000000 -0.036234
#
#
# Mechanical properties :
#
#
# Convention : Reuss Voigt Hill
#
# Bulk Modulus (GPa) = 19.27525 29.66660 24.47093
# Shear Modulus (GPa) = 46.73818 20.68168 33.70993
#
# Velocity S-wave (km/s) = 4.81396 3.20228 4.08833
# Velocity P-wave (km/s) = 6.36052 5.32752 5.86680
#
# Compressibility (1/GPa) = 0.05187999
#
# Stress axis : x y z
#
# Youngs Moduli (GPa) = 66.78706 65.83236 25.94565
#
# Poissons Ratio (x) = 0.21862 0.28351
# Poissons Ratio (y) = 0.22179 -0.15140
# Poissons Ratio (z) = 0.72978 -0.38414
#
# Static dielectric constant tensor:
#      x y z
#    x 1.800300 0.000000 0.033650 
#    y 0.000000 1.703330 0.000000 
#    z 0.033650 0.000000 1.788730 
# 
# From -- ./inp_files/53546.got.cif
#   From: 2010.05.17/outbox.cif.g08.bks.cpg/sg10_27_cif.got.tgz:53546.got - 2010.06.03 11:33:40.
