data_PCOD9141459
_publ_section_title
;
Structure prediction by ZEFSAII (Michael W. Deem and Ramdas Pophale) SiO2 
 PCOD9141459
Probable space group: P 2/M
;
_chemical_formula_sum "Si O2"
_cell_formula_units_Z 28
_cell_length_a 15.127622
_cell_length_b 11.875734
_cell_length_c 14.265426
_cell_angle_alpha 90.000000
_cell_angle_beta 146.740843
_cell_angle_gamma 90.000000
_cell_volume 1405.512141
_symmetry_space_group_name_H-M "P 2/M"
_symmetry_group_IT_number 10
_symmetry_cell_setting 'monoclinic'
loop_
_space_group_symop_operation_xyz
x,y,z
-x,y,-z
-x,-y,-z
x,-y,z
loop_
_atom_site_type_symbol
_atom_site_label
_atom_site_fract_x
_atom_site_fract_y
_atom_site_fract_z
Si Si1 0.426957 0.762727 0.135597
Si Si2 0.920327 0.865052 0.684968
Si Si3 0.819619 0.000000 0.308856
Si Si4 0.220041 0.867913 0.094622
Si Si5 0.351809 0.367579 0.793839
Si Si6 0.671741 0.865350 0.612251
Si Si7 0.479199 0.000000 0.867785
Si Si8 0.149644 0.237751 0.752264
O O1 0.360666 0.786967 0.179825
O O2 0.579302 0.689065 0.239557
O O3 0.461380 0.887463 0.126697
O O4 0.270784 0.717827 0.939772
O O5 0.755773 0.827539 0.590346
O O6 0.978301 0.788825 0.648799
O O7 0.916569 0.000000 0.660539
O O8 0.064096 0.854564 0.890365
O O9 0.794263 0.112618 0.227762
O O10 0.000000 0.000000 0.500000
O O11 0.712746 0.000000 0.306282
O O12 0.204718 0.848014 0.191559
O O13 0.268724 0.000000 0.128734
O O14 0.329304 0.500000 0.762876
O O15 0.193487 0.311617 0.700186
O O16 0.500000 0.347997 0.000000
O O17 0.500000 0.824188 0.500000
O O18 0.653616 0.000000 0.582964
O O19 0.500000 0.000000 0.000000
#
# Coordination Sequence:
#
# PCOD9141459 Si02
#       8
#     4   4   2   4   4   4   2   4
#     4  10  16  26  48  69  89 122 160 192 223 273
#     4   9  16  26  44  61  84 120 155 185 218 270
#     4  12  22  30  40  69  98 123 153 194 237 275
#     4   9  16  25  41  64  87 116 157 184 215 270
#     4   9  17  28  46  72  97 121 155 198 236 270
#     4   9  17  29  39  58  91 122 143 177 228 276
#     4  12  16  28  48  63  90 125 157 188 231 275
#     4  10  17  30  45  65  94 125 155 188 231 278
#
# _framework density 19.921564
#
# number of rings (size 3 to 8) (size 9 to 14) (size 15 to 20)
#    0.000    2.286    4.286    0.857    0.000    1.714 
#    2.571    0.000    0.000    0.429    0.000    1.000 
#    0.000    8.000    0.000    0.000    0.000    0.000 
#
# Total GULP energy -155949.092422 kJ/mol
# GULP energy per Si atom -5569.610444 kJ/mol
# Density = 1.987622 g / cm^3
# Si number density = 19.921564 Si / 1000 Ang^3
#
#
#
# Elastic Constant Matrix: (Units=GPa)
#
#
# Indices 1 2 3 4 5 6 
#
# 1 161.1928 42.0049 15.6180 0.0000 24.0334 0.0000
# 2 42.0049 57.0342 -0.0673 0.0000 3.2716 0.0000
# 3 15.6180 -0.0673 49.6465 0.0000 9.0173 0.0000
# 4 0.0000 0.0000 0.0000 1.9419 0.0000 1.1843
# 5 24.0334 3.2716 9.0173 0.0000 25.8552 0.0000
# 6 0.0000 0.0000 0.0000 1.1843 0.0000 8.6881
#
#
#
# Elastic Compliance Matrix: (Units=1/GPa)
#
#
# Indices 1 2 3 4 5 6 
#
# 1 0.009038 -0.006253 -0.001569 0.000000 -0.007063 0.000000
# 2 -0.006253 0.021998 0.001545 0.000000 0.002491 0.000000
# 3 -0.001569 0.001545 0.021789 0.000000 -0.006336 0.000000
# 4 0.000000 0.000000 0.000000 0.561643 0.000000 -0.076561
# 5 -0.007063 0.002491 -0.006336 0.000000 0.047137 0.000000
# 6 0.000000 0.000000 0.000000 -0.076561 0.000000 0.125537
#
#
# Mechanical properties :
#
#
# Convention : Reuss Voigt Hill
#
# Bulk Modulus (GPa) = 24.83248 42.55386 33.69317
# Shear Modulus (GPa) = 6.14915 21.31822 13.73369
#
# Velocity S-wave (km/s) = 1.75880 3.27480 2.62847
# Velocity P-wave (km/s) = 4.07636 5.97546 5.11482
#
# Compressibility (1/GPa) = 0.04026983
#
# Stress axis : x y z
#
# Youngs Moduli (GPa) = 110.63897 45.45900 45.89493
#
# Poissons Ratio (x) = 0.28427 0.07201
# Poissons Ratio (y) = 0.69187 -0.07089
# Poissons Ratio (z) = 0.17359 -0.07022
#
# Static dielectric constant tensor:
#      x y z
#    x 1.774090 0.000000 0.038570 
#    y 0.000000 1.647520 0.000000 
#    z 0.038570 0.000000 1.829530 
# 
# From -- ./inp_files/67152.got.cif
#   From: 2010.05.17/outbox.cif.g08.bks.cpg/sg10_34_cif.got.tgz:67152.got - 2010.06.03 11:33:40.
