data_PCOD9141101
_publ_section_title
;
Structure prediction by ZEFSAII (Michael W. Deem and Ramdas Pophale) SiO2 
 PCOD9141101
Probable space group: C C
;
_chemical_formula_sum "Si O2"
_cell_formula_units_Z 16
_cell_length_a 9.532568
_cell_length_b 12.592726
_cell_length_c 8.892239
_cell_angle_alpha 90.000000
_cell_angle_beta 143.570733
_cell_angle_gamma 90.000000
_cell_volume 633.873933
_symmetry_space_group_name_H-M "C C"
_symmetry_group_IT_number 9
_symmetry_cell_setting 'monoclinic'
loop_
_space_group_symop_operation_xyz
x,y,z
x,-y,1/2+z
1/2+x,1/2+y,z
1/2+x,1/2-y,1/2+z
loop_
_atom_site_type_symbol
_atom_site_label
_atom_site_fract_x
_atom_site_fract_y
_atom_site_fract_z
Si Si1 0.950430 0.471500 0.264840
Si Si2 0.619560 0.698214 0.607637
Si Si3 0.222783 0.605944 0.723384
Si Si4 0.166737 0.172183 0.994361
O O1 0.722353 0.407208 0.120948
O O2 0.124858 0.504942 0.548875
O O3 0.087867 0.400726 0.262718
O O4 0.876214 0.588564 0.142795
O O5 0.367364 0.732935 0.319643
O O6 0.564860 0.687786 0.738912
O O7 0.187019 0.716563 0.600988
O O8 0.502975 0.606592 0.969639
#
# Coordination Sequence:
#
# PCOD9141101 Si02
#       4
#     4   4   4   4
#     4  12  29  47  79 115 154 219 261 333 405 474
#     4  12  28  52  79 116 163 215 267 332 402 479
#     4  12  27  49  74 112 157 209 267 329 399 477
#     4  12  26  48  76 109 164 207 265 334 396 474
#
# _framework density 25.241613000000001
#
# number of rings (size 3 to 8) (size 9 to 14) (size 15 to 20)
#    0.000    0.000    7.500    0.000   10.500    0.000 
#    0.000    0.000    0.000    0.000    0.000    0.000 
#    0.000    0.000    0.000    0.000    0.000    0.000 
#
# Total GULP energy -44633.549166 kJ/mol
# GULP energy per Si atom -5579.193646 kJ/mol
# Density = 2.518416 g / cm^3
# Si number density = 25.241613 Si / 1000 Ang^3
#
#
#
# Elastic Constant Matrix: (Units=GPa)
#
#
# Indices 1 2 3 4 5 6 
#
# 1 183.0817 71.6980 10.6998 0.0000 6.1242 0.0000
# 2 71.6980 116.8162 26.9318 0.0000 12.4194 0.0000
# 3 10.6998 26.9318 30.6491 0.0000 16.6691 0.0000
# 4 0.0000 0.0000 0.0000 37.6847 0.0000 17.8584
# 5 6.1242 12.4194 16.6691 0.0000 37.6566 0.0000
# 6 0.0000 0.0000 0.0000 17.8584 0.0000 53.8216
#
#
#
# Elastic Compliance Matrix: (Units=1/GPa)
#
#
# Indices 1 2 3 4 5 6 
#
# 1 0.007269 -0.004872 0.001992 0.000000 -0.000457 0.000000
# 2 -0.004872 0.014021 -0.011242 0.000000 0.001145 0.000000
# 3 0.001992 -0.011242 0.052644 0.000000 -0.019920 0.000000
# 4 0.000000 0.000000 0.000000 0.031487 0.000000 -0.010448
# 5 -0.000457 0.001145 -0.019920 0.000000 0.035070 0.000000
# 6 0.000000 0.000000 0.000000 -0.010448 0.000000 0.022047
#
#
# Mechanical properties :
#
#
# Convention : Reuss Voigt Hill
#
# Bulk Modulus (GPa) = 21.88651 61.02292 41.45472
# Shear Modulus (GPa) = 24.27044 40.58040 32.42542
#
# Velocity S-wave (km/s) = 3.10421 4.01394 3.58802
# Velocity P-wave (km/s) = 4.64088 6.76094 5.79862
#
# Compressibility (1/GPa) = 0.04569024
#
# Stress axis : x y z
#
# Youngs Moduli (GPa) = 137.57208 71.32171 18.99543
#
# Poissons Ratio (x) = 0.34749 -0.03784
# Poissons Ratio (y) = 0.67027 0.21355
# Poissons Ratio (z) = -0.27408 0.80180
#
# Static dielectric constant tensor:
#      x y z
#    x 1.998780 0.000000 0.136530 
#    y 0.000000 2.027080 0.000000 
#    z 0.136530 0.000000 2.230600 
# 
# From -- ./inp_files/402.got.cif
#   From: 2010.05.17/outbox.cif.g08.bks.cpg/sg9_1_cif.got.tgz:402.got - 2010.06.03 20:04:27.
