data_PCOD9141611
_publ_section_title
;
Structure prediction by ZEFSAII (Michael W. Deem and Ramdas Pophale) SiO2 
 PCOD9141611
Probable space group: P 2/M
;
_chemical_formula_sum "Si O2"
_cell_formula_units_Z 32
_cell_length_a 36.058698
_cell_length_b 7.422880
_cell_length_c 22.009411
_cell_angle_alpha 90.000000
_cell_angle_beta 17.630684
_cell_angle_gamma 90.000000
_cell_volume 1784.275660
_symmetry_space_group_name_H-M "P 2/M"
_symmetry_group_IT_number 10
_symmetry_cell_setting 'monoclinic'
loop_
_space_group_symop_operation_xyz
x,y,z
-x,y,-z
-x,-y,-z
x,-y,z
loop_
_atom_site_type_symbol
_atom_site_label
_atom_site_fract_x
_atom_site_fract_y
_atom_site_fract_z
Si Si1 0.043043 0.788688 0.751285
Si Si2 0.429929 0.779417 0.463220
Si Si3 0.783771 0.779418 0.109379
Si Si4 0.695676 0.716978 0.701402
Si Si5 0.611422 0.789814 0.277155
Si Si6 0.510168 0.283022 0.886910
Si Si7 0.631698 0.788688 0.573975
Si Si8 0.106712 0.220308 0.786575
O O1 0.164153 0.772100 0.521552
O O2 0.075667 0.715114 0.767168
O O3 0.018640 0.000000 0.798902
O O4 0.919460 0.716304 0.914096
O O5 0.311089 0.730383 0.688911
O O6 0.550899 0.715113 0.310366
O O7 0.413427 0.716304 0.420128
O O8 0.435173 0.000000 0.455751
O O9 0.726572 0.715112 0.134693
O O10 0.782977 0.000000 0.107949
O O11 0.692966 0.500000 0.705139
O O12 0.621661 0.778370 0.756678
O O13 0.614856 0.776977 0.885144
O O14 0.500000 0.784139 0.500000
O O15 0.638553 0.000000 0.222894
O O16 0.510825 0.500000 0.887282
O O17 0.535561 0.227903 0.778735
O O18 0.761337 0.715115 0.395829
O O19 0.653721 0.000000 0.528739
O O20 0.111244 0.000000 0.777511
O O21 0.000000 0.269697 0.000000
#
# Coordination Sequence:
#
# PCOD9141611 Si02
#       8
#     4   4   4   4   4   4   4   4
#     4  10  17  25  40  63  84 105 134 167 199 231
#     4   8  13  21  35  57  85 113 138 163 193 232
#     4   8  13  21  35  57  85 113 138 163 193 232
#     4   9  18  32  46  57  74 104 137 168 205 246
#     4   7  10  18  32  52  80 111 138 164 193 225
#     4   9  18  32  46  57  74 104 137 168 205 246
#     4  10  17  25  40  63  84 105 134 167 199 231
#     4   9  16  24  34  53  84 114 133 151 184 231
#
# _framework density 17.934448
#
# number of rings (size 3 to 8) (size 9 to 14) (size 15 to 20)
#    0.000    3.250    1.250    3.000    0.000    3.500 
#    0.000    1.250    0.000    3.750    0.000    1.750 
#    0.000   10.000    0.000    0.000    0.000    0.000 
#
# Total GULP energy -178319.533341 kJ/mol
# GULP energy per Si atom -5572.485417 kJ/mol
# Density = 1.789363 g / cm^3
# Si number density = 17.934448 Si / 1000 Ang^3
#
#
#
# Elastic Constant Matrix: (Units=GPa)
#
#
# Indices 1 2 3 4 5 6 
#
# 1 177.9581 7.9332 100.4345 0.0000 -23.5058 0.0000
# 2 7.9332 54.9745 -4.0967 0.0000 -5.4994 0.0000
# 3 100.4345 -4.0967 107.0224 0.0000 -8.9199 0.0000
# 4 0.0000 0.0000 0.0000 20.0000 0.0000 11.3589
# 5 -23.5058 -5.4994 -8.9199 0.0000 19.7189 0.0000
# 6 0.0000 0.0000 0.0000 11.3589 0.0000 -4.8480
#
#
#
# Elastic Compliance Matrix: (Units=1/GPa)
#
#
# Indices 1 2 3 4 5 6 
#
# 1 0.014149 -0.001900 -0.012459 0.000000 0.010700 0.000000
# 2 -0.001900 0.019116 0.002879 0.000000 0.004369 0.000000
# 3 -0.012459 0.002879 0.020757 0.000000 -0.004659 0.000000
# 4 0.000000 0.000000 0.000000 0.021453 0.000000 0.050264
# 5 0.010700 0.004369 -0.004659 0.000000 0.062579 0.000000
# 6 0.000000 0.000000 0.000000 0.050264 0.000000 -0.088502
#
#
# Mechanical properties :
#
#
# Convention : Reuss Voigt Hill
#
# Bulk Modulus (GPa) = 32.19297 60.94412 46.56855
# Shear Modulus (GPa) = 60.33854 22.68645 41.51249
#
# Velocity S-wave (km/s) = 5.80663 3.56049 4.81633
# Velocity P-wave (km/s) = 7.93381 7.13850 7.54664
#
# Compressibility (1/GPa) = 0.03106268
#
# Stress axis : x y z
#
# Youngs Moduli (GPa) = 70.67823 52.31231 48.17550
#
# Poissons Ratio (x) = 0.09938 0.60020
# Poissons Ratio (y) = 0.13427 -0.13868
# Poissons Ratio (z) = 0.88055 -0.15059
#
# Static dielectric constant tensor:
#      x y z
#    x 1.634190 0.000000 -0.018990 
#    y 0.000000 1.686270 0.000000 
#    z -0.018990 0.000000 1.592660 
# 
# From -- ./inp_files/55473.got.cif
#   From: 2010.05.17/outbox.cif.g08.bks.cpg/sg10_28_cif.got.tgz:55473.got - 2010.06.03 11:33:40.
