data_PCOD9141857
_publ_section_title
;
Structure prediction by ZEFSAII (Michael W. Deem and Ramdas Pophale) SiO2 
 PCOD9141857
Probable space group: P 2/M
;
_chemical_formula_sum "Si O2"
_cell_formula_units_Z 26
_cell_length_a 21.099991
_cell_length_b 7.859066
_cell_length_c 11.961233
_cell_angle_alpha 90.000000
_cell_angle_beta 140.732581
_cell_angle_gamma 90.000000
_cell_volume 1255.429124
_symmetry_space_group_name_H-M "P 2/M"
_symmetry_group_IT_number 10
_symmetry_cell_setting 'monoclinic'
loop_
_space_group_symop_operation_xyz
x,y,z
-x,y,-z
-x,-y,-z
x,-y,z
loop_
_atom_site_type_symbol
_atom_site_label
_atom_site_fract_x
_atom_site_fract_y
_atom_site_fract_z
Si Si1 0.637348 0.798893 0.376080
Si Si2 0.017777 0.295991 0.651540
Si Si3 0.172602 0.693712 0.487036
Si Si4 0.604575 0.207902 0.586987
Si Si5 0.697858 0.191356 0.138659
Si Si6 0.500000 0.746949 0.000000
Si Si7 0.242766 0.795061 0.020421
O O1 0.753303 0.785261 0.497989
O O2 0.617012 0.745372 0.474661
O O3 0.608717 0.000000 0.322116
O O4 0.573162 0.687815 0.200612
O O5 0.002646 0.500000 0.626263
O O6 0.129342 0.261699 0.846162
O O7 0.000000 0.231476 0.500000
O O8 0.934600 0.230279 0.625363
O O9 0.160606 0.500000 0.431861
O O10 0.232686 0.697449 0.686940
O O11 0.500000 0.262331 0.500000
O O12 0.604318 0.000000 0.587887
O O13 0.697065 0.267721 0.789670
O O14 0.588504 0.180356 0.042913
O O15 0.697708 0.252255 0.011560
O O16 0.740902 0.000000 0.199284
O O17 0.242651 0.000000 0.026977
#
# Coordination Sequence:
#
# PCOD9141857 Si02
#       7
#     4   4   4   4   4   2   4
#     4  10  19  33  54  78 108 141 176 218 265 313
#     4  10  20  36  55  76 105 143 180 219 274 326
#     4  10  20  34  52  74 104 137 173 218 268 321
#     4   9  18  34  56  82 112 145 178 217 264 317
#     4  10  18  29  48  76 106 134 169 214 262 313
#     4  10  17  28  49  76 103 136 173 208 255 316
#     4  10  20  32  53  83 108 135 179 224 264 312
#
# _framework density 20.710049000000001
#
# number of rings (size 3 to 8) (size 9 to 14) (size 15 to 20)
#    0.000    2.154    1.538    3.692    0.000    4.000 
#    0.000    7.692    0.000   10.154    0.000    0.000 
#    0.000    0.000    0.000    0.000    0.000    0.000 
#
# Total GULP energy -144821.262786 kJ/mol
# GULP energy per Si atom -5570.048569 kJ/mol
# Density = 2.066291 g / cm^3
# Si number density = 20.710049 Si / 1000 Ang^3
#
#
#
# Elastic Constant Matrix: (Units=GPa)
#
#
# Indices 1 2 3 4 5 6 
#
# 1 179.4034 13.8792 94.4828 0.0000 -6.7416 0.0000
# 2 13.8792 32.1636 6.7400 0.0000 -2.4295 0.0000
# 3 94.4828 6.7400 137.0289 0.0000 1.6525 0.0000
# 4 0.0000 0.0000 0.0000 28.9963 0.0000 15.3403
# 5 -6.7416 -2.4295 1.6525 0.0000 35.8767 0.0000
# 6 0.0000 0.0000 0.0000 15.3403 0.0000 24.7207
#
#
#
# Elastic Compliance Matrix: (Units=1/GPa)
#
#
# Indices 1 2 3 4 5 6 
#
# 1 0.009079 -0.002489 -0.006160 0.000000 0.001821 0.000000
# 2 -0.002489 0.032272 0.000108 0.000000 0.001713 0.000000
# 3 -0.006160 0.000108 0.011560 0.000000 -0.001683 0.000000
# 4 0.000000 0.000000 0.000000 0.051343 0.000000 -0.031861
# 5 0.001821 0.001713 -0.001683 0.000000 0.028409 0.000000
# 6 0.000000 0.000000 0.000000 -0.031861 0.000000 0.060223
#
#
# Mechanical properties :
#
#
# Convention : Reuss Voigt Hill
#
# Bulk Modulus (GPa) = 27.90987 64.31108 46.11047
# Shear Modulus (GPa) = 22.53171 33.48501 28.00836
#
# Velocity S-wave (km/s) = 3.30200 4.02537 3.68149
# Velocity P-wave (km/s) = 5.29560 7.26122 6.35487
#
# Compressibility (1/GPa) = 0.03582962
#
# Stress axis : x y z
#
# Youngs Moduli (GPa) = 110.14436 30.98674 86.50689
#
# Poissons Ratio (x) = 0.07714 0.53285
# Poissons Ratio (y) = 0.27420 -0.00939
# Poissons Ratio (z) = 0.67844 -0.00336
#
# Static dielectric constant tensor:
#      x y z
#    x 1.741610 0.000000 0.010940 
#    y 0.000000 1.774630 0.000000 
#    z 0.010940 0.000000 1.722750 
# 
# From -- ./inp_files/55434.got.cif
#   From: 2010.05.17/outbox.cif.g08.bks.cpg/sg10_28_cif.got.tgz:55434.got - 2010.06.03 11:33:40.
