data_PCOD9141586
_publ_section_title
;
Structure prediction by ZEFSAII (Michael W. Deem and Ramdas Pophale) SiO2 
 PCOD9141586
Probable space group: P 2/M
;
_chemical_formula_sum "Si O2"
_cell_formula_units_Z 32
_cell_length_a 32.092150
_cell_length_b 8.717737
_cell_length_c 21.002342
_cell_angle_alpha 90.000000
_cell_angle_beta 21.425448
_cell_angle_gamma 90.000000
_cell_volume 2146.388914
_symmetry_space_group_name_H-M "P 2/M"
_symmetry_group_IT_number 10
_symmetry_cell_setting 'monoclinic'
loop_
_space_group_symop_operation_xyz
x,y,z
-x,y,-z
-x,-y,-z
x,-y,z
loop_
_atom_site_type_symbol
_atom_site_label
_atom_site_fract_x
_atom_site_fract_y
_atom_site_fract_z
Si Si1 0.945756 0.184236 0.725220
Si Si2 0.900995 0.316399 0.060935
Si Si3 0.204904 0.684550 0.533207
Si Si4 0.846985 0.816289 0.264584
Si Si5 0.954968 0.184550 0.856121
Si Si6 0.200770 0.182899 0.320166
Si Si7 0.630570 0.315258 0.816668
Si Si8 0.867701 0.321443 0.710317
O O1 0.916410 0.224281 0.839535
O O2 0.867111 0.254332 0.782129
O O3 0.077235 0.233038 0.524491
O O4 0.942960 0.000000 0.723141
O O5 0.904299 0.500000 0.058921
O O6 0.822852 0.250001 0.228694
O O7 0.880254 0.257378 0.018987
O O8 0.027068 0.248740 0.896968
O O9 0.194805 0.500000 0.552215
O O10 0.227799 0.754193 0.570534
O O11 0.300482 0.725083 0.345574
O O12 0.084006 0.752498 0.681177
O O13 0.849899 0.000000 0.259271
O O14 0.957609 0.000000 0.859162
O O15 0.299870 0.251042 0.222510
O O16 0.203117 0.236440 0.243602
O O17 0.204304 0.000000 0.318067
O O18 0.630706 0.500000 0.820930
O O19 0.500000 0.262035 0.000000
O O20 0.838733 0.500000 0.751786
O O21 0.000000 0.305114 0.500000
#
# Coordination Sequence:
#
# PCOD9141586 Si02
#       8
#     4   4   4   4   4   4   4   4
#     4   9  17  27  40  59  83 109 137 170 205 245
#     4  10  17  25  36  54  77 102 134 166 198 236
#     4  10  18  28  42  57  75 102 136 173 210 247
#     4  10  17  26  39  53  73 100 132 167 203 242
#     4  10  17  26  39  57  82 109 137 167 204 242
#     4  10  18  30  45  60  79 105 137 174 213 251
#     4  10  21  34  46  61  82 108 140 179 220 256
#     4   9  17  27  41  60  80 104 135 169 205 247
#
# _framework density 14.908761999999999
#
# number of rings (size 3 to 8) (size 9 to 14) (size 15 to 20)
#    0.000    2.250    1.250    6.000    0.000    3.750 
#    0.000    0.000    0.000    0.000    0.000    0.000 
#    0.000    0.000    0.000    1.125    0.000   21.750 
#
# Total GULP energy -178283.988504 kJ/mol
# GULP energy per Si atom -5571.374641 kJ/mol
# Density = 1.487483 g / cm^3
# Si number density = 14.908762 Si / 1000 Ang^3
#
#
#
# Elastic Constant Matrix: (Units=GPa)
#
#
# Indices 1 2 3 4 5 6 
#
# 1 147.8045 49.2866 46.7848 0.0000 24.2436 0.0000
# 2 49.2866 68.3328 22.1586 0.0000 10.8684 0.0000
# 3 46.7848 22.1586 38.8089 0.0000 5.0295 0.0000
# 4 0.0000 0.0000 0.0000 14.2051 0.0000 6.2915
# 5 24.2436 10.8684 5.0295 0.0000 17.5511 0.0000
# 6 0.0000 0.0000 0.0000 6.2915 0.0000 31.6981
#
#
#
# Elastic Compliance Matrix: (Units=1/GPa)
#
#
# Indices 1 2 3 4 5 6 
#
# 1 0.014688 -0.003954 -0.013643 0.000000 -0.013930 0.000000
# 2 -0.003954 0.020333 -0.006147 0.000000 -0.005368 0.000000
# 3 -0.013643 -0.006147 0.044439 0.000000 0.009918 0.000000
# 4 0.000000 0.000000 0.000000 0.077182 0.000000 -0.015319
# 5 -0.013930 -0.005368 0.009918 0.000000 0.076700 0.000000
# 6 0.000000 0.000000 0.000000 -0.015319 0.000000 0.034588
#
#
# Mechanical properties :
#
#
# Convention : Reuss Voigt Hill
#
# Bulk Modulus (GPa) = 31.27853 54.60069 42.93961
# Shear Modulus (GPa) = 15.33378 21.80527 18.56953
#
# Velocity S-wave (km/s) = 3.21052 3.82852 3.53306
# Velocity P-wave (km/s) = 5.89650 7.49974 6.74592
#
# Compressibility (1/GPa) = 0.03197082
#
# Stress axis : x y z
#
# Youngs Moduli (GPa) = 68.08476 49.18015 22.50264
#
# Poissons Ratio (x) = 0.19446 0.30701
# Poissons Ratio (y) = 0.26921 0.13833
# Poissons Ratio (z) = 0.92890 0.30233
#
# Static dielectric constant tensor:
#      x y z
#    x 1.533520 0.000000 0.039430 
#    y 0.000000 1.498260 0.000000 
#    z 0.039430 0.000000 1.472300 
# 
# From -- ./inp_files/87196.got.cif
#   From: 2010.05.17/outbox.cif.g08.bks.cpg/sg10_44_cif.got.tgz:87196.got - 2010.06.03 11:33:40.
