data_PCOD9141803
_publ_section_title
;
Structure prediction by ZEFSAII (Michael W. Deem and Ramdas Pophale) SiO2 
 PCOD9141803
Probable space group: P 2/M
;
_chemical_formula_sum "Si O2"
_cell_formula_units_Z 32
_cell_length_a 8.459466
_cell_length_b 21.870759
_cell_length_c 11.810335
_cell_angle_alpha 90.000000
_cell_angle_beta 43.876375
_cell_angle_gamma 90.000000
_cell_volume 1514.494989
_symmetry_space_group_name_H-M "P 2/M"
_symmetry_group_IT_number 10
_symmetry_cell_setting 'monoclinic'
loop_
_space_group_symop_operation_xyz
x,y,z
-x,y,-z
-x,-y,-z
x,-y,z
loop_
_atom_site_type_symbol
_atom_site_label
_atom_site_fract_x
_atom_site_fract_y
_atom_site_fract_z
Si Si1 0.172908 0.241777 0.191097
Si Si2 0.196540 0.880998 0.297685
Si Si3 0.185010 0.333487 0.000269
Si Si4 0.693691 0.344216 0.695621
Si Si5 0.516355 0.126083 0.321029
Si Si6 0.225008 0.569558 0.165671
Si Si7 0.332271 0.256070 0.488775
Si Si8 0.160372 0.070902 0.685810
O O1 0.264349 0.180276 0.196678
O O2 0.225336 0.268697 0.041504
O O3 0.257819 0.294478 0.231882
O O4 0.900612 0.232053 0.336911
O O5 0.424483 0.898812 0.248512
O O6 0.000000 0.870694 0.500000
O O7 0.075619 0.920098 0.261586
O O8 0.117993 0.383527 0.130298
O O9 0.424031 0.354713 0.826121
O O10 0.000000 0.327894 0.000000
O O11 0.804229 0.404454 0.692343
O O12 0.751506 0.309834 0.550599
O O13 0.457165 0.198772 0.362614
O O14 0.344245 0.093120 0.497737
O O15 0.766557 0.109622 0.240027
O O16 0.149326 0.500000 0.191499
O O17 0.500000 0.572052 0.000000
O O18 0.500000 0.278449 0.500000
O O19 0.188966 0.000000 0.698585
#
# Coordination Sequence:
#
# PCOD9141803 Si02
#       8
#     4   4   4   4   4   4   4   4
#     4  11  18  33  51  71 106 141 174 212 259 327
#     4  10  17  29  46  68  95 137 177 209 255 322
#     4  10  21  34  50  80 109 135 170 222 268 307
#     4  10  20  33  53  78 105 136 176 215 260 311
#     4  10  17  28  43  66  97 134 175 209 255 313
#     4   8  16  33  55  75 101 138 176 213 257 311
#     4  12  19  30  52  77 104 141 174 213 262 322
#     4  10  19  29  42  66 106 142 173 218 265 315
#
# _framework density 21.129155999999998
#
# number of rings (size 3 to 8) (size 9 to 14) (size 15 to 20)
#    0.000    1.875    5.000    3.000    0.000    3.000 
#    0.000    0.000    0.000    6.375    0.000    0.000 
#    0.000    7.500    0.000    0.000    0.000    0.000 
#
# Total GULP energy -178278.706085 kJ/mol
# GULP energy per Si atom -5571.209565 kJ/mol
# Density = 2.108106 g / cm^3
# Si number density = 21.129156 Si / 1000 Ang^3
#
#
#
# Elastic Constant Matrix: (Units=GPa)
#
#
# Indices 1 2 3 4 5 6 
#
# 1 164.4431 16.5651 21.6834 0.0000 22.5819 0.0000
# 2 16.5651 72.2931 11.3496 0.0000 11.0669 0.0000
# 3 21.6834 11.3496 30.7068 0.0000 2.8656 0.0000
# 4 0.0000 0.0000 0.0000 -6.8003 0.0000 -11.3620
# 5 22.5819 11.0669 2.8656 0.0000 14.5450 0.0000
# 6 0.0000 0.0000 0.0000 -11.3620 0.0000 11.2461
#
#
#
# Elastic Compliance Matrix: (Units=1/GPa)
#
#
# Indices 1 2 3 4 5 6 
#
# 1 0.008406 0.000806 -0.005051 0.000000 -0.012669 0.000000
# 2 0.000806 0.016448 -0.005465 0.000000 -0.012690 0.000000
# 3 -0.005051 -0.005465 0.037727 0.000000 0.004568 0.000000
# 4 0.000000 0.000000 0.000000 -0.054706 0.000000 -0.055270
# 5 -0.012669 -0.012690 0.004568 0.000000 0.097177 0.000000
# 6 0.000000 0.000000 0.000000 -0.055270 0.000000 0.033080
#
#
# Mechanical properties :
#
#
# Convention : Reuss Voigt Hill
#
# Bulk Modulus (GPa) = 23.16884 40.73767 31.95326
# Shear Modulus (GPa) = 29.08024 18.32114 23.70069
#
# Velocity S-wave (km/s) = 3.71389 2.94785 3.35282
# Velocity P-wave (km/s) = 5.42031 5.55955 5.49037
#
# Compressibility (1/GPa) = 0.04316141
#
# Stress axis : x y z
#
# Youngs Moduli (GPa) = 118.96726 60.79603 26.50651
#
# Poissons Ratio (x) = -0.04902 0.13389
# Poissons Ratio (y) = -0.09593 0.14485
# Poissons Ratio (z) = 0.60095 0.33223
#
# Static dielectric constant tensor:
#      x y z
#    x 1.803270 0.000000 -0.014180 
#    y 0.000000 1.781570 0.000000 
#    z -0.014180 0.000000 1.847500 
# 
# From -- ./inp_files/43608.got.cif
#   From: 2010.05.17/outbox.cif.g08.bks.cpg/sg10_22_cif.got.tgz:43608.got - 2010.06.03 11:33:40.
