data_PCOD9141297
_publ_section_title
;
Structure prediction by ZEFSAII (Michael W. Deem and Ramdas Pophale) SiO2 
 PCOD9141297
Probable space group: P 2/M
;
_chemical_formula_sum "Si O2"
_cell_formula_units_Z 14
_cell_length_a 7.661986
_cell_length_b 16.996875
_cell_length_c 7.662088
_cell_angle_alpha 90.000000
_cell_angle_beta 41.607559
_cell_angle_gamma 90.000000
_cell_volume 662.585475
_symmetry_space_group_name_H-M "P 2/M"
_symmetry_group_IT_number 10
_symmetry_cell_setting 'monoclinic'
loop_
_space_group_symop_operation_xyz
x,y,z
-x,y,-z
-x,-y,-z
x,-y,z
loop_
_atom_site_type_symbol
_atom_site_label
_atom_site_fract_x
_atom_site_fract_y
_atom_site_fract_z
Si Si1 0.188031 0.000000 0.688039
Si Si2 0.652314 0.592876 0.152331
Si Si3 0.863835 0.342608 0.363815
Si Si4 0.187463 0.828244 0.687471
O O1 0.500000 0.000000 0.500000
O O2 0.139704 0.914491 0.639717
O O3 0.000000 0.000000 0.000000
O O4 0.670388 0.500000 0.170405
O O5 0.353502 0.618396 0.352459
O O6 0.752020 0.638018 0.252018
O O7 0.852437 0.618395 0.853525
O O8 0.875720 0.249114 0.375701
O O9 0.500000 0.823679 0.500000
O O10 0.000000 0.823679 0.000000
#
# Coordination Sequence:
#
# PCOD9141297 Si02
#       4
#     2   4   4   4
#     4   8  16  20  28  32  36  40  44  52  56  64
#     4  10  16  20  24  30  36  42  48  52  56  60
#     4  10  14  20  26  30  36  42  46  52  56  62
#     4  10  14  22  26  32  36  40  46  50  58  62
#
# _framework density 21.129346999999999
#
# number of rings (size 3 to 8) (size 9 to 14) (size 15 to 20)
#    0.000    2.286    5.714    4.286    0.000    0.000 
#    0.000    0.000    0.000    0.000    0.000    0.000 
#    0.000    0.000    0.000    0.000    0.000    0.000 
#
# Total GULP energy -77979.260714 kJ/mol
# GULP energy per Si atom -5569.947194 kJ/mol
# Density = 2.108126 g / cm^3
# Si number density = 21.129347 Si / 1000 Ang^3
#
#
#
# Elastic Constant Matrix: (Units=GPa)
#
#
# Indices 1 2 3 4 5 6 
#
# 1 43.3721 3.4638 43.7863 0.0000 17.4265 0.0000
# 2 3.4638 215.4344 25.9628 0.0000 -9.4382 0.0000
# 3 43.7863 25.9628 165.2937 0.0000 -68.5624 0.0000
# 4 0.0000 0.0000 0.0000 32.3437 0.0000 -18.0428
# 5 17.4265 -9.4382 -68.5624 0.0000 15.1187 0.0000
# 6 0.0000 0.0000 0.0000 -18.0428 0.0000 -10.6639
#
#
#
# Elastic Compliance Matrix: (Units=1/GPa)
#
#
# Indices 1 2 3 4 5 6 
#
# 1 0.007883 -0.000005 0.006648 0.000000 0.021061 0.000000
# 2 -0.000005 0.004728 -0.000551 0.000000 0.000458 0.000000
# 3 0.006648 -0.000551 -0.001196 0.000000 -0.013432 0.000000
# 4 0.000000 0.000000 0.000000 0.015906 0.000000 -0.026911
# 5 0.021061 0.000458 -0.013432 0.000000 -0.018759 0.000000
# 6 0.000000 0.000000 0.000000 -0.026911 0.000000 -0.048241
#
#
# Mechanical properties :
#
#
# Convention : Reuss Voigt Hill
#
# Bulk Modulus (GPa) = 42.37480 63.39177 52.88329
# Shear Modulus (GPa) = -113.64444 30.75217 -41.44614
#
# Velocity S-wave (km/s) = -7.34179 3.81914 -4.43374
# Velocity P-wave (km/s) = 7.19518 7.03667 1.06207
#
# Compressibility (1/GPa) = 0.02359893
#
# Stress axis : x y z
#
# Youngs Moduli (GPa) = 126.85669 211.48917 -836.00709
#
# Poissons Ratio (x) = 0.00112 5.55811
# Poissons Ratio (y) = 0.00067 -0.46080
# Poissons Ratio (z) = -0.84339 0.11657
#
# Static dielectric constant tensor:
#      x y z
#    x 1.915420 0.000000 0.030050 
#    y 0.000000 1.760250 0.000000 
#    z 0.030050 0.000000 1.843700 
# 
# From -- ./inp_files/19006.got.cif
#   From: 2010.05.17/outbox.cif.g08.bks.cpg/sg10_10_cif.got.tgz:19006.got - 2010.06.03 11:33:40.
