data_PCOD9141979
_publ_section_title
;
Structure prediction by ZEFSAII (Michael W. Deem and Ramdas Pophale) SiO2 
 PCOD9141979
Probable space group: P 2/M
;
_chemical_formula_sum "Si O2"
_cell_formula_units_Z 26
_cell_length_a 8.218820
_cell_length_b 14.779616
_cell_length_c 13.833146
_cell_angle_alpha 90.000000
_cell_angle_beta 41.570376
_cell_angle_gamma 90.000000
_cell_volume 1114.962733
_symmetry_space_group_name_H-M "P 2/M"
_symmetry_group_IT_number 10
_symmetry_cell_setting 'monoclinic'
loop_
_space_group_symop_operation_xyz
x,y,z
-x,y,-z
-x,-y,-z
x,-y,z
loop_
_atom_site_type_symbol
_atom_site_label
_atom_site_fract_x
_atom_site_fract_y
_atom_site_fract_z
Si Si1 0.038338 0.335024 0.857345
Si Si2 0.000000 0.836685 0.000000
Si Si3 0.475891 0.598816 0.893068
Si Si4 0.738810 0.898118 0.824615
Si Si5 0.509371 0.095783 0.715469
Si Si6 0.557002 0.715516 0.589520
Si Si7 0.070033 0.707691 0.304629
O O1 0.333237 0.340839 0.736796
O O2 0.991423 0.347777 0.764887
O O3 0.973597 0.233479 0.922934
O O4 0.811756 0.389742 0.003974
O O5 0.233106 0.896311 0.876271
O O6 0.560689 0.500000 0.822971
O O7 0.662587 0.677342 0.777119
O O8 0.500000 0.602100 0.000000
O O9 0.662120 0.901994 0.746275
O O10 0.915671 0.811256 0.740764
O O11 0.828754 0.000000 0.811967
O O12 0.500000 0.880225 0.000000
O O13 0.547783 0.182716 0.633342
O O14 0.555587 0.000000 0.644764
O O15 0.500000 0.716318 0.500000
O O16 0.839999 0.688838 0.475064
#
# Coordination Sequence:
#
# PCOD9141979 Si02
#       7
#     4   2   4   4   4   4   4
#     4   9  18  33  52  74 101 133 174 215 261 317
#     4  10  17  30  51  72  96 136 176 214 266 308
#     4   9  17  31  55  82 103 129 172 222 266 311
#     4  10  20  33  51  77 106 138 178 224 269 309
#     4  10  20  32  48  74 105 137 181 226 263 310
#     4   9  20  35  50  71 104 146 179 209 260 316
#     4  10  18  33  53  75 106 139 173 216 261 312
#
# _framework density 23.319165000000002
#
# number of rings (size 3 to 8) (size 9 to 14) (size 15 to 20)
#    0.000    2.462    0.000    3.462    0.000    1.538 
#    0.000   10.385    0.000    4.615    0.000   10.769 
#    0.000    0.000    0.000    0.000    0.000    1.231 
#
# Total GULP energy -144923.586743 kJ/mol
# GULP energy per Si atom -5573.984106 kJ/mol
# Density = 2.326609 g / cm^3
# Si number density = 23.319165 Si / 1000 Ang^3
#
#
#
# Elastic Constant Matrix: (Units=GPa)
#
#
# Indices 1 2 3 4 5 6 
#
# 1 66.0821 3.5144 33.6229 0.0000 -13.1263 0.0000
# 2 3.5144 62.1434 34.3433 0.0000 -19.3316 0.0000
# 3 33.6229 34.3433 133.7126 0.0000 -25.3288 0.0000
# 4 0.0000 0.0000 0.0000 17.5026 0.0000 -21.1707
# 5 -13.1263 -19.3316 -25.3288 0.0000 41.6590 0.0000
# 6 0.0000 0.0000 0.0000 -21.1707 0.0000 22.8316
#
#
#
# Elastic Compliance Matrix: (Units=1/GPa)
#
#
# Indices 1 2 3 4 5 6 
#
# 1 0.018101 0.002768 -0.004452 0.000000 0.004281 0.000000
# 2 0.002768 0.020890 -0.004589 0.000000 0.007776 0.000000
# 3 -0.004452 -0.004589 0.010293 0.000000 0.002726 0.000000
# 4 0.000000 0.000000 0.000000 -0.469893 0.000000 -0.435712
# 5 0.004281 0.007776 0.002726 0.000000 0.030620 0.000000
# 6 0.000000 0.000000 0.000000 -0.435712 0.000000 -0.360219
#
#
# Mechanical properties :
#
#
# Convention : Reuss Voigt Hill
#
# Bulk Modulus (GPa) = 27.21787 44.98880 36.10334
# Shear Modulus (GPa) = -6.89258 29.09580 11.10161
#
# Velocity S-wave (km/s) = -1.72110 3.53614 2.18428
# Velocity P-wave (km/s) = 2.78346 6.00058 4.67732
#
# Compressibility (1/GPa) = 0.03674056
#
# Stress axis : x y z
#
# Youngs Moduli (GPa) = 55.24588 47.86932 97.15248
#
# Poissons Ratio (x) = -0.13252 0.43248
# Poissons Ratio (y) = -0.15294 0.44579
# Poissons Ratio (z) = 0.24593 0.21965
#
# Static dielectric constant tensor:
#      x y z
#    x 1.992550 0.000000 0.004340 
#    y 0.000000 1.858340 0.000000 
#    z 0.004340 0.000000 1.904670 
# 
# From -- ./inp_files/62022.got.cif
#   From: 2010.05.17/outbox.cif.g08.bks.cpg/sg10_32_cif.got.tgz:62022.got - 2010.06.03 11:33:40.
