data_PCOD9141413
_publ_section_title
;
Structure prediction by ZEFSAII (Michael W. Deem and Ramdas Pophale) SiO2 
 PCOD9141413
Probable space group: P 2/M
;
_chemical_formula_sum "Si O2"
_cell_formula_units_Z 28
_cell_length_a 22.971241
_cell_length_b 17.542224
_cell_length_c 5.411046
_cell_angle_alpha 90.000000
_cell_angle_beta 83.236103
_cell_angle_gamma 90.000000
_cell_volume 2165.294853
_symmetry_space_group_name_H-M "P 2/M"
_symmetry_group_IT_number 10
_symmetry_cell_setting 'monoclinic'
loop_
_space_group_symop_operation_xyz
x,y,z
-x,y,-z
-x,-y,-z
x,-y,z
loop_
_atom_site_type_symbol
_atom_site_label
_atom_site_fract_x
_atom_site_fract_y
_atom_site_fract_z
Si Si1 0.035988 0.165566 0.732006
Si Si2 0.163500 0.092074 0.668250
Si Si3 0.230120 0.907191 0.134940
Si Si4 0.567897 0.092870 0.466051
Si Si5 0.069984 0.590404 0.215008
Si Si6 0.062632 0.654427 0.718684
Si Si7 0.634202 0.092905 0.932899
O O1 0.097617 0.122618 0.701191
O O2 0.048898 0.256288 0.725551
O O3 0.000000 0.147781 0.500000
O O4 0.000000 0.147781 0.000000
O O5 0.197018 0.116833 0.401780
O O6 0.162532 0.000000 0.668734
O O7 0.197018 0.116833 0.901203
O O8 0.297951 0.883157 0.101025
O O9 0.230004 0.000000 0.134998
O O10 0.500000 0.116557 0.500000
O O11 0.601042 0.117018 0.699483
O O12 0.568379 0.000000 0.465810
O O13 0.601042 0.117018 0.199475
O O14 0.076841 0.500000 0.211579
O O15 0.093704 0.628221 0.452848
O O16 0.000401 0.611140 0.249800
O O17 0.093704 0.628221 0.953448
O O18 0.633825 0.000000 0.933087
#
# Coordination Sequence:
#
# PCOD9141413 Si02
#       7
#     4   4   4   4   4   4   4
#     4  12  21  33  45  55  74  93 109 139 187 241
#     4  10  21  33  45  57  67  84 115 157 191 223
#     4   9  17  31  44  55  67  81 114 153 183 213
#     4   9  15  21  30  50  75  93 109 125 150 199
#     4  10  16  25  41  58  76  94 112 130 146 182
#     4  10  16  27  37  56  75  93 111 127 157 205
#     4   9  15  23  37  50  65  91 110 132 168 199
#
# _framework density 12.931264000000001
#
# number of rings (size 3 to 8) (size 9 to 14) (size 15 to 20)
#    0.000    2.143    2.857    4.286    0.000    5.714 
#    0.000    0.000    0.000    0.000    0.000    0.000 
#    0.000    0.000    0.000    0.000    0.000    0.000 
#
# Total GULP energy -155955.852617 kJ/mol
# GULP energy per Si atom -5569.851879 kJ/mol
# Density = 1.290183 g / cm^3
# Si number density = 12.931264 Si / 1000 Ang^3
#
#
#
# Elastic Constant Matrix: (Units=GPa)
#
#
# Indices 1 2 3 4 5 6 
#
# 1 105.9875 17.2591 76.6030 0.0000 0.9142 0.0000
# 2 17.2591 7.1050 17.4480 0.0000 0.0131 0.0000
# 3 76.6030 17.4480 171.2440 0.0000 3.6295 0.0000
# 4 0.0000 0.0000 0.0000 6.3851 0.0000 0.4974
# 5 0.9142 0.0131 3.6295 0.0000 21.4463 0.0000
# 6 0.0000 0.0000 0.0000 0.4974 0.0000 -0.7591
#
#
#
# Elastic Compliance Matrix: (Units=1/GPa)
#
#
# Indices 1 2 3 4 5 6 
#
# 1 0.018201 -0.032296 -0.004853 0.000000 0.000065 0.000000
# 2 -0.032296 0.245234 -0.010604 0.000000 0.003021 0.000000
# 3 -0.004853 -0.010604 0.009119 0.000000 -0.001330 0.000000
# 4 0.000000 0.000000 0.000000 0.149008 0.000000 0.097647
# 5 0.000065 0.003021 -0.001330 0.000000 0.046848 0.000000
# 6 0.000000 0.000000 0.000000 0.097647 0.000000 -1.253432
#
#
# Mechanical properties :
#
#
# Convention : Reuss Voigt Hill
#
# Bulk Modulus (GPa) = 5.64816 56.32855 30.98836
# Shear Modulus (GPa) = -7.93021 16.94956 4.50967
#
# Velocity S-wave (km/s) = -2.47909 3.62435 1.86949
# Velocity P-wave (km/s) = 1.95377 7.82106 5.35499
#
# Compressibility (1/GPa) = 0.17704866
#
# Stress axis : x y z
#
# Youngs Moduli (GPa) = 54.94228 4.07773 109.66200
#
# Poissons Ratio (x) = 0.13170 0.53214
# Poissons Ratio (y) = 1.77444 1.16282
# Poissons Ratio (z) = 0.26661 0.04324
#
# Static dielectric constant tensor:
#      x y z
#    x 1.402730 0.000000 0.008280 
#    y 0.000000 1.390170 0.000000 
#    z 0.008280 0.000000 1.521670 
# 
# From -- ./inp_files/11526.got.cif
#   From: 2010.05.17/outbox.cif.g08.bks.cpg/sg10_6_cif.got.tgz:11526.got - 2010.06.03 11:33:40.
