data_PCOD9141521
_publ_section_title
;
Structure prediction by ZEFSAII (Michael W. Deem and Ramdas Pophale) SiO2 
 PCOD9141521
Probable space group: P 2/M
;
_chemical_formula_sum "Si O2"
_cell_formula_units_Z 26
_cell_length_a 12.855650
_cell_length_b 9.527063
_cell_length_c 21.086720
_cell_angle_alpha 90.000000
_cell_angle_beta 33.967567
_cell_angle_gamma 90.000000
_cell_volume 1442.975866
_symmetry_space_group_name_H-M "P 2/M"
_symmetry_group_IT_number 10
_symmetry_cell_setting 'monoclinic'
loop_
_space_group_symop_operation_xyz
x,y,z
-x,y,-z
-x,-y,-z
x,-y,z
loop_
_atom_site_type_symbol
_atom_site_label
_atom_site_fract_x
_atom_site_fract_y
_atom_site_fract_z
Si Si1 0.725079 0.339332 0.246232
Si Si2 0.962492 0.335098 0.671229
Si Si3 0.000000 0.749109 0.000000
Si Si4 0.036368 0.669038 0.181037
Si Si5 0.700742 0.832844 0.709246
Si Si6 0.721866 0.158290 0.034217
Si Si7 0.674813 0.666636 0.594727
O O1 0.684335 0.500000 0.284250
O O2 0.862235 0.334887 0.116217
O O3 0.525774 0.278239 0.327969
O O4 0.846645 0.278542 0.242454
O O5 0.908575 0.500000 0.691572
O O6 0.958224 0.298947 0.747593
O O7 0.828375 0.237254 0.698126
O O8 0.169526 0.321899 0.537962
O O9 0.135434 0.832350 0.978819
O O10 0.042427 0.500000 0.170634
O O11 0.203959 0.736610 0.056686
O O12 0.484617 0.809239 0.837103
O O13 0.735137 0.753956 0.625613
O O14 0.732003 0.000000 0.688193
O O15 0.723193 0.000000 0.008291
O O16 0.657731 0.500000 0.620187
#
# Coordination Sequence:
#
# PCOD9141521 Si02
#       7
#     4   4   2   4   4   4   4
#     4   9  17  30  54  86 113 139 175 223 273 322
#     4  10  22  39  57  78 110 149 188 225 265 319
#     4  10  16  32  54  80 111 144 173 220 271 330
#     4   9  20  37  56  82 112 145 182 222 270 325
#     4  11  23  38  56  82 111 143 184 229 275 321
#     4  10  21  35  55  82 110 142 180 225 276 326
#     4  10  20  36  58  84 111 143 182 225 273 323
#
# _framework density 18.018319000000002
#
# number of rings (size 3 to 8) (size 9 to 14) (size 15 to 20)
#    0.000    2.154    1.538    1.385    0.000    6.154 
#    0.000    6.154    0.000    0.000    0.000    4.308 
#    0.000    0.000    0.000    0.000    0.000    0.000 
#
# Total GULP energy -144975.847575 kJ/mol
# GULP energy per Si atom -5575.994137 kJ/mol
# Density = 1.797731 g / cm^3
# Si number density = 18.018319 Si / 1000 Ang^3
#
#
#
# Elastic Constant Matrix: (Units=GPa)
#
#
# Indices 1 2 3 4 5 6 
#
# 1 -4.0728 4.4932 5.3495 0.0000 6.0697 0.0000
# 2 4.4932 34.6863 20.3797 0.0000 6.6083 0.0000
# 3 5.3495 20.3797 56.7464 0.0000 4.3255 0.0000
# 4 0.0000 0.0000 0.0000 14.3631 0.0000 -6.3324
# 5 6.0697 6.6083 4.3255 0.0000 31.9862 0.0000
# 6 0.0000 0.0000 0.0000 -6.3324 0.0000 10.6312
#
#
#
# Elastic Compliance Matrix: (Units=1/GPa)
#
#
# Indices 1 2 3 4 5 6 
#
# 1 -0.175607 0.011028 0.010334 0.000000 0.029647 0.000000
# 2 0.011028 0.036958 -0.013712 0.000000 -0.007874 0.000000
# 3 0.010334 -0.013712 0.021730 0.000000 -0.002067 0.000000
# 4 0.000000 0.000000 0.000000 0.094418 0.000000 0.056240
# 5 0.029647 -0.007874 -0.002067 0.000000 0.027544 0.000000
# 6 0.000000 0.000000 0.000000 0.056240 0.000000 0.127562
#
#
# Mechanical properties :
#
#
# Convention : Reuss Voigt Hill
#
# Bulk Modulus (GPa) = -9.84065 16.42273 3.29104
# Shear Modulus (GPa) = 59.92812 15.20526 37.56669
#
# Velocity S-wave (km/s) = 5.77337 2.90811 4.57104
# Velocity P-wave (km/s) = 6.24252 4.51779 5.44883
#
# Compressibility (1/GPa) = -0.10161931
#
# Stress axis : x y z
#
# Youngs Moduli (GPa) = -5.69455 27.05778 46.01889
#
# Poissons Ratio (x) = -0.29839 -0.47556
# Poissons Ratio (y) = 0.06280 0.63103
# Poissons Ratio (z) = 0.05885 0.37103
#
# Static dielectric constant tensor:
#      x y z
#    x 1.620820 0.000000 -0.022230 
#    y 0.000000 1.615980 0.000000 
#    z -0.022230 0.000000 1.603430 
# 
# From -- ./inp_files/83481.got.cif
#   From: 2010.05.17/outbox.cif.g08.bks.cpg/sg10_42_cif.got.tgz:83481.got - 2010.06.03 11:33:40.
