data_PCOD9141836
_publ_section_title
;
Structure prediction by ZEFSAII (Michael W. Deem and Ramdas Pophale) SiO2 
 PCOD9141836
Probable space group: P 2/M
;
_chemical_formula_sum "Si O2"
_cell_formula_units_Z 24
_cell_length_a 17.534196
_cell_length_b 11.703832
_cell_length_c 6.956775
_cell_angle_alpha 90.000000
_cell_angle_beta 49.534371
_cell_angle_gamma 90.000000
_cell_volume 1086.149947
_symmetry_space_group_name_H-M "P 2/M"
_symmetry_group_IT_number 10
_symmetry_cell_setting 'monoclinic'
loop_
_space_group_symop_operation_xyz
x,y,z
-x,y,-z
-x,-y,-z
x,-y,z
loop_
_atom_site_type_symbol
_atom_site_label
_atom_site_fract_x
_atom_site_fract_y
_atom_site_fract_z
Si Si1 0.861552 0.867937 0.546786
Si Si2 0.324033 0.243396 0.037928
Si Si3 0.277875 0.244061 0.691519
Si Si4 0.632434 0.000000 0.564438
Si Si5 0.403975 0.000000 0.918080
Si Si6 0.522643 0.366495 0.692371
Si Si7 0.085385 0.132724 0.082541
O O1 0.769762 0.780022 0.668252
O O2 0.884158 0.866530 0.739837
O O3 0.966955 0.842660 0.272925
O O4 0.833842 0.000000 0.545808
O O5 0.286179 0.292892 0.897640
O O6 0.355229 0.115360 0.927685
O O7 0.425907 0.303016 0.940993
O O8 0.314414 0.114382 0.591176
O O9 0.366901 0.316852 0.447295
O O10 0.158647 0.223677 0.862305
O O11 0.519227 0.000000 0.676034
O O12 0.614186 0.000000 0.823061
O O13 0.500000 0.350772 0.500000
O O14 0.519448 0.500000 0.740794
O O15 0.099038 0.000000 0.997356
#
# Coordination Sequence:
#
# PCOD9141836 Si02
#       7
#     4   4   4   2   2   4   4
#     4   8  13  21  37  64  91 111 138 175 210 251
#     4  10  17  28  48  65  85 118 151 176 208 266
#     4  10  17  28  48  65  85 118 151 176 208 266
#     4  11  21  29  40  65  98 118 135 176 227 266
#     4  11  21  29  40  65  98 118 135 176 227 266
#     4   9  18  29  43  66  88 109 146 195 226 241
#     4   8  13  21  37  64  91 111 138 175 210 251
#
# _framework density 22.096398000000001
#
# number of rings (size 3 to 8) (size 9 to 14) (size 15 to 20)
#    0.000    2.667    3.333    1.500    0.000    0.667 
#    0.000    0.000    0.000    5.000    0.000    7.000 
#    0.000    0.000    0.000    3.000    0.000    3.333 
#
# Total GULP energy -133892.981175 kJ/mol
# GULP energy per Si atom -5578.874216 kJ/mol
# Density = 2.204611 g / cm^3
# Si number density = 22.096398 Si / 1000 Ang^3
#
#
#
# Elastic Constant Matrix: (Units=GPa)
#
#
# Indices 1 2 3 4 5 6 
#
# 1 88.3712 20.1282 60.4924 0.0000 -23.7444 0.0000
# 2 20.1282 81.6252 49.7250 0.0000 -29.8892 0.0000
# 3 60.4924 49.7250 174.2748 0.0000 -44.0170 0.0000
# 4 0.0000 0.0000 0.0000 61.7310 0.0000 17.8683
# 5 -23.7444 -29.8892 -44.0170 0.0000 67.3768 0.0000
# 6 0.0000 0.0000 0.0000 17.8683 0.0000 15.9441
#
#
#
# Elastic Compliance Matrix: (Units=1/GPa)
#
#
# Indices 1 2 3 4 5 6 
#
# 1 0.015129 -0.000063 -0.004663 0.000000 0.002257 0.000000
# 2 -0.000063 0.016104 -0.003322 0.000000 0.004951 0.000000
# 3 -0.004663 -0.003322 0.009003 0.000000 0.002764 0.000000
# 4 0.000000 0.000000 0.000000 0.023977 0.000000 -0.026871
# 5 0.002257 0.004951 0.002764 0.000000 0.019640 0.000000
# 6 0.000000 0.000000 0.000000 -0.026871 0.000000 0.092832
#
#
# Mechanical properties :
#
#
# Convention : Reuss Voigt Hill
#
# Bulk Modulus (GPa) = 41.42943 67.21805 54.32374
# Shear Modulus (GPa) = 24.89692 43.27208 34.08450
#
# Velocity S-wave (km/s) = 3.36034 4.43011 3.93177
# Velocity P-wave (km/s) = 5.81773 7.52690 6.72682
#
# Compressibility (1/GPa) = 0.02413743
#
# Stress axis : x y z
#
# Youngs Moduli (GPa) = 66.09874 62.09810 111.07612
#
# Poissons Ratio (x) = 0.00394 0.51797
# Poissons Ratio (y) = 0.00419 0.36902
# Poissons Ratio (z) = 0.30823 0.20631
#
# Static dielectric constant tensor:
#      x y z
#    x 1.918820 0.000000 0.031240 
#    y 0.000000 1.734020 0.000000 
#    z 0.031240 0.000000 1.895130 
# 
# From -- ./inp_files/34514.got.cif
#   From: 2010.05.17/outbox.cif.g08.bks.cpg/sg10_18_cif.got.tgz:34514.got - 2010.06.03 11:33:40.
