data_PCOD9141557
_publ_section_title
;
Structure prediction by ZEFSAII (Michael W. Deem and Ramdas Pophale) SiO2 
 PCOD9141557
Probable space group: P 2/M
;
_chemical_formula_sum "Si O2"
_cell_formula_units_Z 28
_cell_length_a 32.951745
_cell_length_b 9.115675
_cell_length_c 10.439891
_cell_angle_alpha 90.000000
_cell_angle_beta 146.565409
_cell_angle_gamma 90.000000
_cell_volume 1727.836814
_symmetry_space_group_name_H-M "P 2/M"
_symmetry_group_IT_number 10
_symmetry_cell_setting 'monoclinic'
loop_
_space_group_symop_operation_xyz
x,y,z
-x,y,-z
-x,-y,-z
x,-y,z
loop_
_atom_site_type_symbol
_atom_site_label
_atom_site_fract_x
_atom_site_fract_y
_atom_site_fract_z
Si Si1 0.805133 0.326456 0.503872
Si Si2 0.515749 0.669584 0.387453
Si Si3 0.355442 0.323925 0.961348
Si Si4 0.947200 0.176225 0.977899
Si Si5 0.189798 0.324900 0.788543
Si Si6 0.339571 0.174155 0.195560
Si Si7 0.040012 0.175725 0.471713
O O1 0.817079 0.500000 0.550195
O O2 0.719731 0.294587 0.313003
O O3 0.866676 0.241527 0.744137
O O4 0.813575 0.292455 0.373880
O O5 0.500000 0.679280 0.500000
O O6 0.533982 0.500000 0.408929
O O7 0.585733 0.768939 0.540748
O O8 0.436174 0.705804 0.116738
O O9 0.354284 0.500000 0.990907
O O10 0.348746 0.230375 0.073248
O O11 0.942266 0.000000 0.960529
O O12 0.000000 0.224298 0.000000
O O13 0.986480 0.217986 0.213502
O O14 0.194165 0.500000 0.813578
O O15 0.116759 0.259404 0.658640
O O16 0.263705 0.250471 0.038060
O O17 0.333818 0.000000 0.186040
O O18 0.000000 0.205465 0.500000
O O19 0.053450 0.000000 0.497703
#
# Coordination Sequence:
#
# PCOD9141557 Si02
#       7
#     4   4   4   4   4   4   4
#     4   9  17  28  44  66  89 117 154 192 228 266
#     4   8  13  23  36  50  78 117 151 182 222 270
#     4   8  15  26  37  54  83 118 151 185 227 272
#     4  10  19  31  48  69  92 118 153 190 228 276
#     4  10  19  31  46  64  88 118 155 192 230 274
#     4  10  17  23  36  58  84 114 151 189 226 270
#     4  10  21  36  51  68  93 122 151 190 238 278
#
# _framework density 16.205235999999999
#
# number of rings (size 3 to 8) (size 9 to 14) (size 15 to 20)
#    0.000    2.714    1.429    3.429    0.000    6.000 
#    0.000    0.000    0.000    0.000    0.000    0.000 
#    0.000    1.143    0.000   13.143    0.000    6.857 
#
# Total GULP energy -155899.560825 kJ/mol
# GULP energy per Si atom -5567.841458 kJ/mol
# Density = 1.616835 g / cm^3
# Si number density = 16.205236 Si / 1000 Ang^3
#
#
#
# Elastic Constant Matrix: (Units=GPa)
#
#
# Indices 1 2 3 4 5 6 
#
# 1 56.8027 41.8068 63.3705 0.0000 18.5773 0.0000
# 2 41.8068 58.3898 56.3863 0.0000 24.5098 0.0000
# 3 63.3705 56.3863 132.6677 0.0000 43.7256 0.0000
# 4 0.0000 0.0000 0.0000 16.0485 0.0000 5.5862
# 5 18.5773 24.5098 43.7256 0.0000 31.7728 0.0000
# 6 0.0000 0.0000 0.0000 5.5862 0.0000 11.7945
#
#
#
# Elastic Compliance Matrix: (Units=1/GPa)
#
#
# Indices 1 2 3 4 5 6 
#
# 1 0.053601 -0.025908 -0.019856 0.000000 0.015971 0.000000
# 2 -0.025908 0.043384 -0.000048 0.000000 -0.018253 0.000000
# 3 -0.019856 -0.000048 0.024164 0.000000 -0.021608 0.000000
# 4 0.000000 0.000000 0.000000 0.074612 0.000000 -0.035338
# 5 0.015971 -0.018253 -0.021608 0.000000 0.065953 0.000000
# 6 0.000000 0.000000 0.000000 -0.035338 0.000000 0.101522
#
#
# Mechanical properties :
#
#
# Convention : Reuss Voigt Hill
#
# Bulk Modulus (GPa) = 33.86774 63.44307 48.65541
# Shear Modulus (GPa) = 10.75958 17.67628 14.21793
#
# Velocity S-wave (km/s) = 2.57953 3.30627 2.96525
# Velocity P-wave (km/s) = 5.46046 7.33553 6.46632
#
# Compressibility (1/GPa) = 0.02952662
#
# Stress axis : x y z
#
# Youngs Moduli (GPa) = 18.65626 23.04980 41.38340
#
# Poissons Ratio (x) = 0.59716 0.82171
# Poissons Ratio (y) = 0.48334 0.00199
# Poissons Ratio (z) = 0.37044 0.00111
#
# Static dielectric constant tensor:
#      x y z
#    x 1.528730 0.000000 0.029010 
#    y 0.000000 1.536870 0.000000 
#    z 0.029010 0.000000 1.575970 
# 
# From -- ./inp_files/37330.got.cif
#   From: 2010.05.17/outbox.cif.g08.bks.cpg/sg10_19_cif.got.tgz:37330.got - 2010.06.03 11:33:40.
