data_PCOD9141382
_publ_section_title
;
Structure prediction by ZEFSAII (Michael W. Deem and Ramdas Pophale) SiO2 
 PCOD9141382
Probable space group: P 2/M
;
_chemical_formula_sum "Si O2"
_cell_formula_units_Z 30
_cell_length_a 28.940260
_cell_length_b 7.646568
_cell_length_c 12.341692
_cell_angle_alpha 90.000000
_cell_angle_beta 31.561134
_cell_angle_gamma 90.000000
_cell_volume 1429.499687
_symmetry_space_group_name_H-M "P 2/M"
_symmetry_group_IT_number 10
_symmetry_cell_setting 'monoclinic'
loop_
_space_group_symop_operation_xyz
x,y,z
-x,y,-z
-x,-y,-z
x,-y,z
loop_
_atom_site_type_symbol
_atom_site_label
_atom_site_fract_x
_atom_site_fract_y
_atom_site_fract_z
Si Si1 0.695819 0.214373 0.606841
Si Si2 0.803300 0.206039 0.602717
Si Si3 0.500423 0.200883 0.255134
Si Si4 0.322709 0.785411 0.721886
Si Si5 0.011246 0.701615 0.856699
Si Si6 0.177651 0.209802 0.849862
Si Si7 0.327939 0.214487 0.960028
Si Si8 0.500000 0.257908 0.000000
O O1 0.748401 0.270467 0.608586
O O2 0.759021 0.246099 0.379020
O O3 0.677120 0.000000 0.645991
O O4 0.602735 0.311089 0.784702
O O5 0.906537 0.226792 0.374877
O O6 0.785904 0.000000 0.637124
O O7 0.759387 0.273138 0.800642
O O8 0.407664 0.275217 0.482742
O O9 0.587142 0.275217 0.140139
O O10 0.507916 0.194735 0.110320
O O11 0.498385 0.000000 0.296024
O O12 0.232140 0.729029 0.845426
O O13 0.331281 0.729847 0.828934
O O14 0.321065 0.000000 0.721577
O O15 0.034457 0.500000 0.827420
O O16 0.918796 0.716328 0.979871
O O17 0.000000 0.782544 0.000000
O O18 0.167181 0.000000 0.876396
O O19 0.328465 0.000000 0.956304
#
# Coordination Sequence:
#
# PCOD9141382 Si02
#       8
#     4   4   4   4   4   4   4   2
#     4  10  17  25  42  71 106 137 167 202 243 291
#     4  10  19  32  52  76 102 135 171 210 251 299
#     4  10  16  22  37  65 106 145 170 200 245 299
#     4   9  17  28  43  68 103 140 174 207 247 293
#     4  11  23  37  54  77 102 128 161 210 269 320
#     4  10  19  32  52  76 102 135 171 210 251 299
#     4   9  17  28  43  68 103 140 174 207 247 293
#     4  12  17  22  38  72 115 144 165 198 251 306
#
# _framework density 20.986362
#
# number of rings (size 3 to 8) (size 9 to 14) (size 15 to 20)
#    0.000    2.000    4.000    2.000    0.000    2.133 
#    0.000    0.667    0.000    4.800    0.000    4.667 
#    0.000    2.133    0.000    0.000    0.000    0.000 
#
# Total GULP energy -167144.786862 kJ/mol
# GULP energy per Si atom -5571.492895 kJ/mol
# Density = 2.093860 g / cm^3
# Si number density = 20.986362 Si / 1000 Ang^3
#
#
#
# Elastic Constant Matrix: (Units=GPa)
#
#
# Indices 1 2 3 4 5 6 
#
# 1 137.4009 0.6224 76.4832 0.0000 2.5915 0.0000
# 2 0.6224 31.5021 -3.1840 0.0000 4.4345 0.0000
# 3 76.4832 -3.1840 118.9726 0.0000 -10.6681 0.0000
# 4 0.0000 0.0000 0.0000 -144.8390 0.0000 64.4556
# 5 2.5915 4.4345 -10.6681 0.0000 40.2700 0.0000
# 6 0.0000 0.0000 0.0000 64.4556 0.0000 -38.5090
#
#
#
# Elastic Compliance Matrix: (Units=1/GPa)
#
#
# Indices 1 2 3 4 5 6 
#
# 1 0.011645 -0.000629 -0.007748 0.000000 -0.002733 0.000000
# 2 -0.000629 0.032314 0.000977 0.000000 -0.003259 0.000000
# 3 -0.007748 0.000977 0.013775 0.000000 0.004040 0.000000
# 4 0.000000 0.000000 0.000000 -0.027060 0.000000 -0.045293
# 5 -0.002733 -0.003259 0.004040 0.000000 0.026437 0.000000
# 6 0.000000 0.000000 0.000000 -0.045293 0.000000 -0.101779
#
#
# Mechanical properties :
#
#
# Convention : Reuss Voigt Hill
#
# Bulk Modulus (GPa) = 23.29176 48.41321 35.85249
# Shear Modulus (GPa) = -321.41823 -14.35200 -167.88512
#
# Velocity S-wave (km/s) = -12.38904 -2.61793 -8.95382
# Velocity P-wave (km/s) = 13.91145 3.73910 9.47490
#
# Compressibility (1/GPa) = 0.04293364
#
# Stress axis : x y z
#
# Youngs Moduli (GPa) = 85.87092 30.94649 72.59636
#
# Poissons Ratio (x) = 0.01945 0.56250
# Poissons Ratio (y) = 0.05397 -0.07090
# Poissons Ratio (z) = 0.66535 -0.03022
#
# Static dielectric constant tensor:
#      x y z
#    x 1.723130 0.000000 0.007390 
#    y 0.000000 1.826680 0.000000 
#    z 0.007390 0.000000 1.732070 
# 
# From -- ./inp_files/57997.got.cif
#   From: 2010.05.17/outbox.cif.g08.bks.cpg/sg10_29_cif.got.tgz:57997.got - 2010.06.03 11:33:40.
