data_PCOD9141117
_publ_section_title
;
Structure prediction by ZEFSAII (Michael W. Deem and Ramdas Pophale) SiO2 
 PCOD9141117
Probable space group: C C
;
_chemical_formula_sum "Si O2"
_cell_formula_units_Z 32
_cell_length_a 15.608058
_cell_length_b 9.916668
_cell_length_c 8.934080
_cell_angle_alpha 90.000000
_cell_angle_beta 63.463477
_cell_angle_gamma 90.000000
_cell_volume 1237.136234
_symmetry_space_group_name_H-M "C C"
_symmetry_group_IT_number 9
_symmetry_cell_setting 'monoclinic'
loop_
_space_group_symop_operation_xyz
x,y,z
x,-y,1/2+z
1/2+x,1/2+y,z
1/2+x,1/2-y,1/2+z
loop_
_atom_site_type_symbol
_atom_site_label
_atom_site_fract_x
_atom_site_fract_y
_atom_site_fract_z
Si Si1 0.829170 0.727185 0.675270
Si Si2 0.659287 0.992018 0.591906
Si Si3 0.525951 0.076916 0.470899
Si Si4 0.038019 0.922529 0.243222
Si Si5 0.861242 0.092742 0.413006
Si Si6 0.747154 0.266122 0.908457
Si Si7 0.448534 0.776500 0.584467
Si Si8 0.664793 0.556512 0.924631
O O1 0.933091 0.670063 0.550295
O O2 0.842952 0.864679 0.755919
O O3 0.769310 0.723934 0.569087
O O4 0.764735 0.636933 0.840370
O O5 0.597806 0.102888 0.551573
O O6 0.691249 0.875388 0.449012
O O7 0.758799 0.058918 0.564047
O O8 0.590898 0.930159 0.772086
O O9 0.484182 0.926889 0.531634
O O10 0.021285 0.809937 0.129579
O O11 0.931444 0.966741 0.367623
O O12 0.097206 0.889523 0.344917
O O13 0.097771 0.045987 0.122658
O O14 0.921538 0.207909 0.448791
O O15 0.848772 0.269388 0.749615
O O16 0.695678 0.399245 0.885961
#
# Coordination Sequence:
#
# PCOD9141117 Si02
#       8
#     4   4   4   4   4   4   4   4
#     4  12  29  48  75 113 155 197 256 325 385 466
#     4  12  27  49  77 111 151 199 255 312 388 466
#     4  12  27  49  77 111 151 199 255 312 388 466
#     4  12  27  49  77 110 149 204 262 315 388 460
#     4  12  29  48  75 113 155 197 256 325 385 466
#     4  12  26  49  80 107 156 203 254 323 393 451
#     4  12  26  49  80 107 156 203 254 323 393 451
#     4  12  27  49  77 110 149 204 262 315 388 460
#
# _framework density 25.86619
#
# number of rings (size 3 to 8) (size 9 to 14) (size 15 to 20)
#    0.000    0.000    5.000    3.750    7.000    3.000 
#    0.000    0.000    0.000    0.000    0.000    0.000 
#    0.000    0.000    0.000    0.000    0.000    0.000 
#
# Total GULP energy -89678.134338 kJ/mol
# GULP energy per Si atom -5604.883396 kJ/mol
# Density = 2.580732 g / cm^3
# Si number density = 25.866190 Si / 1000 Ang^3
#
#
#
# Elastic Constant Matrix: (Units=GPa)
#
#
# Indices 1 2 3 4 5 6 
#
# 1 115.2358 41.5207 36.3125 0.0000 -13.7559 0.0000
# 2 41.5207 70.3522 12.5643 0.0000 -4.5252 0.0000
# 3 36.3125 12.5643 136.9786 0.0000 -28.2013 0.0000
# 4 0.0000 0.0000 0.0000 38.3759 0.0000 -0.8023
# 5 -13.7559 -4.5252 -28.2013 0.0000 52.9744 0.0000
# 6 0.0000 0.0000 0.0000 -0.8023 0.0000 40.6294
#
#
#
# Elastic Compliance Matrix: (Units=1/GPa)
#
#
# Indices 1 2 3 4 5 6 
#
# 1 0.011911 -0.006536 -0.002287 0.000000 0.001317 0.000000
# 2 -0.006536 0.018055 0.000050 0.000000 -0.000128 0.000000
# 3 -0.002287 0.000050 0.008738 0.000000 0.004062 0.000000
# 4 0.000000 0.000000 0.000000 0.026069 0.000000 0.000515
# 5 0.001317 -0.000128 0.004062 0.000000 0.021371 0.000000
# 6 0.000000 0.000000 0.000000 0.000515 0.000000 0.024623
#
#
# Mechanical properties :
#
#
# Convention : Reuss Voigt Hill
#
# Bulk Modulus (GPa) = 47.26331 55.92906 51.59619
# Shear Modulus (GPa) = 36.93721 41.87388 39.40554
#
# Velocity S-wave (km/s) = 3.78300 4.02788 3.90736
# Velocity P-wave (km/s) = 6.11501 6.58036 6.35195
#
# Compressibility (1/GPa) = 0.02115806
#
# Stress axis : x y z
#
# Youngs Moduli (GPa) = 83.95706 55.38737 114.43749
#
# Poissons Ratio (x) = 0.36204 0.26169
# Poissons Ratio (y) = 0.54878 -0.00576
# Poissons Ratio (z) = 0.19199 -0.00279
#
# Static dielectric constant tensor:
#      x y z
#    x 2.019130 0.000000 0.022230 
#    y 0.000000 2.036690 0.000000 
#    z 0.022230 0.000000 2.009070 
# 
# From -- ./inp_files/9227.got.cif
#   From: 2010.05.17/outbox.cif.g08.bks.cpg/sg9_5_cif.got.tgz:9227.got - 2010.06.03 20:04:27.
