data_PCOD9141748
_publ_section_title
;
Structure prediction by ZEFSAII (Michael W. Deem and Ramdas Pophale) SiO2 
 PCOD9141748
Probable space group: P 2/M
;
_chemical_formula_sum "Si O2"
_cell_formula_units_Z 32
_cell_length_a 13.876776
_cell_length_b 8.801118
_cell_length_c 17.756075
_cell_angle_alpha 90.000000
_cell_angle_beta 101.785559
_cell_angle_gamma 90.000000
_cell_volume 2122.853899
_symmetry_space_group_name_H-M "P 2/M"
_symmetry_group_IT_number 10
_symmetry_cell_setting 'monoclinic'
loop_
_space_group_symop_operation_xyz
x,y,z
-x,y,-z
-x,-y,-z
x,-y,z
loop_
_atom_site_type_symbol
_atom_site_label
_atom_site_fract_x
_atom_site_fract_y
_atom_site_fract_z
Si Si1 0.741997 0.822582 0.172466
Si Si2 0.137349 0.181630 0.668578
Si Si3 0.079736 0.317268 0.339977
Si Si4 0.128073 0.816040 0.191573
Si Si5 0.613024 0.681473 0.026034
Si Si6 0.074806 0.822525 0.912608
Si Si7 0.225387 0.816261 0.057657
Si Si8 0.881072 0.674820 0.490041
O O1 0.777409 0.768355 0.259970
O O2 0.840718 0.814677 0.137187
O O3 0.713413 0.000000 0.172158
O O4 0.659827 0.733702 0.112880
O O5 0.158052 0.228785 0.585979
O O6 0.031942 0.252820 0.675177
O O7 0.128138 0.000000 0.673853
O O8 0.073975 0.500000 0.339320
O O9 0.133239 0.256985 0.274309
O O10 0.133099 0.270630 0.426647
O O11 0.211256 0.779697 0.143052
O O12 0.025435 0.759897 0.137522
O O13 0.123497 0.000000 0.198990
O O14 0.617364 0.500000 0.021795
O O15 0.681285 0.750423 0.971025
O O16 0.500000 0.730940 0.000000
O O17 0.053211 0.000000 0.924487
O O18 0.127889 0.762057 0.995964
O O19 0.228066 0.000000 0.050719
O O20 0.848118 0.500000 0.477494
O O21 0.000000 0.674644 0.500000
#
# Coordination Sequence:
#
# PCOD9141748 Si02
#       8
#     4   4   4   4   4   4   4   4
#     4   9  17  29  46  66  86 112 145 180 220 259
#     4  10  17  27  43  62  83 110 149 189 219 251
#     4  10  19  28  38  56  87 123 152 179 215 252
#     4  10  17  27  43  62  86 115 149 183 211 248
#     4  10  21  35  49  65  87 113 141 178 221 262
#     4   8  13  25  41  58  83 111 139 173 211 247
#     4   9  18  30  46  65  84 111 144 180 220 256
#     4   8  16  28  38  53  81 117 151 181 215 252
#
# _framework density 15.074045999999999
#
# number of rings (size 3 to 8) (size 9 to 14) (size 15 to 20)
#    0.000    2.750    1.250    3.000    0.000    6.750 
#    0.000    0.000    0.000    2.250    0.000    0.000 
#    0.000    1.000    0.000   11.000    0.000    8.000 
#
# Total GULP energy -178172.159646 kJ/mol
# GULP energy per Si atom -5567.879989 kJ/mol
# Density = 1.503974 g / cm^3
# Si number density = 15.074046 Si / 1000 Ang^3
#
#
#
# Elastic Constant Matrix: (Units=GPa)
#
#
# Indices 1 2 3 4 5 6 
#
# 1 45.6392 19.7662 47.3010 0.0000 0.2413 0.0000
# 2 19.7662 29.5256 36.5772 0.0000 -1.2862 0.0000
# 3 47.3010 36.5772 143.3040 0.0000 -15.5895 0.0000
# 4 0.0000 0.0000 0.0000 37.0392 0.0000 0.6680
# 5 0.2413 -1.2862 -15.5895 0.0000 17.5983 0.0000
# 6 0.0000 0.0000 0.0000 0.6680 0.0000 14.3628
#
#
#
# Elastic Compliance Matrix: (Units=1/GPa)
#
#
# Indices 1 2 3 4 5 6 
#
# 1 0.038653 -0.013282 -0.010548 0.000000 -0.010844 0.000000
# 2 -0.013282 0.055239 -0.010243 0.000000 -0.004855 0.000000
# 3 -0.010548 -0.010243 0.014396 0.000000 0.012149 0.000000
# 4 0.000000 0.000000 0.000000 0.027021 0.000000 -0.001257
# 5 -0.010844 -0.004855 0.012149 0.000000 0.067379 0.000000
# 6 0.000000 0.000000 0.000000 -0.001257 0.000000 0.069683
#
#
# Mechanical properties :
#
#
# Convention : Reuss Voigt Hill
#
# Bulk Modulus (GPa) = 24.91204 47.30641 36.10922
# Shear Modulus (GPa) = 14.12838 21.45502 17.79170
#
# Velocity S-wave (km/s) = 3.06480 3.77677 3.43926
# Velocity P-wave (km/s) = 5.39317 7.10419 6.30697
#
# Compressibility (1/GPa) = 0.04014123
#
# Stress axis : x y z
#
# Youngs Moduli (GPa) = 25.87145 18.10317 69.46400
#
# Poissons Ratio (x) = 0.24044 0.73270
# Poissons Ratio (y) = 0.34362 0.71155
# Poissons Ratio (z) = 0.27289 0.18544
#
# Static dielectric constant tensor:
#      x y z
#    x 1.476330 0.000000 -0.014150 
#    y 0.000000 1.512200 0.000000 
#    z -0.014150 0.000000 1.542740 
# 
# From -- ./inp_files/77397.got.cif
#   From: 2010.05.17/outbox.cif.g08.bks.cpg/sg10_39_cif.got.tgz:77397.got - 2010.06.03 11:33:40.
