data_PCOD9141502
_publ_section_title
;
Structure prediction by ZEFSAII (Michael W. Deem and Ramdas Pophale) SiO2 
 PCOD9141502
Probable space group: P 2/M
;
_chemical_formula_sum "Si O2"
_cell_formula_units_Z 32
_cell_length_a 15.026980
_cell_length_b 17.452693
_cell_length_c 21.597263
_cell_angle_alpha 90.000000
_cell_angle_beta 18.612439
_cell_angle_gamma 90.000000
_cell_volume 1807.791006
_symmetry_space_group_name_H-M "P 2/M"
_symmetry_group_IT_number 10
_symmetry_cell_setting 'monoclinic'
loop_
_space_group_symop_operation_xyz
x,y,z
-x,y,-z
-x,-y,-z
x,-y,z
loop_
_atom_site_type_symbol
_atom_site_label
_atom_site_fract_x
_atom_site_fract_y
_atom_site_fract_z
Si Si1 0.556155 0.266753 0.794420
Si Si2 0.607508 0.412134 0.830680
Si Si3 0.901036 0.648918 0.750287
Si Si4 0.892671 0.912828 0.000297
Si Si5 0.267367 0.185557 0.195964
Si Si6 0.916871 0.767679 0.199393
Si Si7 0.673129 0.833225 0.603729
Si Si8 0.601803 0.732274 0.530871
O O1 0.656030 0.351585 0.744613
O O2 0.617118 0.213366 0.813997
O O3 0.698879 0.230473 0.640594
O O4 0.225082 0.266854 0.000413
O O5 0.584055 0.500000 0.827997
O O6 0.845158 0.401149 0.726242
O O7 0.320636 0.382953 0.053583
O O8 0.814695 0.735527 0.786610
O O9 0.213569 0.659541 0.569198
O O10 0.565045 0.891395 0.218371
O O11 0.936766 0.000000 0.951068
O O12 0.000000 0.905174 0.000000
O O13 0.044284 0.851003 0.857024
O O14 0.985447 0.137451 0.388162
O O15 0.500000 0.147505 0.000000
O O16 0.782079 0.769723 0.356301
O O17 0.702723 0.720256 0.297528
O O18 0.577697 0.789783 0.604470
#
# Coordination Sequence:
#
# PCOD9141502 Si02
#       8
#     4   4   4   4   4   4   4   4
#     4  10  18  31  49  79 106 141 181 226 272 323
#     4  10  17  29  51  78 109 148 183 223 284 333
#     4   9  15  28  47  75 104 137 177 225 270 319
#     4  10  20  37  54  78 116 147 176 217 278 337
#     4  10  16  30  52  78 105 132 179 231 269 308
#     4  10  19  32  54  76 108 137 185 229 267 315
#     4  10  20  31  55  79 108 139 181 224 273 326
#     4  10  18  31  50  79 104 134 185 234 265 309
#
# _framework density 17.701160999999999
#
# number of rings (size 3 to 8) (size 9 to 14) (size 15 to 20)
#    0.000    2.125    5.000    1.875    0.000    0.000 
#    0.000    1.875    0.000   25.125    0.000    0.875 
#    0.000    5.000    0.000    0.000    0.000    0.000 
#
# Total GULP energy -178370.360746 kJ/mol
# GULP energy per Si atom -5574.073773 kJ/mol
# Density = 1.766087 g / cm^3
# Si number density = 17.701161 Si / 1000 Ang^3
#
#
#
# Elastic Constant Matrix: (Units=GPa)
#
#
# Indices 1 2 3 4 5 6 
#
# 1 90.1374 20.5969 25.5053 0.0000 -7.3335 0.0000
# 2 20.5969 61.2423 6.9513 0.0000 -3.5768 0.0000
# 3 25.5053 6.9513 76.9911 0.0000 -17.2299 0.0000
# 4 0.0000 0.0000 0.0000 11.2062 0.0000 -1.0882
# 5 -7.3335 -3.5768 -17.2299 0.0000 32.7680 0.0000
# 6 0.0000 0.0000 0.0000 -1.0882 0.0000 14.2890
#
#
#
# Elastic Compliance Matrix: (Units=1/GPa)
#
#
# Indices 1 2 3 4 5 6 
#
# 1 0.013135 -0.003949 -0.003891 0.000000 0.000463 0.000000
# 2 -0.003949 0.017723 -0.000064 0.000000 0.001017 0.000000
# 3 -0.003891 -0.000064 0.015966 0.000000 0.007517 0.000000
# 4 0.000000 0.000000 0.000000 0.089902 0.000000 0.006847
# 5 0.000463 0.001017 0.007517 0.000000 0.034685 0.000000
# 6 0.000000 0.000000 0.000000 0.006847 0.000000 0.070505
#
#
# Mechanical properties :
#
#
# Convention : Reuss Voigt Hill
#
# Bulk Modulus (GPa) = 32.24250 37.16419 34.70335
# Shear Modulus (GPa) = 18.65230 23.34046 20.99638
#
# Velocity S-wave (km/s) = 3.24965 3.63517 3.44780
# Velocity P-wave (km/s) = 5.68636 6.21773 5.95797
#
# Compressibility (1/GPa) = 0.03101496
#
# Stress axis : x y z
#
# Youngs Moduli (GPa) = 76.13101 56.42266 62.63423
#
# Poissons Ratio (x) = 0.22281 0.24373
# Poissons Ratio (y) = 0.30064 0.00403
# Poissons Ratio (z) = 0.29625 0.00363
#
# Static dielectric constant tensor:
#      x y z
#    x 1.634450 0.000000 -0.014890 
#    y 0.000000 1.568170 0.000000 
#    z -0.014890 0.000000 1.658860 
# 
# From -- ./inp_files/85488.got.cif
#   From: 2010.05.17/outbox.cif.g08.bks.cpg/sg10_43_cif.got.tgz:85488.got - 2010.06.03 11:33:40.
