data_PCOD9141118
_publ_section_title
;
Structure prediction by ZEFSAII (Michael W. Deem and Ramdas Pophale) SiO2 
 PCOD9141118
Probable space group: C C
;
_chemical_formula_sum "Si O2"
_cell_formula_units_Z 28
_cell_length_a 13.282271
_cell_length_b 9.987776
_cell_length_c 8.343719
_cell_angle_alpha 90.000000
_cell_angle_beta 78.981774
_cell_angle_gamma 90.000000
_cell_volume 1086.476907
_symmetry_space_group_name_H-M "C C"
_symmetry_group_IT_number 9
_symmetry_cell_setting 'monoclinic'
loop_
_space_group_symop_operation_xyz
x,y,z
x,-y,1/2+z
1/2+x,1/2+y,z
1/2+x,1/2-y,1/2+z
loop_
_atom_site_type_symbol
_atom_site_label
_atom_site_fract_x
_atom_site_fract_y
_atom_site_fract_z
Si Si1 0.109970 0.820346 0.498570
Si Si2 0.514055 0.574331 0.437284
Si Si3 0.339924 0.817360 0.949741
Si Si4 0.659372 0.066765 0.619492
Si Si5 0.047480 0.290457 0.711369
Si Si6 0.234868 0.963561 0.691053
Si Si7 0.806904 0.025561 0.854503
O O1 0.517703 0.697444 0.566043
O O2 0.090922 0.698829 0.629373
O O3 0.122836 0.790458 0.305121
O O4 0.215592 0.884530 0.530273
O O5 0.524044 0.435502 0.533040
O O6 0.621244 0.561411 0.307152
O O7 0.411756 0.551554 0.362881
O O8 0.459978 0.811274 0.873475
O O9 0.302541 0.884579 0.796240
O O10 0.304553 0.662541 0.960359
O O11 0.296439 0.905860 0.107664
O O12 0.762434 0.073065 0.696984
O O13 0.591991 0.933754 0.651708
O O14 0.711737 0.065767 0.431107
#
# Coordination Sequence:
#
# PCOD9141118 Si02
#       7
#     4   4   4   4   4   4   4
#     4  12  26  49  80 114 158 216 268 342 418 493
#     4  12  28  52  83 114 159 221 278 340 415 507
#     4  12  28  48  77 118 159 216 276 341 414 502
#     4  12  28  49  75 118 162 213 273 347 416 489
#     4  12  29  52  78 117 163 212 275 348 417 495
#     4  12  28  48  79 116 163 213 274 339 414 495
#     4  12  27  46  80 113 158 215 282 337 414 495
#
# _framework density 25.771370000000001
#
# number of rings (size 3 to 8) (size 9 to 14) (size 15 to 20)
#    0.000    0.000    5.714    2.571    6.000    0.000 
#    0.000    0.000    0.000    0.000    0.000    0.000 
#    0.000    0.000    0.000    0.000    0.000    0.000 
#
# Total GULP energy -78017.190016 kJ/mol
# GULP energy per Si atom -5572.656430 kJ/mol
# Density = 2.571271 g / cm^3
# Si number density = 25.771370 Si / 1000 Ang^3
#
#
#
# Elastic Constant Matrix: (Units=GPa)
#
#
# Indices 1 2 3 4 5 6 
#
# 1 77.7678 52.3451 45.2486 0.0000 -4.1318 0.0000
# 2 52.3451 157.8940 32.3695 0.0000 -4.1648 0.0000
# 3 45.2486 32.3695 82.7607 0.0000 -8.3794 0.0000
# 4 0.0000 0.0000 0.0000 41.1972 0.0000 17.1880
# 5 -4.1318 -4.1648 -8.3794 0.0000 48.8406 0.0000
# 6 0.0000 0.0000 0.0000 17.1880 0.0000 30.0604
#
#
#
# Elastic Compliance Matrix: (Units=1/GPa)
#
#
# Indices 1 2 3 4 5 6 
#
# 1 0.022344 -0.005332 -0.010162 0.000000 -0.000308 0.000000
# 2 -0.005332 0.008159 -0.000255 0.000000 0.000201 0.000000
# 3 -0.010162 -0.000255 0.017962 0.000000 0.002200 0.000000
# 4 0.000000 0.000000 0.000000 0.031878 0.000000 -0.018227
# 5 -0.000308 0.000201 0.002200 0.000000 0.020843 0.000000
# 6 0.000000 0.000000 0.000000 -0.018227 0.000000 0.043688
#
#
# Mechanical properties :
#
#
# Convention : Reuss Voigt Hill
#
# Bulk Modulus (GPa) = 58.94426 64.26099 61.60263
# Shear Modulus (GPa) = 27.46806 36.58361 32.02583
#
# Velocity S-wave (km/s) = 3.26826 3.77177 3.52901
# Velocity P-wave (km/s) = 6.09620 6.63005 6.36872
#
# Compressibility (1/GPa) = 0.01696518
#
# Stress axis : x y z
#
# Youngs Moduli (GPa) = 44.75385 122.56683 55.67403
#
# Poissons Ratio (x) = 0.65358 0.56577
# Poissons Ratio (y) = 0.23865 0.01421
# Poissons Ratio (z) = 0.45480 0.03129
#
# Static dielectric constant tensor:
#      x y z
#    x 2.073400 0.000000 0.035340 
#    y 0.000000 2.200260 0.000000 
#    z 0.035340 0.000000 2.223600 
# 
# From -- ./inp_files/8954.got.cif
#   From: 2010.05.17/outbox.cif.g08.bks.cpg/sg9_5_cif.got.tgz:8954.got - 2010.06.03 20:04:27.
