data_PCOD9141529
_publ_section_title
;
Structure prediction by ZEFSAII (Michael W. Deem and Ramdas Pophale) SiO2 
 PCOD9141529
Probable space group: P 2/M
;
_chemical_formula_sum "Si O2"
_cell_formula_units_Z 32
_cell_length_a 15.003783
_cell_length_b 14.527052
_cell_length_c 12.100781
_cell_angle_alpha 90.000000
_cell_angle_beta 38.939815
_cell_angle_gamma 90.000000
_cell_volume 1657.675473
_symmetry_space_group_name_H-M "P 2/M"
_symmetry_group_IT_number 10
_symmetry_cell_setting 'monoclinic'
loop_
_space_group_symop_operation_xyz
x,y,z
-x,y,-z
-x,-y,-z
x,-y,z
loop_
_atom_site_type_symbol
_atom_site_label
_atom_site_fract_x
_atom_site_fract_y
_atom_site_fract_z
Si Si1 0.233399 0.109960 0.101311
Si Si2 0.131605 0.138097 0.811392
Si Si3 0.765189 0.396956 0.185607
Si Si4 0.390334 0.901593 0.425299
Si Si5 0.944294 0.335807 0.207067
Si Si6 0.966855 0.242951 0.410396
Si Si7 0.358021 0.209207 0.767431
Si Si8 0.720458 0.897170 0.696756
O O1 0.315147 0.113730 0.140186
O O2 0.086935 0.166597 0.263480
O O3 0.214602 0.000000 0.092458
O O4 0.307856 0.168473 0.933579
O O5 0.226252 0.098524 0.621051
O O6 0.062680 0.231234 0.830685
O O7 0.251886 0.158804 0.785622
O O8 0.000000 0.091770 0.000000
O O9 0.711356 0.500000 0.222886
O O10 0.813125 0.381411 0.267480
O O11 0.665353 0.316409 0.235822
O O12 0.912690 0.382924 0.975353
O O13 0.478807 0.820741 0.395015
O O14 0.395448 0.896254 0.287895
O O15 0.453797 0.000000 0.398607
O O16 0.948789 0.320226 0.333696
O O17 0.825338 0.183874 0.562099
O O18 0.000000 0.282011 0.500000
O O19 0.787961 0.000000 0.625030
#
# Coordination Sequence:
#
# PCOD9141529 Si02
#       8
#     4   4   4   4   4   4   4   4
#     4  10  19  32  53  81 118 156 199 243 278 334
#     4  11  20  37  58  80 112 158 195 234 278 347
#     4  10  20  36  63  87 110 144 192 250 304 355
#     4  11  24  38  54  82 124 164 195 236 285 336
#     4  10  16  33  57  88 112 140 186 238 296 346
#     4  10  17  29  52  84 119 152 192 234 281 332
#     4  11  22  37  57  85 115 151 197 245 295 349
#     4   9  19  33  51  80 114 161 206 234 274 332
#
# _framework density 19.30414
#
# number of rings (size 3 to 8) (size 9 to 14) (size 15 to 20)
#    0.000    1.750    5.000    1.875    0.000    3.750 
#    0.000    1.875    0.000    9.000    0.000    1.750 
#    0.000    0.000    0.000    0.000    0.000    0.000 
#
# Total GULP energy -178320.473890 kJ/mol
# GULP energy per Si atom -5572.514809 kJ/mol
# Density = 1.926020 g / cm^3
# Si number density = 19.304140 Si / 1000 Ang^3
#
#
#
# Elastic Constant Matrix: (Units=GPa)
#
#
# Indices 1 2 3 4 5 6 
#
# 1 101.6092 43.2799 38.1767 0.0000 28.1169 0.0000
# 2 43.2799 104.5467 25.3525 0.0000 6.9268 0.0000
# 3 38.1767 25.3525 82.5452 0.0000 12.0653 0.0000
# 4 0.0000 0.0000 0.0000 6.5811 0.0000 5.6113
# 5 28.1169 6.9268 12.0653 0.0000 35.1681 0.0000
# 6 0.0000 0.0000 0.0000 5.6113 0.0000 7.5190
#
#
#
# Elastic Compliance Matrix: (Units=1/GPa)
#
#
# Indices 1 2 3 4 5 6 
#
# 1 0.016723 -0.005094 -0.004592 0.000000 -0.010791 0.000000
# 2 -0.005094 0.011920 -0.001639 0.000000 0.002288 0.000000
# 3 -0.004592 -0.001639 0.014906 0.000000 -0.001119 0.000000
# 4 0.000000 0.000000 0.000000 0.417792 0.000000 -0.311788
# 5 -0.010791 0.002288 -0.001119 0.000000 0.036996 0.000000
# 6 0.000000 0.000000 0.000000 -0.311788 0.000000 0.365676
#
#
# Mechanical properties :
#
#
# Convention : Reuss Voigt Hill
#
# Bulk Modulus (GPa) = 47.85454 55.81326 51.83390
# Shear Modulus (GPa) = 5.59516 21.97977 13.78746
#
# Velocity S-wave (km/s) = 1.70432 3.37798 2.67539
# Velocity P-wave (km/s) = 5.35878 6.64753 6.03764
#
# Compressibility (1/GPa) = 0.02089666
#
# Stress axis : x y z
#
# Youngs Moduli (GPa) = 59.79744 83.89247 67.08884
#
# Poissons Ratio (x) = 0.42738 0.30810
# Poissons Ratio (y) = 0.30463 0.10998
# Poissons Ratio (z) = 0.27461 0.13753
#
# Static dielectric constant tensor:
#      x y z
#    x 1.718860 0.000000 0.017180 
#    y 0.000000 1.671390 0.000000 
#    z 0.017180 0.000000 1.739010 
# 
# From -- ./inp_files/51609.got.cif
#   From: 2010.05.17/outbox.cif.g08.bks.cpg/sg10_26_cif.got.tgz:51609.got - 2010.06.03 11:33:40.
