data_PCOD9141028
_publ_section_title
;
Structure prediction by ZEFSAII (Michael W. Deem and Ramdas Pophale) SiO2 
 PCOD9141028
Probable space group: C C
;
_chemical_formula_sum "Si O2"
_cell_formula_units_Z 20
_cell_length_a 4.663054
_cell_length_b 13.159077
_cell_length_c 13.035307
_cell_angle_alpha 90.000000
_cell_angle_beta 87.394920
_cell_angle_gamma 90.000000
_cell_volume 799.039190
_symmetry_space_group_name_H-M "C C"
_symmetry_group_IT_number 9
_symmetry_cell_setting 'monoclinic'
loop_
_space_group_symop_operation_xyz
x,y,z
x,-y,1/2+z
1/2+x,1/2+y,z
1/2+x,1/2-y,1/2+z
loop_
_atom_site_type_symbol
_atom_site_label
_atom_site_fract_x
_atom_site_fract_y
_atom_site_fract_z
Si Si1 0.881190 0.116810 0.389280
Si Si2 0.792177 0.813903 0.385330
Si Si3 0.666318 0.225482 0.210917
Si Si4 0.686780 0.324448 0.576799
Si Si5 0.898778 0.498396 0.462300
O O1 0.693252 0.128728 0.288389
O O2 0.066665 0.220281 0.391512
O O3 0.634791 0.086856 0.475845
O O4 0.134169 0.035232 0.397575
O O5 0.593241 0.912266 0.404367
O O6 0.996532 0.806765 0.282096
O O7 0.021124 0.806207 0.473910
O O8 0.494338 0.213814 0.108227
O O9 0.989675 0.226490 0.166488
O O10 0.754779 0.445939 0.564504
#
# Coordination Sequence:
#
# PCOD9141028 Si02
#       5
#     4   4   4   4   4
#     4  12  25  46  77 105 146 201 249 308 376 435
#     4  12  26  48  80 106 154 204 244 324 360 444
#     4  12  25  46  76 112 154 197 247 312 375 437
#     4  12  25  46  76 112 154 197 247 312 375 437
#     4  12  25  46  77 105 146 201 249 308 376 435
#
# _framework density 25.030061
#
# number of rings (size 3 to 8) (size 9 to 14) (size 15 to 20)
#    0.000    0.000    8.000    1.200    0.000    0.000 
#    0.000   12.000    0.000    0.000    0.000    0.000 
#    0.000    0.000    0.000    0.000    0.000    0.000 
#
# Total GULP energy -55708.516583 kJ/mol
# GULP energy per Si atom -5570.851658 kJ/mol
# Density = 2.497309 g / cm^3
# Si number density = 25.030061 Si / 1000 Ang^3
#
#
#
# Elastic Constant Matrix: (Units=GPa)
#
#
# Indices 1 2 3 4 5 6 
#
# 1 168.3188 19.7787 8.4980 0.0000 6.7644 0.0000
# 2 19.7787 67.8469 -20.2455 0.0000 -1.5734 0.0000
# 3 8.4980 -20.2455 77.1738 0.0000 16.1074 0.0000
# 4 0.0000 0.0000 0.0000 28.3647 0.0000 -0.9348
# 5 6.7644 -1.5734 16.1074 0.0000 40.6176 0.0000
# 6 0.0000 0.0000 0.0000 -0.9348 0.0000 70.7140
#
#
#
# Elastic Compliance Matrix: (Units=1/GPa)
#
#
# Indices 1 2 3 4 5 6 
#
# 1 0.006282 -0.002182 -0.001121 0.000000 -0.000686 0.000000
# 2 -0.002182 0.016797 0.004835 0.000000 -0.000903 0.000000
# 3 -0.001121 0.004835 0.015559 0.000000 -0.005796 0.000000
# 4 0.000000 0.000000 0.000000 0.035270 0.000000 0.000466
# 5 -0.000686 -0.000903 -0.005796 0.000000 0.026998 0.000000
# 6 0.000000 0.000000 0.000000 0.000466 0.000000 0.014148
#
#
# Mechanical properties :
#
#
# Convention : Reuss Voigt Hill
#
# Bulk Modulus (GPa) = 23.97866 36.60020 30.28943
# Shear Modulus (GPa) = 39.71743 48.29314 44.00528
#
# Velocity S-wave (km/s) = 3.98777 4.39727 4.19752
# Velocity P-wave (km/s) = 5.55012 6.35889 5.96822
#
# Compressibility (1/GPa) = 0.04170374
#
# Stress axis : x y z
#
# Youngs Moduli (GPa) = 159.19461 59.53468 64.26972
#
# Poissons Ratio (x) = 0.12988 0.07203
# Poissons Ratio (y) = 0.34729 -0.31076
# Poissons Ratio (z) = 0.17842 -0.28786
#
# Static dielectric constant tensor:
#      x y z
#    x 1.963490 0.000000 -0.094130 
#    y 0.000000 2.082800 0.000000 
#    z -0.094130 0.000000 2.032940 
# 
# From -- ./inp_files/21579.got.cif
#   From: 2010.05.17/outbox.cif.g08.bks.cpg/sg9_11_cif.got.tgz:21579.got - 2010.06.03 20:04:27.
