data_PCOD9141130
_publ_section_title
;
Structure prediction by ZEFSAII (Michael W. Deem and Ramdas Pophale) SiO2 
 PCOD9141130
Probable space group: C C
;
_chemical_formula_sum "Si O2"
_cell_formula_units_Z 24
_cell_length_a 21.628377
_cell_length_b 8.723466
_cell_length_c 13.877833
_cell_angle_alpha 90.000000
_cell_angle_beta 159.514763
_cell_angle_gamma 90.000000
_cell_volume 916.348228
_symmetry_space_group_name_H-M "C C"
_symmetry_group_IT_number 9
_symmetry_cell_setting 'monoclinic'
loop_
_space_group_symop_operation_xyz
x,y,z
x,-y,1/2+z
1/2+x,1/2+y,z
1/2+x,1/2-y,1/2+z
loop_
_atom_site_type_symbol
_atom_site_label
_atom_site_fract_x
_atom_site_fract_y
_atom_site_fract_z
Si Si1 0.834250 0.429326 0.584560
Si Si2 0.705291 0.456632 0.700373
Si Si3 0.166114 0.429326 0.686206
Si Si4 0.295072 0.543368 0.070393
Si Si5 0.867387 0.256239 0.328418
Si Si6 0.132977 0.743761 0.442348
O O1 0.763601 0.535552 0.395855
O O2 0.688899 0.374615 0.448643
O O3 0.929785 0.282140 0.673725
O O4 0.000182 0.500000 0.885383
O O5 0.500182 0.500000 0.385383
O O6 0.810098 0.586140 0.794168
O O7 0.730801 0.294901 0.683293
O O8 0.311464 0.374615 0.822123
O O9 0.070579 0.282140 0.597042
O O10 0.236763 0.535551 0.874910
O O11 0.269563 0.705099 0.087474
O O12 0.190266 0.413859 0.976598
#
# Coordination Sequence:
#
# PCOD9141130 Si02
#       6
#     4   4   4   4   4   4
#     4  12  28  51  80 116 159 203 262 323 389 464
#     4  12  28  49  80 115 157 206 259 320 392 463
#     4  12  28  51  80 116 159 203 262 323 389 464
#     4  12  28  49  80 115 157 206 259 320 392 463
#     4  12  26  51  80 114 157 206 255 323 389 460
#     4  12  26  51  80 114 157 206 255 323 389 460
#
# _framework density 26.190916999999999
#
# number of rings (size 3 to 8) (size 9 to 14) (size 15 to 20)
#    0.000    0.000    6.667    2.000    4.667    1.333 
#    6.000    0.000    0.000    0.000    0.000    0.000 
#    0.000    0.000    0.000    0.000    0.000    0.000 
#
# Total GULP energy -67250.938800 kJ/mol
# GULP energy per Si atom -5604.244900 kJ/mol
# Density = 2.613131 g / cm^3
# Si number density = 26.190917 Si / 1000 Ang^3
#
#
#
# Elastic Constant Matrix: (Units=GPa)
#
#
# Indices 1 2 3 4 5 6 
#
# 1 182.6977 35.9913 87.6210 0.0000 -24.7277 0.0000
# 2 35.9913 59.4753 31.2125 0.0000 -21.9052 0.0000
# 3 87.6210 31.2125 168.7082 0.0000 -29.0559 0.0000
# 4 0.0000 0.0000 0.0000 35.0088 0.0000 -9.7089
# 5 -24.7277 -21.9052 -29.0559 0.0000 71.8499 0.0000
# 6 0.0000 0.0000 0.0000 -9.7089 0.0000 58.7867
#
#
#
# Elastic Compliance Matrix: (Units=1/GPa)
#
#
# Indices 1 2 3 4 5 6 
#
# 1 0.007710 -0.002704 -0.003428 0.000000 0.000443 0.000000
# 2 -0.002704 0.021104 -0.001669 0.000000 0.004829 0.000000
# 3 -0.003428 -0.001669 0.008304 0.000000 0.001670 0.000000
# 4 0.000000 0.000000 0.000000 0.029935 0.000000 0.004944
# 5 0.000443 0.004829 0.001670 0.000000 0.016218 0.000000
# 6 0.000000 0.000000 0.000000 0.004944 0.000000 0.017827
#
#
# Mechanical properties :
#
#
# Convention : Reuss Voigt Hill
#
# Bulk Modulus (GPa) = 46.47309 80.05897 63.26603
# Shear Modulus (GPa) = 40.36455 50.19951 45.28203
#
# Velocity S-wave (km/s) = 3.93003 4.38274 4.16254
# Velocity P-wave (km/s) = 6.19483 7.49967 6.87826
#
# Compressibility (1/GPa) = 0.02151783
#
# Stress axis : x y z
#
# Youngs Moduli (GPa) = 129.70036 47.38443 120.42446
#
# Poissons Ratio (x) = 0.12811 0.41280
# Poissons Ratio (y) = 0.35066 0.20094
# Poissons Ratio (z) = 0.44459 0.07907
#
# Static dielectric constant tensor:
#      x y z
#    x 2.103970 0.000000 -0.036550 
#    y 0.000000 2.158100 0.000000 
#    z -0.036550 0.000000 2.118830 
# 
# From -- ./inp_files/27725.got.cif
#   From: 2010.05.17/outbox.cif.g08.bks.cpg/sg9_14_cif.got.tgz:27725.got - 2010.06.03 20:04:27.
