data_PCOD9141687
_publ_section_title
;
Structure prediction by ZEFSAII (Michael W. Deem and Ramdas Pophale) SiO2 
 PCOD9141687
Probable space group: P 2/M
;
_chemical_formula_sum "Si O2"
_cell_formula_units_Z 32
_cell_length_a 18.211888
_cell_length_b 7.552541
_cell_length_c 24.675669
_cell_angle_alpha 90.000000
_cell_angle_beta 148.678775
_cell_angle_gamma 90.000000
_cell_volume 1764.343015
_symmetry_space_group_name_H-M "P 2/M"
_symmetry_group_IT_number 10
_symmetry_cell_setting 'monoclinic'
loop_
_space_group_symop_operation_xyz
x,y,z
-x,y,-z
-x,-y,-z
x,-y,z
loop_
_atom_site_type_symbol
_atom_site_label
_atom_site_fract_x
_atom_site_fract_y
_atom_site_fract_z
Si Si1 0.751923 0.205649 0.083521
Si Si2 0.674403 0.208978 0.833881
Si Si3 0.381321 0.216055 0.693927
Si Si4 0.098292 0.295842 0.931027
Si Si5 0.063233 0.216532 0.481444
Si Si6 0.110707 0.713432 0.115625
Si Si7 0.444411 0.216288 0.857140
Si Si8 0.831489 0.783767 0.249742
O O1 0.844568 0.212138 0.087698
O O2 0.826237 0.277681 0.184250
O O3 0.724924 0.000000 0.079085
O O4 0.597112 0.282131 0.972873
O O5 0.515176 0.273286 0.742582
O O6 0.738911 0.238715 0.814897
O O7 0.676323 0.000000 0.846054
O O8 0.780032 0.287928 0.945819
O O9 0.225432 0.274978 0.578778
O O10 0.412603 0.270196 0.775516
O O11 0.378487 0.000000 0.691318
O O12 0.073145 0.500000 0.901930
O O13 0.956310 0.222578 0.870216
O O14 0.000000 0.269327 0.500000
O O15 0.961187 0.276563 0.368805
O O16 0.063045 0.000000 0.481317
O O17 0.103896 0.500000 0.112793
O O18 0.000000 0.776379 0.000000
O O19 0.315876 0.267549 0.814800
O O20 0.447886 0.000000 0.858678
O O21 0.838445 0.000000 0.255363
#
# Coordination Sequence:
#
# PCOD9141687 Si02
#       8
#     4   4   4   4   4   4   4   4
#     4  10  18  27  41  64  91 114 144 183 218 253
#     4  10  17  26  42  66  91 113 140 176 218 256
#     4   9  15  22  36  60  88 116 142 173 212 251
#     4  10  19  30  43  60  86 119 147 171 210 261
#     4   9  14  22  36  56  86 118 147 176 210 254
#     4   8  16  29  42  59  85 115 143 171 208 260
#     4   9  14  23  37  57  86 116 144 175 213 252
#     4   9  16  24  38  60  85 118 151 180 214 251
#
# _framework density 18.137062
#
# number of rings (size 3 to 8) (size 9 to 14) (size 15 to 20)
#    0.000    2.750    2.500    1.875    0.000    4.250 
#    0.000    0.000    0.000    1.500    0.000    2.625 
#    0.000   10.500    0.000    0.000    0.000    0.000 
#
# Total GULP energy -178350.941718 kJ/mol
# GULP energy per Si atom -5573.466929 kJ/mol
# Density = 1.809578 g / cm^3
# Si number density = 18.137062 Si / 1000 Ang^3
#
#
#
# Elastic Constant Matrix: (Units=GPa)
#
#
# Indices 1 2 3 4 5 6 
#
# 1 143.0729 -5.1578 96.9710 0.0000 19.5200 0.0000
# 2 -5.1578 39.3052 2.0201 0.0000 -1.2358 0.0000
# 3 96.9710 2.0201 123.3551 0.0000 -4.7239 0.0000
# 4 0.0000 0.0000 0.0000 2.5406 0.0000 19.0200
# 5 19.5200 -1.2358 -4.7239 0.0000 23.1120 0.0000
# 6 0.0000 0.0000 0.0000 19.0200 0.0000 24.5147
#
#
#
# Elastic Compliance Matrix: (Units=1/GPa)
#
#
# Indices 1 2 3 4 5 6 
#
# 1 0.023523 0.003343 -0.019453 0.000000 -0.023665 0.000000
# 2 0.003343 0.025976 -0.003132 0.000000 -0.002074 0.000000
# 3 -0.019453 -0.003132 0.024263 0.000000 0.021221 0.000000
# 4 0.000000 0.000000 0.000000 -0.081858 0.000000 0.063510
# 5 -0.023665 -0.002074 0.021221 0.000000 0.067481 0.000000
# 6 0.000000 0.000000 0.000000 0.063510 0.000000 -0.008483
#
#
# Mechanical properties :
#
#
# Convention : Reuss Voigt Hill
#
# Bulk Modulus (GPa) = 28.34723 54.82219 41.58471
# Shear Modulus (GPa) = 49.43332 24.16012 36.79672
#
# Velocity S-wave (km/s) = 5.22634 3.65373 4.50912
# Velocity P-wave (km/s) = 7.21684 6.93483 7.07724
#
# Compressibility (1/GPa) = 0.03527681
#
# Stress axis : x y z
#
# Youngs Moduli (GPa) = 42.51102 38.49657 41.21527
#
# Poissons Ratio (x) = -0.12868 0.80176
# Poissons Ratio (y) = -0.14210 0.12910
# Poissons Ratio (z) = 0.82696 0.12059
#
# Static dielectric constant tensor:
#      x y z
#    x 1.641920 0.000000 0.019230 
#    y 0.000000 1.687080 0.000000 
#    z 0.019230 0.000000 1.603000 
# 
# From -- ./inp_files/87174.got.cif
#   From: 2010.05.17/outbox.cif.g08.bks.cpg/sg10_44_cif.got.tgz:87174.got - 2010.06.03 11:33:40.
