data_PCOD9141267
_publ_section_title
;
Structure prediction by ZEFSAII (Michael W. Deem and Ramdas Pophale) SiO2 
 PCOD9141267
Probable space group: C C
;
_chemical_formula_sum "Si O2"
_cell_formula_units_Z 16
_cell_length_a 6.000000
_cell_length_b 15.000000
_cell_length_c 18.000000
_cell_angle_alpha 90.000000
_cell_angle_beta 120.000000
_cell_angle_gamma 90.000000
_cell_volume 1402.961154
_symmetry_space_group_name_H-M "C C"
_symmetry_group_IT_number 9
_symmetry_cell_setting 'monoclinic'
loop_
_space_group_symop_operation_xyz
x,y,z
x,-y,1/2+z
1/2+x,1/2+y,z
1/2+x,1/2-y,1/2+z
loop_
_atom_site_type_symbol
_atom_site_label
_atom_site_fract_x
_atom_site_fract_y
_atom_site_fract_z
Si Si1 0.607340 0.082586 0.993700
Si Si2 0.598243 0.041116 0.277839
Si Si3 0.337938 0.700258 0.636627
Si Si4 0.606658 0.477146 0.446252
Si Si5 0.735873 0.145521 0.169813
Si Si6 0.410823 0.714470 0.957982
Si Si7 0.113984 0.035807 0.603816
Si Si8 0.798582 0.716493 0.276118
O O1 0.355122 0.024961 0.932007
O O2 0.658540 0.170726 0.954115
O O3 0.583248 0.111104 0.074292
O O4 0.882984 0.033882 0.048284
O O5 0.760473 0.066912 0.232350
O O6 0.490799 0.133690 0.293740
O O7 0.346948 0.991959 0.198591
O O8 0.818390 0.001742 0.368969
O O9 0.551964 0.777160 0.667565
O O10 0.466081 0.617252 0.616917
O O11 0.315187 0.697426 0.723103
O O12 0.084181 0.731341 0.547208
O O13 0.572080 0.372255 0.459315
O O14 0.696416 0.541365 0.530232
O O15 0.019110 0.181316 0.204763
O O16 0.326681 0.761977 0.867790
#
# Coordination Sequence:
#
# PCOD9141267 Si02
#       8
#     4   4   4   4   4   4   4   4
#     4  11  21  46  72  94 140 190 230 288 357 417
#     4  11  24  43  70 103 142 185 235 293 353 423
#     4  11  24  43  69 102 142 183 234 294 354 418
#     4  11  24  44  69 104 141 181 235 294 354 423
#     4  11  21  44  70  93 136 192 225 284 356 416
#     4  11  24  43  69 101 139 184 236 291 352 424
#     4  11  24  44  70 103 140 185 236 290 355 423
#     4  11  24  45  69 102 142 186 239 290 351 424
#
# _framework density 11.404450000000001
#
# number of rings (size 3 to 8) (size 9 to 14) (size 15 to 20)
#    0.000    1.000    5.000    2.250    1.750    7.000 
#    4.500    0.000    0.000    0.000    0.000    0.000 
#    0.000    0.000    0.000    0.000    0.000    0.000 
#
# Total GULP energy -89117.721291 kJ/mol
# GULP energy per Si atom -5569.857581 kJ/mol
# Density = 1.137849 g / cm^3
# Si number density = 11.404450 Si / 1000 Ang^3
#
#
#
# Elastic Constant Matrix: (Units=GPa)
#
#
# Indices 1 2 3 4 5 6 
#
# 1 45.4794 9.8826 17.2923 0.0000 16.7118 0.0000
# 2 9.8826 55.4660 39.3584 0.0000 -1.1688 0.0000
# 3 17.2923 39.3584 155.7870 0.0000 13.1740 0.0000
# 4 0.0000 0.0000 0.0000 18.6192 0.0000 -9.6356
# 5 16.7118 -1.1688 13.1740 0.0000 35.5117 0.0000
# 6 0.0000 0.0000 0.0000 -9.6356 0.0000 34.9498
#
#
#
# Elastic Compliance Matrix: (Units=1/GPa)
#
#
# Indices 1 2 3 4 5 6 
#
# 1 0.028133 -0.004700 -0.000829 0.000000 -0.013087 0.000000
# 2 -0.004700 0.023040 -0.005730 0.000000 0.005096 0.000000
# 3 -0.000829 -0.005730 0.008199 0.000000 -0.002840 0.000000
# 4 0.000000 0.000000 0.000000 0.062646 0.000000 0.017271
# 5 -0.013087 0.005096 -0.002840 0.000000 0.035540 0.000000
# 6 0.000000 0.000000 0.000000 0.017271 0.000000 0.033374
#
#
# Mechanical properties :
#
#
# Convention : Reuss Voigt Hill
#
# Bulk Modulus (GPa) = 27.13417 43.31100 35.22258
# Shear Modulus (GPa) = 22.14986 30.49608 26.32297
#
# Velocity S-wave (km/s) = 3.11964 3.66050 3.40084
# Velocity P-wave (km/s) = 4.98982 6.07417 5.55850
#
# Compressibility (1/GPa) = 0.03685391
#
# Stress axis : x y z
#
# Youngs Moduli (GPa) = 35.54508 43.40280 121.96855
#
# Poissons Ratio (x) = 0.20401 0.10106
# Poissons Ratio (y) = 0.16708 0.69889
# Poissons Ratio (z) = 0.02945 0.24870
#
# Static dielectric constant tensor:
#      x y z
#    x 2.118480 0.000000 -0.097440 
#    y 0.000000 1.899350 0.000000 
#    z -0.097440 0.000000 1.891430 
# 
# From -- ./inp_files/28730.got.cif
#   From: 2010.05.17/outbox.ucp.g08.bks.cvg/sg9_15_cif.got.tgz:28730.got - 2010.06.11 13:03:20.
