data_PCOD9141574
_publ_section_title
;
Structure prediction by ZEFSAII (Michael W. Deem and Ramdas Pophale) SiO2 
 PCOD9141574
Probable space group: P 2/M
;
_chemical_formula_sum "Si O2"
_cell_formula_units_Z 28
_cell_length_a 25.753830
_cell_length_b 9.718959
_cell_length_c 17.893756
_cell_angle_alpha 90.000000
_cell_angle_beta 25.276831
_cell_angle_gamma 90.000000
_cell_volume 1912.419079
_symmetry_space_group_name_H-M "P 2/M"
_symmetry_group_IT_number 10
_symmetry_cell_setting 'monoclinic'
loop_
_space_group_symop_operation_xyz
x,y,z
-x,y,-z
-x,-y,-z
x,-y,z
loop_
_atom_site_type_symbol
_atom_site_label
_atom_site_fract_x
_atom_site_fract_y
_atom_site_fract_z
Si Si1 0.329547 0.658720 0.286940
Si Si2 0.419360 0.337817 0.719753
Si Si3 0.856724 0.835519 0.184947
Si Si4 0.312255 0.338251 0.698720
Si Si5 0.710678 0.838852 0.522738
Si Si6 0.577174 0.837922 0.138813
Si Si7 0.619640 0.659801 0.944005
O O1 0.291278 0.500000 0.344089
O O2 0.269658 0.752868 0.427596
O O3 0.316374 0.700137 0.217305
O O4 0.474675 0.662566 0.115109
O O5 0.407441 0.500000 0.754746
O O6 0.337902 0.310026 0.752601
O O7 0.558923 0.316496 0.511376
O O8 0.391994 0.240893 0.825039
O O9 0.788514 0.755447 0.208055
O O10 0.794088 0.794692 0.344926
O O11 0.838562 0.000000 0.199922
O O12 0.000000 0.807867 0.000000
O O13 0.282548 0.500000 0.729900
O O14 0.569227 0.824367 0.682544
O O15 0.732273 0.000000 0.509097
O O16 0.605188 0.000000 0.104793
O O17 0.638405 0.760886 0.988836
O O18 0.649492 0.500000 0.922303
#
# Coordination Sequence:
#
# PCOD9141574 Si02
#       7
#     4   4   4   4   4   4   4
#     4   8  14  24  38  54  74 106 142 171 204 248
#     4   9  17  29  44  62  85 112 140 176 219 258
#     4  10  20  33  46  61  86 117 147 180 218 255
#     4   9  18  31  46  63  82 108 145 182 217 255
#     4   9  17  27  38  56  81 109 142 176 211 247
#     4  10  17  24  38  61  85 111 143 173 205 250
#     4   8  14  24  36  53  79 109 138 168 205 248
#
# _framework density 14.641143
#
# number of rings (size 3 to 8) (size 9 to 14) (size 15 to 20)
#    0.000    3.000    1.429    2.143    0.000    2.571 
#    0.000    4.286    0.000    0.000    0.000    0.000 
#    0.000    1.143    0.000   12.857    0.000    6.286 
#
# Total GULP energy -155881.483474 kJ/mol
# GULP energy per Si atom -5567.195838 kJ/mol
# Density = 1.460782 g / cm^3
# Si number density = 14.641143 Si / 1000 Ang^3
#
#
#
# Elastic Constant Matrix: (Units=GPa)
#
#
# Indices 1 2 3 4 5 6 
#
# 1 120.5171 85.9957 44.2054 0.0000 25.2629 0.0000
# 2 85.9957 79.9464 36.7332 0.0000 17.8866 0.0000
# 3 44.2054 36.7332 37.2494 0.0000 6.6699 0.0000
# 4 0.0000 0.0000 0.0000 15.9139 0.0000 6.5206
# 5 25.2629 17.8866 6.6699 0.0000 22.2145 0.0000
# 6 0.0000 0.0000 0.0000 6.5206 0.0000 15.6362
#
#
#
# Elastic Compliance Matrix: (Units=1/GPa)
#
#
# Indices 1 2 3 4 5 6 
#
# 1 0.040512 -0.035595 -0.010418 0.000000 -0.014283 0.000000
# 2 -0.035595 0.057844 -0.014488 0.000000 -0.001745 0.000000
# 3 -0.010418 -0.014488 0.052087 0.000000 0.007874 0.000000
# 4 0.000000 0.000000 0.000000 0.075788 0.000000 -0.031605
# 5 -0.014283 -0.001745 0.007874 0.000000 0.060299 0.000000
# 6 0.000000 0.000000 0.000000 -0.031605 0.000000 0.077134
#
#
# Mechanical properties :
#
#
# Convention : Reuss Voigt Hill
#
# Bulk Modulus (GPa) = 33.96624 63.50905 48.73764
# Shear Modulus (GPa) = 10.11165 15.47149 12.79157
#
# Velocity S-wave (km/s) = 2.63084 3.25424 2.95900
# Velocity P-wave (km/s) = 5.69894 7.58890 6.71079
#
# Compressibility (1/GPa) = 0.02944100
#
# Stress axis : x y z
#
# Youngs Moduli (GPa) = 24.68418 17.28788 19.19873
#
# Poissons Ratio (x) = 0.61536 0.20001
# Poissons Ratio (y) = 0.87863 0.27815
# Poissons Ratio (z) = 0.25716 0.25047
#
# Static dielectric constant tensor:
#      x y z
#    x 1.478510 0.000000 0.019420 
#    y 0.000000 1.483930 0.000000 
#    z 0.019420 0.000000 1.464020 
# 
# From -- ./inp_files/54987.got.cif
#   From: 2010.05.17/outbox.cif.g08.bks.cpg/sg10_28_cif.got.tgz:54987.got - 2010.06.03 11:33:40.
