data_PCOD9141069
_publ_section_title
;
Structure prediction by ZEFSAII (Michael W. Deem and Ramdas Pophale) SiO2 
 PCOD9141069
Probable space group: C C
;
_chemical_formula_sum "Si O2"
_cell_formula_units_Z 32
_cell_length_a 12.591947
_cell_length_b 16.506950
_cell_length_c 8.899638
_cell_angle_alpha 90.000000
_cell_angle_beta 43.045909
_cell_angle_gamma 90.000000
_cell_volume 1262.665350
_symmetry_space_group_name_H-M "C C"
_symmetry_group_IT_number 9
_symmetry_cell_setting 'monoclinic'
loop_
_space_group_symop_operation_xyz
x,y,z
x,-y,1/2+z
1/2+x,1/2+y,z
1/2+x,1/2-y,1/2+z
loop_
_atom_site_type_symbol
_atom_site_label
_atom_site_fract_x
_atom_site_fract_y
_atom_site_fract_z
Si Si1 0.623000 0.998770 0.155190
Si Si2 0.944796 0.221956 0.519079
Si Si3 0.976103 0.218535 0.810549
Si Si4 0.619564 0.447107 0.245559
Si Si5 0.707548 0.253336 0.538414
Si Si6 0.842823 0.048070 0.655328
Si Si7 0.166205 0.661801 0.282043
Si Si8 0.298829 0.066106 0.854149
O O1 0.613390 0.072807 0.285015
O O2 0.464052 0.966132 0.246907
O O3 0.715435 0.933553 0.158615
O O4 0.744642 0.027676 0.903328
O O5 0.982800 0.261064 0.640429
O O6 0.773422 0.243486 0.640052
O O7 0.948371 0.127217 0.557413
O O8 0.028906 0.236313 0.273292
O O9 0.023550 0.280208 0.890881
O O10 0.091146 0.141873 0.709124
O O11 0.803996 0.187892 0.026744
O O12 0.457139 0.475277 0.489679
O O13 0.667077 0.513231 0.074603
O O14 0.758290 0.447183 0.222475
O O15 0.718058 0.184882 0.397826
O O16 0.770013 0.339452 0.415128
#
# Coordination Sequence:
#
# PCOD9141069 Si02
#       8
#     4   4   4   4   4   4   4   4
#     4  12  29  46  80 117 160 207 266 340 406 479
#     4  12  27  48  74 112 149 208 270 329 398 483
#     4  12  26  50  77 109 152 210 268 328 410 489
#     4  12  25  50  81 109 153 210 267 328 406 487
#     4  12  29  48  78 112 161 212 264 339 404 488
#     4  12  25  50  77 108 150 210 267 325 400 488
#     4  12  27  49  76 114 158 210 260 329 415 488
#     4  12  28  49  75 121 157 205 270 340 407 476
#
# _framework density 25.343215000000001
#
# number of rings (size 3 to 8) (size 9 to 14) (size 15 to 20)
#    0.000    0.000    5.000    3.750    5.250    3.000 
#    0.000    0.000    0.000    0.000    0.000    0.000 
#    0.000    0.000    0.000    0.000    0.000    0.000 
#
# Total GULP energy -89556.261681 kJ/mol
# GULP energy per Si atom -5597.266355 kJ/mol
# Density = 2.528553 g / cm^3
# Si number density = 25.343215 Si / 1000 Ang^3
#
#
#
# Elastic Constant Matrix: (Units=GPa)
#
#
# Indices 1 2 3 4 5 6 
#
# 1 113.2789 -10.7542 14.8546 0.0001 29.2224 0.0000
# 2 -10.7542 38.6520 3.1354 0.0001 8.7926 -0.0001
# 3 14.8546 3.1354 132.1549 0.0000 13.4047 0.0000
# 4 0.0001 0.0001 0.0000 31.8792 0.0000 4.4239
# 5 29.2224 8.7926 13.4047 0.0000 51.9478 0.0000
# 6 0.0000 -0.0001 0.0000 4.4239 0.0000 42.3575
#
#
#
# Elastic Compliance Matrix: (Units=1/GPa)
#
#
# Indices 1 2 3 4 5 6 
#
# 1 0.011142 0.004723 -0.000665 0.000000 -0.006896 0.000000
# 2 0.004723 0.028914 -0.000463 0.000000 -0.007431 0.000000
# 3 -0.000665 -0.000463 0.007811 0.000000 -0.001563 0.000000
# 4 0.000000 0.000000 0.000000 0.031830 0.000000 -0.003324
# 5 -0.006896 -0.007431 -0.001563 0.000000 0.024790 0.000000
# 6 0.000000 0.000000 0.000000 -0.003324 0.000000 0.023956
#
#
# Mechanical properties :
#
#
# Convention : Reuss Voigt Hill
#
# Bulk Modulus (GPa) = 18.16322 33.17305 25.66814
# Shear Modulus (GPa) = 35.81509 43.69355 39.75432
#
# Velocity S-wave (km/s) = 3.76334 4.15670 3.96490
# Velocity P-wave (km/s) = 5.10549 6.01294 5.57770
#
# Compressibility (1/GPa) = 0.05505631
#
# Stress axis : x y z
#
# Youngs Moduli (GPa) = 89.74903 34.58549 128.02182
#
# Poissons Ratio (x) = -0.16334 0.08514
# Poissons Ratio (y) = -0.42385 0.05928
# Poissons Ratio (z) = 0.05969 0.01602
#
# Static dielectric constant tensor:
#      x y z
#    x 2.075230 0.000000 0.000220 
#    y 0.000000 2.024530 0.000000 
#    z 0.000220 0.000000 1.953380 
# 
# From -- ./inp_files/9670.got.cif
#   From: 2010.05.17/outbox.cif.g08.bks.cpg/sg9_5_cif.got.tgz:9670.got - 2010.06.03 20:04:27.
