data_PCOD9141390
_publ_section_title
;
Structure prediction by ZEFSAII (Michael W. Deem and Ramdas Pophale) SiO2 
 PCOD9141390
Probable space group: P 2/M
;
_chemical_formula_sum "Si O2"
_cell_formula_units_Z 24
_cell_length_a 23.494889
_cell_length_b 11.384090
_cell_length_c 23.845074
_cell_angle_alpha 90.000000
_cell_angle_beta 168.178564
_cell_angle_gamma 90.000000
_cell_volume 1306.569007
_symmetry_space_group_name_H-M "P 2/M"
_symmetry_group_IT_number 10
_symmetry_cell_setting 'monoclinic'
loop_
_space_group_symop_operation_xyz
x,y,z
-x,y,-z
-x,-y,-z
x,-y,z
loop_
_atom_site_type_symbol
_atom_site_label
_atom_site_fract_x
_atom_site_fract_y
_atom_site_fract_z
Si Si1 0.180468 0.861900 0.618480
Si Si2 0.167252 0.358589 0.367620
Si Si3 0.261875 0.735040 0.872328
Si Si4 0.212179 0.500000 0.755093
Si Si5 0.535421 0.636581 0.457846
Si Si6 0.605512 0.641560 0.878051
Si Si7 0.000000 0.323529 0.000000
O O1 0.000000 0.836417 0.500000
O O2 0.989411 0.823680 0.381997
O O3 0.243773 0.000000 0.678743
O O4 0.461810 0.788547 0.888896
O O5 0.184633 0.500000 0.380479
O O6 0.328139 0.317338 0.467768
O O7 0.319296 0.325944 0.572060
O O8 0.845795 0.330136 0.064697
O O9 0.183746 0.614065 0.766252
O O10 0.332217 0.706414 0.004253
O O11 0.000000 0.500000 0.500000
O O12 0.500000 0.500000 0.000000
O O13 0.433346 0.500000 0.353072
O O14 0.266756 0.712797 0.217787
O O15 0.788191 0.629711 0.746845
O O16 0.608818 0.500000 0.891422
#
# Coordination Sequence:
#
# PCOD9141390 Si02
#       7
#     4   4   4   2   4   4   2
#     4  11  24  41  60  79 103 135 171 210 254 309
#     4   9  18  28  43  58  88 122 163 200 250 301
#     4  12  22  38  58  80 106 134 168 212 259 312
#     4  12  24  36  54  82 110 134 160 201 266 321
#     4  10  16  24  34  53  74 113 152 206 253 286
#     4  10  19  33  47  70  95 127 160 205 252 303
#     4  10  17  22  34  50  78 104 156 212 257 280
#
# _framework density 18.36872
#
# number of rings (size 3 to 8) (size 9 to 14) (size 15 to 20)
#    0.000    1.500    0.833    7.500    0.000    4.000 
#    0.000    0.000    0.000    0.000    0.000    0.000 
#    0.000    0.000    0.000    0.000    0.000    0.000 
#
# Total GULP energy -133665.611621 kJ/mol
# GULP energy per Si atom -5569.400484 kJ/mol
# Density = 1.832691 g / cm^3
# Si number density = 18.368720 Si / 1000 Ang^3
#
#
#
# Elastic Constant Matrix: (Units=GPa)
#
#
# Indices 1 2 3 4 5 6 
#
# 1 63.7696 17.7824 -0.9149 0.0000 -0.1414 0.0000
# 2 17.7824 42.1478 14.1987 0.0000 3.7344 0.0000
# 3 -0.9149 14.1987 97.1841 0.0000 3.0872 0.0000
# 4 0.0000 0.0000 0.0000 2.4802 0.0000 4.0836
# 5 -0.1414 3.7344 3.0872 0.0000 23.8628 0.0000
# 6 0.0000 0.0000 0.0000 4.0836 0.0000 8.6035
#
#
#
# Elastic Compliance Matrix: (Units=1/GPa)
#
#
# Indices 1 2 3 4 5 6 
#
# 1 0.017971 -0.008134 0.001319 0.000000 0.001209 0.000000
# 2 -0.008134 0.028921 -0.004174 0.000000 -0.004034 0.000000
# 3 0.001319 -0.004174 0.010936 0.000000 -0.000754 0.000000
# 4 0.000000 0.000000 0.000000 1.845185 0.000000 -0.875816
# 5 0.001209 -0.004034 -0.000754 0.000000 0.042642 0.000000
# 6 0.000000 0.000000 0.000000 -0.875816 0.000000 0.531938
#
#
# Mechanical properties :
#
#
# Convention : Reuss Voigt Hill
#
# Bulk Modulus (GPa) = 27.89277 29.47042 28.68160
# Shear Modulus (GPa) = 1.99083 18.45832 10.22457
#
# Velocity S-wave (km/s) = 1.04219 3.17342 2.36186
# Velocity P-wave (km/s) = 4.08242 5.43195 4.80480
#
# Compressibility (1/GPa) = 0.03585158
#
# Stress axis : x y z
#
# Youngs Moduli (GPa) = 55.64478 34.57679 91.44183
#
# Poissons Ratio (x) = 0.28123 -0.12062
# Poissons Ratio (y) = 0.45259 0.38166
# Poissons Ratio (z) = -0.07340 0.14432
#
# Static dielectric constant tensor:
#      x y z
#    x 1.682840 0.000000 0.004970 
#    y 0.000000 1.620000 0.000000 
#    z 0.004970 0.000000 1.645770 
# 
# From -- ./inp_files/90843.got.cif
#   From: 2010.05.17/outbox.cif.g08.bks.cpg/sg10_46_cif.got.tgz:90843.got - 2010.06.03 11:33:40.
