data_PCOD9141958
_publ_section_title
;
Structure prediction by ZEFSAII (Michael W. Deem and Ramdas Pophale) SiO2 
 PCOD9141958
Probable space group: P 2/M
;
_chemical_formula_sum "Si O2"
_cell_formula_units_Z 32
_cell_length_a 12.955525
_cell_length_b 7.582303
_cell_length_c 28.158047
_cell_angle_alpha 90.000000
_cell_angle_beta 140.376690
_cell_angle_gamma 90.000000
_cell_volume 1764.008101
_symmetry_space_group_name_H-M "P 2/M"
_symmetry_group_IT_number 10
_symmetry_cell_setting 'monoclinic'
loop_
_space_group_symop_operation_xyz
x,y,z
-x,y,-z
-x,-y,-z
x,-y,z
loop_
_atom_site_type_symbol
_atom_site_label
_atom_site_fract_x
_atom_site_fract_y
_atom_site_fract_z
Si Si1 0.092596 0.216268 0.422278
Si Si2 0.733729 0.215999 0.319306
Si Si3 0.607951 0.783962 0.838249
Si Si4 0.647150 0.701906 0.677516
Si Si5 0.847465 0.786936 0.838214
Si Si6 0.124998 0.206630 0.999706
Si Si7 0.296680 0.201625 0.584049
Si Si8 0.323641 0.212362 0.420458
O O1 0.189855 0.278250 0.503550
O O2 0.187553 0.274826 0.408934
O O3 0.906153 0.269328 0.359508
O O4 0.097019 0.000000 0.423925
O O5 0.575992 0.272769 0.234059
O O6 0.718528 0.278042 0.368602
O O7 0.728731 0.000000 0.318066
O O8 0.710537 0.731682 0.827846
O O9 0.611273 0.000000 0.840530
O O10 0.708118 0.720661 0.919786
O O11 0.597964 0.500000 0.663033
O O12 0.788123 0.735430 0.765377
O O13 0.483783 0.802603 0.634380
O O14 0.699524 0.741849 0.642597
O O15 0.020728 0.720093 0.918963
O O16 0.852447 0.000000 0.841870
O O17 0.154136 0.000000 0.999677
O O18 0.000000 0.213396 0.000000
O O19 0.238696 0.000000 0.568372
O O20 0.500000 0.276561 0.500000
O O21 0.326866 0.000000 0.424580
#
# Coordination Sequence:
#
# PCOD9141958 Si02
#       8
#     4   4   4   4   4   4   4   4
#     4   9  17  28  45  69  91 114 151 192 224 262
#     4   9  15  23  43  74  99 116 142 184 225 263
#     4   8  12  20  39  69  97 117 140 176 221 265
#     4  12  23  31  44  67  93 120 154 192 230 263
#     4   9  15  27  45  65  89 120 152 179 216 268
#     4   7  11  19  36  63  92 117 143 174 211 265
#     4  10  17  30  48  67  92 122 153 180 219 268
#     4  10  19  34  52  66  84 115 155 194 230 268
#
# _framework density 18.140505000000001
#
# number of rings (size 3 to 8) (size 9 to 14) (size 15 to 20)
#    0.000    2.750    2.500    3.000    0.000    1.750 
#    0.000    0.000    0.000    5.625    0.000    0.875 
#    0.000    7.000    0.000    0.000    0.000    0.000 
#
# Total GULP energy -178368.657877 kJ/mol
# GULP energy per Si atom -5574.020559 kJ/mol
# Density = 1.809922 g / cm^3
# Si number density = 18.140505 Si / 1000 Ang^3
#
#
#
# Elastic Constant Matrix: (Units=GPa)
#
#
# Indices 1 2 3 4 5 6 
#
# 1 105.8123 3.7510 89.0538 0.0000 9.0400 0.0000
# 2 3.7510 41.1548 1.7039 0.0000 2.6472 0.0000
# 3 89.0538 1.7039 198.7970 0.0000 11.2905 0.0000
# 4 0.0000 0.0000 0.0000 -87.4792 0.0000 52.2853
# 5 9.0400 2.6472 11.2905 0.0000 11.8644 0.0000
# 6 0.0000 0.0000 0.0000 52.2853 0.0000 -50.0717
#
#
#
# Elastic Compliance Matrix: (Units=1/GPa)
#
#
# Indices 1 2 3 4 5 6 
#
# 1 0.015528 -0.000797 -0.006647 0.000000 -0.005329 0.000000
# 2 -0.000797 0.024695 0.000448 0.000000 -0.005329 0.000000
# 3 -0.006647 0.000448 0.008163 0.000000 -0.002804 0.000000
# 4 0.000000 0.000000 0.000000 -0.030411 0.000000 -0.031756
# 5 -0.005329 -0.005329 -0.002804 0.000000 0.092204 0.000000
# 6 0.000000 0.000000 0.000000 -0.031756 0.000000 -0.053131
#
#
# Mechanical properties :
#
#
# Convention : Reuss Voigt Hill
#
# Bulk Modulus (GPa) = 29.07390 59.42016 44.24703
# Shear Modulus (GPa) = 60.60301 -8.38693 26.10804
#
# Velocity S-wave (km/s) = 5.78620 -2.15252 3.79781
# Velocity P-wave (km/s) = 7.79115 5.16225 6.60874
#
# Compressibility (1/GPa) = 0.03439511
#
# Stress axis : x y z
#
# Youngs Moduli (GPa) = 64.39949 40.49340 122.50302
#
# Poissons Ratio (x) = 0.03229 0.81422
# Poissons Ratio (y) = 0.05135 -0.05490
# Poissons Ratio (z) = 0.42803 -0.01815
#
# Static dielectric constant tensor:
#      x y z
#    x 1.584460 0.000000 0.009970 
#    y 0.000000 1.668530 0.000000 
#    z 0.009970 0.000000 1.652320 
# 
# From -- ./inp_files/79995.got.cif
#   From: 2010.05.17/outbox.cif.g08.bks.cpg/sg10_40_cif.got.tgz:79995.got - 2010.06.03 11:33:40.
