data_PCOD9141636
_publ_section_title
;
Structure prediction by ZEFSAII (Michael W. Deem and Ramdas Pophale) SiO2 
 PCOD9141636
Probable space group: P 2/M
;
_chemical_formula_sum "Si O2"
_cell_formula_units_Z 32
_cell_length_a 14.443032
_cell_length_b 9.285588
_cell_length_c 11.351457
_cell_angle_alpha 90.000000
_cell_angle_beta 106.509355
_cell_angle_gamma 90.000000
_cell_volume 1459.605011
_symmetry_space_group_name_H-M "P 2/M"
_symmetry_group_IT_number 10
_symmetry_cell_setting 'monoclinic'
loop_
_space_group_symop_operation_xyz
x,y,z
-x,y,-z
-x,-y,-z
x,-y,z
loop_
_atom_site_type_symbol
_atom_site_label
_atom_site_fract_x
_atom_site_fract_y
_atom_site_fract_z
Si Si1 0.452063 0.838400 0.865923
Si Si2 0.740489 0.658947 0.896129
Si Si3 0.770604 0.160986 0.137916
Si Si4 0.687641 0.325752 0.633696
Si Si5 0.116964 0.827966 0.376947
Si Si6 0.600308 0.663144 0.370200
Si Si7 0.047533 0.663593 0.136401
Si Si8 0.171005 0.665264 0.623308
O O1 0.338332 0.848065 0.852332
O O2 0.455663 0.757722 0.744025
O O3 0.493074 0.000000 0.870090
O O4 0.500000 0.769547 0.000000
O O5 0.717284 0.500000 0.936524
O O6 0.667755 0.696899 0.764355
O O7 0.841241 0.649152 0.862277
O O8 0.757385 0.769727 0.005660
O O9 0.828827 0.261030 0.249085
O O10 0.811377 0.000000 0.147628
O O11 0.709965 0.500000 0.627947
O O12 0.777157 0.224317 0.629731
O O13 0.605721 0.293672 0.508692
O O14 0.046263 0.758075 0.253628
O O15 0.113264 0.756354 0.504829
O O16 0.109097 0.000000 0.378832
O O17 0.564604 0.500000 0.349306
O O18 0.715002 0.663765 0.374341
O O19 0.009417 0.500000 0.142457
O O20 0.000000 0.724558 0.000000
O O21 0.138365 0.500000 0.613998
#
# Coordination Sequence:
#
# PCOD9141636 Si02
#       8
#     4   4   4   4   4   4   4   4
#     4   9  18  31  45  63  90 122 152 184 225 274
#     4   9  17  30  48  69  93 121 151 184 225 272
#     4  10  19  30  46  69  94 119 151 191 232 272
#     4   8  15  28  44  63  89 120 153 187 223 268
#     4  10  17  25  42  69  96 118 147 190 234 268
#     4   8  14  25  43  66  87 109 145 192 229 258
#     4   9  18  33  51  69  92 125 160 188 219 267
#     4   9  16  28  45  64  89 120 153 188 227 271
#
# _framework density 21.923741
#
# number of rings (size 3 to 8) (size 9 to 14) (size 15 to 20)
#    0.000    3.000    0.000    3.375    0.000    6.000 
#    0.000    0.000    0.000    1.500    0.000   10.500 
#    0.000    0.000    0.000    0.000    0.000    0.000 
#
# Total GULP energy -178465.539409 kJ/mol
# GULP energy per Si atom -5577.048107 kJ/mol
# Density = 2.187384 g / cm^3
# Si number density = 21.923741 Si / 1000 Ang^3
#
#
#
# Elastic Constant Matrix: (Units=GPa)
#
#
# Indices 1 2 3 4 5 6 
#
# 1 48.6295 4.7642 1.4361 0.0000 6.8967 0.0000
# 2 4.7642 137.4059 114.7017 0.0000 -3.8727 0.0000
# 3 1.4361 114.7017 245.3914 0.0000 5.2278 0.0000
# 4 0.0000 0.0000 0.0000 9.0016 0.0000 7.2087
# 5 6.8967 -3.8727 5.2278 0.0000 15.6457 0.0000
# 6 0.0000 0.0000 0.0000 7.2087 0.0000 2.6271
#
#
#
# Elastic Compliance Matrix: (Units=1/GPa)
#
#
# Indices 1 2 3 4 5 6 
#
# 1 0.022221 -0.001884 0.000976 0.000000 -0.010587 0.000000
# 2 -0.001884 0.012471 -0.005944 0.000000 0.005903 0.000000
# 3 0.000976 -0.005944 0.006938 0.000000 -0.004220 0.000000
# 4 0.000000 0.000000 0.000000 -0.092770 0.000000 0.254563
# 5 -0.010587 0.005903 -0.004220 0.000000 0.071454 0.000000
# 6 0.000000 0.000000 0.000000 0.254563 0.000000 -0.317876
#
#
# Mechanical properties :
#
#
# Convention : Reuss Voigt Hill
#
# Bulk Modulus (GPa) = 35.80832 74.80344 55.30588
# Shear Modulus (GPa) = -18.21162 26.15651 3.97245
#
# Velocity S-wave (km/s) = -2.88528 3.45783 1.34754
# Velocity P-wave (km/s) = 2.29539 7.08068 5.26331
#
# Compressibility (1/GPa) = 0.02792647
#
# Stress axis : x y z
#
# Youngs Moduli (GPa) = 45.00273 80.18356 144.13892
#
# Poissons Ratio (x) = 0.15103 -0.14067
# Poissons Ratio (y) = 0.08476 0.85679
# Poissons Ratio (z) = -0.04392 0.47662
#
# Static dielectric constant tensor:
#      x y z
#    x 1.904370 0.000000 0.019100 
#    y 0.000000 1.769730 0.000000 
#    z 0.019100 0.000000 1.837960 
# 
# From -- ./inp_files/54876.got.cif
#   From: 2010.05.17/outbox.cif.g08.bks.cpg/sg10_28_cif.got.tgz:54876.got - 2010.06.03 11:33:40.
