data_PCOD9141065
_publ_section_title
;
Structure prediction by ZEFSAII (Michael W. Deem and Ramdas Pophale) SiO2 
 PCOD9141065
Probable space group: C C
;
_chemical_formula_sum "Si O2"
_cell_formula_units_Z 28
_cell_length_a 6.891138
_cell_length_b 16.990344
_cell_length_c 12.309869
_cell_angle_alpha 90.000000
_cell_angle_beta 61.910459
_cell_angle_gamma 90.000000
_cell_volume 1271.510411
_symmetry_space_group_name_H-M "C C"
_symmetry_group_IT_number 9
_symmetry_cell_setting 'monoclinic'
loop_
_space_group_symop_operation_xyz
x,y,z
x,-y,1/2+z
1/2+x,1/2+y,z
1/2+x,1/2-y,1/2+z
loop_
_atom_site_type_symbol
_atom_site_label
_atom_site_fract_x
_atom_site_fract_y
_atom_site_fract_z
Si Si1 0.772630 0.725185 0.473120
Si Si2 0.311042 0.219788 0.202482
Si Si3 0.746934 0.968177 0.359397
Si Si4 0.042423 0.632894 0.728226
Si Si5 0.045851 0.128816 0.948985
Si Si6 0.080158 0.067941 0.182618
Si Si7 0.884290 0.436171 0.054814
O O1 0.540754 0.756225 0.584274
O O2 0.799834 0.731121 0.335677
O O3 0.809633 0.635566 0.499783
O O4 0.957175 0.782290 0.473793
O O5 0.126848 0.278158 0.203544
O O6 0.241549 0.130876 0.193759
O O7 0.704550 0.915612 0.264160
O O8 0.882322 0.920006 0.413528
O O9 0.506981 0.992504 0.464027
O O10 0.855243 0.053202 0.305895
O O11 0.794675 0.628452 0.839613
O O12 0.035812 0.596419 0.610811
O O13 0.036811 0.093035 0.071206
O O14 0.176373 0.979830 0.161247
#
# Coordination Sequence:
#
# PCOD9141065 Si02
#       7
#     4   4   4   4   4   4   4
#     4  12  28  49  78 112 153 203 256 305 376 459
#     4  12  28  49  78 112 153 203 256 305 376 459
#     4  12  26  46  74 110 148 192 248 312 374 448
#     4  12  25  50  74 106 154 197 246 306 381 448
#     4  12  25  50  74 106 154 197 246 306 381 448
#     4  12  27  45  76 111 148 193 249 312 375 443
#     4  12  27  45  76 111 148 193 249 312 375 443
#
# _framework density 22.021053999999999
#
# number of rings (size 3 to 8) (size 9 to 14) (size 15 to 20)
#    0.000    0.000    4.286    5.143   10.000    0.000 
#    0.000    0.000    0.000    0.000    0.000    0.000 
#    0.000    0.000    0.000    0.000    0.000    0.000 
#
# Total GULP energy -78351.742292 kJ/mol
# GULP energy per Si atom -5596.553021 kJ/mol
# Density = 2.197093 g / cm^3
# Si number density = 22.021054 Si / 1000 Ang^3
#
#
#
# Elastic Constant Matrix: (Units=GPa)
#
#
# Indices 1 2 3 4 5 6 
#
# 1 84.9896 26.5134 23.2913 0.0000 2.6819 0.0000
# 2 26.5134 101.2777 12.6959 0.0000 9.0953 0.0000
# 3 23.2913 12.6959 91.3764 0.0000 7.4168 0.0000
# 4 0.0000 0.0000 0.0000 39.4482 0.0000 -0.7284
# 5 2.6819 9.0953 7.4168 0.0000 40.5185 0.0000
# 6 0.0000 0.0000 0.0000 -0.7284 0.0000 41.8452
#
#
#
# Elastic Compliance Matrix: (Units=1/GPa)
#
#
# Indices 1 2 3 4 5 6 
#
# 1 0.013591 -0.003210 -0.003049 0.000000 0.000379 0.000000
# 2 -0.003210 0.010974 -0.000532 0.000000 -0.002154 0.000000
# 3 -0.003049 -0.000532 0.011946 0.000000 -0.001866 0.000000
# 4 0.000000 0.000000 0.000000 0.025358 0.000000 0.000441
# 5 0.000379 -0.002154 -0.001866 0.000000 0.025480 0.000000
# 6 0.000000 0.000000 0.000000 0.000441 0.000000 0.023905
#
#
# Mechanical properties :
#
#
# Convention : Reuss Voigt Hill
#
# Bulk Modulus (GPa) = 43.61066 44.73831 44.17449
# Shear Modulus (GPa) = 37.74173 38.70528 38.22350
#
# Velocity S-wave (km/s) = 4.14441 4.19698 4.17078
# Velocity P-wave (km/s) = 6.53824 6.62167 6.58008
#
# Compressibility (1/GPa) = 0.02293017
#
# Stress axis : x y z
#
# Youngs Moduli (GPa) = 73.57747 91.12276 83.70829
#
# Poissons Ratio (x) = 0.29249 0.25523
# Poissons Ratio (y) = 0.23617 0.04452
# Poissons Ratio (z) = 0.22434 0.04846
#
# Static dielectric constant tensor:
#      x y z
#    x 1.759950 0.000000 -0.009630 
#    y 0.000000 1.762230 0.000000 
#    z -0.009630 0.000000 1.801930 
# 
# From -- ./inp_files/13069.got.cif
#   From: 2010.05.17/outbox.cif.g08.bks.cpg/sg9_7_cif.got.tgz:13069.got - 2010.06.03 20:04:27.
