data_PCOD9141565
_publ_section_title
;
Structure prediction by ZEFSAII (Michael W. Deem and Ramdas Pophale) SiO2 
 PCOD9141565
Probable space group: P 2/M
;
_chemical_formula_sum "Si O2"
_cell_formula_units_Z 28
_cell_length_a 9.234956
_cell_length_b 17.028340
_cell_length_c 11.111220
_cell_angle_alpha 90.000000
_cell_angle_beta 139.288846
_cell_angle_gamma 90.000000
_cell_volume 1139.673111
_symmetry_space_group_name_H-M "P 2/M"
_symmetry_group_IT_number 10
_symmetry_cell_setting 'monoclinic'
loop_
_space_group_symop_operation_xyz
x,y,z
-x,y,-z
-x,-y,-z
x,-y,z
loop_
_atom_site_type_symbol
_atom_site_label
_atom_site_fract_x
_atom_site_fract_y
_atom_site_fract_z
Si Si1 0.653959 0.284512 0.485421
Si Si2 0.258880 0.188074 0.692751
Si Si3 0.698746 0.411890 0.026884
Si Si4 0.880796 0.585755 0.535631
Si Si5 0.115192 0.094321 0.234400
Si Si6 0.520081 0.091050 0.325035
Si Si7 0.850548 0.244756 0.120712
O O1 0.500000 0.269574 0.500000
O O2 0.631056 0.234763 0.350018
O O3 0.661635 0.373668 0.445328
O O4 0.901683 0.271788 0.689554
O O5 0.402718 0.110894 0.761481
O O6 0.268312 0.228084 0.826886
O O7 0.000000 0.175865 0.500000
O O8 0.673747 0.500000 0.951861
O O9 0.735769 0.323811 0.991433
O O10 0.928121 0.419600 0.245730
O O11 0.500000 0.405685 0.000000
O O12 0.819573 0.500000 0.451572
O O13 0.000000 0.631107 0.500000
O O14 0.295139 0.121472 0.247224
O O15 0.264530 0.102755 0.450484
O O16 0.912461 0.157194 0.108583
O O17 0.057303 0.000000 0.186489
O O18 0.476418 0.000000 0.303662
#
# Coordination Sequence:
#
# PCOD9141565 Si02
#       7
#     4   4   4   4   4   4   4
#     4  10  17  25  38  59  91 124 155 190 235 286
#     4  10  17  24  36  60  91 124 159 194 239 278
#     4   9  18  33  52  72  95 127 167 207 246 294
#     4   9  17  30  48  71  96 119 150 196 248 297
#     4   9  16  26  41  64  96 132 166 198 241 294
#     4   9  16  25  38  61  96 135 167 194 238 297
#     4  10  18  28  44  67  92 123 163 207 246 289
#
# _framework density 24.568446999999999
#
# number of rings (size 3 to 8) (size 9 to 14) (size 15 to 20)
#    0.000    2.571    2.857    3.857    0.000    1.143 
#    0.000    0.000    0.000    0.429    0.000   26.000 
#    0.000   73.143    0.000    0.000    0.000    0.000 
#
# Total GULP energy -155891.984282 kJ/mol
# GULP energy per Si atom -5567.570867 kJ/mol
# Density = 2.451253 g / cm^3
# Si number density = 24.568447 Si / 1000 Ang^3
#
#
#
# Elastic Constant Matrix: (Units=GPa)
#
#
# Indices 1 2 3 4 5 6 
#
# 1 139.9779 55.9867 20.4794 0.0000 21.7684 0.0000
# 2 55.9867 153.5564 24.0584 0.0000 12.1423 0.0000
# 3 20.4794 24.0584 67.3748 0.0000 7.5708 0.0000
# 4 0.0000 0.0000 0.0000 15.1455 0.0000 31.3936
# 5 21.7684 12.1423 7.5708 0.0000 17.5624 0.0000
# 6 0.0000 0.0000 0.0000 31.3936 0.0000 35.7803
#
#
#
# Elastic Compliance Matrix: (Units=1/GPa)
#
#
# Indices 1 2 3 4 5 6 
#
# 1 0.009910 -0.002674 -0.000930 0.000000 -0.010034 0.000000
# 2 -0.002674 0.007883 -0.001852 0.000000 -0.001337 0.000000
# 3 -0.000930 -0.001852 0.016303 0.000000 -0.004595 0.000000
# 4 0.000000 0.000000 0.000000 -0.080650 0.000000 0.070762
# 5 -0.010034 -0.001337 -0.004595 0.000000 0.072282 0.000000
# 6 0.000000 0.000000 0.000000 0.070762 0.000000 -0.034138
#
#
# Mechanical properties :
#
#
# Convention : Reuss Voigt Hill
#
# Bulk Modulus (GPa) = 43.13328 62.43978 52.78653
# Shear Modulus (GPa) = 488.81549 31.05660 259.93604
#
# Velocity S-wave (km/s) = 14.12064 3.55925 10.29711
# Velocity P-wave (km/s) = 16.83601 6.50852 12.76347
#
# Compressibility (1/GPa) = 0.02318395
#
# Stress axis : x y z
#
# Youngs Moduli (GPa) = 100.90893 126.85321 61.34004
#
# Poissons Ratio (x) = 0.33921 0.05704
# Poissons Ratio (y) = 0.26984 0.11359
# Poissons Ratio (z) = 0.09384 0.23491
#
# Static dielectric constant tensor:
#      x y z
#    x 2.026390 0.000000 -0.058570 
#    y 0.000000 2.346390 0.000000 
#    z -0.058570 0.000000 1.971010 
# 
# From -- ./inp_files/54103.got.cif
#   From: 2010.05.17/outbox.cif.g08.bks.cpg/sg10_28_cif.got.tgz:54103.got - 2010.06.03 11:33:40.
