data_PCOD9141685
_publ_section_title
;
Structure prediction by ZEFSAII (Michael W. Deem and Ramdas Pophale) SiO2 
 PCOD9141685
Probable space group: P 2/M
;
_chemical_formula_sum "Si O2"
_cell_formula_units_Z 32
_cell_length_a 18.204438
_cell_length_b 7.539643
_cell_length_c 24.723389
_cell_angle_alpha 90.000000
_cell_angle_beta 31.144060
_cell_angle_gamma 90.000000
_cell_volume 1755.042170
_symmetry_space_group_name_H-M "P 2/M"
_symmetry_group_IT_number 10
_symmetry_cell_setting 'monoclinic'
loop_
_space_group_symop_operation_xyz
x,y,z
-x,y,-z
-x,-y,-z
x,-y,z
loop_
_atom_site_type_symbol
_atom_site_label
_atom_site_fract_x
_atom_site_fract_y
_atom_site_fract_z
Si Si1 0.950108 0.716779 0.135368
Si Si2 0.666530 0.716817 0.250933
Si Si3 0.152305 0.203534 0.190354
Si Si4 0.267873 0.283265 0.908992
Si Si5 0.565075 0.283544 0.517202
Si Si6 0.625012 0.291564 0.043023
Si Si7 0.387879 0.785813 0.116405
Si Si8 0.877833 0.705961 0.300695
O O1 0.953426 0.500000 0.133284
O O2 0.815676 0.770075 0.184291
O O3 0.927120 0.779779 0.211557
O O4 0.103152 0.772263 0.016827
O O5 0.665330 0.500000 0.251984
O O6 0.664311 0.774948 0.190143
O O7 0.536876 0.777217 0.370242
O O8 0.236026 0.278096 0.189894
O O9 0.007434 0.286266 0.260636
O O10 0.118526 0.000000 0.223047
O O11 0.266739 0.209137 0.068969
O O12 0.270128 0.500000 0.907265
O O13 0.344972 0.225839 0.915558
O O14 0.500000 0.234274 0.500000
O O15 0.562538 0.500000 0.521189
O O16 0.728126 0.221158 0.416041
O O17 0.658797 0.500000 0.020559
O O18 0.463886 0.266676 0.123953
O O19 0.383947 0.000000 0.117554
O O20 0.500000 0.725181 0.000000
O O21 0.848154 0.500000 0.307935
#
# Coordination Sequence:
#
# PCOD9141685 Si02
#       8
#     4   4   4   4   4   4   4   4
#     4   9  14  22  36  57  87 117 143 174 209 249
#     4   9  15  23  36  57  88 121 147 174 213 257
#     4  10  19  30  43  61  87 117 146 174 212 264
#     4   9  16  23  34  59  91 118 143 172 210 254
#     4   9  15  24  39  61  88 115 144 182 223 254
#     4  10  17  26  42  65  91 115 141 176 215 254
#     4   8  16  29  42  59  85 115 144 171 207 263
#     4  10  17  26  43  66  89 111 143 186 220 248
#
# _framework density 18.233180000000001
#
# number of rings (size 3 to 8) (size 9 to 14) (size 15 to 20)
#    0.000    2.750    2.500    1.875    0.000    4.250 
#    0.000    0.000    0.000    0.375    0.000    5.250 
#    0.000    7.000    0.000    0.000    0.000    0.000 
#
# Total GULP energy -178359.618814 kJ/mol
# GULP energy per Si atom -5573.738088 kJ/mol
# Density = 1.819168 g / cm^3
# Si number density = 18.233180 Si / 1000 Ang^3
#
#
#
# Elastic Constant Matrix: (Units=GPa)
#
#
# Indices 1 2 3 4 5 6 
#
# 1 123.5979 -7.1837 77.7280 0.0000 -12.0166 0.0000
# 2 -7.1837 40.0046 -1.7598 0.0000 2.6379 0.0000
# 3 77.7280 -1.7598 119.5384 0.0000 6.0078 0.0000
# 4 0.0000 0.0000 0.0000 -36.1638 0.0000 13.5466
# 5 -12.0166 2.6379 6.0078 0.0000 19.7253 0.0000
# 6 0.0000 0.0000 0.0000 13.5466 0.0000 29.0977
#
#
#
# Elastic Compliance Matrix: (Units=1/GPa)
#
#
# Indices 1 2 3 4 5 6 
#
# 1 0.016768 0.001611 -0.011559 0.000000 0.013520 0.000000
# 2 0.001611 0.025410 -0.000561 0.000000 -0.002246 0.000000
# 3 -0.011559 -0.000561 0.016476 0.000000 -0.011985 0.000000
# 4 0.000000 0.000000 0.000000 -0.023546 0.000000 0.010962
# 5 0.013520 -0.002246 -0.011985 0.000000 0.062883 0.000000
# 6 0.000000 0.000000 0.000000 0.010962 0.000000 0.029264
#
#
# Mechanical properties :
#
#
# Convention : Reuss Voigt Hill
#
# Bulk Modulus (GPa) = 26.56993 46.74554 36.65773
# Shear Modulus (GPa) = 31.09121 16.82228 23.95675
#
# Velocity S-wave (km/s) = 4.13389 3.04076 3.62872
# Velocity P-wave (km/s) = 6.11468 6.16616 6.14047
#
# Compressibility (1/GPa) = 0.03763653
#
# Stress axis : x y z
#
# Youngs Moduli (GPa) = 59.63724 39.35481 60.69568
#
# Poissons Ratio (x) = -0.06340 0.70158
# Poissons Ratio (y) = -0.09608 0.03403
# Poissons Ratio (z) = 0.68934 0.02206
#
# Static dielectric constant tensor:
#      x y z
#    x 1.649040 0.000000 -0.011190 
#    y 0.000000 1.691830 0.000000 
#    z -0.011190 0.000000 1.602770 
# 
# From -- ./inp_files/54926.got.cif
#   From: 2010.05.17/outbox.cif.g08.bks.cpg/sg10_28_cif.got.tgz:54926.got - 2010.06.03 11:33:40.
