data_PCOD9141155
_publ_section_title
;
Structure prediction by ZEFSAII (Michael W. Deem and Ramdas Pophale) SiO2 
 PCOD9141155
Probable space group: C C
;
_chemical_formula_sum "Si O2"
_cell_formula_units_Z 20
_cell_length_a 22.891711
_cell_length_b 4.670218
_cell_length_c 14.260451
_cell_angle_alpha 90.000000
_cell_angle_beta 150.871990
_cell_angle_gamma 90.000000
_cell_volume 742.105694
_symmetry_space_group_name_H-M "C C"
_symmetry_group_IT_number 9
_symmetry_cell_setting 'monoclinic'
loop_
_space_group_symop_operation_xyz
x,y,z
x,-y,1/2+z
1/2+x,1/2+y,z
1/2+x,1/2-y,1/2+z
loop_
_atom_site_type_symbol
_atom_site_label
_atom_site_fract_x
_atom_site_fract_y
_atom_site_fract_z
Si Si1 0.261640 0.211220 0.294220
Si Si2 0.644255 0.054863 0.804130
Si Si3 0.906425 0.044725 0.730016
Si Si4 0.067164 0.532392 0.895110
Si Si5 0.411981 0.337107 0.945932
O O1 0.181749 0.215821 0.277091
O O2 0.376767 0.415960 0.471033
O O3 0.310654 0.913063 0.321538
O O4 0.176722 0.393325 0.105753
O O5 0.608867 0.168215 0.856669
O O6 0.537304 0.837665 0.625750
O O7 0.770950 0.911322 0.006877
O O8 0.905844 0.035435 0.843140
O O9 0.980659 0.753761 0.823528
O O10 0.979780 0.263537 0.769375
#
# Coordination Sequence:
#
# PCOD9141155 Si02
#       5
#     4   4   4   4   4
#     4  12  27  49  77 115 156 207 266 329 399 478
#     4  12  28  48  82 110 162 210 262 340 396 478
#     4  12  27  50  76 114 154 207 264 326 400 475
#     4  12  27  49  77 115 156 207 266 329 399 478
#     4  12  27  50  76 114 154 207 264 326 400 475
#
# _framework density 26.950341000000002
#
# number of rings (size 3 to 8) (size 9 to 14) (size 15 to 20)
#    0.000    0.000    4.000    4.800    0.000    3.200 
#    0.000    0.000    0.000    0.000    0.000    0.000 
#    0.000    0.000    0.000    0.000    0.000    0.000 
#
# Total GULP energy -55871.815779 kJ/mol
# GULP energy per Si atom -5587.181578 kJ/mol
# Density = 2.688900 g / cm^3
# Si number density = 26.950341 Si / 1000 Ang^3
#
#
#
# Elastic Constant Matrix: (Units=GPa)
#
#
# Indices 1 2 3 4 5 6 
#
# 1 192.7935 -9.0838 -3.1135 0.0013 35.6821 -0.0001
# 2 -9.0838 95.5726 25.4131 0.0042 0.9365 0.0009
# 3 -3.1135 25.4131 185.8998 0.0003 -2.5688 0.0003
# 4 0.0013 0.0042 0.0003 52.0625 0.0005 16.9759
# 5 35.6821 0.9365 -2.5688 0.0005 66.8032 -0.0005
# 6 -0.0001 0.0009 0.0003 16.9759 -0.0005 24.7045
#
#
#
# Elastic Compliance Matrix: (Units=1/GPa)
#
#
# Indices 1 2 3 4 5 6 
#
# 1 0.005788 0.000587 -0.000026 0.000000 -0.003101 0.000000
# 2 0.000587 0.010920 -0.001490 -0.000001 -0.000524 0.000000
# 3 -0.000026 -0.001490 0.005586 0.000000 0.000250 0.000000
# 4 0.000000 -0.000001 0.000000 0.024754 0.000000 -0.017010
# 5 -0.003101 -0.000524 0.000250 0.000000 0.016643 0.000000
# 6 0.000000 0.000000 0.000000 -0.017010 0.000000 0.052167
#
#
# Mechanical properties :
#
#
# Convention : Reuss Voigt Hill
#
# Bulk Modulus (GPa) = 48.93198 55.63305 52.28251
# Shear Modulus (GPa) = 40.15148 59.45070 49.80109
#
# Velocity S-wave (km/s) = 3.86402 4.70183 4.30336
# Velocity P-wave (km/s) = 6.17279 7.08265 6.64331
#
# Compressibility (1/GPa) = 0.02043653
#
# Stress axis : x y z
#
# Youngs Moduli (GPa) = 172.76944 91.57092 179.01965
#
# Poissons Ratio (x) = -0.05380 0.00469
# Poissons Ratio (y) = -0.10150 0.26679
# Poissons Ratio (z) = 0.00453 0.13647
#
# Static dielectric constant tensor:
#      x y z
#    x 2.142000 0.000000 -0.101680 
#    y 0.000000 1.945340 0.000000 
#    z -0.101680 0.000000 2.134350 
# 
# From -- ./inp_files/17403.got.cif
#   From: 2010.05.17/outbox.cif.g08.bks.cpg/sg9_9_cif.got.tgz:17403.got - 2010.06.03 20:04:27.
