data_PCOD9141206
_publ_section_title
;
Structure prediction by ZEFSAII (Michael W. Deem and Ramdas Pophale) SiO2 
 PCOD9141206
Probable space group: C C
;
_chemical_formula_sum "Si O2"
_cell_formula_units_Z 16
_cell_length_a 15.000000
_cell_length_b 15.000000
_cell_length_c 21.000000
_cell_angle_alpha 90.000000
_cell_angle_beta 160.000000
_cell_angle_gamma 90.000000
_cell_volume 1616.045177
_symmetry_space_group_name_H-M "C C"
_symmetry_group_IT_number 9
_symmetry_cell_setting 'monoclinic'
loop_
_space_group_symop_operation_xyz
x,y,z
x,-y,1/2+z
1/2+x,1/2+y,z
1/2+x,1/2-y,1/2+z
loop_
_atom_site_type_symbol
_atom_site_label
_atom_site_fract_x
_atom_site_fract_y
_atom_site_fract_z
Si Si1 0.093880 0.360396 0.269730
Si Si2 0.364431 0.209264 0.000616
Si Si3 0.428796 0.206239 0.907075
Si Si4 0.646783 0.443380 0.604809
Si Si5 0.421880 0.800884 0.027936
Si Si6 0.305954 0.131200 0.696982
Si Si7 0.345841 0.817505 0.628286
Si Si8 0.926088 0.327152 0.888147
O O1 0.364067 0.402731 0.429018
O O2 0.174725 0.262513 0.350561
O O3 0.907076 0.355658 0.083147
O O4 0.974144 0.404984 0.251029
O O5 0.396983 0.159105 0.954765
O O6 0.140352 0.284219 0.839887
O O7 0.642613 0.254223 0.200826
O O8 0.305338 0.159138 0.026852
O O9 0.478655 0.153959 0.875022
O O10 0.637651 0.284725 0.059352
O O11 0.620758 0.548933 0.588725
O O12 0.750470 0.395649 0.610466
O O13 0.851505 0.411757 0.796102
O O14 0.676673 0.738705 0.210814
O O15 0.461127 0.847835 0.986289
O O16 0.168971 0.730426 0.526015
#
# Coordination Sequence:
#
# PCOD9141206 Si02
#       8
#     4   4   4   4   4   4   4   4
#     4  10  20  35  59  87 116 156 194 243 293 345
#     4   9  19  32  63  87 113 162 191 229 282 365
#     4   9  21  42  59  78 111 160 208 240 276 346
#     4  11  23  35  58  94 123 142 194 253 287 348
#     4   9  16  31  57  84 117 157 190 229 282 354
#     4  11  23  42  63  80 113 160 203 243 292 344
#     4  11  16  32  58  94 122 152 182 225 303 352
#     4  10  16  31  55  88 125 151 178 230 295 346
#
# _framework density 9.9007129999999997
#
# number of rings (size 3 to 8) (size 9 to 14) (size 15 to 20)
#    0.000    2.000    5.000    0.750    0.000    3.000 
#    0.000    3.750    0.000    0.000    0.000    0.000 
#    0.000    0.000    0.000    0.000    0.000    0.000 
#
# Total GULP energy -89124.178067 kJ/mol
# GULP energy per Si atom -5570.261129 kJ/mol
# Density = 0.987818 g / cm^3
# Si number density = 9.900713 Si / 1000 Ang^3
#
#
#
# Elastic Constant Matrix: (Units=GPa)
#
#
# Indices 1 2 3 4 5 6 
#
# 1 154.0007 27.8184 36.7976 -0.0177 -44.8823 -0.0135
# 2 27.8184 47.8703 6.1077 -0.0199 -9.7352 0.0351
# 3 36.7976 6.1077 61.5798 0.0059 -20.4443 0.0067
# 4 -0.0177 -0.0199 0.0059 10.7519 0.0029 -1.8369
# 5 -44.8823 -9.7352 -20.4443 0.0029 42.3533 -0.0174
# 6 -0.0135 0.0351 0.0067 -1.8369 -0.0174 4.8777
#
#
#
# Elastic Compliance Matrix: (Units=1/GPa)
#
#
# Indices 1 2 3 4 5 6 
#
# 1 0.010460 -0.003921 -0.002954 0.000027 0.008757 0.000103
# 2 -0.003921 0.023402 0.000510 0.000007 0.001471 -0.000172
# 3 -0.002954 0.000510 0.020189 -0.000021 0.006732 -0.000024
# 4 0.000027 0.000007 -0.000021 0.099402 0.000029 0.037434
# 5 0.008757 0.001471 0.006732 0.000029 0.036479 0.000145
# 6 0.000103 -0.000172 -0.000024 0.037434 0.000145 0.219114
#
#
# Mechanical properties :
#
#
# Convention : Reuss Voigt Hill
#
# Bulk Modulus (GPa) = 24.20064 44.98867 34.59465
# Shear Modulus (GPa) = 11.47976 24.44505 17.96241
#
# Velocity S-wave (km/s) = 2.41040 3.51737 3.01512
# Velocity P-wave (km/s) = 4.47157 6.26619 5.44334
#
# Compressibility (1/GPa) = 0.04132122
#
# Stress axis : x y z
#
# Youngs Moduli (GPa) = 95.60398 42.73089 49.53241
#
# Poissons Ratio (x) = 0.16753 0.14633
# Poissons Ratio (y) = 0.37483 -0.02526
# Poissons Ratio (z) = 0.28243 -0.02179
#
# Static dielectric constant tensor:
#      x y z
#    x 1.807220 0.000000 0.001100 
#    y 0.000000 1.692270 -0.000010 
#    z 0.001100 -0.000010 1.679820 
# 
# From -- ./inp_files/9520.got.cif
#   From: 2010.05.17/outbox.ucp.g08.bks.cvg/sg9_5_cif.got.tgz:9520.got - 2010.06.11 13:03:20.
