data_PCOD9141688
_publ_section_title
;
Structure prediction by ZEFSAII (Michael W. Deem and Ramdas Pophale) SiO2 
 PCOD9141688
Probable space group: P 2/M
;
_chemical_formula_sum "Si O2"
_cell_formula_units_Z 28
_cell_length_a 21.259127
_cell_length_b 10.662134
_cell_length_c 18.154782
_cell_angle_alpha 90.000000
_cell_angle_beta 159.183988
_cell_angle_gamma 90.000000
_cell_volume 1462.376367
_symmetry_space_group_name_H-M "P 2/M"
_symmetry_group_IT_number 10
_symmetry_cell_setting 'monoclinic'
loop_
_space_group_symop_operation_xyz
x,y,z
-x,y,-z
-x,-y,-z
x,-y,z
loop_
_atom_site_type_symbol
_atom_site_label
_atom_site_fract_x
_atom_site_fract_y
_atom_site_fract_z
Si Si1 0.304585 0.852324 0.378317
Si Si2 0.994290 0.214547 0.829328
Si Si3 0.170375 0.634727 0.133692
Si Si4 0.209486 0.854267 0.533867
Si Si5 0.629087 0.855398 0.980873
Si Si6 0.197039 0.142989 0.684543
Si Si7 0.351200 0.857936 0.156451
O O1 0.272952 0.756819 0.276257
O O2 0.481850 0.807977 0.615159
O O3 0.138607 0.839502 0.253678
O O4 0.319943 0.000000 0.373818
O O5 0.886042 0.220116 0.635446
O O6 0.082978 0.339537 0.958938
O O7 0.171228 0.137483 0.004914
O O8 0.263962 0.500000 0.239232
O O9 0.000000 0.628020 0.000000
O O10 0.418042 0.857602 0.747219
O O11 0.187662 0.802339 0.592449
O O12 0.143110 0.000000 0.458210
O O13 0.687286 0.799050 0.966125
O O14 0.699055 0.000000 0.060937
O O15 0.689185 0.798342 0.124700
O O16 0.000000 0.136726 0.500000
O O17 0.266671 0.000000 0.747999
O O18 0.409605 0.000000 0.203137
#
# Coordination Sequence:
#
# PCOD9141688 Si02
#       7
#     4   4   4   4   4   4   4
#     4  10  20  35  54  78 105 134 173 219 265 312
#     4  11  20  32  52  73 100 136 175 215 265 310
#     4   9  21  40  59  78 105 139 174 214 265 321
#     4  10  17  26  42  66  98 135 174 212 257 304
#     4   9  16  27  40  60  99 141 173 208 253 307
#     4   9  16  24  36  59  94 139 179 207 246 306
#     4  10  19  30  47  74 106 136 172 218 263 308
#
# _framework density 19.146917999999999
#
# number of rings (size 3 to 8) (size 9 to 14) (size 15 to 20)
#    0.000    2.286    1.429    2.571    0.000    8.286 
#    0.000    2.857    0.000    0.000    0.000    0.000 
#    0.000    8.571    0.000    0.000    0.000    0.286 
#
# Total GULP energy -155875.028297 kJ/mol
# GULP energy per Si atom -5566.965296 kJ/mol
# Density = 1.910334 g / cm^3
# Si number density = 19.146918 Si / 1000 Ang^3
#
#
#
# Elastic Constant Matrix: (Units=GPa)
#
#
# Indices 1 2 3 4 5 6 
#
# 1 100.1382 25.9763 54.4911 0.0000 -23.4231 0.0000
# 2 25.9763 52.4123 27.5743 0.0000 -20.6059 0.0000
# 3 54.4911 27.5743 104.7575 0.0000 -25.7612 0.0000
# 4 0.0000 0.0000 0.0000 -15.9363 0.0000 -0.0694
# 5 -23.4231 -20.6059 -25.7612 0.0000 47.1576 0.0000
# 6 0.0000 0.0000 0.0000 -0.0694 0.0000 -4.6638
#
#
#
# Elastic Compliance Matrix: (Units=1/GPa)
#
#
# Indices 1 2 3 4 5 6 
#
# 1 0.014781 -0.003009 -0.006255 0.000000 0.002610 0.000000
# 2 -0.003009 0.025321 -0.003173 0.000000 0.007836 0.000000
# 3 -0.006255 -0.003173 0.014474 0.000000 0.003414 0.000000
# 4 0.000000 0.000000 0.000000 -0.062754 0.000000 0.000934
# 5 0.002610 0.007836 0.003414 0.000000 0.027791 0.000000
# 6 0.000000 0.000000 0.000000 0.000934 0.000000 -0.214429
#
#
# Mechanical properties :
#
#
# Convention : Reuss Voigt Hill
#
# Bulk Modulus (GPa) = 33.66655 52.59905 43.13280
# Shear Modulus (GPa) = -31.24152 15.26256 -7.98948
#
# Velocity S-wave (km/s) = -4.04378 2.82641 -2.04494
# Velocity P-wave (km/s) = 2.04486 6.17919 4.12316
#
# Compressibility (1/GPa) = 0.02970308
#
# Stress axis : x y z
#
# Youngs Moduli (GPa) = 67.65579 39.49316 69.08993
#
# Poissons Ratio (x) = 0.11883 0.43213
# Poissons Ratio (y) = 0.20356 0.21921
# Poissons Ratio (z) = 0.42316 0.12530
#
# Static dielectric constant tensor:
#      x y z
#    x 1.751920 0.000000 -0.039920 
#    y 0.000000 1.662230 0.000000 
#    z -0.039920 0.000000 1.702670 
# 
# From -- ./inp_files/79507.got.cif
#   From: 2010.05.17/outbox.cif.g08.bks.cpg/sg10_40_cif.got.tgz:79507.got - 2010.06.03 11:33:40.
