data_PCOD9141236
_publ_section_title
;
Structure prediction by ZEFSAII (Michael W. Deem and Ramdas Pophale) SiO2 
 PCOD9141236
Probable space group: C C
;
_chemical_formula_sum "Si O2"
_cell_formula_units_Z 16
_cell_length_a 12.000000
_cell_length_b 9.000000
_cell_length_c 30.000000
_cell_angle_alpha 90.000000
_cell_angle_beta 30.000000
_cell_angle_gamma 90.000000
_cell_volume 1620.000000
_symmetry_space_group_name_H-M "C C"
_symmetry_group_IT_number 9
_symmetry_cell_setting 'monoclinic'
loop_
_space_group_symop_operation_xyz
x,y,z
x,-y,1/2+z
1/2+x,1/2+y,z
1/2+x,1/2-y,1/2+z
loop_
_atom_site_type_symbol
_atom_site_label
_atom_site_fract_x
_atom_site_fract_y
_atom_site_fract_z
Si Si1 0.740290 0.582182 0.807800
Si Si2 0.507015 0.472260 0.119627
Si Si3 0.850562 0.806650 0.599148
Si Si4 0.818993 0.724452 0.446522
Si Si5 0.974365 0.465362 0.580933
Si Si6 0.904962 0.673413 0.198138
Si Si7 0.580702 0.535632 0.457988
Si Si8 0.678056 0.740884 0.123872
O O1 0.571562 0.721948 0.862136
O O2 0.719092 0.434948 0.783627
O O3 0.684382 0.511377 0.875190
O O4 0.979956 0.655301 0.711728
O O5 0.370667 0.567919 0.130607
O O6 0.366521 0.341518 0.192929
O O7 0.601621 0.605992 0.117627
O O8 0.703256 0.373359 0.026818
O O9 0.929327 0.639282 0.585854
O O10 0.601185 0.802061 0.666261
O O11 0.002935 0.881789 0.508159
O O12 0.693671 0.884551 0.485633
O O13 0.765769 0.622031 0.422731
O O14 0.989072 0.428499 0.627983
O O15 0.785445 0.354989 0.626838
O O16 0.367159 0.650772 0.535787
#
# Coordination Sequence:
#
# PCOD9141236 Si02
#       8
#     4   4   4   4   4   4   4   4
#     4  12  25  42  70 101 141 178 234 288 340 411
#     4  10  22  43  73  97 135 182 232 275 352 406
#     4  11  21  42  75  97 132 187 220 285 346 403
#     4   9  23  45  63 102 136 178 231 290 332 416
#     4  10  22  44  73  96 136 186 229 278 354 407
#     4  11  23  42  65 103 134 175 231 281 336 418
#     4  10  23  45  67  96 141 178 230 281 346 407
#     4  11  23  45  72 104 137 188 227 286 346 412
#
# _framework density 9.8765429999999999
#
# number of rings (size 3 to 8) (size 9 to 14) (size 15 to 20)
#    0.000    1.500    2.500    3.000    1.750    2.000 
#    4.500    0.000    0.000    0.000    0.000    0.000 
#    0.000    0.000    0.000    0.000    0.000    0.000 
#
# Total GULP energy -89162.014739 kJ/mol
# GULP energy per Si atom -5572.625921 kJ/mol
# Density = 0.985406 g / cm^3
# Si number density = 9.876543 Si / 1000 Ang^3
#
#
#
# Elastic Constant Matrix: (Units=GPa)
#
#
# Indices 1 2 3 4 5 6 
#
# 1 75.7027 35.5219 34.4935 0.0001 7.8659 -0.0002
# 2 35.5219 172.5548 49.7373 0.0006 17.9498 -0.0003
# 3 34.4935 49.7373 79.6405 0.0024 9.7062 0.0001
# 4 0.0001 0.0006 0.0024 22.4418 -0.0010 5.8720
# 5 7.8659 17.9498 9.7062 -0.0010 11.6313 0.0001
# 6 -0.0002 -0.0003 0.0001 5.8720 0.0001 35.7467
#
#
#
# Elastic Compliance Matrix: (Units=1/GPa)
#
#
# Indices 1 2 3 4 5 6 
#
# 1 0.017028 -0.001306 -0.006013 0.000000 -0.004482 0.000000
# 2 -0.001306 0.007915 -0.003336 0.000000 -0.008548 0.000000
# 3 -0.006013 -0.003336 0.017946 -0.000002 -0.005762 0.000000
# 4 0.000000 0.000000 -0.000002 0.046561 0.000006 -0.007648
# 5 -0.004482 -0.008548 -0.005762 0.000006 0.107006 -0.000001
# 6 0.000000 0.000000 0.000000 -0.007648 -0.000001 0.029231
#
#
# Mechanical properties :
#
#
# Convention : Reuss Voigt Hill
#
# Bulk Modulus (GPa) = 46.34023 63.04482 54.69253
# Shear Modulus (GPa) = 19.67039 27.84029 23.75534
#
# Velocity S-wave (km/s) = 3.15907 3.75829 3.47163
# Velocity P-wave (km/s) = 6.06770 7.12872 6.61951
#
# Compressibility (1/GPa) = 0.02157952
#
# Stress axis : x y z
#
# Youngs Moduli (GPa) = 58.72699 126.34758 55.72196
#
# Poissons Ratio (x) = 0.16499 0.33507
# Poissons Ratio (y) = 0.07669 0.18587
# Poissons Ratio (z) = 0.35314 0.42144
#
# Static dielectric constant tensor:
#      x y z
#    x 1.810600 0.000000 -0.007040 
#    y 0.000000 1.668390 0.000000 
#    z -0.007040 0.000000 1.720050 
# 
# From -- ./inp_files/24219.got.cif
#   From: 2010.05.17/outbox.ucp.g08.bks.cvg/sg9_13_cif.got.tgz:24219.got - 2010.06.11 13:03:20.
