data_PCOD9141152
_publ_section_title
;
Structure prediction by ZEFSAII (Michael W. Deem and Ramdas Pophale) SiO2 
 PCOD9141152
Probable space group: C C
;
_chemical_formula_sum "Si O2"
_cell_formula_units_Z 32
_cell_length_a 14.966819
_cell_length_b 13.223378
_cell_length_c 10.506859
_cell_angle_alpha 90.000000
_cell_angle_beta 34.761203
_cell_angle_gamma 90.000000
_cell_volume 1185.603833
_symmetry_space_group_name_H-M "C C"
_symmetry_group_IT_number 9
_symmetry_cell_setting 'monoclinic'
loop_
_space_group_symop_operation_xyz
x,y,z
x,-y,1/2+z
1/2+x,1/2+y,z
1/2+x,1/2-y,1/2+z
loop_
_atom_site_type_symbol
_atom_site_label
_atom_site_fract_x
_atom_site_fract_y
_atom_site_fract_z
Si Si1 0.770390 0.503668 0.101610
Si Si2 0.588403 0.105207 0.198437
Si Si3 0.479779 0.185143 0.059929
Si Si4 0.104018 0.249360 0.902019
Si Si5 0.973600 0.914403 0.372630
Si Si6 0.323745 0.799753 0.372798
Si Si7 0.739559 0.916914 0.089702
Si Si8 0.114432 0.869665 0.966972
O O1 0.656548 0.446066 0.140017
O O2 0.660587 0.523551 0.351613
O O3 0.799414 0.611392 0.001927
O O4 0.921105 0.435455 0.945319
O O5 0.549057 0.166840 0.119331
O O6 0.664866 0.176418 0.218383
O O7 0.682122 0.002892 0.057977
O O8 0.292904 0.172724 0.280882
O O9 0.536845 0.295467 0.951778
O O10 0.583791 0.109784 0.852568
O O11 0.990007 0.169404 0.962966
O O12 0.220535 0.197130 0.864781
O O13 0.998956 0.314630 0.118869
O O14 0.968355 0.870828 0.236259
O O15 0.866705 0.012983 0.515577
O O16 0.304895 0.687554 0.456457
#
# Coordination Sequence:
#
# PCOD9141152 Si02
#       8
#     4   4   4   4   4   4   4   4
#     4  12  27  48  78 107 154 202 254 314 395 456
#     4  12  27  48  78 107 154 202 254 314 395 456
#     4  12  28  50  78 109 154 203 263 320 381 457
#     4  12  28  48  73 110 155 196 252 317 385 459
#     4  12  29  48  76 113 151 203 258 318 389 462
#     4  12  28  48  73 110 155 196 252 317 385 459
#     4  12  29  48  76 113 151 203 258 318 389 462
#     4  12  28  50  78 109 154 203 263 320 381 457
#
# _framework density 26.990465
#
# number of rings (size 3 to 8) (size 9 to 14) (size 15 to 20)
#    0.000    0.000    5.000    3.000   14.000    0.000 
#    0.000    0.000    0.000    0.000    0.000    0.000 
#    0.000    0.000    0.000    0.000    0.000    0.000 
#
# Total GULP energy -89429.101405 kJ/mol
# GULP energy per Si atom -5589.318838 kJ/mol
# Density = 2.692903 g / cm^3
# Si number density = 26.990465 Si / 1000 Ang^3
#
#
#
# Elastic Constant Matrix: (Units=GPa)
#
#
# Indices 1 2 3 4 5 6 
#
# 1 82.5979 23.7904 14.5947 0.0000 -0.2498 0.0000
# 2 23.7904 123.1630 22.9241 0.0000 6.7388 0.0000
# 3 14.5947 22.9241 118.7463 0.0000 6.2848 0.0000
# 4 0.0000 0.0000 0.0000 46.6496 0.0000 -3.0921
# 5 -0.2498 6.7388 6.2848 0.0000 40.8310 0.0000
# 6 0.0000 0.0000 0.0000 -3.0921 0.0000 23.6665
#
#
#
# Elastic Compliance Matrix: (Units=1/GPa)
#
#
# Indices 1 2 3 4 5 6 
#
# 1 0.012987 -0.002324 -0.001182 0.000000 0.000645 0.000000
# 2 -0.002324 0.008892 -0.001364 0.000000 -0.001272 0.000000
# 3 -0.001182 -0.001364 0.008891 0.000000 -0.001151 0.000000
# 4 0.000000 0.000000 0.000000 0.021624 0.000000 0.002825
# 5 0.000645 -0.001272 -0.001151 0.000000 0.024882 0.000000
# 6 0.000000 0.000000 0.000000 0.002825 0.000000 0.042623
#
#
# Mechanical properties :
#
#
# Convention : Reuss Voigt Hill
#
# Bulk Modulus (GPa) = 47.54918 49.68061 48.61489
# Shear Modulus (GPa) = 36.59074 39.77597 38.18335
#
# Velocity S-wave (km/s) = 3.68597 3.84305 3.76533
# Velocity P-wave (km/s) = 5.98084 6.17566 6.07903
#
# Compressibility (1/GPa) = 0.02103086
#
# Stress axis : x y z
#
# Youngs Moduli (GPa) = 77.00042 112.46567 112.47713
#
# Poissons Ratio (x) = 0.26136 0.13291
# Poissons Ratio (y) = 0.17894 0.15337
# Poissons Ratio (z) = 0.09099 0.15336
#
# Static dielectric constant tensor:
#      x y z
#    x 2.236140 0.000000 0.002980 
#    y 0.000000 2.158460 0.000000 
#    z 0.002980 0.000000 2.169500 
# 
# From -- ./inp_files/19384.got.cif
#   From: 2010.05.17/outbox.cif.g08.bks.cpg/sg9_10_cif.got.tgz:19384.got - 2010.06.03 20:04:27.
