data_PCOD9141771
_publ_section_title
;
Structure prediction by ZEFSAII (Michael W. Deem and Ramdas Pophale) SiO2 
 PCOD9141771
Probable space group: P 2/M
;
_chemical_formula_sum "Si O2"
_cell_formula_units_Z 32
_cell_length_a 18.168417
_cell_length_b 8.594949
_cell_length_c 24.550171
_cell_angle_alpha 90.000000
_cell_angle_beta 30.994036
_cell_angle_gamma 90.000000
_cell_volume 1974.144808
_symmetry_space_group_name_H-M "P 2/M"
_symmetry_group_IT_number 10
_symmetry_cell_setting 'monoclinic'
loop_
_space_group_symop_operation_xyz
x,y,z
-x,y,-z
-x,-y,-z
x,-y,z
loop_
_atom_site_type_symbol
_atom_site_label
_atom_site_fract_x
_atom_site_fract_y
_atom_site_fract_z
Si Si1 0.732435 0.310272 0.591071
Si Si2 0.882802 0.686595 0.807398
Si Si3 0.615632 0.685277 0.550079
Si Si4 0.050975 0.310772 0.358609
Si Si5 0.836928 0.186829 0.320540
Si Si6 0.433570 0.186448 0.983819
Si Si7 0.332028 0.688673 0.246901
Si Si8 0.385887 0.819549 0.622282
O O1 0.734008 0.500000 0.590907
O O2 0.643152 0.262801 0.594496
O O3 0.672567 0.260363 0.687337
O O4 0.896706 0.259285 0.478112
O O5 0.883949 0.500000 0.807515
O O6 0.922590 0.738235 0.720450
O O7 0.005704 0.749468 0.768993
O O8 0.725441 0.747051 0.920511
O O9 0.634032 0.500000 0.535978
O O10 0.736581 0.758175 0.434194
O O11 0.462098 0.729857 0.622723
O O12 0.048708 0.500000 0.360234
O O13 0.183752 0.263059 0.311794
O O14 0.759095 0.239756 0.314002
O O15 0.836841 0.000000 0.320028
O O16 0.537333 0.245478 0.870575
O O17 0.428017 0.000000 0.986983
O O18 0.500000 0.237120 0.000000
O O19 0.338229 0.500000 0.241278
O O20 0.500000 0.814940 0.500000
O O21 0.368588 0.000000 0.648830
#
# Coordination Sequence:
#
# PCOD9141771 Si02
#       8
#     4   4   4   4   4   4   4   4
#     4   9  17  29  47  75 103 128 163 206 246 285
#     4  11  20  32  53  76  96 125 169 208 244 293
#     4  10  17  27  45  71 101 131 165 202 241 287
#     4   9  16  28  48  73  98 124 160 204 241 282
#     4  10  19  31  46  68 100 133 163 198 246 296
#     4  11  23  37  51  69  98 130 164 208 254 292
#     4  10  19  33  54  72  93 130 172 208 243 286
#     4   8  16  29  43  63  95 133 166 194 235 295
#
# _framework density 16.20955
#
# number of rings (size 3 to 8) (size 9 to 14) (size 15 to 20)
#    0.000    2.250    2.500    2.625    0.000    4.750 
#    0.000    1.250    0.000    0.750    0.000    0.875 
#    0.000    7.000    0.000    0.000    0.000    0.000 
#
# Total GULP energy -178442.176400 kJ/mol
# GULP energy per Si atom -5576.318013 kJ/mol
# Density = 1.617266 g / cm^3
# Si number density = 16.209550 Si / 1000 Ang^3
#
#
#
# Elastic Constant Matrix: (Units=GPa)
#
#
# Indices 1 2 3 4 5 6 
#
# 1 141.5288 31.7755 85.5451 0.0000 -22.0628 0.0000
# 2 31.7755 28.7474 25.0170 0.0000 -4.7195 0.0000
# 3 85.5451 25.0170 112.2238 0.0000 -2.0785 0.0000
# 4 0.0000 0.0000 0.0000 11.6292 0.0000 -7.9790
# 5 -22.0628 -4.7195 -2.0785 0.0000 23.8119 0.0000
# 6 0.0000 0.0000 0.0000 -7.9790 0.0000 10.5078
#
#
#
# Elastic Compliance Matrix: (Units=1/GPa)
#
#
# Indices 1 2 3 4 5 6 
#
# 1 0.018171 -0.007330 -0.011951 0.000000 0.014340 0.000000
# 2 -0.007330 0.047582 -0.004979 0.000000 0.002205 0.000000
# 3 -0.011951 -0.004979 0.018938 0.000000 -0.010407 0.000000
# 4 0.000000 0.000000 0.000000 0.179520 0.000000 0.136317
# 5 0.014340 0.002205 -0.010407 0.000000 0.054811 0.000000
# 6 0.000000 0.000000 0.000000 0.136317 0.000000 0.198679
#
#
# Mechanical properties :
#
#
# Convention : Reuss Voigt Hill
#
# Bulk Modulus (GPa) = 27.64659 63.01947 45.33303
# Shear Modulus (GPa) = 8.64635 18.53393 13.59014
#
# Velocity S-wave (km/s) = 2.31207 3.38508 2.89866
# Velocity P-wave (km/s) = 4.92142 7.36483 6.26343
#
# Compressibility (1/GPa) = 0.03617083
#
# Stress axis : x y z
#
# Youngs Moduli (GPa) = 55.03357 21.01614 52.80345
#
# Poissons Ratio (x) = 0.15405 0.63108
# Poissons Ratio (y) = 0.40339 0.26290
# Poissons Ratio (z) = 0.65773 0.10464
#
# Static dielectric constant tensor:
#      x y z
#    x 1.565500 0.000000 -0.010500 
#    y 0.000000 1.552170 0.000000 
#    z -0.010500 0.000000 1.510690 
# 
# From -- ./inp_files/79919.got.cif
#   From: 2010.05.17/outbox.cif.g08.bks.cpg/sg10_40_cif.got.tgz:79919.got - 2010.06.03 11:33:40.
