data_PCOD9141941
_publ_section_title
;
Structure prediction by ZEFSAII (Michael W. Deem and Ramdas Pophale) SiO2 
 PCOD9141941
Probable space group: P 2/M
;
_chemical_formula_sum "Si O2"
_cell_formula_units_Z 25
_cell_length_a 18.390625
_cell_length_b 7.359961
_cell_length_c 7.375609
_cell_angle_alpha 90.000000
_cell_angle_beta 109.914462
_cell_angle_gamma 90.000000
_cell_volume 938.622893
_symmetry_space_group_name_H-M "P 2/M"
_symmetry_group_IT_number 10
_symmetry_cell_setting 'monoclinic'
loop_
_space_group_symop_operation_xyz
x,y,z
-x,y,-z
-x,-y,-z
x,-y,z
loop_
_atom_site_type_symbol
_atom_site_label
_atom_site_fract_x
_atom_site_fract_y
_atom_site_fract_z
Si Si1 0.687368 0.208542 0.287312
Si Si2 0.474474 0.216558 0.778118
Si Si3 0.795252 0.718443 0.827210
Si Si4 0.639383 0.715750 0.836150
Si Si5 0.858854 0.294461 0.524596
Si Si6 0.925194 0.279878 0.213853
Si Si7 0.000000 0.000000 0.000000
O O1 0.612187 0.286231 0.329893
O O2 0.769375 0.302601 0.381660
O O3 0.700758 0.000000 0.350331
O O4 0.660561 0.212812 0.054659
O O5 0.549860 0.245619 0.719303
O O6 0.465193 0.000000 0.784472
O O7 0.500000 0.285977 0.000000
O O8 0.792367 0.500000 0.797564
O O9 0.707530 0.784941 0.764358
O O10 0.847096 0.796174 0.709389
O O11 0.840864 0.751445 0.049773
O O12 0.646896 0.500000 0.852405
O O13 0.887067 0.500000 0.576191
O O14 0.912190 0.221450 0.410608
O O15 0.938527 0.500000 0.216660
O O16 0.980893 0.160315 0.138565
#
# Coordination Sequence:
#
# PCOD9141941 Si02
#       7
#     4   4   4   4   4   4   1
#     4  10  19  31  50  77 115 155 201 251 300 353
#     4   8  16  29  43  69 110 156 197 248 306 351
#     4   9  19  37  60  88 120 156 199 244 296 352
#     4  10  17  29  52  80 110 150 203 252 296 349
#     4  10  20  37  62  87 117 158 199 244 295 348
#     4  10  22  44  68  94 129 161 192 240 299 352
#     4  12  26  44  74 102 124 160 198 236 282 370
#
# _framework density 26.634768000000001
#
# number of rings (size 3 to 8) (size 9 to 14) (size 15 to 20)
#    0.000    2.400    1.600    2.160    1.120    3.520 
#    2.880    2.400    0.000    8.640    0.000    0.000 
#    0.000    0.000    0.000    0.000    0.000    0.000 
#
# Total GULP energy -139547.410909 kJ/mol
# GULP energy per Si atom -5581.896436 kJ/mol
# Density = 2.657415 g / cm^3
# Si number density = 26.634768 Si / 1000 Ang^3
#
#
#
# Elastic Constant Matrix: (Units=GPa)
#
#
# Indices 1 2 3 4 5 6 
#
# 1 233.2527 10.2370 54.2919 0.0000 -21.3261 0.0000
# 2 10.2370 133.3519 -4.0379 0.0000 -14.4881 0.0000
# 3 54.2919 -4.0379 84.2046 0.0000 -16.1970 0.0000
# 4 0.0000 0.0000 0.0000 -11.6824 0.0000 -30.0774
# 5 -21.3261 -14.4881 -16.1970 0.0000 57.8330 0.0000
# 6 0.0000 0.0000 0.0000 -30.0774 0.0000 0.1950
#
#
#
# Elastic Compliance Matrix: (Units=1/GPa)
#
#
# Indices 1 2 3 4 5 6 
#
# 1 0.005119 -0.000389 -0.003144 0.000000 0.000910 0.000000
# 2 -0.000389 0.007788 0.001028 0.000000 0.002095 0.000000
# 3 -0.003144 0.001028 0.014564 0.000000 0.003177 0.000000
# 4 0.000000 0.000000 0.000000 -0.000215 0.000000 -0.033164
# 5 0.000910 0.002095 0.003177 0.000000 0.019041 0.000000
# 6 0.000000 0.000000 0.000000 -0.033164 0.000000 0.012881
#
#
# Mechanical properties :
#
#
# Convention : Reuss Voigt Hill
#
# Bulk Modulus (GPa) = 44.52798 63.53234 54.03016
# Shear Modulus (GPa) = 69.75775 35.29032 52.52404
#
# Velocity S-wave (km/s) = 5.12322 3.64397 4.44555
# Velocity P-wave (km/s) = 7.19380 6.45055 6.83229
#
# Compressibility (1/GPa) = 0.02245779
#
# Stress axis : x y z
#
# Youngs Moduli (GPa) = 195.33712 128.40954 68.66446
#
# Poissons Ratio (x) = 0.05000 0.21591
# Poissons Ratio (y) = 0.07606 -0.07055
# Poissons Ratio (z) = 0.61423 -0.13194
#
# Static dielectric constant tensor:
#      x y z
#    x 2.150800 0.000000 0.007840 
#    y 0.000000 2.006970 0.000000 
#    z 0.007840 0.000000 2.090150 
# 
# From -- ./inp_files/31666.got.cif
#   From: 2010.05.17/outbox.cif.g08.bks.cpg/sg10_16_cif.got.tgz:31666.got - 2010.06.03 11:33:40.
