data_PCOD9141814
_publ_section_title
;
Structure prediction by ZEFSAII (Michael W. Deem and Ramdas Pophale) SiO2 
 PCOD9141814
Probable space group: P 2/M
;
_chemical_formula_sum "Si O2"
_cell_formula_units_Z 32
_cell_length_a 11.988072
_cell_length_b 15.104772
_cell_length_c 13.677490
_cell_angle_alpha 90.000000
_cell_angle_beta 42.840830
_cell_angle_gamma 90.000000
_cell_volume 1684.053341
_symmetry_space_group_name_H-M "P 2/M"
_symmetry_group_IT_number 10
_symmetry_cell_setting 'monoclinic'
loop_
_space_group_symop_operation_xyz
x,y,z
-x,y,-z
-x,-y,-z
x,-y,z
loop_
_atom_site_type_symbol
_atom_site_label
_atom_site_fract_x
_atom_site_fract_y
_atom_site_fract_z
Si Si1 0.619762 0.099087 0.016158
Si Si2 0.869508 0.331973 0.662791
Si Si3 0.903514 0.133267 0.693454
Si Si4 0.686287 0.602553 0.374676
Si Si5 0.253060 0.094645 0.416946
Si Si6 0.443708 0.744556 0.246311
Si Si7 0.966991 0.395966 0.802717
Si Si8 0.709307 0.396996 0.131553
O O1 0.797621 0.116973 0.856743
O O2 0.617408 0.000000 0.062425
O O3 0.500000 0.095565 0.000000
O O4 0.556303 0.184048 0.116003
O O5 0.933974 0.235845 0.653337
O O6 0.693094 0.307509 0.730038
O O7 0.000000 0.368761 0.500000
O O8 0.870088 0.384971 0.763323
O O9 0.801524 0.100589 0.663268
O O10 0.081486 0.092568 0.582333
O O11 0.500000 0.640469 0.500000
O O12 0.666502 0.500000 0.421860
O O13 0.846795 0.641794 0.325781
O O14 0.744590 0.602842 0.224251
O O15 0.347716 0.185600 0.377032
O O16 0.337599 0.000000 0.378481
O O17 0.557305 0.668908 0.216574
O O18 0.990973 0.500000 0.805593
O O19 0.855373 0.365303 0.965710
O O20 0.671028 0.500000 0.130061
#
# Coordination Sequence:
#
# PCOD9141814 Si02
#       8
#     4   4   4   4   4   4   4   4
#     4  11  19  28  46  72 106 143 184 228 268 316
#     4  11  21  34  49  75 115 156 185 223 271 326
#     4  10  17  29  43  66  99 145 178 219 264 313
#     4   9  19  37  62  85 102 128 178 243 289 322
#     4  10  17  28  45  66  99 138 180 219 265 316
#     4  11  22  33  50  77 111 150 184 222 265 325
#     4  10  22  38  57  78 106 146 189 231 278 328
#     4  10  22  39  58  80 109 146 186 231 281 327
#
# _framework density 19.001773
#
# number of rings (size 3 to 8) (size 9 to 14) (size 15 to 20)
#    0.000    1.750    5.000    3.000    1.750    2.250 
#    0.000    1.250    0.000    0.000    0.000    0.000 
#    0.000   38.000    0.000    0.000    0.000    0.000 
#
# Total GULP energy -178139.493116 kJ/mol
# GULP energy per Si atom -5566.859160 kJ/mol
# Density = 1.895852 g / cm^3
# Si number density = 19.001773 Si / 1000 Ang^3
#
#
#
# Elastic Constant Matrix: (Units=GPa)
#
#
# Indices 1 2 3 4 5 6 
#
# 1 45.3047 20.1536 12.6734 0.0000 -12.6905 0.0000
# 2 20.1536 54.1500 2.8798 0.0000 -13.8836 0.0000
# 3 12.6734 2.8798 106.1916 0.0000 -11.7145 0.0000
# 4 0.0000 0.0000 0.0000 -45.9037 0.0000 10.9973
# 5 -12.6905 -13.8836 -11.7145 0.0000 24.2165 0.0000
# 6 0.0000 0.0000 0.0000 10.9973 0.0000 -1.8578
#
#
#
# Elastic Compliance Matrix: (Units=1/GPa)
#
#
# Indices 1 2 3 4 5 6 
#
# 1 0.028997 -0.008267 -0.002200 0.000000 0.009392 0.000000
# 2 -0.008267 0.024075 0.001456 0.000000 0.010175 0.000000
# 3 -0.002200 0.001456 0.010146 0.000000 0.004590 0.000000
# 4 0.000000 0.000000 0.000000 0.052094 0.000000 0.308377
# 5 0.009392 0.010175 0.004590 0.000000 0.054269 0.000000
# 6 0.000000 0.000000 0.000000 0.308377 0.000000 1.287187
#
#
# Mechanical properties :
#
#
# Convention : Reuss Voigt Hill
#
# Bulk Modulus (GPa) = 22.12593 30.78442 26.45517
# Shear Modulus (GPa) = 3.35603 6.62029 4.98816
#
# Velocity S-wave (km/s) = 1.33041 1.86858 1.62197
# Velocity P-wave (km/s) = 3.74559 4.57072 4.17857
#
# Compressibility (1/GPa) = 0.04519584
#
# Stress axis : x y z
#
# Youngs Moduli (GPa) = 34.48683 41.53623 98.55717
#
# Poissons Ratio (x) = 0.34338 0.21686
# Poissons Ratio (y) = 0.28510 -0.14351
# Poissons Ratio (z) = 0.07588 -0.06048
#
# Static dielectric constant tensor:
#      x y z
#    x 1.654840 0.000000 -0.011410 
#    y 0.000000 1.690890 0.000000 
#    z -0.011410 0.000000 1.759500 
# 
# From -- ./inp_files/65091.got.cif
#   From: 2010.05.17/outbox.cif.g08.bks.cpg/sg10_33_cif.got.tgz:65091.got - 2010.06.03 11:33:40.
