data_PCOD9141523
_publ_section_title
;
Structure prediction by ZEFSAII (Michael W. Deem and Ramdas Pophale) SiO2 
 PCOD9141523
Probable space group: P 2/M
;
_chemical_formula_sum "Si O2"
_cell_formula_units_Z 24
_cell_length_a 9.476083
_cell_length_b 15.945774
_cell_length_c 12.928265
_cell_angle_alpha 90.000000
_cell_angle_beta 32.658821
_cell_angle_gamma 90.000000
_cell_volume 1054.180846
_symmetry_space_group_name_H-M "P 2/M"
_symmetry_group_IT_number 10
_symmetry_cell_setting 'monoclinic'
loop_
_space_group_symop_operation_xyz
x,y,z
-x,y,-z
-x,-y,-z
x,-y,z
loop_
_atom_site_type_symbol
_atom_site_label
_atom_site_fract_x
_atom_site_fract_y
_atom_site_fract_z
Si Si1 0.303326 0.344403 0.339018
Si Si2 0.577583 0.000000 0.229569
Si Si3 0.830231 0.500000 0.316012
Si Si4 0.236702 0.327763 0.611283
Si Si5 0.888058 0.000000 0.240107
Si Si6 0.411294 0.840101 0.220514
Si Si7 0.928508 0.841096 0.762108
Si Si8 0.223568 0.500000 0.273325
O O1 0.311917 0.370726 0.454027
O O2 0.431169 0.253476 0.253112
O O3 0.382888 0.415743 0.206322
O O4 0.000000 0.328748 0.500000
O O5 0.661070 0.000000 0.296353
O O6 0.428644 0.915472 0.290119
O O7 0.844221 0.000000 0.995028
O O8 0.500000 0.500000 0.500000
O O9 0.878226 0.404260 0.250069
O O10 0.056638 0.500000 0.271104
O O11 0.500000 0.295137 0.500000
O O12 0.050747 0.250167 0.704595
O O13 0.897295 0.916820 0.303552
O O14 0.161321 0.848675 0.300559
O O15 0.664040 0.847768 0.991528
O O16 0.000000 0.500000 0.500000
#
# Coordination Sequence:
#
# PCOD9141523 Si02
#       8
#     4   2   2   4   2   4   4   2
#     4  11  19  35  56  81 108 143 182 219 263 318
#     4   9  19  35  55  79 101 145 183 213 260 333
#     4  10  18  32  53  79 107 146 183 214 261 321
#     4  11  22  35  55  81 112 143 179 222 269 316
#     4   9  19  35  55  75 109 142 179 212 268 330
#     4  10  20  35  59  80 107 139 183 222 265 319
#     4  10  20  37  55  82 108 141 177 225 269 315
#     4  10  16  32  55  77 107 143 184 218 251 324
#
# _framework density 22.766492
#
# number of rings (size 3 to 8) (size 9 to 14) (size 15 to 20)
#    0.000    1.833    5.000    0.500    2.333    2.000 
#    0.000    2.500    0.000    3.000    0.000    4.667 
#    0.000    0.000    0.000    0.000    0.000    0.000 
#
# Total GULP energy -133760.903147 kJ/mol
# GULP energy per Si atom -5573.370964 kJ/mol
# Density = 2.271467 g / cm^3
# Si number density = 22.766492 Si / 1000 Ang^3
#
#
#
# Elastic Constant Matrix: (Units=GPa)
#
#
# Indices 1 2 3 4 5 6 
#
# 1 128.3039 67.0100 27.9825 0.0000 -20.4011 0.0000
# 2 67.0100 217.9228 18.2928 0.0000 -18.4017 0.0000
# 3 27.9825 18.2928 43.2847 0.0000 2.2806 0.0000
# 4 0.0000 0.0000 0.0000 36.0047 0.0000 -10.2964
# 5 -20.4011 -18.4017 2.2806 0.0000 26.4905 0.0000
# 6 0.0000 0.0000 0.0000 -10.2964 0.0000 33.0689
#
#
#
# Elastic Compliance Matrix: (Units=1/GPa)
#
#
# Indices 1 2 3 4 5 6 
#
# 1 0.011868 -0.002369 -0.007098 0.000000 0.008105 0.000000
# 2 -0.002369 0.005576 -0.000937 0.000000 0.002129 0.000000
# 3 -0.007098 -0.000937 0.028540 0.000000 -0.008574 0.000000
# 4 0.000000 0.000000 0.000000 0.030489 0.000000 0.009493
# 5 0.008105 0.002129 -0.008574 0.000000 0.046209 0.000000
# 6 0.000000 0.000000 0.000000 0.009493 0.000000 0.033196
#
#
# Mechanical properties :
#
#
# Convention : Reuss Voigt Hill
#
# Bulk Modulus (GPa) = 39.72270 68.45358 54.08814
# Shear Modulus (GPa) = 27.01569 37.52789 32.27179
#
# Velocity S-wave (km/s) = 3.44850 4.06443 3.76907
# Velocity P-wave (km/s) = 5.77425 7.22213 6.53839
#
# Compressibility (1/GPa) = 0.02517452
#
# Stress axis : x y z
#
# Youngs Moduli (GPa) = 84.25812 179.34862 35.03914
#
# Poissons Ratio (x) = 0.42490 0.24872
# Poissons Ratio (y) = 0.19962 0.03283
# Poissons Ratio (z) = 0.59810 0.16805
#
# Static dielectric constant tensor:
#      x y z
#    x 1.851600 0.000000 0.046330 
#    y 0.000000 1.879430 0.000000 
#    z 0.046330 0.000000 1.951570 
# 
# From -- ./inp_files/61737.got.cif
#   From: 2010.05.17/outbox.cif.g08.bks.cpg/sg10_31_cif.got.tgz:61737.got - 2010.06.03 11:33:40.
