data_PCOD9141180
_publ_section_title
;
Structure prediction by ZEFSAII (Michael W. Deem and Ramdas Pophale) SiO2 
 PCOD9141180
Probable space group: C C
;
_chemical_formula_sum "Si O2"
_cell_formula_units_Z 28
_cell_length_a 18.283097
_cell_length_b 4.958572
_cell_length_c 27.211652
_cell_angle_alpha 90.000000
_cell_angle_beta 151.415129
_cell_angle_gamma 90.000000
_cell_volume 1180.339496
_symmetry_space_group_name_H-M "C C"
_symmetry_group_IT_number 9
_symmetry_cell_setting 'monoclinic'
loop_
_space_group_symop_operation_xyz
x,y,z
x,-y,1/2+z
1/2+x,1/2+y,z
1/2+x,1/2-y,1/2+z
loop_
_atom_site_type_symbol
_atom_site_label
_atom_site_fract_x
_atom_site_fract_y
_atom_site_fract_z
Si Si1 0.087450 0.811895 0.137120
Si Si2 0.230859 0.432181 0.514788
Si Si3 0.060481 0.292774 0.054890
Si Si4 0.310451 0.818162 0.826152
Si Si5 0.030014 0.935499 0.375496
Si Si6 0.857363 0.218834 0.677228
Si Si7 0.495625 0.040282 0.668456
O O1 0.111538 0.555088 0.115807
O O2 0.992532 0.693916 0.126345
O O3 0.009267 0.053995 0.060961
O O4 0.237278 0.938941 0.251445
O O5 0.281200 0.481355 0.600521
O O6 0.376514 0.268160 0.581631
O O7 0.169282 0.722498 0.462144
O O8 0.091233 0.230521 0.423370
O O9 0.207679 0.159640 0.114970
O O10 0.930621 0.380940 0.940048
O O11 0.405796 0.646464 0.842919
O O12 0.165771 0.664471 0.765126
O O13 0.963924 0.899161 0.282249
O O14 0.947046 0.411911 0.692137
#
# Coordination Sequence:
#
# PCOD9141180 Si02
#       7
#     4   4   4   4   4   4   4
#     4  12  28  53  75 117 160 208 263 330 391 472
#     4  12  28  52  76 118 163 205 263 329 393 475
#     4  12  29  48  88 110 158 213 272 319 403 465
#     4  12  28  52  83 122 157 210 268 335 390 482
#     4  12  29  50  87 114 159 212 273 321 403 466
#     4  12  28  50  83 119 157 209 270 329 396 477
#     4  12  28  53  78 118 174 203 263 335 400 473
#
# _framework density 23.721986999999999
#
# number of rings (size 3 to 8) (size 9 to 14) (size 15 to 20)
#    0.000    0.000    5.714    0.857   12.000    2.286 
#    0.000    0.000    0.000    0.000    0.000    0.000 
#    0.000    0.000    0.000    0.000    0.000    0.000 
#
# Total GULP energy -78367.137766 kJ/mol
# GULP energy per Si atom -5597.652698 kJ/mol
# Density = 2.366799 g / cm^3
# Si number density = 23.721987 Si / 1000 Ang^3
#
#
#
# Elastic Constant Matrix: (Units=GPa)
#
#
# Indices 1 2 3 4 5 6 
#
# 1 110.4289 18.5678 54.9423 -0.0360 -3.1384 0.0341
# 2 18.5678 88.9433 23.1107 -0.0444 -15.0246 0.0239
# 3 54.9423 23.1107 156.4756 -0.0078 -21.5548 0.0037
# 4 -0.0360 -0.0444 -0.0078 29.7257 -0.0036 0.9473
# 5 -3.1384 -15.0246 -21.5548 -0.0036 50.0224 -0.0064
# 6 0.0341 0.0239 0.0037 0.9473 -0.0064 40.5271
#
#
#
# Elastic Compliance Matrix: (Units=1/GPa)
#
#
# Indices 1 2 3 4 5 6 
#
# 1 0.011223 -0.001573 -0.003909 0.000010 -0.001452 -0.000009
# 2 -0.001573 0.012334 -0.000822 0.000017 0.003252 -0.000006
# 3 -0.003909 -0.000822 0.008310 -0.000004 0.003089 0.000004
# 4 0.000010 0.000017 -0.000004 0.033666 0.000007 -0.000787
# 5 -0.001452 0.003252 0.003089 0.000007 0.022208 0.000002
# 6 -0.000009 -0.000006 0.000004 -0.000787 0.000002 0.024693
#
#
# Mechanical properties :
#
#
# Convention : Reuss Voigt Hill
#
# Bulk Modulus (GPa) = 51.91579 61.00994 56.46287
# Shear Modulus (GPa) = 38.03407 41.33684 39.68546
#
# Velocity S-wave (km/s) = 4.00850 4.17892 4.09460
# Velocity P-wave (km/s) = 6.58458 7.00422 6.79764
#
# Compressibility (1/GPa) = 0.01926196
#
# Stress axis : x y z
#
# Youngs Moduli (GPa) = 89.09918 81.07498 120.33685
#
# Poissons Ratio (x) = 0.12751 0.47035
# Poissons Ratio (y) = 0.14013 0.09886
# Poissons Ratio (z) = 0.34825 0.06660
#
# Static dielectric constant tensor:
#      x y z
#    x 1.983400 -0.000010 0.055170 
#    y -0.000010 1.954800 0.000000 
#    z 0.055170 0.000000 1.899430 
# 
# From -- ./inp_files/36823.got.cif
#   From: 2010.05.17/outbox.cif.g08.bks.cpg/sg9_19_cif.got.tgz:36823.got - 2010.06.03 20:04:27.
