data_PCOD9141802
_publ_section_title
;
Structure prediction by ZEFSAII (Michael W. Deem and Ramdas Pophale) SiO2 
 PCOD9141802
Probable space group: P 2/M
;
_chemical_formula_sum "Si O2"
_cell_formula_units_Z 28
_cell_length_a 13.886857
_cell_length_b 7.836035
_cell_length_c 15.120459
_cell_angle_alpha 90.000000
_cell_angle_beta 103.426921
_cell_angle_gamma 90.000000
_cell_volume 1600.403285
_symmetry_space_group_name_H-M "P 2/M"
_symmetry_group_IT_number 10
_symmetry_cell_setting 'monoclinic'
loop_
_space_group_symop_operation_xyz
x,y,z
-x,y,-z
-x,-y,-z
x,-y,z
loop_
_atom_site_type_symbol
_atom_site_label
_atom_site_fract_x
_atom_site_fract_y
_atom_site_fract_z
Si Si1 0.071278 0.300545 0.390651
Si Si2 0.933440 0.200831 0.118687
Si Si3 0.781783 0.295090 0.939456
Si Si4 0.610684 0.794249 0.038913
Si Si5 0.240354 0.208321 0.783607
Si Si6 0.143476 0.304578 0.221992
Si Si7 0.856995 0.198659 0.409588
O O1 0.048877 0.500000 0.369529
O O2 0.125992 0.228628 0.315683
O O3 0.134463 0.286627 0.493765
O O4 0.966278 0.212630 0.388580
O O5 0.854304 0.254975 0.176494
O O6 0.034602 0.299732 0.154387
O O7 0.954756 0.000000 0.134032
O O8 0.875710 0.227040 0.014858
O O9 0.789423 0.500000 0.939152
O O10 0.786855 0.229370 0.839706
O O11 0.684560 0.247434 0.974112
O O12 0.664219 0.733664 0.140651
O O13 0.606210 0.000000 0.043810
O O14 0.500000 0.728948 0.000000
O O15 0.219876 0.267094 0.679635
O O16 0.241882 0.000000 0.781583
O O17 0.175782 0.500000 0.243201
O O18 0.836460 0.000000 0.421307
#
# Coordination Sequence:
#
# PCOD9141802 Si02
#       7
#     4   4   4   4   4   4   4
#     4  10  19  29  41  60  88 122 159 190 221 257
#     4  10  18  29  44  64  90 122 157 189 220 262
#     4  10  20  32  45  64  91 121 152 185 225 274
#     4   9  18  34  53  72  92 114 145 187 232 277
#     4   8  15  27  44  66  90 116 145 180 225 269
#     4  10  20  31  42  60  91 127 156 186 225 265
#     4  10  17  28  43  62  88 119 154 188 224 262
#
# _framework density 17.495591999999998
#
# number of rings (size 3 to 8) (size 9 to 14) (size 15 to 20)
#    0.000    2.429    1.429    3.857    0.000    3.714 
#    0.000    0.714    0.000    0.000    0.000    1.000 
#    0.000    8.000    0.000    0.000    0.000    0.000 
#
# Total GULP energy -156067.734286 kJ/mol
# GULP energy per Si atom -5573.847653 kJ/mol
# Density = 1.745577 g / cm^3
# Si number density = 17.495592 Si / 1000 Ang^3
#
#
#
# Elastic Constant Matrix: (Units=GPa)
#
#
# Indices 1 2 3 4 5 6 
#
# 1 63.7034 -3.7385 52.4789 0.0000 8.4769 0.0000
# 2 -3.7385 29.2678 -6.4870 0.0000 1.6758 0.0000
# 3 52.4789 -6.4870 147.1659 0.0000 -10.2566 0.0000
# 4 0.0000 0.0000 0.0000 31.2737 0.0000 -6.1909
# 5 8.4769 1.6758 -10.2566 0.0000 18.5067 0.0000
# 6 0.0000 0.0000 0.0000 -6.1909 0.0000 6.9931
#
#
#
# Elastic Compliance Matrix: (Units=1/GPa)
#
#
# Indices 1 2 3 4 5 6 
#
# 1 0.027369 0.002140 -0.010977 0.000000 -0.018814 0.000000
# 2 0.002140 0.034772 0.000501 0.000000 -0.003851 0.000000
# 3 -0.010977 0.000501 0.011524 0.000000 0.011369 0.000000
# 4 0.000000 0.000000 0.000000 0.038770 0.000000 0.034323
# 5 -0.018814 -0.003851 0.011369 0.000000 0.069301 0.000000
# 6 0.000000 0.000000 0.000000 0.034323 0.000000 0.173383
#
#
# Mechanical properties :
#
#
# Convention : Reuss Voigt Hill
#
# Bulk Modulus (GPa) = 17.54545 36.07155 26.80850
# Shear Modulus (GPa) = 12.79461 24.54696 18.67078
#
# Velocity S-wave (km/s) = 2.70720 3.74978 3.27030
# Velocity P-wave (km/s) = 4.45221 6.27774 5.44207
#
# Compressibility (1/GPa) = 0.05699484
#
# Stress axis : x y z
#
# Youngs Moduli (GPa) = 36.53702 28.75859 86.77722
#
# Poissons Ratio (x) = -0.06155 0.95253
# Poissons Ratio (y) = -0.07820 -0.04348
# Poissons Ratio (z) = 0.40106 -0.01441
#
# Static dielectric constant tensor:
#      x y z
#    x 1.569000 0.000000 -0.012990 
#    y 0.000000 1.631750 0.000000 
#    z -0.012990 0.000000 1.656340 
# 
# From -- ./inp_files/65783.got.cif
#   From: 2010.05.17/outbox.cif.g08.bks.cpg/sg10_33_cif.got.tgz:65783.got - 2010.06.03 11:33:40.
