data_PCOD9141164
_publ_section_title
;
Structure prediction by ZEFSAII (Michael W. Deem and Ramdas Pophale) SiO2 
 PCOD9141164
Probable space group: C C
;
_chemical_formula_sum "Si O2"
_cell_formula_units_Z 28
_cell_length_a 17.213085
_cell_length_b 6.863682
_cell_length_c 12.300590
_cell_angle_alpha 90.000000
_cell_angle_beta 66.491379
_cell_angle_gamma 90.000000
_cell_volume 1332.634884
_symmetry_space_group_name_H-M "C C"
_symmetry_group_IT_number 9
_symmetry_cell_setting 'monoclinic'
loop_
_space_group_symop_operation_xyz
x,y,z
x,-y,1/2+z
1/2+x,1/2+y,z
1/2+x,1/2-y,1/2+z
loop_
_atom_site_type_symbol
_atom_site_label
_atom_site_fract_x
_atom_site_fract_y
_atom_site_fract_z
Si Si1 0.790710 0.664712 0.496650
Si Si2 0.447185 0.955350 0.760181
Si Si3 0.137760 0.874176 0.572895
Si Si4 0.203096 0.506756 0.415950
Si Si5 0.350688 0.298168 0.692607
Si Si6 0.573788 0.810718 0.322529
Si Si7 0.483768 0.623426 0.564206
O O1 0.874882 0.630082 0.379135
O O2 0.726326 0.486681 0.516366
O O3 0.812627 0.686005 0.610725
O O4 0.744582 0.858490 0.478408
O O5 0.468637 0.801999 0.654455
O O6 0.410687 0.152402 0.726348
O O7 0.529196 0.012076 0.784259
O O8 0.146967 0.667936 0.507776
O O9 0.112430 0.832547 0.711232
O O10 0.066078 0.004395 0.557079
O O11 0.276944 0.616782 0.309226
O O12 0.145391 0.387130 0.364064
O O13 0.405326 0.477490 0.616065
O O14 0.502392 0.704364 0.434226
#
# Coordination Sequence:
#
# PCOD9141164 Si02
#       7
#     4   4   4   4   4   4   4
#     4  12  28  47  78 106 147 194 242 301 358 431
#     4  12  27  51  71 112 144 191 247 295 363 434
#     4  12  28  48  74 109 147 191 242 296 366 427
#     4  12  27  51  71 112 144 191 247 295 363 434
#     4  12  28  47  78 106 147 194 242 301 358 431
#     4  12  28  46  78 106 150 192 240 300 362 436
#     4  12  28  48  74 109 147 191 242 296 366 427
#
# _framework density 21.011006999999999
#
# number of rings (size 3 to 8) (size 9 to 14) (size 15 to 20)
#    0.000    0.000    5.714    2.571   12.000    2.286 
#    0.000    0.000    0.000    0.000    0.000    0.000 
#    0.000    0.000    0.000    0.000    0.000    0.000 
#
# Total GULP energy -78465.854598 kJ/mol
# GULP energy per Si atom -5604.703900 kJ/mol
# Density = 2.096318 g / cm^3
# Si number density = 21.011007 Si / 1000 Ang^3
#
#
#
# Elastic Constant Matrix: (Units=GPa)
#
#
# Indices 1 2 3 4 5 6 
#
# 1 46.7106 -14.8229 -12.2747 0.0000 0.9549 0.0000
# 2 -14.8229 56.0799 1.5072 0.0000 -6.7465 0.0000
# 3 -12.2747 1.5072 65.9890 0.0000 -8.6498 0.0000
# 4 0.0000 0.0000 0.0000 45.3679 0.0000 -7.8052
# 5 0.9549 -6.7465 -8.6498 0.0000 34.8586 0.0000
# 6 0.0000 0.0000 0.0000 -7.8052 0.0000 42.6626
#
#
#
# Elastic Compliance Matrix: (Units=1/GPa)
#
#
# Indices 1 2 3 4 5 6 
#
# 1 0.024700 0.006615 0.004675 0.000000 0.001764 0.000000
# 2 0.006615 0.020029 0.001300 0.000000 0.004018 0.000000
# 3 0.004675 0.001300 0.016548 0.000000 0.004230 0.000000
# 4 0.000000 0.000000 0.000000 0.022758 0.000000 0.004164
# 5 0.001764 0.004018 0.004230 0.000000 0.030466 0.000000
# 6 0.000000 0.000000 0.000000 0.004164 0.000000 0.024201
#
#
# Mechanical properties :
#
#
# Convention : Reuss Voigt Hill
#
# Bulk Modulus (GPa) = 11.56661 13.06651 12.31656
# Shear Modulus (GPa) = 35.12649 37.53580 36.33115
#
# Velocity S-wave (km/s) = 4.09322 4.23127 4.16281
# Velocity P-wave (km/s) = 5.27790 5.48670 5.38331
#
# Compressibility (1/GPa) = 0.08645574
#
# Stress axis : x y z
#
# Youngs Moduli (GPa) = 40.48582 49.92862 60.42909
#
# Poissons Ratio (x) = -0.33029 -0.28248
# Poissons Ratio (y) = -0.26782 -0.07854
# Poissons Ratio (z) = -0.18925 -0.06489
#
# Static dielectric constant tensor:
#      x y z
#    x 1.711120 0.000000 -0.015650 
#    y 0.000000 1.713570 0.000000 
#    z -0.015650 0.000000 1.720150 
# 
# From -- ./inp_files/18803.got.cif
#   From: 2010.05.17/outbox.cif.g08.bks.cpg/sg9_10_cif.got.tgz:18803.got - 2010.06.03 20:04:27.
