data_PCOD9141252
_publ_section_title
;
Structure prediction by ZEFSAII (Michael W. Deem and Ramdas Pophale) SiO2 
 PCOD9141252
Probable space group: C C
;
_chemical_formula_sum "Si O2"
_cell_formula_units_Z 14
_cell_length_a 12.000000
_cell_length_b 12.000000
_cell_length_c 12.000000
_cell_angle_alpha 90.000000
_cell_angle_beta 130.000000
_cell_angle_gamma 90.000000
_cell_volume 1323.724798
_symmetry_space_group_name_H-M "C C"
_symmetry_group_IT_number 9
_symmetry_cell_setting 'monoclinic'
loop_
_space_group_symop_operation_xyz
x,y,z
x,-y,1/2+z
1/2+x,1/2+y,z
1/2+x,1/2-y,1/2+z
loop_
_atom_site_type_symbol
_atom_site_label
_atom_site_fract_x
_atom_site_fract_y
_atom_site_fract_z
Si Si1 0.399870 0.931696 0.906610
Si Si2 0.939400 0.082629 0.269595
Si Si3 0.396219 0.685515 0.019132
Si Si4 0.695391 0.815111 0.772672
Si Si5 0.151670 0.942270 0.558670
Si Si6 0.862022 0.356515 0.515553
Si Si7 0.208116 0.509033 0.480064
O O1 0.266940 0.960995 0.734992
O O2 0.555910 0.966577 0.948164
O O3 0.386772 0.806049 0.951191
O O4 0.389376 0.015271 0.003398
O O5 0.969514 0.173600 0.190702
O O6 0.803349 0.133188 0.250536
O O7 0.854684 0.980988 0.150890
O O8 0.076981 0.040495 0.432215
O O9 0.507051 0.614671 0.014589
O O10 0.246481 0.612895 0.946818
O O11 0.523704 0.804150 0.633607
O O12 0.706045 0.899825 0.882697
O O13 0.772786 0.702093 0.860129
O O14 0.250039 0.859573 0.546383
#
# Coordination Sequence:
#
# PCOD9141252 Si02
#       7
#     4   4   4   4   4   4   4
#     4  12  26  50  76 115 152 200 268 326 390 479
#     4  10  23  49  76 103 153 200 247 325 392 466
#     4  10  25  47  78 111 150 207 254 322 396 475
#     4  12  25  49  73 105 151 204 251 319 402 466
#     4  12  25  45  76 113 150 195 258 325 388 476
#     4  12  29  44  75 108 150 203 253 320 393 479
#     4  10  23  50  76 103 152 201 257 317 397 469
#
# _framework density 10.576216000000001
#
# number of rings (size 3 to 8) (size 9 to 14) (size 15 to 20)
#    0.857    0.000    4.286    1.714    4.000    3.429 
#    7.714    0.000    0.000    0.000    0.000    0.000 
#    0.000    0.000    0.000    0.000    0.000    0.000 
#
# Total GULP energy -77986.532372 kJ/mol
# GULP energy per Si atom -5570.466598 kJ/mol
# Density = 1.055214 g / cm^3
# Si number density = 10.576216 Si / 1000 Ang^3
#
#
#
# Elastic Constant Matrix: (Units=GPa)
#
#
# Indices 1 2 3 4 5 6 
#
# 1 137.5748 35.4232 25.5463 0.0000 3.9050 0.0000
# 2 35.4232 98.7462 32.0927 0.0000 6.4514 0.0000
# 3 25.5463 32.0927 120.2537 0.0000 19.6851 0.0000
# 4 0.0000 0.0000 0.0000 34.6490 0.0000 -1.3014
# 5 3.9050 6.4514 19.6851 0.0000 41.7255 0.0000
# 6 0.0000 0.0000 0.0000 -1.3014 0.0000 20.9966
#
#
#
# Elastic Compliance Matrix: (Units=1/GPa)
#
#
# Indices 1 2 3 4 5 6 
#
# 1 0.008126 -0.002579 -0.001061 0.000000 0.000139 0.000000
# 2 -0.002579 0.011912 -0.002567 0.000000 -0.000389 0.000000
# 3 -0.001061 -0.002567 0.009910 0.000000 -0.004179 0.000000
# 4 0.000000 0.000000 0.000000 0.028928 0.000000 0.001793
# 5 0.000139 -0.000389 -0.004179 0.000000 0.025985 0.000000
# 6 0.000000 0.000000 0.000000 0.001793 0.000000 0.047738
#
#
# Mechanical properties :
#
#
# Convention : Reuss Voigt Hill
#
# Bulk Modulus (GPa) = 57.03300 60.29990 58.66645
# Shear Modulus (GPa) = 33.14357 37.04171 35.09264
#
# Velocity S-wave (km/s) = 3.96269 4.18925 4.07754
# Velocity P-wave (km/s) = 6.92522 7.20895 7.06851
#
# Compressibility (1/GPa) = 0.01753371
#
# Stress axis : x y z
#
# Youngs Moduli (GPa) = 123.06293 83.94826 100.90445
#
# Poissons Ratio (x) = 0.21653 0.10702
# Poissons Ratio (y) = 0.31743 0.25906
# Poissons Ratio (z) = 0.13052 0.21553
#
# Static dielectric constant tensor:
#      x y z
#    x 1.809330 0.000000 -0.050800 
#    y 0.000000 1.788030 0.000000 
#    z -0.050800 0.000000 1.815910 
# 
# From -- ./inp_files/16534.got.cif
#   From: 2010.05.17/outbox.ucp.g08.bks.cvg/sg9_9_cif.got.tgz:16534.got - 2010.06.11 13:03:20.
