data_PCOD9141852
_publ_section_title
;
Structure prediction by ZEFSAII (Michael W. Deem and Ramdas Pophale) SiO2 
 PCOD9141852
Probable space group: P 2/M
;
_chemical_formula_sum "Si O2"
_cell_formula_units_Z 28
_cell_length_a 32.779833
_cell_length_b 7.990101
_cell_length_c 9.971338
_cell_angle_alpha 90.000000
_cell_angle_beta 34.487085
_cell_angle_gamma 90.000000
_cell_volume 1478.761038
_symmetry_space_group_name_H-M "P 2/M"
_symmetry_group_IT_number 10
_symmetry_cell_setting 'monoclinic'
loop_
_space_group_symop_operation_xyz
x,y,z
-x,y,-z
-x,-y,-z
x,-y,z
loop_
_atom_site_type_symbol
_atom_site_label
_atom_site_fract_x
_atom_site_fract_y
_atom_site_fract_z
Si Si1 0.316925 0.704661 0.166597
Si Si2 0.758240 0.802450 0.137018
Si Si3 0.458706 0.305178 0.910902
Si Si4 0.601256 0.196681 0.643083
Si Si5 0.918103 0.295174 0.211485
Si Si6 0.193195 0.298326 0.709419
Si Si7 0.795405 0.300481 0.743922
O O1 0.319808 0.500000 0.159797
O O2 0.264079 0.754323 0.432597
O O3 0.275504 0.760601 0.144768
O O4 0.398174 0.762436 0.973258
O O5 0.676909 0.737295 0.382737
O O6 0.802373 0.764831 0.151910
O O7 0.752301 0.000000 0.136191
O O8 0.791702 0.734703 0.910160
O O9 0.472152 0.500000 0.846070
O O10 0.535522 0.217215 0.717450
O O11 0.421876 0.288863 0.157826
O O12 0.608293 0.000000 0.657245
O O13 0.919705 0.500000 0.208561
O O14 0.876055 0.245882 0.189816
O O15 0.866557 0.239113 0.473336
O O16 0.000000 0.236488 0.000000
O O17 0.193976 0.500000 0.710304
O O18 0.795444 0.500000 0.725484
#
# Coordination Sequence:
#
# PCOD9141852 Si02
#       7
#     4   4   4   4   4   4   4
#     4   8  15  29  49  74  96 120 164 212 249 289
#     4  11  22  34  47  70 104 137 171 207 241 290
#     4  10  17  28  49  73  95 121 163 214 254 294
#     4  10  20  31  43  65  99 133 165 205 250 291
#     4   8  15  31  57  86 106 122 156 206 252 294
#     4   9  16  30  54  77  99 129 164 204 246 294
#     4   9  18  33  54  75 100 132 162 201 250 298
#
# _framework density 18.93477
#
# number of rings (size 3 to 8) (size 9 to 14) (size 15 to 20)
#    0.000    2.714    1.429    3.857    0.000    1.714 
#    0.000    5.714    0.000   10.286    0.000    0.000 
#    0.000    0.000    0.000    0.000    0.000    0.000 
#
# Total GULP energy -156097.555668 kJ/mol
# GULP energy per Si atom -5574.912702 kJ/mol
# Density = 1.889167 g / cm^3
# Si number density = 18.934770 Si / 1000 Ang^3
#
#
#
# Elastic Constant Matrix: (Units=GPa)
#
#
# Indices 1 2 3 4 5 6 
#
# 1 120.4203 -8.8597 69.6504 0.0000 -9.9295 0.0000
# 2 -8.8597 11.0979 -2.1690 0.0000 -3.3366 0.0000
# 3 69.6504 -2.1690 84.9688 0.0000 -6.7086 0.0000
# 4 0.0000 0.0000 0.0000 -309.6601 0.0000 -223.4072
# 5 -9.9295 -3.3366 -6.7086 0.0000 34.6567 0.0000
# 6 0.0000 0.0000 0.0000 -223.4072 0.0000 -156.1212
#
#
#
# Elastic Compliance Matrix: (Units=1/GPa)
#
#
# Indices 1 2 3 4 5 6 
#
# 1 0.017411 0.012285 -0.013681 0.000000 0.003523 0.000000
# 2 0.012285 0.102284 -0.006503 0.000000 0.012108 0.000000
# 3 -0.013681 -0.006503 0.022807 0.000000 -0.000131 0.000000
# 4 0.000000 0.000000 0.000000 0.099677 0.000000 -0.142637
# 5 0.003523 0.012108 -0.000131 0.000000 0.031004 0.000000
# 6 0.000000 0.000000 0.000000 -0.142637 0.000000 0.197706
#
#
# Mechanical properties :
#
#
# Convention : Reuss Voigt Hill
#
# Bulk Modulus (GPa) = 7.89240 37.08118 22.48679
# Shear Modulus (GPa) = 9.45318 -75.70057 -33.12369
#
# Velocity S-wave (km/s) = 2.23681 -6.32981 -4.18707
# Velocity P-wave (km/s) = 3.29369 5.81341 3.38729
#
# Compressibility (1/GPa) = 0.12670423
#
# Stress axis : x y z
#
# Youngs Moduli (GPa) = 57.43350 9.77674 43.84624
#
# Poissons Ratio (x) = -0.12011 0.59985
# Poissons Ratio (y) = -0.70558 0.28515
# Poissons Ratio (z) = 0.78573 0.06358
#
# Static dielectric constant tensor:
#      x y z
#    x 1.678150 0.000000 -0.017100 
#    y 0.000000 1.669380 0.000000 
#    z -0.017100 0.000000 1.648000 
# 
# From -- ./inp_files/37915.got.cif
#   From: 2010.05.17/outbox.cif.g08.bks.cpg/sg10_19_cif.got.tgz:37915.got - 2010.06.03 11:33:40.
