data_PCOD9141966
_publ_section_title
;
Structure prediction by ZEFSAII (Michael W. Deem and Ramdas Pophale) SiO2 
 PCOD9141966
Probable space group: P 2/M
;
_chemical_formula_sum "Si O2"
_cell_formula_units_Z 32
_cell_length_a 17.403976
_cell_length_b 8.243315
_cell_length_c 17.349160
_cell_angle_alpha 90.000000
_cell_angle_beta 51.489879
_cell_angle_gamma 90.000000
_cell_volume 1947.655583
_symmetry_space_group_name_H-M "P 2/M"
_symmetry_group_IT_number 10
_symmetry_cell_setting 'monoclinic'
loop_
_space_group_symop_operation_xyz
x,y,z
-x,y,-z
-x,-y,-z
x,-y,z
loop_
_atom_site_type_symbol
_atom_site_label
_atom_site_fract_x
_atom_site_fract_y
_atom_site_fract_z
Si Si1 0.403909 0.193196 0.011185
Si Si2 0.547799 0.303898 0.187659
Si Si3 0.191062 0.695972 0.549221
Si Si4 0.675941 0.697466 0.676517
Si Si5 0.774273 0.696001 0.774502
Si Si6 0.358501 0.811470 0.542145
Si Si7 0.559261 0.691721 0.350989
Si Si8 0.990258 0.301661 0.596656
O O1 0.301831 0.244900 0.114041
O O2 0.410522 0.000000 0.008474
O O3 0.500000 0.256502 0.000000
O O4 0.405719 0.249552 0.921479
O O5 0.548005 0.500000 0.188490
O O6 0.435191 0.245920 0.255287
O O7 0.586056 0.251999 0.247995
O O8 0.189975 0.500000 0.553276
O O9 0.261395 0.749808 0.435345
O O10 0.248982 0.758477 0.587523
O O11 0.082551 0.749245 0.591429
O O12 0.675060 0.500000 0.675958
O O13 0.727730 0.748107 0.722374
O O14 0.774772 0.500000 0.777133
O O15 0.887538 0.749525 0.699302
O O16 0.442746 0.717444 0.440791
O O17 0.384090 0.778340 0.615202
O O18 0.371796 0.000000 0.517116
O O19 0.578222 0.500000 0.345172
O O20 0.990971 0.500000 0.593846
O O21 0.000000 0.251512 0.500000
#
# Coordination Sequence:
#
# PCOD9141966 Si02
#       8
#     4   4   4   4   4   4   4   4
#     4  11  23  34  45  67  99 134 167 200 240 287
#     4  10  19  32  51  73  92 124 168 205 243 287
#     4  10  17  30  49  72 100 131 167 204 243 287
#     4   9  15  25  46  71  95 125 162 201 239 278
#     4  10  18  31  50  71  96 128 167 208 244 281
#     4  11  21  31  45  70 103 135 164 194 238 295
#     4  10  19  33  52  72  95 125 163 206 251 291
#     4   9  16  27  50  78  98 122 165 214 249 280
#
# _framework density 16.430008999999998
#
# number of rings (size 3 to 8) (size 9 to 14) (size 15 to 20)
#    0.000    2.000    3.750    2.625    0.000    1.500 
#    0.000    1.250    0.000    0.750    0.000    0.875 
#    0.000    7.000    0.000    0.000    0.000    0.000 
#
# Total GULP energy -178378.720505 kJ/mol
# GULP energy per Si atom -5574.335016 kJ/mol
# Density = 1.639261 g / cm^3
# Si number density = 16.430009 Si / 1000 Ang^3
#
#
#
# Elastic Constant Matrix: (Units=GPa)
#
#
# Indices 1 2 3 4 5 6 
#
# 1 115.2713 5.6687 60.0859 0.0000 1.8467 0.0000
# 2 5.6687 13.1403 6.2430 0.0000 1.4745 0.0000
# 3 60.0859 6.2430 105.2290 0.0000 -1.1254 0.0000
# 4 0.0000 0.0000 0.0000 -15.5885 0.0000 -4.4215
# 5 1.8467 1.4745 -1.1254 0.0000 23.4043 0.0000
# 6 0.0000 0.0000 0.0000 -4.4215 0.0000 3.9910
#
#
#
# Elastic Compliance Matrix: (Units=1/GPa)
#
#
# Indices 1 2 3 4 5 6 
#
# 1 0.012438 -0.001905 -0.007002 0.000000 -0.001198 0.000000
# 2 -0.001905 0.079228 -0.003667 0.000000 -0.005017 0.000000
# 3 -0.007002 -0.003667 0.013734 0.000000 0.001444 0.000000
# 4 0.000000 0.000000 0.000000 -0.048812 0.000000 -0.054076
# 5 -0.001198 -0.005017 0.001444 0.000000 0.043207 0.000000
# 6 0.000000 0.000000 0.000000 -0.054076 0.000000 0.190654
#
#
# Mechanical properties :
#
#
# Convention : Reuss Voigt Hill
#
# Bulk Modulus (GPa) = 12.46043 41.95955 27.20999
# Shear Modulus (GPa) = 14.60510 13.13758 13.87134
#
# Velocity S-wave (km/s) = 2.98472 2.83080 2.90878
# Velocity P-wave (km/s) = 4.41345 6.02315 5.28001
#
# Compressibility (1/GPa) = 0.08025407
#
# Stress axis : x y z
#
# Youngs Moduli (GPa) = 80.40019 12.62177 72.81147
#
# Poissons Ratio (x) = 0.02404 0.50981
# Poissons Ratio (y) = 0.15313 0.26697
# Poissons Ratio (z) = 0.56295 0.04628
#
# Static dielectric constant tensor:
#      x y z
#    x 1.574290 0.000000 0.008480 
#    y 0.000000 1.563450 0.000000 
#    z 0.008480 0.000000 1.549780 
# 
# From -- ./inp_files/78519.got.cif
#   From: 2010.05.17/outbox.cif.g08.bks.cpg/sg10_40_cif.got.tgz:78519.got - 2010.06.03 11:33:40.
