data_PCOD9141796
_publ_section_title
;
Structure prediction by ZEFSAII (Michael W. Deem and Ramdas Pophale) SiO2 
 PCOD9141796
Probable space group: P 2/M
;
_chemical_formula_sum "Si O2"
_cell_formula_units_Z 32
_cell_length_a 23.402783
_cell_length_b 11.378492
_cell_length_c 11.333669
_cell_angle_alpha 90.000000
_cell_angle_beta 29.140075
_cell_angle_gamma 90.000000
_cell_volume 1469.616131
_symmetry_space_group_name_H-M "P 2/M"
_symmetry_group_IT_number 10
_symmetry_cell_setting 'monoclinic'
loop_
_space_group_symop_operation_xyz
x,y,z
-x,y,-z
-x,-y,-z
x,-y,z
loop_
_atom_site_type_symbol
_atom_site_label
_atom_site_fract_x
_atom_site_fract_y
_atom_site_fract_z
Si Si1 0.618782 0.209241 0.711532
Si Si2 0.630587 0.332930 0.301875
Si Si3 0.468425 0.867789 0.376356
Si Si4 0.275581 0.229727 0.080778
Si Si5 0.176511 0.134716 0.486449
Si Si6 0.096565 0.130739 0.245569
Si Si7 0.093363 0.141067 0.981320
Si Si8 0.242961 0.629447 0.677078
O O1 0.602072 0.140157 0.618766
O O2 0.719917 0.152625 0.607953
O O3 0.655889 0.338844 0.600169
O O4 0.500000 0.207818 0.000000
O O5 0.500000 0.377730 0.500000
O O6 0.600742 0.199860 0.397308
O O7 0.695571 0.375171 0.303450
O O8 0.710730 0.334815 0.039918
O O9 0.490436 0.000000 0.369315
O O10 0.591280 0.803260 0.130201
O O11 0.201685 0.226044 0.334556
O O12 0.211841 0.133244 0.115162
O O13 0.047978 0.147062 0.775733
O O14 0.183609 0.000000 0.427939
O O15 0.116551 0.169831 0.077808
O O16 0.000000 0.195874 0.500000
O O17 0.049954 0.000000 0.308845
O O18 0.125209 0.000000 0.900291
O O19 0.158065 0.256607 0.812724
O O20 0.190890 0.500000 0.750192
#
# Coordination Sequence:
#
# PCOD9141796 Si02
#       8
#     4   4   4   4   4   4   4   4
#     4  11  24  42  62  89 124 166 218 273 324 382
#     4   9  21  36  56  91 127 165 211 264 315 386
#     4  10  20  32  51  86 131 172 206 253 316 379
#     4  11  18  30  53  88 131 166 208 246 315 377
#     4  11  22  36  61  96 136 178 217 262 319 383
#     4  10  17  27  49  84 124 161 200 246 301 365
#     4  10  22  40  63  97 132 169 216 268 321 376
#     4  11  25  47  71  92 122 172 221 268 328 389
#
# _framework density 21.774394000000001
#
# number of rings (size 3 to 8) (size 9 to 14) (size 15 to 20)
#    0.000    1.625    3.750    1.500    0.000    7.250 
#    0.000    2.500    0.000    3.375    0.000    0.000 
#    0.000    0.000    0.000    0.000    0.000    0.000 
#
# Total GULP energy -178230.738178 kJ/mol
# GULP energy per Si atom -5569.710568 kJ/mol
# Density = 2.172483 g / cm^3
# Si number density = 21.774394 Si / 1000 Ang^3
#
#
#
# Elastic Constant Matrix: (Units=GPa)
#
#
# Indices 1 2 3 4 5 6 
#
# 1 106.5538 8.4165 23.2684 0.0000 -19.2672 0.0000
# 2 8.4165 81.2801 38.7182 0.0000 0.2562 0.0000
# 3 23.2684 38.7182 103.1884 0.0000 -2.5645 0.0000
# 4 0.0000 0.0000 0.0000 -14.7293 0.0000 -2.9339
# 5 -19.2672 0.2562 -2.5645 0.0000 37.1895 0.0000
# 6 0.0000 0.0000 0.0000 -2.9339 0.0000 -4.1088
#
#
#
# Elastic Compliance Matrix: (Units=1/GPa)
#
#
# Indices 1 2 3 4 5 6 
#
# 1 0.010882 -0.000049 -0.002299 0.000000 0.005479 0.000000
# 2 -0.000049 0.014990 -0.005626 0.000000 -0.000517 0.000000
# 3 -0.002299 -0.005626 0.012313 0.000000 -0.000303 0.000000
# 4 0.000000 0.000000 0.000000 -0.079149 0.000000 0.056518
# 5 0.005479 -0.000517 -0.000303 0.000000 0.029711 0.000000
# 6 0.000000 0.000000 0.000000 0.056518 0.000000 -0.283739
#
#
# Mechanical properties :
#
#
# Convention : Reuss Voigt Hill
#
# Bulk Modulus (GPa) = 44.97237 47.98092 46.47665
# Shear Modulus (GPa) = -18.40720 18.37823 -0.01448
#
# Velocity S-wave (km/s) = -2.91066 2.90837 -0.08165
# Velocity P-wave (km/s) = 3.06638 5.77594 4.62408
#
# Compressibility (1/GPa) = 0.02223588
#
# Stress axis : x y z
#
# Youngs Moduli (GPa) = 91.89769 66.71142 81.21470
#
# Poissons Ratio (x) = 0.00326 0.18673
# Poissons Ratio (y) = 0.00448 0.45694
# Poissons Ratio (z) = 0.21130 0.37534
#
# Static dielectric constant tensor:
#      x y z
#    x 1.844420 0.000000 0.024070 
#    y 0.000000 1.816190 0.000000 
#    z 0.024070 0.000000 1.904480 
# 
# From -- ./inp_files/56941.got.cif
#   From: 2010.05.17/outbox.cif.g08.bks.cpg/sg10_29_cif.got.tgz:56941.got - 2010.06.03 11:33:40.
