data_PCOD9141018
_publ_section_title
;
Structure prediction by ZEFSAII (Michael W. Deem and Ramdas Pophale) SiO2 
 PCOD9141018
Probable space group: C C
;
_chemical_formula_sum "Si O2"
_cell_formula_units_Z 28
_cell_length_a 8.972975
_cell_length_b 21.396253
_cell_length_c 9.224202
_cell_angle_alpha 90.000000
_cell_angle_beta 41.651293
_cell_angle_gamma 90.000000
_cell_volume 1176.956245
_symmetry_space_group_name_H-M "C C"
_symmetry_group_IT_number 9
_symmetry_cell_setting 'monoclinic'
loop_
_space_group_symop_operation_xyz
x,y,z
x,-y,1/2+z
1/2+x,1/2+y,z
1/2+x,1/2-y,1/2+z
loop_
_atom_site_type_symbol
_atom_site_label
_atom_site_fract_x
_atom_site_fract_y
_atom_site_fract_z
Si Si1 0.618050 0.186508 0.400030
Si Si2 0.043140 0.578311 0.264954
Si Si3 0.048586 0.797427 0.775137
Si Si4 0.480799 0.839674 0.306665
Si Si5 0.875171 0.768905 0.351537
Si Si6 0.543908 0.618618 0.566661
Si Si7 0.159887 0.542226 0.854209
O O1 0.683196 0.134196 0.235990
O O2 0.833770 0.209242 0.329840
O O3 0.485345 0.154743 0.630398
O O4 0.473484 0.239802 0.427536
O O5 0.798916 0.609886 0.427221
O O6 0.061002 0.520758 0.362098
O O7 0.102475 0.552541 0.063555
O O8 0.110397 0.724884 0.761367
O O9 0.235529 0.829091 0.543228
O O10 0.031231 0.842966 0.925321
O O11 0.573936 0.899801 0.319921
O O12 0.596000 0.757757 0.581035
O O13 0.911445 0.840314 0.281775
O O14 0.427374 0.551071 0.641161
#
# Coordination Sequence:
#
# PCOD9141018 Si02
#       7
#     4   4   4   4   4   4   4
#     4  12  26  46  76 116 158 207 257 328 402 487
#     4  12  29  51  80 105 153 206 274 327 406 480
#     4  12  26  43  77 113 157 201 251 329 407 484
#     4  12  25  44  74 112 156 199 256 322 403 483
#     4  12  28  46  80 124 168 209 266 330 413 491
#     4  12  28  49  81 114 157 212 263 337 408 490
#     4  12  28  51  76 110 151 206 269 337 397 489
#
# _framework density 23.790178999999998
#
# number of rings (size 3 to 8) (size 9 to 14) (size 15 to 20)
#    0.000    0.000    5.714    2.571    8.000    3.429 
#    0.000    0.000    0.000    0.000    0.000    0.000 
#    0.000    0.000    0.000    0.000    0.000    0.000 
#
# Total GULP energy -78124.068380 kJ/mol
# GULP energy per Si atom -5580.290599 kJ/mol
# Density = 2.373603 g / cm^3
# Si number density = 23.790179 Si / 1000 Ang^3
#
#
#
# Elastic Constant Matrix: (Units=GPa)
#
#
# Indices 1 2 3 4 5 6 
#
# 1 75.7057 38.2253 36.7156 0.0000 18.7939 0.0000
# 2 38.2253 102.1267 20.7751 0.0000 18.1737 0.0000
# 3 36.7156 20.7751 144.0332 0.0000 32.5695 0.0000
# 4 0.0000 0.0000 0.0000 23.6510 0.0000 14.4951
# 5 18.7939 18.1737 32.5695 0.0000 57.8418 0.0000
# 6 0.0000 0.0000 0.0000 14.4951 0.0000 44.1901
#
#
#
# Elastic Compliance Matrix: (Units=1/GPa)
#
#
# Indices 1 2 3 4 5 6 
#
# 1 0.018294 -0.005769 -0.003320 0.000000 -0.002262 0.000000
# 2 -0.005769 0.012287 0.000169 0.000000 -0.002081 0.000000
# 3 -0.003320 0.000169 0.008632 0.000000 -0.003835 0.000000
# 4 0.000000 0.000000 0.000000 0.052920 0.000000 -0.017359
# 5 -0.002262 -0.002081 -0.003835 0.000000 0.020837 0.000000
# 6 0.000000 0.000000 0.000000 -0.017359 0.000000 0.028323
#
#
# Mechanical properties :
#
#
# Convention : Reuss Voigt Hill
#
# Bulk Modulus (GPa) = 46.78856 57.03305 51.91081
# Shear Modulus (GPa) = 30.07394 40.21323 35.14359
#
# Velocity S-wave (km/s) = 3.55932 4.11582 3.84765
# Velocity P-wave (km/s) = 6.04992 6.82730 6.45033
#
# Compressibility (1/GPa) = 0.02137274
#
# Stress axis : x y z
#
# Youngs Moduli (GPa) = 54.66410 81.38584 115.85037
#
# Poissons Ratio (x) = 0.46954 0.38457
# Poissons Ratio (y) = 0.31537 -0.01958
# Poissons Ratio (z) = 0.18146 -0.01375
#
# Static dielectric constant tensor:
#      x y z
#    x 1.946080 0.000000 -0.040610 
#    y 0.000000 1.888540 0.000000 
#    z -0.040610 0.000000 2.062660 
# 
# From -- ./inp_files/5733.got.cif
#   From: 2010.05.17/outbox.cif.g08.bks.cpg/sg9_3_cif.got.tgz:5733.got - 2010.06.03 20:04:27.
