data_PCOD9141312
_publ_section_title
;
Structure prediction by ZEFSAII (Michael W. Deem and Ramdas Pophale) SiO2 
 PCOD9141312
Probable space group: P 2/M
;
_chemical_formula_sum "Si O2"
_cell_formula_units_Z 16
_cell_length_a 6.976980
_cell_length_b 12.520071
_cell_length_c 7.919369
_cell_angle_alpha 90.000000
_cell_angle_beta 101.401797
_cell_angle_gamma 90.000000
_cell_volume 678.122781
_symmetry_space_group_name_H-M "P 2/M"
_symmetry_group_IT_number 10
_symmetry_cell_setting 'monoclinic'
loop_
_space_group_symop_operation_xyz
x,y,z
-x,y,-z
-x,-y,-z
x,-y,z
loop_
_atom_site_type_symbol
_atom_site_label
_atom_site_fract_x
_atom_site_fract_y
_atom_site_fract_z
Si Si1 0.766798 0.766710 0.139400
Si Si2 0.772165 0.761493 0.759057
Si Si3 0.781958 0.000000 0.059596
Si Si4 0.341996 0.000000 0.324489
Si Si5 0.239538 0.622527 0.551302
O O1 0.694943 0.695416 0.280402
O O2 0.997835 0.741759 0.176702
O O3 0.760066 0.894052 0.164818
O O4 0.688774 0.753217 0.934600
O O5 0.754263 0.881485 0.679527
O O6 0.696741 0.676235 0.612599
O O7 0.000000 0.000000 0.000000
O O8 0.632747 0.000000 0.875816
O O9 0.500000 0.000000 0.500000
O O10 0.298908 0.500000 0.581095
O O11 0.000000 0.624145 0.500000
#
# Coordination Sequence:
#
# PCOD9141312 Si02
#       5
#     4   4   2   2   4
#     4   9  15  27  48  68  94 125 155 188 240 286
#     4   9  16  29  46  66  97 126 151 193 241 278
#     4  10  14  29  49  69  94 121 155 192 237 291
#     4  10  18  29  49  75  98 123 159 196 236 290
#     4   9  18  28  42  71  99 121 159 198 232 280
#
# _framework density 23.594546999999999
#
# number of rings (size 3 to 8) (size 9 to 14) (size 15 to 20)
#    0.000    2.750    5.000    0.000    0.000    2.000 
#    0.000    8.750    0.000   12.750    0.000    7.000 
#    0.000    0.000    0.000    0.000    0.000    0.000 
#
# Total GULP energy -89304.261301 kJ/mol
# GULP energy per Si atom -5581.516331 kJ/mol
# Density = 2.354085 g / cm^3
# Si number density = 23.594547 Si / 1000 Ang^3
#
#
#
# Elastic Constant Matrix: (Units=GPa)
#
#
# Indices 1 2 3 4 5 6 
#
# 1 84.6679 27.6128 44.4545 0.0000 -5.9557 0.0000
# 2 27.6128 221.1850 126.1178 0.0000 -38.0373 0.0000
# 3 44.4545 126.1178 196.4109 0.0000 -5.7268 0.0000
# 4 0.0000 0.0000 0.0000 10.5744 0.0000 -12.3290
# 5 -5.9557 -38.0373 -5.7268 0.0000 40.7844 0.0000
# 6 0.0000 0.0000 0.0000 -12.3290 0.0000 5.7066
#
#
#
# Elastic Compliance Matrix: (Units=1/GPa)
#
#
# Indices 1 2 3 4 5 6 
#
# 1 0.013539 0.000594 -0.003386 0.000000 0.002055 0.000000
# 2 0.000594 0.009024 -0.005704 0.000000 0.007702 0.000000
# 3 -0.003386 -0.005704 0.009389 0.000000 -0.004496 0.000000
# 4 0.000000 0.000000 0.000000 -0.062257 0.000000 -0.134506
# 5 0.002055 0.007702 -0.004496 0.000000 0.031371 0.000000
# 6 0.000000 0.000000 0.000000 -0.134506 0.000000 -0.115363
#
#
# Mechanical properties :
#
#
# Convention : Reuss Voigt Hill
#
# Bulk Modulus (GPa) = 66.84357 99.84822 83.34590
# Shear Modulus (GPa) = -54.16135 31.68499 -11.23818
#
# Velocity S-wave (km/s) = -4.79634 3.66853 -2.18481
# Velocity P-wave (km/s) = 1.51048 7.76881 5.38854
#
# Compressibility (1/GPa) = 0.01496030
#
# Stress axis : x y z
#
# Youngs Moduli (GPa) = 73.85812 110.81594 106.50375
#
# Poissons Ratio (x) = -0.06580 0.36060
# Poissons Ratio (y) = -0.04385 0.60752
# Poissons Ratio (z) = 0.25007 0.63212
#
# Static dielectric constant tensor:
#      x y z
#    x 2.099700 0.000000 0.016240 
#    y 0.000000 1.845890 0.000000 
#    z 0.016240 0.000000 1.855000 
# 
# From -- ./inp_files/17115.got.cif
#   From: 2010.05.17/outbox.cif.g08.bks.cpg/sg10_9_cif.got.tgz:17115.got - 2010.06.03 11:33:40.
