data_PCOD9141800
_publ_section_title
;
Structure prediction by ZEFSAII (Michael W. Deem and Ramdas Pophale) SiO2 
 PCOD9141800
Probable space group: P 2/M
;
_chemical_formula_sum "Si O2"
_cell_formula_units_Z 32
_cell_length_a 15.254003
_cell_length_b 18.559620
_cell_length_c 19.907512
_cell_angle_alpha 90.000000
_cell_angle_beta 20.280777
_cell_angle_gamma 90.000000
_cell_volume 1953.550858
_symmetry_space_group_name_H-M "P 2/M"
_symmetry_group_IT_number 10
_symmetry_cell_setting 'monoclinic'
loop_
_space_group_symop_operation_xyz
x,y,z
-x,y,-z
-x,-y,-z
x,-y,z
loop_
_atom_site_type_symbol
_atom_site_label
_atom_site_fract_x
_atom_site_fract_y
_atom_site_fract_z
Si Si1 0.226138 0.914320 0.668630
Si Si2 0.264606 0.418976 0.351708
Si Si3 0.129916 0.079940 0.332318
Si Si4 0.439290 0.677778 0.115751
Si Si5 0.470028 0.186734 0.153894
Si Si6 0.697701 0.913889 0.103667
Si Si7 0.134244 0.724126 0.503894
Si Si8 0.756781 0.145044 0.490248
O O1 0.500000 0.894046 0.500000
O O2 0.182193 0.874334 0.629789
O O3 0.229286 0.000000 0.651371
O O4 0.000085 0.903529 0.884735
O O5 0.323211 0.500000 0.330966
O O6 0.448798 0.383808 0.164380
O O7 0.241755 0.357154 0.424422
O O8 0.000000 0.421010 0.500000
O O9 0.340687 0.139980 0.188966
O O10 0.000000 0.080200 0.500000
O O11 0.933519 0.100704 0.415584
O O12 0.229475 0.000000 0.249143
O O13 0.604795 0.746017 0.020986
O O14 0.157106 0.711576 0.307242
O O15 0.500000 0.647245 0.000000
O O16 0.609495 0.129268 0.100513
O O17 0.276331 0.228256 0.344191
O O18 0.528588 0.879955 0.284701
O O19 0.645477 0.000000 0.136911
O O20 0.188577 0.771914 0.529965
#
# Coordination Sequence:
#
# PCOD9141800 Si02
#       8
#     4   4   4   4   4   4   4   4
#     4  10  23  40  52  67  92 122 165 217 257 289
#     4   8  15  28  44  59  84 124 165 195 218 261
#     4  11  17  24  43  66  92 126 156 193 235 277
#     4  10  18  25  38  61  92 130 160 187 229 270
#     4  10  17  28  41  62  94 126 156 190 226 280
#     4  10  20  32  50  71  90 120 164 203 246 296
#     4   9  17  29  43  63  91 125 159 186 230 277
#     4  11  20  33  51  71  94 127 162 198 246 291
#
# _framework density 16.380427999999998
#
# number of rings (size 3 to 8) (size 9 to 14) (size 15 to 20)
#    0.000    2.125    3.750    2.625    1.750    0.750 
#    0.000    1.875    0.000    3.000    0.000    0.000 
#    0.000    0.500    0.000   12.375    0.000   10.125 
#
# Total GULP energy -178159.985093 kJ/mol
# GULP energy per Si atom -5567.499534 kJ/mol
# Density = 1.634315 g / cm^3
# Si number density = 16.380428 Si / 1000 Ang^3
#
#
#
# Elastic Constant Matrix: (Units=GPa)
#
#
# Indices 1 2 3 4 5 6 
#
# 1 16.3889 5.6748 -3.0110 0.0000 4.5753 0.0000
# 2 5.6748 122.7779 11.6297 0.0000 0.5395 0.0000
# 3 -3.0110 11.6297 47.9378 0.0000 -0.6679 0.0000
# 4 0.0000 0.0000 0.0000 4.7293 0.0000 1.9371
# 5 4.5753 0.5395 -0.6679 0.0000 15.0144 0.0000
# 6 0.0000 0.0000 0.0000 1.9371 0.0000 12.1544
#
#
#
# Elastic Compliance Matrix: (Units=1/GPa)
#
#
# Indices 1 2 3 4 5 6 
#
# 1 0.068917 -0.003559 0.004904 0.000000 -0.020655 0.000000
# 2 -0.003559 0.008522 -0.002282 0.000000 0.000677 0.000000
# 3 0.004904 -0.002282 0.021716 0.000000 -0.000447 0.000000
# 4 0.000000 0.000000 0.000000 0.226216 0.000000 -0.036052
# 5 -0.020655 0.000677 -0.000447 0.000000 0.072853 0.000000
# 6 0.000000 0.000000 0.000000 -0.036052 0.000000 0.088020
#
#
# Mechanical properties :
#
#
# Convention : Reuss Voigt Hill
#
# Bulk Modulus (GPa) = 10.27939 23.96574 17.12257
# Shear Modulus (GPa) = 9.60535 17.90035 13.75285
#
# Velocity S-wave (km/s) = 2.42418 3.30932 2.90071
# Velocity P-wave (km/s) = 3.75827 5.40968 4.65775
#
# Compressibility (1/GPa) = 0.09728200
#
# Stress axis : x y z
#
# Youngs Moduli (GPa) = 14.51026 117.33722 46.04962
#
# Poissons Ratio (x) = 0.41762 -0.22584
# Poissons Ratio (y) = 0.05164 0.10507
# Poissons Ratio (z) = -0.07116 0.26772
#
# Static dielectric constant tensor:
#      x y z
#    x 1.551190 0.000000 0.032700 
#    y 0.000000 1.572930 0.000000 
#    z 0.032700 0.000000 1.645890 
# 
# From -- ./inp_files/85487.got.cif
#   From: 2010.05.17/outbox.cif.g08.bks.cpg/sg10_43_cif.got.tgz:85487.got - 2010.06.03 11:33:40.
