data_PCOD9141907
_publ_section_title
;
Structure prediction by ZEFSAII (Michael W. Deem and Ramdas Pophale) SiO2 
 PCOD9141907
Probable space group: P 2/M
;
_chemical_formula_sum "Si O2"
_cell_formula_units_Z 32
_cell_length_a 14.787129
_cell_length_b 7.918871
_cell_length_c 14.546494
_cell_angle_alpha 90.000000
_cell_angle_beta 73.022497
_cell_angle_gamma 90.000000
_cell_volume 1629.123002
_symmetry_space_group_name_H-M "P 2/M"
_symmetry_group_IT_number 10
_symmetry_cell_setting 'monoclinic'
loop_
_space_group_symop_operation_xyz
x,y,z
-x,y,-z
-x,-y,-z
x,-y,z
loop_
_atom_site_type_symbol
_atom_site_label
_atom_site_fract_x
_atom_site_fract_y
_atom_site_fract_z
Si Si1 0.499059 0.292964 0.392718
Si Si2 0.702650 0.702222 0.289216
Si Si3 0.112392 0.306718 0.865590
Si Si4 0.695933 0.293034 0.643903
Si Si5 0.815197 0.299227 0.437162
Si Si6 0.190019 0.694367 0.221775
Si Si7 0.095137 0.810649 0.069639
Si Si8 0.983713 0.196490 0.609385
O O1 0.500000 0.241755 0.500000
O O2 0.498969 0.500000 0.393626
O O3 0.595686 0.234185 0.315086
O O4 0.405286 0.240291 0.365810
O O5 0.698161 0.500000 0.272740
O O6 0.789926 0.767645 0.202482
O O7 0.735323 0.725717 0.384640
O O8 0.105053 0.500000 0.834154
O O9 0.013695 0.219501 0.868377
O O10 0.115217 0.304460 0.975602
O O11 0.697611 0.500000 0.643604
O O12 0.775103 0.238134 0.546480
O O13 0.727409 0.237796 0.736058
O O14 0.832813 0.500000 0.438049
O O15 0.912371 0.214291 0.378610
O O16 0.210418 0.500000 0.193722
O O17 0.163635 0.784417 0.135156
O O18 0.095643 0.704392 0.312399
O O19 0.103342 0.000000 0.031921
O O20 0.000000 0.257362 0.500000
O O21 0.955721 0.000000 0.615641
#
# Coordination Sequence:
#
# PCOD9141907 Si02
#       8
#     4   4   4   4   4   4   4   4
#     4   9  14  25  45  74 110 138 166 210 259 305
#     4   9  17  27  48  78 107 134 165 209 261 309
#     4  10  19  34  55  83 111 137 170 213 261 311
#     4   9  17  27  45  72 103 137 172 207 251 302
#     4  10  17  29  47  72 101 136 173 206 247 302
#     4  11  21  34  51  73 101 138 177 216 258 306
#     4  11  22  37  56  78 103 137 176 216 265 316
#     4  11  22  32  43  66 100 138 173 208 249 300
#
# _framework density 19.642468999999998
#
# number of rings (size 3 to 8) (size 9 to 14) (size 15 to 20)
#    0.000    2.000    2.500    3.750    0.000    1.500 
#    0.000    0.625    0.000    0.750    0.000   14.000 
#    0.000    0.000    0.000    0.000    0.000    0.000 
#
# Total GULP energy -178588.305086 kJ/mol
# GULP energy per Si atom -5580.884534 kJ/mol
# Density = 1.959776 g / cm^3
# Si number density = 19.642469 Si / 1000 Ang^3
#
#
#
# Elastic Constant Matrix: (Units=GPa)
#
#
# Indices 1 2 3 4 5 6 
#
# 1 128.5427 3.3767 33.8167 0.0000 8.1604 0.0000
# 2 3.3767 27.6801 1.5444 0.0000 5.3619 0.0000
# 3 33.8167 1.5444 61.9519 0.0000 5.4369 0.0000
# 4 0.0000 0.0000 0.0000 -10.9943 0.0000 9.8267
# 5 8.1604 5.3619 5.4369 0.0000 28.5260 0.0000
# 6 0.0000 0.0000 0.0000 9.8267 0.0000 -17.3338
#
#
#
# Elastic Compliance Matrix: (Units=1/GPa)
#
#
# Indices 1 2 3 4 5 6 
#
# 1 0.009172 -0.000539 -0.004853 0.000000 -0.001598 0.000000
# 2 -0.000539 0.037530 -0.000037 0.000000 -0.006893 0.000000
# 3 -0.004853 -0.000037 0.018987 0.000000 -0.002224 0.000000
# 4 0.000000 0.000000 0.000000 -0.184386 0.000000 -0.104531
# 5 -0.001598 -0.006893 -0.002224 0.000000 0.037232 0.000000
# 6 0.000000 0.000000 0.000000 -0.104531 0.000000 -0.116950
#
#
# Mechanical properties :
#
#
# Convention : Reuss Voigt Hill
#
# Bulk Modulus (GPa) = 18.23741 32.85003 25.54372
# Shear Modulus (GPa) = -29.53643 12.00204 -8.76720
#
# Velocity S-wave (km/s) = -3.88197 2.47457 -2.11497
# Velocity P-wave (km/s) = 3.28452 4.99249 2.65866
#
# Compressibility (1/GPa) = 0.05483234
#
# Stress axis : x y z
#
# Youngs Moduli (GPa) = 109.03040 26.64524 52.66891
#
# Poissons Ratio (x) = 0.01435 0.25559
# Poissons Ratio (y) = 0.05873 0.00193
# Poissons Ratio (z) = 0.52910 0.00098
#
# Static dielectric constant tensor:
#      x y z
#    x 1.710070 0.000000 0.015280 
#    y 0.000000 1.692250 0.000000 
#    z 0.015280 0.000000 1.692990 
# 
# From -- ./inp_files/66066.got.cif
#   From: 2010.05.17/outbox.cif.g08.bks.cpg/sg10_34_cif.got.tgz:66066.got - 2010.06.03 11:33:40.
