data_PCOD9141595
_publ_section_title
;
Structure prediction by ZEFSAII (Michael W. Deem and Ramdas Pophale) SiO2 
 PCOD9141595
Probable space group: P 2/M
;
_chemical_formula_sum "Si O2"
_cell_formula_units_Z 28
_cell_length_a 16.085305
_cell_length_b 7.842848
_cell_length_c 33.094036
_cell_angle_alpha 90.000000
_cell_angle_beta 25.953900
_cell_angle_gamma 90.000000
_cell_volume 1827.164383
_symmetry_space_group_name_H-M "P 2/M"
_symmetry_group_IT_number 10
_symmetry_cell_setting 'monoclinic'
loop_
_space_group_symop_operation_xyz
x,y,z
-x,y,-z
-x,-y,-z
x,-y,z
loop_
_atom_site_type_symbol
_atom_site_label
_atom_site_fract_x
_atom_site_fract_y
_atom_site_fract_z
Si Si1 0.264579 0.309899 0.285156
Si Si2 0.787930 0.000000 0.542883
Si Si3 0.752026 0.000000 0.650450
Si Si4 0.812545 0.299816 0.472113
Si Si5 0.675266 0.794048 0.951988
Si Si6 0.909945 0.298027 0.778082
Si Si7 0.698313 0.707677 0.431589
Si Si8 0.435626 0.199176 0.128363
O O1 0.282319 0.500000 0.294220
O O2 0.312577 0.166447 0.296809
O O3 0.387293 0.291492 0.190963
O O4 0.042744 0.285738 0.369569
O O5 0.701372 0.000000 0.625450
O O6 0.743704 0.169431 0.536427
O O7 0.017425 0.000000 0.447893
O O8 0.769815 0.500000 0.498701
O O9 0.729796 0.249373 0.464726
O O10 0.858512 0.733584 0.847416
O O11 0.677082 0.000000 0.951609
O O12 0.500000 0.737832 0.000000
O O13 0.613905 0.737587 0.023558
O O14 0.898587 0.500000 0.775052
O O15 0.748151 0.214031 0.820752
O O16 0.117135 0.236242 0.674282
O O17 0.500000 0.769229 0.500000
O O18 0.696468 0.500000 0.430654
O O19 0.463498 0.000000 0.125360
#
# Coordination Sequence:
#
# PCOD9141595 Si02
#       8
#     4   2   2   4   4   4   4   4
#     4  10  17  26  42  62  83 109 142 173 205 250
#     4   9  18  30  45  58  81 105 141 175 210 259
#     4   9  18  30  40  62  82 108 133 172 220 250
#     4   9  17  29  44  60  79 111 144 175 215 248
#     4   8  16  27  36  52  76 107 139 169 208 247
#     4  10  17  25  39  57  76 105 145 183 212 243
#     4   9  17  29  43  59  82 112 146 183 220 248
#     4  10  17  26  40  55  80 113 142 171 208 251
#
# _framework density 15.324293000000001
#
# number of rings (size 3 to 8) (size 9 to 14) (size 15 to 20)
#    0.000    2.714    2.143    1.714    0.000    3.714 
#    1.286    3.214    0.000    0.000    0.000    0.000 
#    0.000    0.000    0.000    2.571    0.000   16.143 
#
# Total GULP energy -155921.747643 kJ/mol
# GULP energy per Si atom -5568.633844 kJ/mol
# Density = 1.528941 g / cm^3
# Si number density = 15.324293 Si / 1000 Ang^3
#
#
#
# Elastic Constant Matrix: (Units=GPa)
#
#
# Indices 1 2 3 4 5 6 
#
# 1 70.1621 37.7587 52.6679 0.0000 24.1290 0.0000
# 2 37.7587 65.1473 23.8636 0.0000 18.1013 0.0000
# 3 52.6679 23.8636 75.2924 0.0000 24.5546 0.0000
# 4 0.0000 0.0000 0.0000 4.6980 0.0000 9.8729
# 5 24.1290 18.1013 24.5546 0.0000 24.8673 0.0000
# 6 0.0000 0.0000 0.0000 9.8729 0.0000 2.5758
#
#
#
# Elastic Compliance Matrix: (Units=1/GPa)
#
#
# Indices 1 2 3 4 5 6 
#
# 1 0.040095 -0.013147 -0.021112 0.000000 -0.008488 0.000000
# 2 -0.013147 0.023816 0.004634 0.000000 -0.009155 0.000000
# 3 -0.021112 0.004634 0.030975 0.000000 -0.013473 0.000000
# 4 0.000000 0.000000 0.000000 -0.030170 0.000000 0.115643
# 5 -0.008488 -0.009155 -0.013473 0.000000 0.068418 0.000000
# 6 0.000000 0.000000 0.000000 0.115643 0.000000 -0.055028
#
#
# Mechanical properties :
#
#
# Convention : Reuss Voigt Hill
#
# Bulk Modulus (GPa) = 28.06171 48.79801 38.42986
# Shear Modulus (GPa) = 33.50491 12.84900 23.17695
#
# Velocity S-wave (km/s) = 4.68096 2.89878 3.89322
# Velocity P-wave (km/s) = 6.89687 6.56632 6.73363
#
# Compressibility (1/GPa) = 0.03563575
#
# Stress axis : x y z
#
# Youngs Moduli (GPa) = 24.94108 41.98875 32.28442
#
# Poissons Ratio (x) = 0.55201 0.68157
# Poissons Ratio (y) = 0.32789 -0.14959
# Poissons Ratio (z) = 0.52654 -0.19456
#
# Static dielectric constant tensor:
#      x y z
#    x 1.479430 0.000000 0.025690 
#    y 0.000000 1.543470 0.000000 
#    z 0.025690 0.000000 1.527120 
# 
# From -- ./inp_files/95189.got.cif
#   From: 2010.05.17/outbox.cif.g08.bks.cpg/sg10_48_cif.got.tgz:95189.got - 2010.06.03 11:33:40.
