data_PCOD9141915
_publ_section_title
;
Structure prediction by ZEFSAII (Michael W. Deem and Ramdas Pophale) SiO2 
 PCOD9141915
Probable space group: P 2/M
;
_chemical_formula_sum "Si O2"
_cell_formula_units_Z 32
_cell_length_a 26.700788
_cell_length_b 7.614147
_cell_length_c 15.010238
_cell_angle_alpha 90.000000
_cell_angle_beta 154.051970
_cell_angle_gamma 90.000000
_cell_volume 1335.261347
_symmetry_space_group_name_H-M "P 2/M"
_symmetry_group_IT_number 10
_symmetry_cell_setting 'monoclinic'
loop_
_space_group_symop_operation_xyz
x,y,z
-x,y,-z
-x,-y,-z
x,-y,z
loop_
_atom_site_type_symbol
_atom_site_label
_atom_site_fract_x
_atom_site_fract_y
_atom_site_fract_z
Si Si1 0.443575 0.208657 0.241160
Si Si2 0.535702 0.302514 0.158173
Si Si3 0.282869 0.710825 0.131157
Si Si4 0.691638 0.805092 0.130583
Si Si5 0.709809 0.291461 0.657777
Si Si6 0.050007 0.284396 0.675612
Si Si7 0.112491 0.296450 0.426580
Si Si8 0.793537 0.285365 0.606313
O O1 0.402260 0.247467 0.274657
O O2 0.572396 0.267757 0.423978
O O3 0.441345 0.000000 0.226035
O O4 0.339747 0.284583 0.013416
O O5 0.530757 0.500000 0.189420
O O6 0.664458 0.239870 0.370760
O O7 0.500000 0.317544 0.000000
O O8 0.438131 0.184972 0.042855
O O9 0.275518 0.500000 0.125207
O O10 0.269248 0.780586 0.209861
O O11 0.178191 0.773098 0.902503
O O12 0.768060 0.710751 0.326787
O O13 0.740962 0.000000 0.198102
O O14 0.730392 0.500000 0.692784
O O15 0.789312 0.225592 0.703018
O O16 0.045608 0.500000 0.667262
O O17 0.000000 0.227546 0.500000
O O18 0.975849 0.223643 0.642276
O O19 0.080645 0.500000 0.362768
O O20 0.128184 0.222677 0.351350
O O21 0.803709 0.500000 0.623142
#
# Coordination Sequence:
#
# PCOD9141915 Si02
#       8
#     4   4   4   4   4   4   4   4
#     4  11  23  36  52  78 110 144 179 215 265 324
#     4  10  17  29  48  70 101 142 182 211 250 314
#     4  10  21  37  57  81 104 134 179 226 268 311
#     4  11  22  32  46  76 112 140 173 218 266 308
#     4  10  20  35  55  78 108 141 176 219 263 312
#     4   9  18  34  57  83 106 132 173 224 269 310
#     4  10  19  34  56  78 105 144 184 217 258 318
#     4   9  17  30  50  77 106 140 178 213 256 313
#
# _framework density 23.965346
#
# number of rings (size 3 to 8) (size 9 to 14) (size 15 to 20)
#    0.000    2.000    2.500    1.875    0.000    4.750 
#    0.000    1.875    0.000    6.000    0.000    0.000 
#    0.000    3.000    0.000    0.000    0.000    0.000 
#
# Total GULP energy -178442.052174 kJ/mol
# GULP energy per Si atom -5576.314130 kJ/mol
# Density = 2.391080 g / cm^3
# Si number density = 23.965346 Si / 1000 Ang^3
#
#
#
# Elastic Constant Matrix: (Units=GPa)
#
#
# Indices 1 2 3 4 5 6 
#
# 1 220.7607 7.1098 40.4484 0.0000 -16.8157 0.0000
# 2 7.1098 49.2895 -1.7281 0.0000 -1.5010 0.0000
# 3 40.4484 -1.7281 42.7540 0.0000 -18.0247 0.0000
# 4 0.0000 0.0000 0.0000 -1.3140 0.0000 0.7063
# 5 -16.8157 -1.5010 -18.0247 0.0000 39.0577 0.0000
# 6 0.0000 0.0000 0.0000 0.7063 0.0000 -45.3330
#
#
#
# Elastic Compliance Matrix: (Units=1/GPa)
#
#
# Indices 1 2 3 4 5 6 
#
# 1 0.005527 -0.000987 -0.005316 0.000000 -0.000112 0.000000
# 2 -0.000987 0.020559 0.002382 0.000000 0.001464 0.000000
# 3 -0.005316 0.002382 0.034253 0.000000 0.013610 0.000000
# 4 0.000000 0.000000 0.000000 -0.767454 0.000000 -0.011956
# 5 -0.000112 0.001464 0.013610 0.000000 0.031892 0.000000
# 6 0.000000 0.000000 0.000000 -0.011956 0.000000 -0.022245
#
#
# Mechanical properties :
#
#
# Convention : Reuss Voigt Hill
#
# Bulk Modulus (GPa) = 19.04858 44.94052 31.99455
# Shear Modulus (GPa) = -7.43907 16.28041 4.42067
#
# Velocity S-wave (km/s) = -1.76376 2.60923 1.35964
# Velocity P-wave (km/s) = 1.95394 5.27924 3.98047
#
# Compressibility (1/GPa) = 0.05249736
#
# Stress axis : x y z
#
# Youngs Moduli (GPa) = 180.92713 48.64102 29.19440
#
# Poissons Ratio (x) = 0.04801 0.15520
# Poissons Ratio (y) = 0.17858 -0.06955
# Poissons Ratio (z) = 0.96180 -0.11587
#
# Static dielectric constant tensor:
#      x y z
#    x 2.031690 0.000000 -0.066390 
#    y 0.000000 1.957600 0.000000 
#    z -0.066390 0.000000 1.930350 
# 
# From -- ./inp_files/72221.got.cif
#   From: 2010.05.17/outbox.cif.g08.bks.cpg/sg10_37_cif.got.tgz:72221.got - 2010.06.03 11:33:40.
