data_PCOD9141139
_publ_section_title
;
Structure prediction by ZEFSAII (Michael W. Deem and Ramdas Pophale) SiO2 
 PCOD9141139
Probable space group: C C
;
_chemical_formula_sum "Si O2"
_cell_formula_units_Z 24
_cell_length_a 7.226923
_cell_length_b 16.566372
_cell_length_c 10.688922
_cell_angle_alpha 90.000000
_cell_angle_beta 138.181589
_cell_angle_gamma 90.000000
_cell_volume 853.281022
_symmetry_space_group_name_H-M "C C"
_symmetry_group_IT_number 9
_symmetry_cell_setting 'monoclinic'
loop_
_space_group_symop_operation_xyz
x,y,z
x,-y,1/2+z
1/2+x,1/2+y,z
1/2+x,1/2-y,1/2+z
loop_
_atom_site_type_symbol
_atom_site_label
_atom_site_fract_x
_atom_site_fract_y
_atom_site_fract_z
Si Si1 0.822280 0.478826 0.154460
Si Si2 0.039673 0.954538 0.275420
Si Si3 0.173636 0.382012 0.923491
Si Si4 0.696661 0.296393 0.493519
Si Si5 0.344709 0.685064 0.279624
Si Si6 0.232738 0.341691 0.448900
O O1 0.226898 0.437011 0.072692
O O2 0.519752 0.670560 0.020818
O O3 0.047708 0.407434 0.282521
O O4 0.633277 0.490391 0.936391
O O5 0.133364 0.862752 0.355171
O O6 0.165355 0.982004 0.207605
O O7 0.080625 0.294771 0.924163
O O8 0.529287 0.213000 0.153230
O O9 0.422416 0.358662 0.949964
O O10 0.992953 0.437250 0.742268
O O11 0.554695 0.758822 0.364094
O O12 0.307913 0.637562 0.130770
#
# Coordination Sequence:
#
# PCOD9141139 Si02
#       6
#     4   4   4   4   4   4
#     4  12  28  54  79 124 172 232 289 362 448 519
#     4  12  30  52  83 121 176 232 286 369 440 522
#     4  12  27  50  85 115 176 223 291 364 433 522
#     4  12  27  55  84 124 169 233 294 363 434 535
#     4  12  26  54  83 126 172 229 297 369 433 537
#     4  12  30  49  88 128 171 237 299 359 456 525
#
# _framework density 28.126726000000001
#
# number of rings (size 3 to 8) (size 9 to 14) (size 15 to 20)
#    0.000    0.000    5.000    2.000    9.333    1.333 
#    0.000    0.000    0.000    0.000    0.000    0.000 
#    0.000    0.000    0.000    0.000    0.000    0.000 
#
# Total GULP energy -67170.417796 kJ/mol
# GULP energy per Si atom -5597.534816 kJ/mol
# Density = 2.806271 g / cm^3
# Si number density = 28.126726 Si / 1000 Ang^3
#
#
#
# Elastic Constant Matrix: (Units=GPa)
#
#
# Indices 1 2 3 4 5 6 
#
# 1 148.7865 47.2872 51.5868 0.0001 -27.2233 0.0002
# 2 47.2872 138.5841 64.1311 0.0000 -22.4840 0.0000
# 3 51.5868 64.1311 219.8837 0.0000 -36.1174 0.0001
# 4 0.0001 0.0000 0.0000 65.3579 0.0001 -8.1621
# 5 -27.2233 -22.4840 -36.1174 0.0001 52.9268 0.0002
# 6 0.0002 0.0000 0.0001 -8.1621 0.0002 47.9445
#
#
#
# Elastic Compliance Matrix: (Units=1/GPa)
#
#
# Indices 1 2 3 4 5 6 
#
# 1 0.008147 -0.001916 -0.000899 0.000000 0.002763 0.000000
# 2 -0.001916 0.009009 -0.001927 0.000000 0.001527 0.000000
# 3 -0.000899 -0.001927 0.005756 0.000000 0.002647 0.000000
# 4 0.000000 0.000000 0.000000 0.015633 0.000000 0.002661
# 5 0.002763 0.001527 0.002647 0.000000 0.022770 0.000000
# 6 0.000000 0.000000 0.000000 0.002661 0.000000 0.021310
#
#
# Mechanical properties :
#
#
# Convention : Reuss Voigt Hill
#
# Bulk Modulus (GPa) = 74.47067 92.58495 83.52781
# Shear Modulus (GPa) = 51.76805 56.19577 53.98191
#
# Velocity S-wave (km/s) = 4.29479 4.47469 4.38566
# Velocity P-wave (km/s) = 7.15038 7.72565 7.44358
#
# Compressibility (1/GPa) = 0.01342810
#
# Stress axis : x y z
#
# Youngs Moduli (GPa) = 122.74284 110.99896 173.74458
#
# Poissons Ratio (x) = 0.21264 0.15615
# Poissons Ratio (y) = 0.23514 0.33488
# Poissons Ratio (z) = 0.11032 0.21394
#
# Static dielectric constant tensor:
#      x y z
#    x 2.157560 0.000000 0.079540 
#    y 0.000000 2.262400 0.000000 
#    z 0.079540 0.000000 2.399930 
# 
# From -- ./inp_files/17078.got.cif
#   From: 2010.05.17/outbox.cif.g08.bks.cpg/sg9_9_cif.got.tgz:17078.got - 2010.06.03 20:04:27.
