data_PCOD9141229
_publ_section_title
;
Structure prediction by ZEFSAII (Michael W. Deem and Ramdas Pophale) SiO2 
 PCOD9141229
Probable space group: C C
;
_chemical_formula_sum "Si O2"
_cell_formula_units_Z 16
_cell_length_a 15.000000
_cell_length_b 21.000000
_cell_length_c 15.000000
_cell_angle_alpha 90.000000
_cell_angle_beta 160.000000
_cell_angle_gamma 90.000000
_cell_volume 1616.045177
_symmetry_space_group_name_H-M "C C"
_symmetry_group_IT_number 9
_symmetry_cell_setting 'monoclinic'
loop_
_space_group_symop_operation_xyz
x,y,z
x,-y,1/2+z
1/2+x,1/2+y,z
1/2+x,1/2-y,1/2+z
loop_
_atom_site_type_symbol
_atom_site_label
_atom_site_fract_x
_atom_site_fract_y
_atom_site_fract_z
Si Si1 0.402030 0.711396 0.246200
Si Si2 0.135211 0.585094 0.589389
Si Si3 0.149005 0.705389 0.503578
Si Si4 0.086052 0.395771 0.786662
Si Si5 0.649571 0.416819 0.900455
Si Si6 0.757745 0.210571 0.319559
Si Si7 0.203040 0.457152 0.355841
Si Si8 0.686072 0.452546 0.530952
O O1 0.628394 0.764829 0.448220
O O2 0.529442 0.647120 0.328360
O O3 0.331293 0.703300 0.284533
O O4 0.084591 0.660810 0.529013
O O5 0.150062 0.555832 0.701885
O O6 0.919161 0.551130 0.323114
O O7 0.425948 0.577017 0.824901
O O8 0.177427 0.653536 0.450111
O O9 0.907627 0.752448 0.257433
O O10 0.148065 0.354900 0.757281
O O11 0.196499 0.467556 0.876582
O O12 0.794313 0.413521 0.546775
O O13 0.478352 0.431396 0.651043
O O14 0.615004 0.476270 0.934902
O O15 0.959386 0.420536 0.173219
O O16 0.024418 0.238029 0.612392
#
# Coordination Sequence:
#
# PCOD9141229 Si02
#       8
#     4   4   4   4   4   4   4   4
#     4  10  22  41  62  90 123 163 213 261 316 384
#     4  11  23  43  61  94 131 167 217 268 322 389
#     4  11  22  38  64  88 125 169 206 259 315 390
#     4  10  22  40  61  96 124 167 209 258 325 381
#     4  11  22  42  64  91 124 167 214 270 319 379
#     4  10  22  38  58  91 128 160 203 253 308 388
#     4  11  25  41  65  95 129 163 220 275 318 383
#     4  10  22  39  65  91 128 168 212 258 323 392
#
# _framework density 9.9007129999999997
#
# number of rings (size 3 to 8) (size 9 to 14) (size 15 to 20)
#    0.000    1.500    0.000    6.000    1.750    5.000 
#    4.500    3.750    0.000    0.000    0.000    0.000 
#    0.000    0.000    0.000    0.000    0.000    0.000 
#
# Total GULP energy -89282.231493 kJ/mol
# GULP energy per Si atom -5580.139468 kJ/mol
# Density = 0.987818 g / cm^3
# Si number density = 9.900713 Si / 1000 Ang^3
#
#
#
# Elastic Constant Matrix: (Units=GPa)
#
#
# Indices 1 2 3 4 5 6 
#
# 1 49.0355 46.0497 16.1045 -0.0002 5.0776 0.0004
# 2 46.0497 119.7070 29.6728 -0.0022 1.4232 -0.0001
# 3 16.1045 29.6728 115.4855 0.0027 2.8628 0.0015
# 4 -0.0002 -0.0022 0.0027 24.9101 0.0015 1.6759
# 5 5.0776 1.4232 2.8628 0.0015 31.6296 0.0009
# 6 0.0004 -0.0001 0.0015 1.6759 0.0009 33.2109
#
#
#
# Elastic Compliance Matrix: (Units=1/GPa)
#
#
# Indices 1 2 3 4 5 6 
#
# 1 0.032789 -0.012233 -0.001315 0.000000 -0.004594 0.000000
# 2 -0.012233 0.013487 -0.001797 0.000001 0.001520 0.000000
# 3 -0.001315 -0.001797 0.009318 -0.000001 -0.000551 0.000000
# 4 0.000000 0.000001 -0.000001 0.040281 -0.000002 -0.002033
# 5 -0.004594 0.001520 -0.000551 -0.000002 0.032335 -0.000001
# 6 0.000000 0.000000 0.000000 -0.002033 -0.000001 0.030213
#
#
# Mechanical properties :
#
#
# Convention : Reuss Voigt Hill
#
# Bulk Modulus (GPa) = 40.15553 51.98690 46.07122
# Shear Modulus (GPa) = 25.32730 30.77684 28.05207
#
# Velocity S-wave (km/s) = 3.58028 3.94671 3.76795
# Velocity P-wave (km/s) = 6.11673 6.86147 6.49977
#
# Compressibility (1/GPa) = 0.02490317
#
# Stress axis : x y z
#
# Youngs Moduli (GPa) = 30.49787 74.14573 107.31967
#
# Poissons Ratio (x) = 0.90701 0.14118
# Poissons Ratio (y) = 0.37308 0.19287
# Poissons Ratio (z) = 0.04012 0.13325
#
# Static dielectric constant tensor:
#      x y z
#    x 1.727680 0.000000 -0.022210 
#    y 0.000000 1.690330 0.000000 
#    z -0.022210 0.000000 1.694340 
# 
# From -- ./inp_files/26123.got.cif
#   From: 2010.05.17/outbox.ucp.g08.bks.cvg/sg9_14_cif.got.tgz:26123.got - 2010.06.11 13:03:20.
