data_PCOD9141070
_publ_section_title
;
Structure prediction by ZEFSAII (Michael W. Deem and Ramdas Pophale) SiO2 
 PCOD9141070
Probable space group: C C
;
_chemical_formula_sum "Si O2"
_cell_formula_units_Z 20
_cell_length_a 7.144282
_cell_length_b 7.186244
_cell_length_c 15.471942
_cell_angle_alpha 90.000000
_cell_angle_beta 101.118843
_cell_angle_gamma 90.000000
_cell_volume 779.427783
_symmetry_space_group_name_H-M "C C"
_symmetry_group_IT_number 9
_symmetry_cell_setting 'monoclinic'
loop_
_space_group_symop_operation_xyz
x,y,z
x,-y,1/2+z
1/2+x,1/2+y,z
1/2+x,1/2-y,1/2+z
loop_
_atom_site_type_symbol
_atom_site_label
_atom_site_fract_x
_atom_site_fract_y
_atom_site_fract_z
Si Si1 0.589720 0.629945 0.273540
Si Si2 0.392540 0.390845 0.111306
Si Si3 0.438156 0.006745 0.705787
Si Si4 0.557786 0.539441 0.951507
Si Si5 0.444041 0.905241 0.025798
O O1 0.458659 0.538434 0.188236
O O2 0.592958 0.852983 0.260022
O O3 0.791318 0.536709 0.268849
O O4 0.515529 0.566132 0.359561
O O5 0.168263 0.422082 0.069979
O O6 0.453557 0.194631 0.160551
O O7 0.492676 0.423969 0.028923
O O8 0.363839 0.122468 0.615948
O O9 0.451868 0.734772 0.958869
O O10 0.790171 0.552277 0.975892
#
# Coordination Sequence:
#
# PCOD9141070 Si02
#       5
#     4   4   4   4   4
#     4  12  30  51  79 123 163 211 279 341 408 499
#     4  12  26  52  85 109 166 221 265 341 421 483
#     4  12  25  50  79 112 158 210 272 330 409 489
#     4  12  30  51  78 124 163 210 280 340 411 492
#     4  12  25  50  77 114 156 216 268 334 409 489
#
# _framework density 25.659849999999999
#
# number of rings (size 3 to 8) (size 9 to 14) (size 15 to 20)
#    0.000    0.000    8.000    0.000   11.200    0.000 
#    3.600    0.000    0.000    0.000    0.000    0.000 
#    0.000    0.000    0.000    0.000    0.000    0.000 
#
# Total GULP energy -55786.860474 kJ/mol
# GULP energy per Si atom -5578.686047 kJ/mol
# Density = 2.560145 g / cm^3
# Si number density = 25.659850 Si / 1000 Ang^3
#
#
#
# Elastic Constant Matrix: (Units=GPa)
#
#
# Indices 1 2 3 4 5 6 
#
# 1 306.5875 -126.8154 -5.2577 0.0000 63.1105 0.0000
# 2 -126.8154 289.3791 73.3908 0.0000 -81.0836 0.0000
# 3 -5.2577 73.3908 179.3711 0.0000 -51.1944 0.0000
# 4 0.0000 0.0000 0.0000 32.9974 0.0000 -8.7366
# 5 63.1105 -81.0836 -51.1944 0.0000 70.3893 0.0000
# 6 0.0000 0.0000 0.0000 -8.7366 0.0000 43.5282
#
#
#
# Elastic Compliance Matrix: (Units=1/GPa)
#
#
# Indices 1 2 3 4 5 6 
#
# 1 0.004526 0.001355 -0.001432 0.000000 -0.003538 0.000000
# 2 0.001355 0.005547 -0.000950 0.000000 0.004483 0.000000
# 3 -0.001432 -0.000950 0.007541 0.000000 0.005674 0.000000
# 4 0.000000 0.000000 0.000000 0.032006 0.000000 0.006424
# 5 -0.003538 0.004483 0.005674 0.000000 0.026670 0.000000
# 6 0.000000 0.000000 0.000000 0.006424 0.000000 0.024263
#
#
# Mechanical properties :
#
#
# Convention : Reuss Voigt Hill
#
# Bulk Modulus (GPa) = 64.26455 73.10813 68.68634
# Shear Modulus (GPa) = 46.38485 84.98428 65.68457
#
# Velocity S-wave (km/s) = 4.25630 5.76120 5.06495
# Velocity P-wave (km/s) = 7.01811 8.53278 7.81224
#
# Compressibility (1/GPa) = 0.01556068
#
# Stress axis : x y z
#
# Youngs Moduli (GPa) = 220.94429 180.28530 132.60477
#
# Poissons Ratio (x) = -0.24431 0.18984
# Poissons Ratio (y) = -0.29941 0.12599
# Poissons Ratio (z) = 0.31631 0.17130
#
# Static dielectric constant tensor:
#      x y z
#    x 2.115030 0.000000 0.022310 
#    y 0.000000 2.113150 0.000000 
#    z 0.022310 0.000000 1.928970 
# 
# From -- ./inp_files/22328.got.cif
#   From: 2010.05.17/outbox.cif.g08.bks.cpg/sg9_12_cif.got.tgz:22328.got - 2010.06.03 20:04:27.
