data_PCOD9141589
_publ_section_title
;
Structure prediction by ZEFSAII (Michael W. Deem and Ramdas Pophale) SiO2 
 PCOD9141589
Probable space group: P 2/M
;
_chemical_formula_sum "Si O2"
_cell_formula_units_Z 26
_cell_length_a 20.868355
_cell_length_b 7.484101
_cell_length_c 8.542560
_cell_angle_alpha 90.000000
_cell_angle_beta 52.913513
_cell_angle_gamma 90.000000
_cell_volume 1064.313899
_symmetry_space_group_name_H-M "P 2/M"
_symmetry_group_IT_number 10
_symmetry_cell_setting 'monoclinic'
loop_
_space_group_symop_operation_xyz
x,y,z
-x,y,-z
-x,-y,-z
x,-y,z
loop_
_atom_site_type_symbol
_atom_site_label
_atom_site_fract_x
_atom_site_fract_y
_atom_site_fract_z
Si Si1 0.704875 0.783120 0.729820
Si Si2 0.187221 0.797849 0.882720
Si Si3 0.500000 0.256810 0.500000
Si Si4 0.446522 0.217861 0.236167
Si Si5 0.125575 0.783427 0.645613
Si Si6 0.034791 0.705859 0.288319
Si Si7 0.674546 0.797040 0.117423
O O1 0.643782 0.729159 0.682095
O O2 0.798014 0.734150 0.573881
O O3 0.700447 0.000000 0.730629
O O4 0.673292 0.720011 0.945035
O O5 0.151726 0.717265 0.777700
O O6 0.262547 0.710488 0.856958
O O7 0.212131 0.000000 0.799383
O O8 0.113132 0.802070 0.110697
O O9 0.475347 0.309274 0.354485
O O10 0.412119 0.189713 0.678308
O O11 0.451187 0.000000 0.258442
O O12 0.500000 0.249573 0.000000
O O13 0.039748 0.712954 0.720279
O O14 0.117931 0.000000 0.657167
O O15 0.058036 0.500000 0.281610
O O16 0.000000 0.782528 0.500000
O O17 0.705211 0.000000 0.049188
#
# Coordination Sequence:
#
# PCOD9141589 Si02
#       7
#     4   4   2   4   4   4   4
#     4   9  17  29  44  68 103 143 183 221 267 325
#     4  10  21  36  55  82 112 144 183 225 276 335
#     4  12  19  26  42  66 101 144 185 228 275 326
#     4  10  17  25  37  59  94 136 179 219 266 321
#     4  10  20  35  56  81 111 145 182 226 275 332
#     4  11  24  40  58  81 108 140 182 229 279 336
#     4  10  18  28  45  70 103 143 182 222 270 324
#
# _framework density 24.428884
#
# number of rings (size 3 to 8) (size 9 to 14) (size 15 to 20)
#    0.000    1.846    1.538    4.154    0.000    7.385 
#    0.000    0.000    0.000    0.000    0.000    0.538 
#    0.000    1.846    0.000    0.615    0.000    0.308 
#
# Total GULP energy -145013.688275 kJ/mol
# GULP energy per Si atom -5577.449549 kJ/mol
# Density = 2.437328 g / cm^3
# Si number density = 24.428884 Si / 1000 Ang^3
#
#
#
# Elastic Constant Matrix: (Units=GPa)
#
#
# Indices 1 2 3 4 5 6 
#
# 1 172.1185 1.5577 28.9901 0.0000 0.8447 0.0000
# 2 1.5577 75.1062 3.5923 0.0000 3.5633 0.0000
# 3 28.9901 3.5923 108.3085 0.0000 3.1237 0.0000
# 4 0.0000 0.0000 0.0000 -25.9525 0.0000 10.9477
# 5 0.8447 3.5633 3.1237 0.0000 52.3473 0.0000
# 6 0.0000 0.0000 0.0000 10.9477 0.0000 5.2382
#
#
#
# Elastic Compliance Matrix: (Units=1/GPa)
#
#
# Indices 1 2 3 4 5 6 
#
# 1 0.006084 -0.000048 -0.001627 0.000000 0.000002 0.000000
# 2 -0.000048 0.013377 -0.000405 0.000000 -0.000886 0.000000
# 3 -0.001627 -0.000405 0.009697 0.000000 -0.000525 0.000000
# 4 0.000000 0.000000 0.000000 -0.020478 0.000000 0.042799
# 5 0.000002 -0.000886 -0.000525 0.000000 0.019195 0.000000
# 6 0.000000 0.000000 0.000000 0.042799 0.000000 0.101457
#
#
# Mechanical properties :
#
#
# Convention : Reuss Voigt Hill
#
# Bulk Modulus (GPa) = 40.00491 47.09038 43.54765
# Shear Modulus (GPa) = 35.25444 27.75280 31.50362
#
# Velocity S-wave (km/s) = 3.80300 3.37421 3.59500
# Velocity P-wave (km/s) = 5.97456 5.87357 5.92428
#
# Compressibility (1/GPa) = 0.02499693
#
# Stress axis : x y z
#
# Youngs Moduli (GPa) = 164.35415 74.75585 103.12522
#
# Poissons Ratio (x) = 0.00362 0.16779
# Poissons Ratio (y) = 0.00797 0.04178
# Poissons Ratio (z) = 0.26741 0.03029
#
# Static dielectric constant tensor:
#      x y z
#    x 1.933800 0.000000 0.041590 
#    y 0.000000 1.964780 0.000000 
#    z 0.041590 0.000000 1.914900 
# 
# From -- ./inp_files/34176.got.cif
#   From: 2010.05.17/outbox.cif.g08.bks.cpg/sg10_18_cif.got.tgz:34176.got - 2010.06.03 11:33:40.
