data_PCOD9141342
_publ_section_title
;
Structure prediction by ZEFSAII (Michael W. Deem and Ramdas Pophale) SiO2 
 PCOD9141342
Probable space group: P 2/M
;
_chemical_formula_sum "Si O2"
_cell_formula_units_Z 24
_cell_length_a 13.380682
_cell_length_b 13.161135
_cell_length_c 17.880386
_cell_angle_alpha 90.000000
_cell_angle_beta 157.097377
_cell_angle_gamma 90.000000
_cell_volume 1225.415896
_symmetry_space_group_name_H-M "P 2/M"
_symmetry_group_IT_number 10
_symmetry_cell_setting 'monoclinic'
loop_
_space_group_symop_operation_xyz
x,y,z
-x,y,-z
-x,-y,-z
x,-y,z
loop_
_atom_site_type_symbol
_atom_site_label
_atom_site_fract_x
_atom_site_fract_y
_atom_site_fract_z
Si Si1 0.393025 0.108312 0.841638
Si Si2 0.237810 0.615768 0.867152
Si Si3 0.103697 0.189547 0.863698
Si Si4 0.731714 0.115430 0.720528
Si Si5 0.316597 0.878987 0.552613
Si Si6 0.962642 0.720187 0.551983
O O1 0.194886 0.199067 0.703145
O O2 0.266110 0.000000 0.739537
O O3 0.500000 0.108504 0.000000
O O4 0.642793 0.121386 0.962975
O O5 0.228629 0.500000 0.886742
O O6 0.202981 0.699847 0.906951
O O7 0.012942 0.643430 0.653841
O O8 0.500000 0.629849 0.000000
O O9 0.949917 0.184731 0.834921
O O10 0.909761 0.146598 0.664898
O O11 0.500000 0.115244 0.500000
O O12 0.588205 0.139657 0.698674
O O13 0.832051 0.000000 0.793470
O O14 0.266834 0.796769 0.583444
O O15 0.299457 0.000000 0.558600
O O16 0.000000 0.662045 0.500000
#
# Coordination Sequence:
#
# PCOD9141342 Si02
#       6
#     4   4   4   4   4   4
#     4  11  18  27  45  70  96 124 153 192 234 274
#     4  10  19  34  52  71  93 116 153 205 250 284
#     4  10  15  27  46  70  91 120 154 195 233 279
#     4   8  14  23  41  68  96 126 154 182 223 277
#     4   9  16  27  43  67  99 131 157 183 223 276
#     4  11  21  32  46  68  98 129 161 192 235 281
#
# _framework density 19.585187999999999
#
# number of rings (size 3 to 8) (size 9 to 14) (size 15 to 20)
#    0.000    2.167    5.000    3.000    0.000    1.667 
#    0.000    0.000    0.000   13.500    0.000    3.500 
#    0.000    2.667    0.000    0.000    0.000    0.000 
#
# Total GULP energy -133803.363357 kJ/mol
# GULP energy per Si atom -5575.140140 kJ/mol
# Density = 1.954061 g / cm^3
# Si number density = 19.585188 Si / 1000 Ang^3
#
#
#
# Elastic Constant Matrix: (Units=GPa)
#
#
# Indices 1 2 3 4 5 6 
#
# 1 99.6773 27.4597 22.0334 0.0000 36.0758 0.0000
# 2 27.4597 95.0464 9.9418 0.0000 21.4722 0.0000
# 3 22.0334 9.9418 25.7560 0.0000 17.1816 0.0000
# 4 0.0000 0.0000 0.0000 9.8221 0.0000 10.2403
# 5 36.0758 21.4722 17.1816 0.0000 36.3155 0.0000
# 6 0.0000 0.0000 0.0000 10.2403 0.0000 15.3348
#
#
#
# Elastic Compliance Matrix: (Units=1/GPa)
#
#
# Indices 1 2 3 4 5 6 
#
# 1 0.016135 -0.001213 -0.004560 0.000000 -0.013154 0.000000
# 2 -0.001213 0.012235 0.000492 0.000000 -0.006262 0.000000
# 3 -0.004560 0.000492 0.058021 0.000000 -0.023212 0.000000
# 4 0.000000 0.000000 0.000000 0.335143 0.000000 -0.223802
# 5 -0.013154 -0.006262 -0.023212 0.000000 0.055289 0.000000
# 6 0.000000 0.000000 0.000000 -0.223802 0.000000 0.214663
#
#
# Mechanical properties :
#
#
# Convention : Reuss Voigt Hill
#
# Bulk Modulus (GPa) = 13.18731 37.70553 25.44642
# Shear Modulus (GPa) = 6.87452 23.03079 14.95266
#
# Velocity S-wave (km/s) = 1.87555 3.43290 2.76609
# Velocity P-wave (km/s) = 3.38204 5.91667 4.81898
#
# Compressibility (1/GPa) = 0.07583046
#
# Stress axis : x y z
#
# Youngs Moduli (GPa) = 61.97565 81.73415 17.23501
#
# Poissons Ratio (x) = 0.09914 0.07859
# Poissons Ratio (y) = 0.07517 -0.00849
# Poissons Ratio (z) = 0.28261 -0.04024
#
# Static dielectric constant tensor:
#      x y z
#    x 1.804670 0.000000 -0.067640 
#    y 0.000000 1.656580 0.000000 
#    z -0.067640 0.000000 1.759110 
# 
# From -- ./inp_files/47225.got.cif
#   From: 2010.05.17/outbox.cif.g08.bks.cpg/sg10_24_cif.got.tgz:47225.got - 2010.06.03 11:33:40.
