data_PCOD9141486
_publ_section_title
;
Structure prediction by ZEFSAII (Michael W. Deem and Ramdas Pophale) SiO2 
 PCOD9141486
Probable space group: P 2/M
;
_chemical_formula_sum "Si O2"
_cell_formula_units_Z 22
_cell_length_a 10.361795
_cell_length_b 11.620352
_cell_length_c 14.211195
_cell_angle_alpha 90.000000
_cell_angle_beta 136.707730
_cell_angle_gamma 90.000000
_cell_volume 1173.361397
_symmetry_space_group_name_H-M "P 2/M"
_symmetry_group_IT_number 10
_symmetry_cell_setting 'monoclinic'
loop_
_space_group_symop_operation_xyz
x,y,z
-x,y,-z
-x,-y,-z
x,-y,z
loop_
_atom_site_type_symbol
_atom_site_label
_atom_site_fract_x
_atom_site_fract_y
_atom_site_fract_z
Si Si1 0.726431 0.256205 0.379760
Si Si2 0.024136 0.000000 0.236362
Si Si3 0.046198 0.744032 0.867225
Si Si4 0.349992 0.000000 0.266888
Si Si5 0.706451 0.250055 0.823283
Si Si6 0.223258 0.000000 0.533170
Si Si7 0.065975 0.636169 0.675821
O O1 0.512454 0.282132 0.296301
O O2 0.773013 0.119589 0.408174
O O3 0.772365 0.304635 0.301190
O O4 0.871850 0.316110 0.528255
O O5 0.937438 0.120647 0.154374
O O6 0.061699 0.000000 0.368171
O O7 0.228847 0.000000 0.296316
O O8 0.841190 0.721099 0.806350
O O9 0.074334 0.671857 0.788359
O O10 0.193613 0.713756 0.027370
O O11 0.296101 0.888514 0.179388
O O12 0.570177 0.000000 0.404914
O O13 0.074920 0.500000 0.668498
#
# Coordination Sequence:
#
# PCOD9141486 Si02
#       7
#     4   2   4   2   4   2   4
#     4  10  21  38  59  84 116 146 184 231 278 338
#     4  10  16  29  55  87 118 150 177 215 281 331
#     4  10  20  36  59  87 118 148 183 227 272 338
#     4   8  16  28  51  85 125 148 170 219 272 347
#     4   9  19  36  58  87 117 149 183 221 281 332
#     4  10  17  30  55  90 113 140 184 226 279 330
#     4  11  24  42  58  79 108 149 194 238 282 327
#
# _framework density 18.749551
#
# number of rings (size 3 to 8) (size 9 to 14) (size 15 to 20)
#    0.000    2.182    1.818    1.909    0.000    5.818 
#    0.000    7.273    0.000    4.364    0.000    0.000 
#    0.000    0.000    0.000    0.000    0.000    0.000 
#
# Total GULP energy -122673.405890 kJ/mol
# GULP energy per Si atom -5576.063904 kJ/mol
# Density = 1.870688 g / cm^3
# Si number density = 18.749551 Si / 1000 Ang^3
#
#
#
# Elastic Constant Matrix: (Units=GPa)
#
#
# Indices 1 2 3 4 5 6 
#
# 1 58.5734 26.0076 23.5150 0.0000 -9.0234 0.0000
# 2 26.0076 91.3407 10.4334 0.0000 -12.5314 0.0000
# 3 23.5150 10.4334 42.7982 0.0000 -16.7697 0.0000
# 4 0.0000 0.0000 0.0000 -11.0872 0.0000 -7.8411
# 5 -9.0234 -12.5314 -16.7697 0.0000 33.1555 0.0000
# 6 0.0000 0.0000 0.0000 -7.8411 0.0000 -130.8641
#
#
#
# Elastic Compliance Matrix: (Units=1/GPa)
#
#
# Indices 1 2 3 4 5 6 
#
# 1 0.024480 -0.005781 -0.012829 0.000000 -0.002011 0.000000
# 2 -0.005781 0.012977 0.001644 0.000000 0.004163 0.000000
# 3 -0.012829 0.001644 0.036029 0.000000 0.015353 0.000000
# 4 0.000000 0.000000 0.000000 -0.094185 0.000000 0.005643
# 5 -0.002011 0.004163 0.015353 0.000000 0.038952 0.000000
# 6 0.000000 0.000000 0.000000 0.005643 0.000000 -0.007980
#
#
# Mechanical properties :
#
#
# Convention : Reuss Voigt Hill
#
# Bulk Modulus (GPa) = 25.28161 34.73604 30.00883
# Shear Modulus (GPa) = 87.12152 -12.90873 37.10639
#
# Velocity S-wave (km/s) = 6.82399 -2.62674 4.45348
# Velocity P-wave (km/s) = 8.69495 3.06053 6.51802
#
# Compressibility (1/GPa) = 0.03955444
#
# Stress axis : x y z
#
# Youngs Moduli (GPa) = 40.84984 77.05714 27.75510
#
# Poissons Ratio (x) = 0.44545 0.35607
# Poissons Ratio (y) = 0.23614 -0.04562
# Poissons Ratio (z) = 0.52407 -0.12666
#
# Static dielectric constant tensor:
#      x y z
#    x 1.667630 0.000000 0.009540 
#    y 0.000000 1.647840 0.000000 
#    z 0.009540 0.000000 1.647650 
# 
# From -- ./inp_files/64189.got.cif
#   From: 2010.05.17/outbox.cif.g08.bks.cpg/sg10_33_cif.got.tgz:64189.got - 2010.06.03 11:33:40.
