data_PCOD9141893
_publ_section_title
;
Structure prediction by ZEFSAII (Michael W. Deem and Ramdas Pophale) SiO2 
 PCOD9141893
Probable space group: P 2/M
;
_chemical_formula_sum "Si O2"
_cell_formula_units_Z 28
_cell_length_a 14.394347
_cell_length_b 12.852982
_cell_length_c 14.733599
_cell_angle_alpha 90.000000
_cell_angle_beta 135.488345
_cell_angle_gamma 90.000000
_cell_volume 1910.981108
_symmetry_space_group_name_H-M "P 2/M"
_symmetry_group_IT_number 10
_symmetry_cell_setting 'monoclinic'
loop_
_space_group_symop_operation_xyz
x,y,z
-x,y,-z
-x,-y,-z
x,-y,z
loop_
_atom_site_type_symbol
_atom_site_label
_atom_site_fract_x
_atom_site_fract_y
_atom_site_fract_z
Si Si1 0.095365 0.191183 0.652010
Si Si2 0.704711 0.000000 0.194313
Si Si3 0.024257 0.873288 0.797620
Si Si4 0.293497 0.378361 0.800536
Si Si5 0.288920 0.193952 0.089124
Si Si6 0.429093 0.378679 0.092965
Si Si7 0.426974 0.000000 0.097195
Si Si8 0.141014 0.120256 0.151487
O O1 0.171909 0.300758 0.704979
O O2 0.000000 0.181722 0.500000
O O3 0.017870 0.170802 0.692141
O O4 0.206797 0.101463 0.728528
O O5 0.578714 0.000000 0.172279
O O6 0.653498 0.000000 0.054466
O O7 0.899400 0.847631 0.775220
O O8 0.036763 0.000000 0.805690
O O9 0.156122 0.826295 0.936494
O O10 0.259627 0.500000 0.764266
O O11 0.417140 0.352714 0.820414
O O12 0.353327 0.367066 0.943696
O O13 0.358634 0.301336 0.112711
O O14 0.242921 0.183778 0.161193
O O15 0.385298 0.100904 0.125057
O O16 0.421526 0.500000 0.113411
O O17 0.185117 0.000000 0.182688
O O18 0.000000 0.121923 0.000000
#
# Coordination Sequence:
#
# PCOD9141893 Si02
#       8
#     4   2   4   4   4   4   2   4
#     4  12  21  31  46  65  93 128 155 179 223 266
#     4  11  21  30  39  69  99 118 140 185 231 283
#     4  10  17  29  42  64  94 125 154 180 213 266
#     4   9  18  33  46  65  90 119 157 187 219 268
#     4  11  14  26  45  69  93 112 147 184 224 274
#     4   9  17  28  48  68  92 121 141 182 239 277
#     4  11  18  26  48  68  91 118 143 184 239 260
#     4   8  15  24  41  63  91 119 150 181 215 262
#
# _framework density 14.652158999999999
#
# number of rings (size 3 to 8) (size 9 to 14) (size 15 to 20)
#    0.000    2.000    5.000    2.786    0.000    2.571 
#    0.000    0.000    0.000    4.714    0.000    5.000 
#    0.000    2.286    0.000    0.000    0.000    0.000 
#
# Total GULP energy -156034.860838 kJ/mol
# GULP energy per Si atom -5572.673601 kJ/mol
# Density = 1.461881 g / cm^3
# Si number density = 14.652159 Si / 1000 Ang^3
#
#
#
# Elastic Constant Matrix: (Units=GPa)
#
#
# Indices 1 2 3 4 5 6 
#
# 1 159.9617 68.1332 36.2440 0.0000 -11.1235 0.0000
# 2 68.1332 74.5513 22.2753 0.0000 0.6663 0.0000
# 3 36.2440 22.2753 47.4194 0.0000 -8.2621 0.0000
# 4 0.0000 0.0000 0.0000 1.7515 0.0000 -2.1271
# 5 -11.1235 0.6663 -8.2621 0.0000 12.0566 0.0000
# 6 0.0000 0.0000 0.0000 -2.1271 0.0000 22.0097
#
#
#
# Elastic Compliance Matrix: (Units=1/GPa)
#
#
# Indices 1 2 3 4 5 6 
#
# 1 0.011822 -0.010115 -0.002596 0.000000 0.009686 0.000000
# 2 -0.010115 0.024747 -0.006539 0.000000 -0.015181 0.000000
# 3 -0.002596 -0.006539 0.029287 0.000000 0.018035 0.000000
# 4 0.000000 0.000000 0.000000 0.646860 0.000000 0.062516
# 5 0.009686 -0.015181 0.018035 0.000000 0.105077 0.000000
# 6 0.000000 0.000000 0.000000 0.062516 0.000000 0.051477
#
#
# Mechanical properties :
#
#
# Convention : Reuss Voigt Hill
#
# Bulk Modulus (GPa) = 36.55590 59.47083 48.01337
# Shear Modulus (GPa) = 5.45323 17.51554 11.48438
#
# Velocity S-wave (km/s) = 1.93129 3.46124 2.80268
# Velocity P-wave (km/s) = 5.47508 7.52663 6.58128
#
# Compressibility (1/GPa) = 0.02735536
#
# Stress axis : x y z
#
# Youngs Moduli (GPa) = 84.59131 40.40911 34.14476
#
# Poissons Ratio (x) = 0.40872 0.08866
# Poissons Ratio (y) = 0.85561 0.22327
# Poissons Ratio (z) = 0.21964 0.26423
#
# Static dielectric constant tensor:
#      x y z
#    x 1.505670 0.000000 -0.006920 
#    y 0.000000 1.479200 0.000000 
#    z -0.006920 0.000000 1.458270 
# 
# From -- ./inp_files/67154.got.cif
#   From: 2010.05.17/outbox.cif.g08.bks.cpg/sg10_34_cif.got.tgz:67154.got - 2010.06.03 11:33:40.
