data_PCOD9141254
_publ_section_title
;
Structure prediction by ZEFSAII (Michael W. Deem and Ramdas Pophale) SiO2 
 PCOD9141254
Probable space group: C C
;
_chemical_formula_sum "Si O2"
_cell_formula_units_Z 16
_cell_length_a 9.000000
_cell_length_b 15.000000
_cell_length_c 21.000000
_cell_angle_alpha 90.000000
_cell_angle_beta 30.000000
_cell_angle_gamma 90.000000
_cell_volume 1417.500000
_symmetry_space_group_name_H-M "C C"
_symmetry_group_IT_number 9
_symmetry_cell_setting 'monoclinic'
loop_
_space_group_symop_operation_xyz
x,y,z
x,-y,1/2+z
1/2+x,1/2+y,z
1/2+x,1/2-y,1/2+z
loop_
_atom_site_type_symbol
_atom_site_label
_atom_site_fract_x
_atom_site_fract_y
_atom_site_fract_z
Si Si1 0.848850 0.824360 0.936030
Si Si2 0.994987 0.358317 0.934561
Si Si3 0.833033 0.183331 0.727606
Si Si4 0.518543 0.586920 0.788022
Si Si5 0.844096 0.760300 0.692901
Si Si6 0.215095 0.584667 0.148294
Si Si7 0.114673 0.511730 0.048406
Si Si8 0.896967 0.478534 0.378900
O O1 0.647002 0.842395 0.947289
O O2 0.157989 0.777678 0.800646
O O3 0.686944 0.756814 0.045958
O O4 0.819134 0.921789 0.979916
O O5 0.984584 0.458433 0.907554
O O6 0.215944 0.310538 0.801998
O O7 0.648797 0.323205 0.071113
O O8 0.902663 0.139948 0.770229
O O9 0.582523 0.112414 0.797799
O O10 0.715312 0.661618 0.749749
O O11 0.764854 0.514847 0.673243
O O12 0.261778 0.555469 0.931223
O O13 0.730309 0.816695 0.673562
O O14 0.130188 0.571486 0.106137
O O15 0.991169 0.533873 0.280181
O O16 0.554248 0.546175 0.021026
#
# Coordination Sequence:
#
# PCOD9141254 Si02
#       8
#     4   4   4   4   4   4   4   4
#     4  11  25  48  70 106 142 189 240 301 355 432
#     4  11  24  47  69 102 148 181 245 292 364 423
#     4  12  24  44  74 100 143 188 245 293 362 429
#     4  11  26  45  70 104 142 188 240 293 368 423
#     4  10  24  45  69 103 143 191 233 299 349 436
#     4  11  23  42  72 102 145 183 250 288 365 420
#     4  11  25  47  72 103 146 187 235 307 355 429
#     4  11  23  42  70 106 133 195 236 299 354 436
#
# _framework density 11.287478
#
# number of rings (size 3 to 8) (size 9 to 14) (size 15 to 20)
#    0.000    1.000    5.000    1.500    1.750    6.000 
#    4.500    0.000    0.000    0.000    0.000    0.000 
#    0.000    0.000    0.000    0.000    0.000    0.000 
#
# Total GULP energy -89336.706478 kJ/mol
# GULP energy per Si atom -5583.544155 kJ/mol
# Density = 1.126179 g / cm^3
# Si number density = 11.287478 Si / 1000 Ang^3
#
#
#
# Elastic Constant Matrix: (Units=GPa)
#
#
# Indices 1 2 3 4 5 6 
#
# 1 60.5930 6.6070 47.5770 0.0051 9.1945 -0.0143
# 2 6.6070 72.2162 41.0648 0.0482 10.5715 -0.0227
# 3 47.5770 41.0648 174.3519 0.0151 23.5630 -0.0167
# 4 0.0051 0.0482 0.0151 53.7634 0.0213 3.7937
# 5 9.1945 10.5715 23.5630 0.0213 41.5404 0.0157
# 6 -0.0143 -0.0227 -0.0167 3.7937 0.0157 24.3777
#
#
#
# Elastic Compliance Matrix: (Units=1/GPa)
#
#
# Indices 1 2 3 4 5 6 
#
# 1 0.021271 0.001705 -0.005968 -0.000002 -0.001756 0.000011
# 2 0.001705 0.016295 -0.003998 -0.000014 -0.002256 0.000017
# 3 -0.005968 -0.003998 0.008653 0.000003 -0.002570 0.000000
# 4 -0.000002 -0.000014 0.000003 0.018807 -0.000006 -0.002927
# 5 -0.001756 -0.002256 -0.002570 -0.000006 0.026494 -0.000021
# 6 0.000011 0.000017 0.000000 -0.002927 -0.000021 0.041477
#
#
# Mechanical properties :
#
#
# Convention : Reuss Voigt Hill
#
# Bulk Modulus (GPa) = 33.67526 55.29543 44.48534
# Shear Modulus (GPa) = 31.36413 38.06380 34.71397
#
# Velocity S-wave (km/s) = 3.73142 4.11068 3.92563
# Velocity P-wave (km/s) = 5.78914 6.86131 6.34790
#
# Compressibility (1/GPa) = 0.02969539
#
# Stress axis : x y z
#
# Youngs Moduli (GPa) = 47.01331 61.36770 115.56395
#
# Poissons Ratio (x) = -0.10463 0.68974
# Poissons Ratio (y) = -0.08016 0.46206
# Poissons Ratio (z) = 0.28060 0.24537
#
# Static dielectric constant tensor:
#      x y z
#    x 1.901480 0.000010 -0.052590 
#    y 0.000010 1.901740 0.000000 
#    z -0.052590 0.000000 1.809020 
# 
# From -- ./inp_files/32787.got.cif
#   From: 2010.05.17/outbox.ucp.g08.bks.cvg/sg9_17_cif.got.tgz:32787.got - 2010.06.11 13:03:20.
