data_PCOD9141032
_publ_section_title
;
Structure prediction by ZEFSAII (Michael W. Deem and Ramdas Pophale) SiO2 
 PCOD9141032
Probable space group: C C
;
_chemical_formula_sum "Si O2"
_cell_formula_units_Z 32
_cell_length_a 13.325493
_cell_length_b 4.824853
_cell_length_c 23.642471
_cell_angle_alpha 90.000000
_cell_angle_beta 59.293074
_cell_angle_gamma 90.000000
_cell_volume 1306.931736
_symmetry_space_group_name_H-M "C C"
_symmetry_group_IT_number 9
_symmetry_cell_setting 'monoclinic'
loop_
_space_group_symop_operation_xyz
x,y,z
x,-y,1/2+z
1/2+x,1/2+y,z
1/2+x,1/2-y,1/2+z
loop_
_atom_site_type_symbol
_atom_site_label
_atom_site_fract_x
_atom_site_fract_y
_atom_site_fract_z
Si Si1 0.181790 0.704923 0.284390
Si Si2 0.325674 0.993856 0.923024
Si Si3 0.819199 0.232886 0.049925
Si Si4 0.031370 0.767122 0.803529
Si Si5 0.438309 0.873445 0.211275
Si Si6 0.970738 0.711888 0.033393
Si Si7 0.557109 0.626723 0.631263
Si Si8 0.199120 0.500293 0.408029
O O1 0.082670 0.936193 0.303884
O O2 0.307334 0.814037 0.229749
O O3 0.969080 0.693749 0.195008
O O4 0.141914 0.432801 0.262873
O O5 0.450138 0.133589 0.875067
O O6 0.294004 0.744839 0.888766
O O7 0.577512 0.135974 0.961717
O O8 0.379185 0.433903 0.035055
O O9 0.899445 0.432193 0.064263
O O10 0.686340 0.266299 0.107148
O O11 0.733793 0.743259 0.938887
O O12 0.190623 0.382017 0.847553
O O13 0.953312 0.737419 0.770525
O O14 0.533514 0.694069 0.149843
O O15 0.026304 0.816337 0.075332
O O16 0.822161 0.356746 0.985488
#
# Coordination Sequence:
#
# PCOD9141032 Si02
#       8
#     4   4   4   4   4   4   4   4
#     4  12  27  48  76 111 147 192 245 304 373 439
#     4  12  25  46  79 108 154 194 239 306 383 446
#     4  12  27  48  76 111 147 192 245 304 373 439
#     4  12  27  48  76 111 147 192 245 304 373 439
#     4  12  28  50  76 104 148 196 252 304 358 428
#     4  12  27  48  76 111 147 192 245 304 373 439
#     4  12  28  50  76 104 148 196 252 304 358 428
#     4  12  25  46  79 108 154 194 239 306 383 446
#
# _framework density 24.484832000000001
#
# number of rings (size 3 to 8) (size 9 to 14) (size 15 to 20)
#    0.000    0.000    2.500    6.750    3.500    8.000 
#    0.000    0.000    0.000    0.000    0.000    0.000 
#    0.000    0.000    0.000    0.000    0.000    0.000 
#
# Total GULP energy -89761.949060 kJ/mol
# GULP energy per Si atom -5610.121816 kJ/mol
# Density = 2.442910 g / cm^3
# Si number density = 24.484832 Si / 1000 Ang^3
#
#
#
# Elastic Constant Matrix: (Units=GPa)
#
#
# Indices 1 2 3 4 5 6 
#
# 1 106.6783 10.5369 2.5269 0.0053 -4.7683 -0.0027
# 2 10.5369 113.7238 0.4076 0.0052 5.3390 0.0022
# 3 2.5269 0.4076 43.1668 0.0025 1.5793 -0.0010
# 4 0.0053 0.0052 0.0025 38.2572 -0.0027 4.9547
# 5 -4.7683 5.3390 1.5793 -0.0027 30.9517 0.0006
# 6 -0.0027 0.0022 -0.0010 4.9547 0.0006 54.1535
#
#
#
# Elastic Compliance Matrix: (Units=1/GPa)
#
#
# Indices 1 2 3 4 5 6 
#
# 1 0.009558 -0.000962 -0.000612 -0.000001 0.001670 0.000001
# 2 -0.000962 0.008962 0.000034 -0.000001 -0.001696 0.000000
# 3 -0.000612 0.000034 0.023248 -0.000002 -0.001286 0.000001
# 4 -0.000001 -0.000001 -0.000002 0.026452 0.000002 -0.002420
# 5 0.001670 -0.001696 -0.001286 0.000002 0.032924 0.000000
# 6 0.000001 0.000000 0.000001 -0.002420 0.000000 0.018687
#
#
# Mechanical properties :
#
#
# Convention : Reuss Voigt Hill
#
# Bulk Modulus (GPa) = 25.84697 32.27910 29.06303
# Shear Modulus (GPa) = 36.81682 41.34565 39.08124
#
# Velocity S-wave (km/s) = 3.88191 4.11374 3.99951
# Velocity P-wave (km/s) = 5.53819 5.98129 5.76400
#
# Compressibility (1/GPa) = 0.03868925
#
# Stress axis : x y z
#
# Youngs Moduli (GPa) = 104.62351 111.58430 43.01355
#
# Poissons Ratio (x) = 0.10732 0.02630
# Poissons Ratio (y) = 0.10062 -0.00145
# Poissons Ratio (z) = 0.06398 -0.00376
#
# Static dielectric constant tensor:
#      x y z
#    x 1.938600 0.000000 -0.010750 
#    y 0.000000 1.887750 0.000000 
#    z -0.010750 0.000000 1.961090 
# 
# From -- ./inp_files/35174.got.cif
#   From: 2010.05.17/outbox.cif.g08.bks.cpg/sg9_18_cif.got.tgz:35174.got - 2010.06.03 20:04:27.
