data_PCOD9141617
_publ_section_title
;
Structure prediction by ZEFSAII (Michael W. Deem and Ramdas Pophale) SiO2 
 PCOD9141617
Probable space group: P 2/M
;
_chemical_formula_sum "Si O2"
_cell_formula_units_Z 20
_cell_length_a 8.083243
_cell_length_b 8.008022
_cell_length_c 17.633212
_cell_angle_alpha 90.000000
_cell_angle_beta 136.359846
_cell_angle_gamma 90.000000
_cell_volume 787.718907
_symmetry_space_group_name_H-M "P 2/M"
_symmetry_group_IT_number 10
_symmetry_cell_setting 'monoclinic'
loop_
_space_group_symop_operation_xyz
x,y,z
-x,y,-z
-x,-y,-z
x,-y,z
loop_
_atom_site_type_symbol
_atom_site_label
_atom_site_fract_x
_atom_site_fract_y
_atom_site_fract_z
Si Si1 0.099962 0.201505 0.775136
Si Si2 0.285299 0.194062 0.155014
Si Si3 0.756106 0.310905 0.017399
Si Si4 0.951750 0.205035 0.569491
Si Si5 0.441471 0.200837 0.365508
O O1 0.118470 0.259737 0.694284
O O2 0.825151 0.255459 0.702425
O O3 0.255947 0.259858 0.898407
O O4 0.112362 0.000000 0.780756
O O5 0.466360 0.233843 0.283236
O O6 0.040918 0.292997 0.091791
O O7 0.218681 0.000000 0.143473
O O8 0.359900 0.213546 0.092218
O O9 0.680603 0.500000 0.984041
O O10 0.673769 0.257545 0.488022
O O11 0.000000 0.259264 0.500000
O O12 0.962780 0.000000 0.573441
O O13 0.439238 0.000000 0.374539
#
# Coordination Sequence:
#
# PCOD9141617 Si02
#       5
#     4   4   4   4   4
#     4   9  16  27  44  65  90 118 145 174 214 262
#     4   9  15  25  42  64  91 118 143 173 217 265
#     4  10  17  25  40  64  92 116 144 181 217 252
#     4   9  16  26  43  67  90 111 142 185 224 255
#     4   8  14  24  41  65  90 115 141 173 215 262
#
# _framework density 25.389766000000002
#
# number of rings (size 3 to 8) (size 9 to 14) (size 15 to 20)
#    0.000    3.000    0.000    5.400    0.000    2.400 
#    0.000    0.000    0.000   12.600    0.000    8.400 
#    0.000    0.000    0.000    0.000    0.000    0.000 
#
# Total GULP energy -111635.026135 kJ/mol
# GULP energy per Si atom -5581.751307 kJ/mol
# Density = 2.533198 g / cm^3
# Si number density = 25.389766 Si / 1000 Ang^3
#
#
#
# Elastic Constant Matrix: (Units=GPa)
#
#
# Indices 1 2 3 4 5 6 
#
# 1 93.5497 0.7713 41.0463 0.0000 -24.7354 0.0000
# 2 0.7713 35.2299 4.5042 0.0000 -6.9592 0.0000
# 3 41.0463 4.5042 208.0125 0.0000 -19.7810 0.0000
# 4 0.0000 0.0000 0.0000 23.5722 0.0000 -12.0511
# 5 -24.7354 -6.9592 -19.7810 0.0000 50.4278 0.0000
# 6 0.0000 0.0000 0.0000 -12.0511 0.0000 12.2821
#
#
#
# Elastic Compliance Matrix: (Units=1/GPa)
#
#
# Indices 1 2 3 4 5 6 
#
# 1 0.013113 0.001118 -0.002062 0.000000 0.005777 0.000000
# 2 0.001118 0.029289 -0.000434 0.000000 0.004420 0.000000
# 3 -0.002062 -0.000434 0.005320 0.000000 0.001015 0.000000
# 4 0.000000 0.000000 0.000000 0.085123 0.000000 0.083522
# 5 0.005777 0.004420 0.001015 0.000000 0.023672 0.000000
# 6 0.000000 0.000000 0.000000 0.083522 0.000000 0.163370
#
#
# Mechanical properties :
#
#
# Convention : Reuss Voigt Hill
#
# Bulk Modulus (GPa) = 22.23992 47.71509 34.97751
# Shear Modulus (GPa) = 14.80896 36.62111 25.71504
#
# Velocity S-wave (km/s) = 2.41771 3.80196 3.18592
# Velocity P-wave (km/s) = 4.07089 6.17309 5.22873
#
# Compressibility (1/GPa) = 0.04496418
#
# Stress axis : x y z
#
# Youngs Moduli (GPa) = 76.26197 34.14236 187.95867
#
# Poissons Ratio (x) = -0.03816 0.38763
# Poissons Ratio (y) = -0.08524 0.08166
# Poissons Ratio (z) = 0.15727 0.01483
#
# Static dielectric constant tensor:
#      x y z
#    x 2.146400 0.000000 -0.017300 
#    y 0.000000 1.890830 0.000000 
#    z -0.017300 0.000000 2.004490 
# 
# From -- ./inp_files/26920.got.cif
#   From: 2010.05.17/outbox.cif.g08.bks.cpg/sg10_14_cif.got.tgz:26920.got - 2010.06.03 11:33:40.
