data_PCOD9141341
_publ_section_title
;
Structure prediction by ZEFSAII (Michael W. Deem and Ramdas Pophale) SiO2 
 PCOD9141341
Probable space group: P 2/M
;
_chemical_formula_sum "Si O2"
_cell_formula_units_Z 30
_cell_length_a 33.416112
_cell_length_b 8.559896
_cell_length_c 12.870228
_cell_angle_alpha 90.000000
_cell_angle_beta 153.892085
_cell_angle_gamma 90.000000
_cell_volume 1620.039936
_symmetry_space_group_name_H-M "P 2/M"
_symmetry_group_IT_number 10
_symmetry_cell_setting 'monoclinic'
loop_
_space_group_symop_operation_xyz
x,y,z
-x,y,-z
-x,-y,-z
x,-y,z
loop_
_atom_site_type_symbol
_atom_site_label
_atom_site_fract_x
_atom_site_fract_y
_atom_site_fract_z
Si Si1 0.983433 0.322839 0.718638
Si Si2 0.708311 0.314177 0.797556
Si Si3 0.194522 0.689780 0.412946
Si Si4 0.814564 0.689175 0.843996
Si Si5 0.671483 0.314785 0.087317
Si Si6 0.513873 0.186583 0.412109
Si Si7 0.000000 0.264531 0.000000
Si Si8 0.200539 0.817653 0.792433
O O1 0.970353 0.500000 0.649876
O O2 0.897518 0.223989 0.483121
O O3 0.080173 0.258740 0.904591
O O4 0.990838 0.332596 0.861464
O O5 0.694796 0.500000 0.759098
O O6 0.751505 0.255392 0.790225
O O7 0.612416 0.237095 0.602297
O O8 0.777492 0.276664 0.052104
O O9 0.170791 0.500000 0.365094
O O10 0.218953 0.723296 0.350746
O O11 0.274675 0.717758 0.680729
O O12 0.104974 0.790993 0.233173
O O13 0.818594 0.500000 0.860558
O O14 0.677112 0.500000 0.081189
O O15 0.724544 0.228845 0.118467
O O16 0.567590 0.261415 0.843612
O O17 0.500000 0.236961 0.500000
O O18 0.505938 0.000000 0.390300
O O19 0.207703 0.000000 0.832007
#
# Coordination Sequence:
#
# PCOD9141341 Si02
#       8
#     4   4   4   4   4   4   2   4
#     4  10  18  33  57  85 114 150 193 234 279 329
#     4  11  22  39  62  85 109 145 194 238 278 334
#     4   9  16  29  54  88 118 142 179 232 286 324
#     4   8  18  35  58  86 115 146 187 239 282 322
#     4  11  21  35  60  90 114 144 187 235 282 337
#     4  11  23  39  59  84 115 148 180 229 293 344
#     4  10  15  26  55  88 113 144 185 234 277 320
#     4  12  24  36  52  81 121 156 186 231 285 335
#
# _framework density 18.518062
#
# number of rings (size 3 to 8) (size 9 to 14) (size 15 to 20)
#    0.000    1.733    2.667    4.400    0.000    1.067 
#    0.000    5.000    0.000    7.200    0.000    0.000 
#    0.000    0.000    0.000    0.000    0.000    0.000 
#
# Total GULP energy -167226.810132 kJ/mol
# GULP energy per Si atom -5574.227004 kJ/mol
# Density = 1.847591 g / cm^3
# Si number density = 18.518062 Si / 1000 Ang^3
#
#
#
# Elastic Constant Matrix: (Units=GPa)
#
#
# Indices 1 2 3 4 5 6 
#
# 1 120.0912 -3.8639 43.0584 0.0000 10.7745 0.0000
# 2 -3.8639 15.5800 3.4212 0.0000 3.0039 0.0000
# 3 43.0584 3.4212 113.5333 0.0000 -1.3432 0.0000
# 4 0.0000 0.0000 0.0000 -55.3999 0.0000 -23.3888
# 5 10.7745 3.0039 -1.3432 0.0000 23.3973 0.0000
# 6 0.0000 0.0000 0.0000 -23.3888 0.0000 -20.1390
#
#
#
# Elastic Compliance Matrix: (Units=1/GPa)
#
#
# Indices 1 2 3 4 5 6 
#
# 1 0.010482 0.004609 -0.004181 0.000000 -0.005659 0.000000
# 2 0.004609 0.068337 -0.003939 0.000000 -0.011122 0.000000
# 3 -0.004181 -0.003939 0.010548 0.000000 0.003037 0.000000
# 4 0.000000 0.000000 0.000000 -0.035415 0.000000 0.041129
# 5 -0.005659 -0.011122 0.003037 0.000000 0.046948 0.000000
# 6 0.000000 0.000000 0.000000 0.041129 0.000000 -0.097421
#
#
# Mechanical properties :
#
#
# Convention : Reuss Voigt Hill
#
# Bulk Modulus (GPa) = 12.14400 37.15953 24.65176
# Shear Modulus (GPa) = 131.75050 3.34427 67.54739
#
# Velocity S-wave (km/s) = 8.44402 1.34531 6.04613
# Velocity P-wave (km/s) = 10.08171 4.74588 7.87922
#
# Compressibility (1/GPa) = 0.08234522
#
# Stress axis : x y z
#
# Youngs Moduli (GPa) = 95.39983 14.63336 94.80120
#
# Poissons Ratio (x) = -0.06744 0.39639
# Poissons Ratio (y) = -0.43968 0.37340
# Poissons Ratio (z) = 0.39889 0.05764
#
# Static dielectric constant tensor:
#      x y z
#    x 1.629570 0.000000 0.003540 
#    y 0.000000 1.646010 0.000000 
#    z 0.003540 0.000000 1.623890 
# 
# From -- ./inp_files/58016.got.cif
#   From: 2010.05.17/outbox.cif.g08.bks.cpg/sg10_30_cif.got.tgz:58016.got - 2010.06.03 11:33:40.
