data_PCOD9141149
_publ_section_title
;
Structure prediction by ZEFSAII (Michael W. Deem and Ramdas Pophale) SiO2 
 PCOD9141149
Probable space group: C C
;
_chemical_formula_sum "Si O2"
_cell_formula_units_Z 28
_cell_length_a 7.012503
_cell_length_b 12.678793
_cell_length_c 12.694266
_cell_angle_alpha 90.000000
_cell_angle_beta 117.103502
_cell_angle_gamma 90.000000
_cell_volume 1004.705589
_symmetry_space_group_name_H-M "C C"
_symmetry_group_IT_number 9
_symmetry_cell_setting 'monoclinic'
loop_
_space_group_symop_operation_xyz
x,y,z
x,-y,1/2+z
1/2+x,1/2+y,z
1/2+x,1/2-y,1/2+z
loop_
_atom_site_type_symbol
_atom_site_label
_atom_site_fract_x
_atom_site_fract_y
_atom_site_fract_z
Si Si1 0.421790 0.889620 0.194950
Si Si2 0.518379 0.518494 0.545779
Si Si3 0.476718 0.727988 0.896479
Si Si4 0.297816 0.328309 0.150041
Si Si5 0.847938 0.581368 0.919797
Si Si6 0.791958 0.158464 0.096736
Si Si7 0.116097 0.872953 0.864968
O O1 0.274139 0.987442 0.122965
O O2 0.652956 0.890831 0.199668
O O3 0.401853 0.882919 0.314763
O O4 0.315699 0.784075 0.117459
O O5 0.443947 0.589708 0.625328
O O6 0.396323 0.407827 0.525252
O O7 0.485056 0.590892 0.434844
O O8 0.421088 0.755011 0.756809
O O9 0.245064 0.763333 0.886593
O O10 0.643475 0.782575 0.020316
O O11 0.621184 0.374593 0.403117
O O12 0.809687 0.456852 0.903598
O O13 0.047340 0.622902 0.037233
O O14 0.947584 0.121052 0.229205
#
# Coordination Sequence:
#
# PCOD9141149 Si02
#       7
#     4   4   4   4   4   4   4
#     4  12  27  52  82 118 171 222 291 360 433 521
#     4  12  28  55  79 122 167 228 288 358 435 528
#     4  12  27  50  81 123 164 235 286 362 443 526
#     4  12  27  47  82 119 169 216 293 359 433 527
#     4  12  30  53  85 128 173 229 297 371 438 539
#     4  12  29  52  83 126 168 232 286 365 449 520
#     4  12  28  53  86 122 176 230 299 363 445 535
#
# _framework density 27.868860000000002
#
# number of rings (size 3 to 8) (size 9 to 14) (size 15 to 20)
#    0.000    0.000    5.714    1.714    8.000    1.143 
#    2.571    0.000    0.000    0.000    0.000    0.000 
#    0.000    0.000    0.000    0.000    0.000    0.000 
#
# Total GULP energy -78315.712796 kJ/mol
# GULP energy per Si atom -5593.979485 kJ/mol
# Density = 2.780543 g / cm^3
# Si number density = 27.868860 Si / 1000 Ang^3
#
#
#
# Elastic Constant Matrix: (Units=GPa)
#
#
# Indices 1 2 3 4 5 6 
#
# 1 162.8457 72.2345 35.9343 0.0000 -8.1173 0.0000
# 2 72.2345 136.8507 49.9403 0.0000 -5.5162 0.0000
# 3 35.9343 49.9403 143.9490 0.0000 19.9370 0.0000
# 4 0.0000 0.0000 0.0000 31.9972 0.0000 10.6480
# 5 -8.1173 -5.5162 19.9370 0.0000 54.4958 0.0000
# 6 0.0000 0.0000 0.0000 10.6480 0.0000 60.1042
#
#
#
# Elastic Compliance Matrix: (Units=1/GPa)
#
#
# Indices 1 2 3 4 5 6 
#
# 1 0.008127 -0.003948 -0.000812 0.000000 0.001108 0.000000
# 2 -0.003948 0.010499 -0.002868 0.000000 0.001524 0.000000
# 3 -0.000812 -0.002868 0.008639 0.000000 -0.003572 0.000000
# 4 0.000000 0.000000 0.000000 0.033211 0.000000 -0.005884
# 5 0.001108 0.001524 -0.003572 0.000000 0.019976 0.000000
# 6 0.000000 0.000000 0.000000 -0.005884 0.000000 0.017680
#
#
# Mechanical properties :
#
#
# Convention : Reuss Voigt Hill
#
# Bulk Modulus (GPa) = 83.27754 84.42927 83.85341
# Shear Modulus (GPa) = 42.59218 48.35520 45.47369
#
# Velocity S-wave (km/s) = 3.91360 4.16997 4.04382
# Velocity P-wave (km/s) = 7.09707 7.31750 7.20813
#
# Compressibility (1/GPa) = 0.01200804
#
# Stress axis : x y z
#
# Youngs Moduli (GPa) = 123.05113 95.24374 115.74903
#
# Poissons Ratio (x) = 0.37607 0.09402
# Poissons Ratio (y) = 0.48586 0.33196
# Poissons Ratio (z) = 0.09995 0.27315
#
# Static dielectric constant tensor:
#      x y z
#    x 2.161320 0.000000 -0.076660 
#    y 0.000000 2.227500 0.000000 
#    z -0.076660 0.000000 2.231100 
# 
# From -- ./inp_files/23423.got.cif
#   From: 2010.05.17/outbox.cif.g08.bks.cpg/sg9_12_cif.got.tgz:23423.got - 2010.06.03 20:04:27.
