data_PCOD9141318
_publ_section_title
;
Structure prediction by ZEFSAII (Michael W. Deem and Ramdas Pophale) SiO2 
 PCOD9141318
Probable space group: P 2/M
;
_chemical_formula_sum "Si O2"
_cell_formula_units_Z 28
_cell_length_a 20.584664
_cell_length_b 8.008695
_cell_length_c 21.752375
_cell_angle_alpha 90.000000
_cell_angle_beta 18.661152
_cell_angle_gamma 90.000000
_cell_volume 1147.419982
_symmetry_space_group_name_H-M "P 2/M"
_symmetry_group_IT_number 10
_symmetry_cell_setting 'monoclinic'
loop_
_space_group_symop_operation_xyz
x,y,z
-x,y,-z
-x,-y,-z
x,-y,z
loop_
_atom_site_type_symbol
_atom_site_label
_atom_site_fract_x
_atom_site_fract_y
_atom_site_fract_z
Si Si1 0.876405 0.189609 0.900779
Si Si2 0.528041 0.295845 0.664476
Si Si3 0.335142 0.675839 0.018496
Si Si4 0.675345 0.698596 0.271865
Si Si5 0.776700 0.692468 0.554947
Si Si6 0.110214 0.000000 0.468777
Si Si7 0.558011 0.000000 0.017382
Si Si8 0.900835 0.698300 0.184304
O O1 0.667988 0.217261 0.126364
O O2 0.839350 0.308375 0.876218
O O3 0.883616 0.000000 0.872577
O O4 0.053257 0.226133 0.790596
O O5 0.510712 0.500000 0.681980
O O6 0.498783 0.244484 0.619360
O O7 0.718902 0.253870 0.536704
O O8 0.326431 0.500000 0.059479
O O9 0.552368 0.683524 0.788414
O O10 0.327044 0.833825 0.068551
O O11 0.643739 0.500000 0.308670
O O12 0.728810 0.765272 0.291844
O O13 0.886703 0.716036 0.044124
O O14 0.851296 0.500000 0.489972
O O15 0.905871 0.830005 0.476199
O O16 0.349003 0.000000 0.240900
O O17 0.000000 0.000000 0.500000
O O18 0.500000 0.000000 0.000000
O O19 0.868940 0.500000 0.222036
#
# Coordination Sequence:
#
# PCOD9141318 Si02
#       8
#     4   4   4   4   4   2   2   4
#     4  10  15  19  29  46  68  95 130 172 207 241
#     4   8  13  21  32  45  62  92 131 171 209 244
#     4   9  16  28  43  60  81 107 138 174 213 250
#     4   7  10  17  27  37  54  84 126 167 204 242
#     4   8  15  26  42  60  80 106 139 175 209 248
#     4  10  20  32  48  68  91 115 139 171 214 260
#     4  10  20  34  50  70  91 111 141 177 212 256
#     4   8  12  18  26  36  55  88 126 166 206 242
#
# _framework density 24.402573
#
# number of rings (size 3 to 8) (size 9 to 14) (size 15 to 20)
#    0.000    3.429    0.714    3.857    3.000    0.571 
#    0.000    5.714    0.000    0.000    0.000    0.000 
#    0.000    0.000    0.000    0.000    0.000    2.857 
#
# Total GULP energy -156320.538737 kJ/mol
# GULP energy per Si atom -5582.876383 kJ/mol
# Density = 2.434703 g / cm^3
# Si number density = 24.402573 Si / 1000 Ang^3
#
#
#
# Elastic Constant Matrix: (Units=GPa)
#
#
# Indices 1 2 3 4 5 6 
#
# 1 183.8310 94.9040 23.3268 0.0000 -36.8834 0.0000
# 2 94.9040 138.6642 16.7233 0.0000 -24.5762 0.0000
# 3 23.3268 16.7233 122.0952 0.0000 -17.6481 0.0000
# 4 0.0000 0.0000 0.0000 1.9518 0.0000 -7.1081
# 5 -36.8834 -24.5762 -17.6481 0.0000 36.8044 0.0000
# 6 0.0000 0.0000 0.0000 -7.1081 0.0000 32.5880
#
#
#
# Elastic Compliance Matrix: (Units=1/GPa)
#
#
# Indices 1 2 3 4 5 6 
#
# 1 0.009398 -0.005393 -0.000232 0.000000 0.005706 0.000000
# 2 -0.005393 0.011289 -0.000223 0.000000 0.002027 0.000000
# 3 -0.000232 -0.000223 0.008821 0.000000 0.003849 0.000000
# 4 0.000000 0.000000 0.000000 2.491357 0.000000 0.543415
# 5 0.005706 0.002027 0.003849 0.000000 0.036087 0.000000
# 6 0.000000 0.000000 0.000000 0.543415 0.000000 0.149216
#
#
# Mechanical properties :
#
#
# Convention : Reuss Voigt Hill
#
# Bulk Modulus (GPa) = 56.14075 79.38873 67.76474
# Shear Modulus (GPa) = 1.83567 34.91127 18.37347
#
# Velocity S-wave (km/s) = 0.86826 3.78648 2.74694
# Velocity P-wave (km/s) = 4.90522 7.19167 6.15554
#
# Compressibility (1/GPa) = 0.01781237
#
# Stress axis : x y z
#
# Youngs Moduli (GPa) = 106.40295 88.58322 113.35949
#
# Poissons Ratio (x) = 0.47773 0.02632
# Poissons Ratio (y) = 0.57383 0.02527
# Poissons Ratio (z) = 0.02470 0.01975
#
# Static dielectric constant tensor:
#      x y z
#    x 1.896200 0.000000 -0.039600 
#    y 0.000000 1.879690 0.000000 
#    z -0.039600 0.000000 1.911960 
# 
# From -- ./inp_files/89879.got.cif
#   From: 2010.05.17/outbox.cif.g08.bks.cpg/sg10_45_cif.got.tgz:89879.got - 2010.06.03 11:33:40.
