data_PCOD9141931
_publ_section_title
;
Structure prediction by ZEFSAII (Michael W. Deem and Ramdas Pophale) SiO2 
 PCOD9141931
Probable space group: P 2/M
;
_chemical_formula_sum "Si O2"
_cell_formula_units_Z 32
_cell_length_a 15.992292
_cell_length_b 12.417270
_cell_length_c 14.667340
_cell_angle_alpha 90.000000
_cell_angle_beta 42.708624
_cell_angle_gamma 90.000000
_cell_volume 1975.563448
_symmetry_space_group_name_H-M "P 2/M"
_symmetry_group_IT_number 10
_symmetry_cell_setting 'monoclinic'
loop_
_space_group_symop_operation_xyz
x,y,z
-x,y,-z
-x,-y,-z
x,-y,z
loop_
_atom_site_type_symbol
_atom_site_label
_atom_site_fract_x
_atom_site_fract_y
_atom_site_fract_z
Si Si1 0.889735 0.624061 0.373207
Si Si2 0.838884 0.125957 0.950467
Si Si3 0.417706 0.874827 0.740216
Si Si4 0.039013 0.713676 0.874502
Si Si5 0.741120 0.122346 0.307258
Si Si6 0.325027 0.204364 0.441182
Si Si7 0.170726 0.880449 0.405531
Si Si8 0.068142 0.795578 0.314839
O O1 0.879111 0.500000 0.406802
O O2 0.760699 0.688894 0.488090
O O3 0.928811 0.638112 0.236182
O O4 0.996571 0.686525 0.344128
O O5 0.932173 0.204223 0.928348
O O6 0.857068 0.158682 0.830505
O O7 0.871639 0.000000 0.936231
O O8 0.701833 0.140064 0.100100
O O9 0.370972 0.863117 0.673495
O O10 0.527532 0.793350 0.675000
O O11 0.459617 0.000000 0.717403
O O12 0.156470 0.789865 0.797484
O O13 0.000000 0.659366 0.000000
O O14 0.708165 0.140327 0.439312
O O15 0.786332 0.000000 0.257623
O O16 0.280983 0.144206 0.385483
O O17 0.150723 0.796359 0.339506
O O18 0.047066 0.872346 0.566064
O O19 0.181478 0.000000 0.357842
#
# Coordination Sequence:
#
# PCOD9141931 Si02
#       8
#     4   4   4   4   4   4   4   4
#     4   9  20  36  53  70  91 121 161 214 255 282
#     4  10  18  28  45  72 107 136 157 187 233 292
#     4  10  19  29  45  70 102 137 166 191 228 287
#     4  10  18  29  47  73  99 128 157 197 244 296
#     4  10  18  28  46  71 101 135 165 194 233 286
#     4  10  20  32  47  67  95 130 172 206 237 276
#     4  10  17  29  50  75 103 129 156 190 238 297
#     4   9  18  31  49  72  96 124 157 195 246 291
#
# _framework density 16.197911000000001
#
# number of rings (size 3 to 8) (size 9 to 14) (size 15 to 20)
#    0.000    2.250    1.250    4.125    0.000    1.750 
#    0.000    5.625    0.000   11.250    0.000    0.000 
#    0.000   13.000    0.000    0.000    0.000    0.000 
#
# Total GULP energy -178270.988865 kJ/mol
# GULP energy per Si atom -5570.968402 kJ/mol
# Density = 1.616104 g / cm^3
# Si number density = 16.197911 Si / 1000 Ang^3
#
#
#
# Elastic Constant Matrix: (Units=GPa)
#
#
# Indices 1 2 3 4 5 6 
#
# 1 103.8966 28.7722 30.2407 0.0000 5.9461 0.0000
# 2 28.7722 78.1060 17.8942 0.0000 -3.4500 0.0000
# 3 30.2407 17.8942 52.8337 0.0000 2.9500 0.0000
# 4 0.0000 0.0000 0.0000 9.3797 0.0000 -1.3990
# 5 5.9461 -3.4500 2.9500 0.0000 23.1757 0.0000
# 6 0.0000 0.0000 0.0000 -1.3990 0.0000 9.8706
#
#
#
# Elastic Compliance Matrix: (Units=1/GPa)
#
#
# Indices 1 2 3 4 5 6 
#
# 1 0.012416 -0.003376 -0.005799 0.000000 -0.002950 0.000000
# 2 -0.003376 0.014966 -0.003333 0.000000 0.003518 0.000000
# 3 -0.005799 -0.003333 0.023487 0.000000 -0.001998 0.000000
# 4 0.000000 0.000000 0.000000 0.108916 0.000000 0.015438
# 5 -0.002950 0.003518 -0.001998 0.000000 0.044684 0.000000
# 6 0.000000 0.000000 0.000000 0.015438 0.000000 0.103499
#
#
# Mechanical properties :
#
#
# Convention : Reuss Voigt Hill
#
# Bulk Modulus (GPa) = 38.67889 43.18338 40.93114
# Shear Modulus (GPa) = 14.63699 19.01382 16.82541
#
# Velocity S-wave (km/s) = 3.00931 3.42986 3.22644
# Velocity P-wave (km/s) = 6.00045 6.51176 6.26132
#
# Compressibility (1/GPa) = 0.02585390
#
# Stress axis : x y z
#
# Youngs Moduli (GPa) = 80.53831 66.81983 42.57706
#
# Poissons Ratio (x) = 0.22556 0.24690
# Poissons Ratio (y) = 0.27187 0.14191
# Poissons Ratio (z) = 0.46703 0.22271
#
# Static dielectric constant tensor:
#      x y z
#    x 1.563590 0.000000 0.015400 
#    y 0.000000 1.518020 0.000000 
#    z 0.015400 0.000000 1.561970 
# 
# From -- ./inp_files/64393.got.cif
#   From: 2010.05.17/outbox.cif.g08.bks.cpg/sg10_33_cif.got.tgz:64393.got - 2010.06.03 11:33:40.
