data_PCOD9141249
_publ_section_title
;
Structure prediction by ZEFSAII (Michael W. Deem and Ramdas Pophale) SiO2 
 PCOD9141249
Probable space group: C C
;
_chemical_formula_sum "Si O2"
_cell_formula_units_Z 14
_cell_length_a 9.000000
_cell_length_b 12.000000
_cell_length_c 15.000000
_cell_angle_alpha 90.000000
_cell_angle_beta 120.000000
_cell_angle_gamma 90.000000
_cell_volume 1402.961154
_symmetry_space_group_name_H-M "C C"
_symmetry_group_IT_number 9
_symmetry_cell_setting 'monoclinic'
loop_
_space_group_symop_operation_xyz
x,y,z
x,-y,1/2+z
1/2+x,1/2+y,z
1/2+x,1/2-y,1/2+z
loop_
_atom_site_type_symbol
_atom_site_label
_atom_site_fract_x
_atom_site_fract_y
_atom_site_fract_z
Si Si1 0.495970 0.428291 0.772780
Si Si2 0.632330 0.085687 0.064904
Si Si3 0.552195 0.825143 0.340475
Si Si4 0.081202 0.352391 0.964557
Si Si5 0.337231 0.031421 0.256446
Si Si6 0.384813 0.212102 0.132255
Si Si7 0.885031 0.154990 0.822486
O O1 0.329378 0.422935 0.657621
O O2 0.514161 0.306808 0.823675
O O3 0.672752 0.449596 0.770894
O O4 0.462620 0.531472 0.830825
O O5 0.528710 0.158845 0.108482
O O6 0.567122 0.955648 0.031485
O O7 0.612100 0.140838 0.959531
O O8 0.692177 0.852342 0.304427
O O9 0.386019 0.901347 0.267110
O O10 0.266066 0.294868 0.037020
O O11 0.010552 0.415413 0.854356
O O12 0.968794 0.238712 0.921187
O O13 0.306967 0.099959 0.156118
O O14 0.411214 0.286866 0.231824
#
# Coordination Sequence:
#
# PCOD9141249 Si02
#       7
#     4   4   4   4   4   4   4
#     4  12  25  48  72 106 145 190 246 291 372 429
#     4  11  27  44  74 109 145 188 250 296 362 435
#     4  11  26  48  68 106 148 187 240 303 355 441
#     4  10  23  45  70 102 145 177 247 291 369 416
#     4  10  25  44  72 104 144 190 237 305 362 426
#     4  11  23  45  74 101 140 195 232 302 357 431
#     4  11  25  46  72 102 147 187 236 304 365 424
#
# _framework density 9.9788940000000004
#
# number of rings (size 3 to 8) (size 9 to 14) (size 15 to 20)
#    0.000    1.143    4.286    0.857    8.000    3.429 
#    2.571    0.000    0.000    0.000    0.000    0.000 
#    0.000    0.000    0.000    0.000    0.000    0.000 
#
# Total GULP energy -77948.954317 kJ/mol
# GULP energy per Si atom -5567.782451 kJ/mol
# Density = 0.995618 g / cm^3
# Si number density = 9.978894 Si / 1000 Ang^3
#
#
#
# Elastic Constant Matrix: (Units=GPa)
#
#
# Indices 1 2 3 4 5 6 
#
# 1 109.4946 64.4029 36.4139 0.0000 -9.9038 0.0000
# 2 64.4029 186.5900 29.9025 0.0000 -2.7460 0.0000
# 3 36.4139 29.9025 73.6062 0.0000 1.7315 0.0000
# 4 0.0000 0.0000 0.0000 48.7889 0.0000 2.3727
# 5 -9.9038 -2.7460 1.7315 0.0000 29.5848 0.0000
# 6 0.0000 0.0000 0.0000 2.3727 0.0000 42.8790
#
#
#
# Elastic Compliance Matrix: (Units=1/GPa)
#
#
# Indices 1 2 3 4 5 6 
#
# 1 0.013490 -0.003748 -0.005256 0.000000 0.004476 0.000000
# 2 -0.003748 0.006787 -0.000890 0.000000 -0.000573 0.000000
# 3 -0.005256 -0.000890 0.016614 0.000000 -0.002815 0.000000
# 4 0.000000 0.000000 0.000000 0.020552 0.000000 -0.001137
# 5 0.004476 -0.000573 -0.002815 0.000000 0.035411 0.000000
# 6 0.000000 0.000000 0.000000 -0.001137 0.000000 0.023384
#
#
# Mechanical properties :
#
#
# Convention : Reuss Voigt Hill
#
# Bulk Modulus (GPa) = 58.46890 70.12547 64.29718
# Shear Modulus (GPa) = 35.27890 40.18198 37.73044
#
# Velocity S-wave (km/s) = 4.20894 4.49190 4.35272
# Velocity P-wave (km/s) = 7.27874 7.88138 7.58605
#
# Compressibility (1/GPa) = 0.01710311
#
# Stress axis : x y z
#
# Youngs Moduli (GPa) = 74.12706 147.33739 60.19068
#
# Poissons Ratio (x) = 0.55222 0.31639
# Poissons Ratio (y) = 0.27783 0.05355
# Poissons Ratio (z) = 0.38965 0.13107
#
# Static dielectric constant tensor:
#      x y z
#    x 1.701960 0.000000 0.030500 
#    y 0.000000 1.757850 0.000000 
#    z 0.030500 0.000000 1.739910 
# 
# From -- ./inp_files/14223.got.cif
#   From: 2010.05.17/outbox.ucp.g08.bks.cvg/sg9_8_cif.got.tgz:14223.got - 2010.06.11 13:03:20.
