data_PCOD9141902
_publ_section_title
;
Structure prediction by ZEFSAII (Michael W. Deem and Ramdas Pophale) SiO2 
 PCOD9141902
Probable space group: P 2/M
;
_chemical_formula_sum "Si O2"
_cell_formula_units_Z 30
_cell_length_a 12.725152
_cell_length_b 18.852676
_cell_length_c 12.668260
_cell_angle_alpha 90.000000
_cell_angle_beta 146.024360
_cell_angle_gamma 90.000000
_cell_volume 1698.402921
_symmetry_space_group_name_H-M "P 2/M"
_symmetry_group_IT_number 10
_symmetry_cell_setting 'monoclinic'
loop_
_space_group_symop_operation_xyz
x,y,z
-x,y,-z
-x,-y,-z
x,-y,z
loop_
_atom_site_type_symbol
_atom_site_label
_atom_site_fract_x
_atom_site_fract_y
_atom_site_fract_z
Si Si1 0.817985 0.421297 0.422219
Si Si2 0.920613 0.922938 0.124977
Si Si3 0.004357 0.233093 0.124680
Si Si4 0.500000 0.624853 0.000000
Si Si5 0.757160 0.277722 0.491790
Si Si6 0.876998 0.131697 0.501073
Si Si7 0.637900 0.264749 0.950510
Si Si8 0.461205 0.891643 0.085007
O O1 0.820268 0.500000 0.473155
O O2 0.638504 0.415590 0.194381
O O3 0.813608 0.356006 0.500084
O O4 0.000000 0.414073 0.500000
O O5 0.973415 0.852383 0.104144
O O6 0.030934 0.909995 0.326166
O O7 0.968298 0.000000 0.118763
O O8 0.701866 0.923156 0.977939
O O9 0.188020 0.258489 0.342556
O O10 0.829580 0.264371 0.045363
O O11 0.000000 0.255601 0.000000
O O12 0.623691 0.675030 0.026717
O O13 0.867117 0.215921 0.518691
O O14 0.539023 0.270409 0.276842
O O15 0.662861 0.108091 0.307898
O O16 0.000000 0.119941 0.500000
O O17 0.611846 0.189491 0.987120
O O18 0.500000 0.920159 0.000000
#
# Coordination Sequence:
#
# PCOD9141902 Si02
#       8
#     4   4   4   2   4   4   4   4
#     4  10  19  29  46  78 117 148 170 197 242 303
#     4  10  22  35  47  69  99 129 163 205 261 312
#     4  10  21  37  56  75  94 125 176 224 260 299
#     4  10  17  30  52  78 111 144 170 198 245 302
#     4   9  19  32  51  74  99 134 171 214 251 290
#     4  10  18  30  48  70  98 132 168 202 242 299
#     4   9  18  30  52  78 102 130 166 210 251 296
#     4  10  17  29  46  69  97 130 164 200 237 293
#
# _framework density 17.663651999999999
#
# number of rings (size 3 to 8) (size 9 to 14) (size 15 to 20)
#    0.000    2.267    2.000    1.400    0.000    1.867 
#    0.000    0.000    0.000    0.400    0.000   11.200 
#    0.000    0.000    0.000    0.000    0.000    0.000 
#
# Total GULP energy -167265.216861 kJ/mol
# GULP energy per Si atom -5575.507229 kJ/mol
# Density = 1.762345 g / cm^3
# Si number density = 17.663652 Si / 1000 Ang^3
#
#
#
# Elastic Constant Matrix: (Units=GPa)
#
#
# Indices 1 2 3 4 5 6 
#
# 1 42.1787 7.4599 20.7840 0.0000 -12.8922 0.0000
# 2 7.4599 101.1640 19.3880 0.0000 -1.2116 0.0000
# 3 20.7840 19.3880 55.3817 0.0000 -5.5150 0.0000
# 4 0.0000 0.0000 0.0000 46.3856 0.0000 17.3543
# 5 -12.8922 -1.2116 -5.5150 0.0000 24.8086 0.0000
# 6 0.0000 0.0000 0.0000 17.3543 0.0000 11.3352
#
#
#
# Elastic Compliance Matrix: (Units=1/GPa)
#
#
# Indices 1 2 3 4 5 6 
#
# 1 0.033843 -0.000181 -0.011134 0.000000 0.015103 0.000000
# 2 -0.000181 0.010599 -0.003682 0.000000 -0.000395 0.000000
# 3 -0.011134 -0.003682 0.023449 0.000000 -0.000753 0.000000
# 4 0.000000 0.000000 0.000000 0.050464 0.000000 -0.077261
# 5 0.015103 -0.000395 -0.000753 0.000000 0.047971 0.000000
# 6 0.000000 0.000000 0.000000 -0.077261 0.000000 0.206509
#
#
# Mechanical properties :
#
#
# Convention : Reuss Voigt Hill
#
# Bulk Modulus (GPa) = 26.38646 32.66536 29.52591
# Shear Modulus (GPa) = 12.03482 26.57871 19.30677
#
# Velocity S-wave (km/s) = 2.61307 3.88327 3.30968
# Velocity P-wave (km/s) = 4.90661 6.21607 5.59975
#
# Compressibility (1/GPa) = 0.03789823
#
# Stress axis : x y z
#
# Youngs Moduli (GPa) = 29.54794 94.34668 42.64610
#
# Poissons Ratio (x) = 0.01708 0.47480
# Poissons Ratio (y) = 0.00535 0.15702
# Poissons Ratio (z) = 0.32897 0.34738
#
# Static dielectric constant tensor:
#      x y z
#    x 1.561200 0.000000 0.017740 
#    y 0.000000 1.632430 0.000000 
#    z 0.017740 0.000000 1.620920 
# 
# From -- ./inp_files/47923.got.cif
#   From: 2010.05.17/outbox.cif.g08.bks.cpg/sg10_24_cif.got.tgz:47923.got - 2010.06.03 11:33:40.
