data_PCOD9141208
_publ_section_title
;
Structure prediction by ZEFSAII (Michael W. Deem and Ramdas Pophale) SiO2 
 PCOD9141208
Probable space group: C C
;
_chemical_formula_sum "Si O2"
_cell_formula_units_Z 16
_cell_length_a 27.000000
_cell_length_b 15.000000
_cell_length_c 24.000000
_cell_angle_alpha 90.000000
_cell_angle_beta 10.000000
_cell_angle_gamma 90.000000
_cell_volume 1687.860287
_symmetry_space_group_name_H-M "C C"
_symmetry_group_IT_number 9
_symmetry_cell_setting 'monoclinic'
loop_
_space_group_symop_operation_xyz
x,y,z
x,-y,1/2+z
1/2+x,1/2+y,z
1/2+x,1/2-y,1/2+z
loop_
_atom_site_type_symbol
_atom_site_label
_atom_site_fract_x
_atom_site_fract_y
_atom_site_fract_z
Si Si1 0.133050 0.998794 0.204070
Si Si2 0.940408 0.201704 0.304741
Si Si3 0.185564 0.206704 0.672309
Si Si4 0.197151 0.188609 0.318535
Si Si5 0.554973 0.783850 0.652134
Si Si6 0.313980 0.026956 0.874823
Si Si7 0.064125 0.604184 0.810132
Si Si8 0.915666 0.053951 0.720631
O O1 0.809067 0.037464 0.563022
O O2 0.139188 0.898873 0.221416
O O3 0.227533 0.995482 0.033883
O O4 0.356333 0.057435 0.993881
O O5 0.674685 0.221415 0.557951
O O6 0.767903 0.175426 0.552318
O O7 0.152648 0.122318 0.052332
O O8 0.388843 0.240824 0.496196
O O9 0.362825 0.229953 0.419403
O O10 0.933346 0.250776 0.589424
O O11 0.062743 0.110523 0.507231
O O12 0.367018 0.145980 0.077193
O O13 0.723086 0.875469 0.467887
O O14 0.828827 0.717875 0.352052
O O15 0.660353 0.015851 0.486036
O O16 0.155561 0.979106 0.998248
#
# Coordination Sequence:
#
# PCOD9141208 Si02
#       8
#     4   4   4   4   4   4   4   4
#     4  11  21  38  57  86 119 158 205 253 310 357
#     4  11  21  37  59  87 115 149 189 252 312 353
#     4  10  20  30  49  79 114 149 186 233 289 356
#     4  12  25  43  62  91 127 169 213 245 285 362
#     4  10  19  29  46  73 110 154 186 217 270 339
#     4  11  23  36  58  86 119 154 198 246 307 375
#     4  11  23  38  63  85 119 162 207 252 300 357
#     4  12  22  37  56  83 123 161 196 238 289 357
#
# _framework density 9.4794579999999993
#
# number of rings (size 3 to 8) (size 9 to 14) (size 15 to 20)
#    0.000    1.000    1.250    8.250    3.500    0.000 
#    0.000    0.000    0.000    0.000    0.000   17.500 
#    0.000    0.000    0.000    0.000    0.000    0.000 
#
# Total GULP energy -89202.404293 kJ/mol
# GULP energy per Si atom -5575.150268 kJ/mol
# Density = 0.945788 g / cm^3
# Si number density = 9.479458 Si / 1000 Ang^3
#
#
#
# Elastic Constant Matrix: (Units=GPa)
#
#
# Indices 1 2 3 4 5 6 
#
# 1 90.2279 30.1015 57.3845 -0.2940 -14.9288 0.0617
# 2 30.1015 61.1368 41.3937 -0.4106 -7.9627 0.3144
# 3 57.3845 41.3937 145.4197 -0.8098 -25.2139 -0.1891
# 4 -0.2940 -0.4106 -0.8098 51.5622 -0.1188 -8.7891
# 5 -14.9288 -7.9627 -25.2139 -0.1188 39.6379 -0.0456
# 6 0.0617 0.3144 -0.1891 -8.7891 -0.0456 34.6909
#
#
#
# Elastic Compliance Matrix: (Units=1/GPa)
#
#
# Indices 1 2 3 4 5 6 
#
# 1 0.015848 -0.004387 -0.004634 -0.000015 0.002140 -0.000015
# 2 -0.004387 0.021485 -0.004409 0.000042 -0.000141 -0.000200
# 3 -0.004634 -0.004409 0.010684 0.000141 0.004165 0.000148
# 4 -0.000015 0.000042 0.000141 0.020272 0.000159 0.005137
# 5 0.002140 -0.000141 0.004165 0.000159 0.028656 0.000098
# 6 -0.000015 -0.000200 0.000148 0.005137 0.000098 0.030130
#
#
# Mechanical properties :
#
#
# Convention : Reuss Voigt Hill
#
# Bulk Modulus (GPa) = 47.26696 61.61597 54.44147
# Shear Modulus (GPa) = 31.05843 36.37183 33.71513
#
# Velocity S-wave (km/s) = 4.05185 4.38477 4.22160
# Velocity P-wave (km/s) = 6.84656 7.62923 7.24847
#
# Compressibility (1/GPa) = 0.02115643
#
# Stress axis : x y z
#
# Youngs Moduli (GPa) = 63.10031 46.54467 93.60112
#
# Poissons Ratio (x) = 0.20417 0.43377
# Poissons Ratio (y) = 0.27679 0.41270
# Poissons Ratio (z) = 0.29242 0.20522
#
# Static dielectric constant tensor:
#      x y z
#    x 1.687210 -0.000050 -0.044270 
#    y -0.000050 1.759990 0.000240 
#    z -0.044270 0.000240 1.658900 
# 
# From -- ./inp_files/2924.got.cif
#   From: 2010.05.17/outbox.ucp.g08.bks.cvg/sg9_2_cif.got.tgz:2924.got - 2010.06.11 13:03:20.
