data_PCOD9141813
_publ_section_title
;
Structure prediction by ZEFSAII (Michael W. Deem and Ramdas Pophale) SiO2 
 PCOD9141813
Probable space group: P 2/M
;
_chemical_formula_sum "Si O2"
_cell_formula_units_Z 32
_cell_length_a 23.956086
_cell_length_b 7.774840
_cell_length_c 30.224406
_cell_angle_alpha 90.000000
_cell_angle_beta 16.932519
_cell_angle_gamma 90.000000
_cell_volume 1639.547011
_symmetry_space_group_name_H-M "P 2/M"
_symmetry_group_IT_number 10
_symmetry_cell_setting 'monoclinic'
loop_
_space_group_symop_operation_xyz
x,y,z
-x,y,-z
-x,-y,-z
x,-y,z
loop_
_atom_site_type_symbol
_atom_site_label
_atom_site_fract_x
_atom_site_fract_y
_atom_site_fract_z
Si Si1 0.041850 0.800637 0.257300
Si Si2 0.211372 0.210798 0.471634
Si Si3 0.053116 0.702563 0.848088
Si Si4 0.604664 0.210568 0.064717
Si Si5 0.826518 0.790142 0.601052
Si Si6 0.427210 0.798127 0.603044
Si Si7 0.200817 0.299902 0.640657
Si Si8 0.358712 0.207072 0.861479
O O1 0.937324 0.724430 0.379212
O O2 0.892833 0.793279 0.329653
O O3 0.082276 0.000000 0.237305
O O4 0.239090 0.725534 0.088612
O O5 0.158457 0.260903 0.461749
O O6 0.431462 0.264542 0.313708
O O7 0.211938 0.000000 0.472484
O O8 0.085387 0.500000 0.822524
O O9 0.199588 0.772566 0.773751
O O10 0.117265 0.771192 0.750725
O O11 0.828444 0.736830 0.023145
O O12 0.385648 0.261874 0.222159
O O13 0.658218 0.264167 0.074234
O O14 0.610659 0.000000 0.060330
O O15 0.000000 0.729290 0.500000
O O16 0.829190 0.000000 0.599612
O O17 0.500000 0.729238 0.500000
O O18 0.569035 0.715526 0.530931
O O19 0.466747 0.000000 0.574779
O O20 0.147839 0.500000 0.677498
O O21 0.359690 0.000000 0.860967
#
# Coordination Sequence:
#
# PCOD9141813 Si02
#       8
#     4   4   4   4   4   4   4   4
#     4  10  17  28  45  65  91 121 156 193 229 272
#     4   8  16  27  42  65  91 121 155 191 228 272
#     4  10  18  27  42  66  93 117 150 196 238 272
#     4   8  14  23  40  63  86 118 156 188 221 269
#     4   8  13  24  41  63  95 129 153 181 229 277
#     4   9  17  28  43  64  90 122 157 189 229 279
#     4  10  19  29  42  64  94 122 151 190 238 277
#     4   9  15  27  44  62  86 118 155 190 230 277
#
# _framework density 19.517586999999999
#
# number of rings (size 3 to 8) (size 9 to 14) (size 15 to 20)
#    0.000    3.000    1.250    2.625    0.000    2.500 
#    0.000    1.250    0.000    4.500    0.000    5.250 
#    0.000   19.000    0.000    0.000    0.000    0.000 
#
# Total GULP energy -178316.450813 kJ/mol
# GULP energy per Si atom -5572.389088 kJ/mol
# Density = 1.947316 g / cm^3
# Si number density = 19.517587 Si / 1000 Ang^3
#
#
#
# Elastic Constant Matrix: (Units=GPa)
#
#
# Indices 1 2 3 4 5 6 
#
# 1 58.4469 -4.2360 68.0536 0.0000 -9.7916 0.0000
# 2 -4.2360 31.3078 1.6563 0.0000 3.9760 0.0000
# 3 68.0536 1.6563 153.8324 0.0000 -5.1271 0.0000
# 4 0.0000 0.0000 0.0000 -13.3739 0.0000 13.4794
# 5 -9.7916 3.9760 -5.1271 0.0000 35.8318 0.0000
# 6 0.0000 0.0000 0.0000 13.4794 0.0000 -10.8711
#
#
#
# Elastic Compliance Matrix: (Units=1/GPa)
#
#
# Indices 1 2 3 4 5 6 
#
# 1 0.038163 0.005097 -0.016688 0.000000 0.007475 0.000000
# 2 0.005097 0.033112 -0.002700 0.000000 -0.002668 0.000000
# 3 -0.016688 -0.002700 0.013836 0.000000 -0.002281 0.000000
# 4 0.000000 0.000000 0.000000 0.299434 0.000000 0.371277
# 5 0.007475 -0.002668 -0.002281 0.000000 0.029921 0.000000
# 6 0.000000 0.000000 0.000000 0.371277 0.000000 0.368371
#
#
# Mechanical properties :
#
#
# Convention : Reuss Voigt Hill
#
# Bulk Modulus (GPa) = 17.69037 41.61498 29.65267
# Shear Modulus (GPa) = 6.02219 14.19158 10.10688
#
# Velocity S-wave (km/s) = 1.75847 2.69944 2.27807
# Velocity P-wave (km/s) = 3.63407 5.57530 4.70587
#
# Compressibility (1/GPa) = 0.05652795
#
# Stress axis : x y z
#
# Youngs Moduli (GPa) = 26.20359 30.20031 72.27316
#
# Poissons Ratio (x) = -0.15393 1.20613
# Poissons Ratio (y) = -0.13356 0.19516
# Poissons Ratio (z) = 0.43730 0.08155
#
# Static dielectric constant tensor:
#      x y z
#    x 1.663480 0.000000 -0.002670 
#    y 0.000000 1.697970 0.000000 
#    z -0.002670 0.000000 1.722980 
# 
# From -- ./inp_files/93652.got.cif
#   From: 2010.05.17/outbox.cif.g08.bks.cpg/sg10_47_cif.got.tgz:93652.got - 2010.06.03 11:33:40.
