data_PCOD9141608
_publ_section_title
;
Structure prediction by ZEFSAII (Michael W. Deem and Ramdas Pophale) SiO2 
 PCOD9141608
Probable space group: P 2/M
;
_chemical_formula_sum "Si O2"
_cell_formula_units_Z 32
_cell_length_a 33.993949
_cell_length_b 8.936041
_cell_length_c 22.758207
_cell_angle_alpha 90.000000
_cell_angle_beta 162.060156
_cell_angle_gamma 90.000000
_cell_volume 2129.419962
_symmetry_space_group_name_H-M "P 2/M"
_symmetry_group_IT_number 10
_symmetry_cell_setting 'monoclinic'
loop_
_space_group_symop_operation_xyz
x,y,z
-x,y,-z
-x,-y,-z
x,-y,z
loop_
_atom_site_type_symbol
_atom_site_label
_atom_site_fract_x
_atom_site_fract_y
_atom_site_fract_z
Si Si1 0.698534 0.178524 0.051929
Si Si2 0.181734 0.320607 0.236642
Si Si3 0.759368 0.320620 0.500504
Si Si4 0.192748 0.178761 0.665032
Si Si5 0.972890 0.821051 0.873131
Si Si6 0.056363 0.327617 0.646565
Si Si7 0.424509 0.678489 0.651301
Si Si8 0.648139 0.320199 0.214182
O O1 0.736073 0.220142 0.172586
O O2 0.806544 0.249679 0.163749
O O3 0.704320 0.000000 0.055759
O O4 0.557803 0.237510 0.838448
O O5 0.162254 0.500000 0.209323
O O6 0.108573 0.247564 0.188273
O O7 0.329774 0.291523 0.461783
O O8 0.113544 0.248019 0.083360
O O9 0.780547 0.500000 0.535575
O O10 0.891407 0.236211 0.702081
O O11 0.654886 0.281414 0.402286
O O12 0.704107 0.286232 0.358035
O O13 0.270111 0.244342 0.720558
O O14 0.049784 0.244094 0.465845
O O15 0.187392 0.000000 0.654444
O O16 0.976509 0.000000 0.881429
O O17 0.068361 0.500000 0.681426
O O18 0.000000 0.323547 0.500000
O O19 0.447165 0.500000 0.685930
O O20 0.653187 0.500000 0.213427
O O21 0.500000 0.274308 0.000000
#
# Coordination Sequence:
#
# PCOD9141608 Si02
#       8
#     4   4   4   4   4   4   4   4
#     4  10  19  29  43  64  90 116 140 174 221 266
#     4   9  16  27  41  57  81 112 143 175 213 255
#     4   9  18  31  44  59  83 116 151 185 218 252
#     4  10  20  32  45  63  88 115 144 181 224 262
#     4  10  17  25  40  60  81 107 142 180 216 257
#     4   9  17  30  48  65  81 107 144 181 215 257
#     4   9  17  28  43  62  85 115 148 179 212 255
#     4  10  20  33  48  64  84 115 155 190 216 249
#
# _framework density 15.027566
#
# number of rings (size 3 to 8) (size 9 to 14) (size 15 to 20)
#    0.000    2.500    0.000    4.875    0.000    7.250 
#    0.000    0.000    0.000    0.000    0.000    0.000 
#    0.000    1.000    0.000   10.500    0.000    5.250 
#
# Total GULP energy -178304.966830 kJ/mol
# GULP energy per Si atom -5572.030213 kJ/mol
# Density = 1.499336 g / cm^3
# Si number density = 15.027566 Si / 1000 Ang^3
#
#
#
# Elastic Constant Matrix: (Units=GPa)
#
#
# Indices 1 2 3 4 5 6 
#
# 1 60.9706 35.3000 58.3478 0.0000 7.3312 0.0000
# 2 35.3000 65.8256 68.0602 0.0000 -1.8711 0.0000
# 3 58.3478 68.0602 146.3899 0.0000 1.0422 0.0000
# 4 0.0000 0.0000 0.0000 36.5289 0.0000 11.6699
# 5 7.3312 -1.8711 1.0422 0.0000 21.2675 0.0000
# 6 0.0000 0.0000 0.0000 11.6699 0.0000 24.8498
#
#
#
# Elastic Compliance Matrix: (Units=1/GPa)
#
#
# Indices 1 2 3 4 5 6 
#
# 1 0.030203 -0.007959 -0.008262 0.000000 -0.010707 0.000000
# 2 -0.007959 0.031577 -0.011552 0.000000 0.006088 0.000000
# 3 -0.008262 -0.011552 0.015487 0.000000 0.001073 0.000000
# 4 0.000000 0.000000 0.000000 0.032208 0.000000 -0.015125
# 5 -0.010707 0.006088 0.001073 0.000000 0.051194 0.000000
# 6 0.000000 0.000000 0.000000 -0.015125 0.000000 0.047345
#
#
# Mechanical properties :
#
#
# Convention : Reuss Voigt Hill
#
# Bulk Modulus (GPa) = 46.03664 66.28910 56.16287
# Shear Modulus (GPa) = 18.46383 23.96111 21.21247
#
# Velocity S-wave (km/s) = 3.50903 3.99742 3.76116
# Velocity P-wave (km/s) = 6.86433 8.09403 7.50441
#
# Compressibility (1/GPa) = 0.02172183
#
# Stress axis : x y z
#
# Youngs Moduli (GPa) = 33.10920 31.66863 64.56969
#
# Poissons Ratio (x) = 0.25205 0.53346
# Poissons Ratio (y) = 0.26352 0.74591
# Poissons Ratio (z) = 0.27354 0.36583
#
# Static dielectric constant tensor:
#      x y z
#    x 1.478680 0.000000 -0.022450 
#    y 0.000000 1.500340 0.000000 
#    z -0.022450 0.000000 1.523060 
# 
# From -- ./inp_files/87210.got.cif
#   From: 2010.05.17/outbox.cif.g08.bks.cpg/sg10_44_cif.got.tgz:87210.got - 2010.06.03 11:33:40.
