data_PCOD9141788
_publ_section_title
;
Structure prediction by ZEFSAII (Michael W. Deem and Ramdas Pophale) SiO2 
 PCOD9141788
Probable space group: P 2/M
;
_chemical_formula_sum "Si O2"
_cell_formula_units_Z 19
_cell_length_a 6.672217
_cell_length_b 12.661170
_cell_length_c 11.723296
_cell_angle_alpha 90.000000
_cell_angle_beta 58.222677
_cell_angle_gamma 90.000000
_cell_volume 841.907458
_symmetry_space_group_name_H-M "P 2/M"
_symmetry_group_IT_number 10
_symmetry_cell_setting 'monoclinic'
loop_
_space_group_symop_operation_xyz
x,y,z
-x,y,-z
-x,-y,-z
x,-y,z
loop_
_atom_site_type_symbol
_atom_site_label
_atom_site_fract_x
_atom_site_fract_y
_atom_site_fract_z
Si Si1 0.000000 0.800359 0.000000
Si Si2 0.506123 0.884685 0.135700
Si Si3 0.748657 0.375736 0.467140
Si Si4 0.500000 0.500000 0.000000
Si Si5 0.420715 0.343499 0.238243
Si Si6 0.046988 0.622457 0.821561
O O1 0.222378 0.871542 0.906380
O O2 0.923232 0.716504 0.925985
O O3 0.393855 0.780214 0.221457
O O4 0.412695 0.000000 0.198203
O O5 0.500000 0.880731 0.000000
O O6 0.500000 0.326072 0.500000
O O7 0.739054 0.500000 0.444050
O O8 0.748402 0.369177 0.603314
O O9 0.938092 0.344531 0.314767
O O10 0.424174 0.408724 0.119761
O O11 0.683371 0.371803 0.211352
O O12 0.962003 0.500000 0.870206
#
# Coordination Sequence:
#
# PCOD9141788 Si02
#       6
#     2   4   4   1   4   4
#     4  10  20  32  54  78 102 131 175 228 250 296
#     4  10  21  36  53  75 102 139 177 213 259 302
#     4   8  13  24  43  68 103 136 166 202 255 313
#     4  12  16  24  44  82 110 126 170 208 270 302
#     4  10  17  27  47  76 106 135 168 216 252 310
#     4   9  16  28  46  74 106 138 167 206 263 314
#
# _framework density 22.567802
#
# number of rings (size 3 to 8) (size 9 to 14) (size 15 to 20)
#    0.000    2.526    3.158    1.895    0.000    0.000 
#    0.000    0.000    0.000   18.316    0.000   11.789 
#    0.000    0.000    0.000    0.000    0.000    0.000 
#
# Total GULP energy -105787.533573 kJ/mol
# GULP energy per Si atom -5567.764925 kJ/mol
# Density = 2.251644 g / cm^3
# Si number density = 22.567802 Si / 1000 Ang^3
#
#
#
# Elastic Constant Matrix: (Units=GPa)
#
#
# Indices 1 2 3 4 5 6 
#
# 1 51.2991 12.4874 8.7104 0.0000 23.2822 0.0000
# 2 12.4874 143.2021 20.5426 0.0000 -0.7446 0.0000
# 3 8.7104 20.5426 153.5578 0.0000 9.9039 0.0000
# 4 0.0000 0.0000 0.0000 -36.2812 0.0000 -22.7544
# 5 23.2822 -0.7446 9.9039 0.0000 33.4714 0.0000
# 6 0.0000 0.0000 0.0000 -22.7544 0.0000 13.5506
#
#
#
# Elastic Compliance Matrix: (Units=1/GPa)
#
#
# Indices 1 2 3 4 5 6 
#
# 1 0.029478 -0.002679 0.000013 0.000000 -0.020568 0.000000
# 2 -0.002679 0.007370 -0.000983 0.000000 0.002319 0.000000
# 3 0.000013 -0.000983 0.006774 0.000000 -0.002035 0.000000
# 4 0.000000 0.000000 0.000000 -0.013424 0.000000 -0.022543
# 5 -0.020568 0.002319 -0.002035 0.000000 0.044837 0.000000
# 6 0.000000 0.000000 0.000000 -0.022543 0.000000 0.035943
#
#
# Mechanical properties :
#
#
# Convention : Reuss Voigt Hill
#
# Bulk Modulus (GPa) = 27.53098 47.94888 37.73993
# Shear Modulus (GPa) = 38.34764 22.56939 30.45852
#
# Velocity S-wave (km/s) = 4.12663 3.16582 3.67774
# Velocity P-wave (km/s) = 5.91026 5.88693 5.89861
#
# Compressibility (1/GPa) = 0.03632272
#
# Stress axis : x y z
#
# Youngs Moduli (GPa) = 33.92312 135.68666 147.61640
#
# Poissons Ratio (x) = 0.36355 -0.00190
# Poissons Ratio (y) = 0.09089 0.14518
# Poissons Ratio (z) = -0.00044 0.13345
#
# Static dielectric constant tensor:
#      x y z
#    x 2.125660 0.000000 -0.041670 
#    y 0.000000 1.759550 0.000000 
#    z -0.041670 0.000000 1.893990 
# 
# From -- ./inp_files/41268.got.cif
#   From: 2010.05.17/outbox.cif.g08.bks.cpg/sg10_21_cif.got.tgz:41268.got - 2010.06.03 11:33:40.
