data_PCOD9141177
_publ_section_title
;
Structure prediction by ZEFSAII (Michael W. Deem and Ramdas Pophale) SiO2 
 PCOD9141177
Probable space group: C C
;
_chemical_formula_sum "Si O2"
_cell_formula_units_Z 20
_cell_length_a 7.115123
_cell_length_b 11.624166
_cell_length_c 9.582622
_cell_angle_alpha 90.000000
_cell_angle_beta 88.049940
_cell_angle_gamma 90.000000
_cell_volume 792.094477
_symmetry_space_group_name_H-M "C C"
_symmetry_group_IT_number 9
_symmetry_cell_setting 'monoclinic'
loop_
_space_group_symop_operation_xyz
x,y,z
x,-y,1/2+z
1/2+x,1/2+y,z
1/2+x,1/2-y,1/2+z
loop_
_atom_site_type_symbol
_atom_site_label
_atom_site_fract_x
_atom_site_fract_y
_atom_site_fract_z
Si Si1 0.019260 0.961187 0.713850
Si Si2 0.439454 0.978817 0.169283
Si Si3 0.965802 0.256545 0.018617
Si Si4 0.879103 0.861153 0.990316
Si Si5 0.126986 0.636864 0.931522
O O1 0.984057 0.841440 0.634760
O O2 0.919045 0.949143 0.864082
O O3 0.245509 0.965170 0.724773
O O4 0.937959 0.067044 0.625643
O O5 0.670269 0.192059 0.481058
O O6 0.572898 0.056983 0.067422
O O7 0.367959 0.870011 0.081055
O O8 0.551354 0.928372 0.297697
O O9 0.834894 0.191966 0.911450
O O10 0.005848 0.750309 0.963849
#
# Coordination Sequence:
#
# PCOD9141177 Si02
#       5
#     4   4   4   4   4
#     4  12  27  55  86 120 174 225 283 352 422 502
#     4  12  27  55  86 120 174 225 283 352 422 502
#     4  12  28  52  82 124 170 224 280 348 422 502
#     4  12  28  56  84 126 170 224 282 354 422 508
#     4  12  28  56  84 126 170 224 282 354 422 508
#
# _framework density 25.249510000000001
#
# number of rings (size 3 to 8) (size 9 to 14) (size 15 to 20)
#    0.000    0.000    6.000    2.400    0.000    6.400 
#    7.200    0.000    0.000    2.400    0.000    0.000 
#    0.000    0.000    0.000    0.000    0.000    0.000 
#
# Total GULP energy -56033.806416 kJ/mol
# GULP energy per Si atom -5603.380642 kJ/mol
# Density = 2.519204 g / cm^3
# Si number density = 25.249510 Si / 1000 Ang^3
#
#
#
# Elastic Constant Matrix: (Units=GPa)
#
#
# Indices 1 2 3 4 5 6 
#
# 1 124.4085 32.9864 54.2211 0.0000 9.9986 0.0000
# 2 32.9864 153.9987 64.1546 0.0000 -0.9078 0.0000
# 3 54.2211 64.1546 150.6206 0.0000 -15.3597 0.0000
# 4 0.0000 0.0000 0.0000 50.3395 0.0000 5.2651
# 5 9.9986 -0.9078 -15.3597 0.0000 33.7325 0.0000
# 6 0.0000 0.0000 0.0000 5.2651 0.0000 5.3408
#
#
#
# Elastic Compliance Matrix: (Units=1/GPa)
#
#
# Indices 1 2 3 4 5 6 
#
# 1 0.010311 -0.000588 -0.003958 0.000000 -0.004874 0.000000
# 2 -0.000588 0.007990 -0.003305 0.000000 -0.001116 0.000000
# 3 -0.003958 -0.003305 0.010049 0.000000 0.005660 0.000000
# 4 0.000000 0.000000 0.000000 0.022149 0.000000 -0.021835
# 5 -0.004874 -0.001116 0.005660 0.000000 0.033637 0.000000
# 6 0.000000 0.000000 0.000000 -0.021835 0.000000 0.208765
#
#
# Mechanical properties :
#
#
# Convention : Reuss Voigt Hill
#
# Bulk Modulus (GPa) = 79.07379 81.30576 80.18978
# Shear Modulus (GPa) = 15.98366 36.39362 26.18864
#
# Velocity S-wave (km/s) = 2.51874 3.80064 3.22404
# Velocity P-wave (km/s) = 6.31218 7.17849 6.75923
#
# Compressibility (1/GPa) = 0.01264641
#
# Stress axis : x y z
#
# Youngs Moduli (GPa) = 96.98469 125.15793 99.51174
#
# Poissons Ratio (x) = 0.07364 0.39389
# Poissons Ratio (y) = 0.05706 0.32890
# Poissons Ratio (z) = 0.38389 0.41366
#
# Static dielectric constant tensor:
#      x y z
#    x 2.043180 0.000000 0.011310 
#    y 0.000000 1.958980 0.000000 
#    z 0.011310 0.000000 1.995580 
# 
# From -- ./inp_files/6902.got.cif
#   From: 2010.05.17/outbox.cif.g08.bks.cpg/sg9_4_cif.got.tgz:6902.got - 2010.06.03 20:04:27.
