data_PCOD9141108
_publ_section_title
;
Structure prediction by ZEFSAII (Michael W. Deem and Ramdas Pophale) SiO2 
 PCOD9141108
Probable space group: C C
;
_chemical_formula_sum "Si O2"
_cell_formula_units_Z 20
_cell_length_a 7.798271
_cell_length_b 12.933509
_cell_length_c 8.139751
_cell_angle_alpha 90.000000
_cell_angle_beta 118.621689
_cell_angle_gamma 90.000000
_cell_volume 720.646420
_symmetry_space_group_name_H-M "C C"
_symmetry_group_IT_number 9
_symmetry_cell_setting 'monoclinic'
loop_
_space_group_symop_operation_xyz
x,y,z
x,-y,1/2+z
1/2+x,1/2+y,z
1/2+x,1/2-y,1/2+z
loop_
_atom_site_type_symbol
_atom_site_label
_atom_site_fract_x
_atom_site_fract_y
_atom_site_fract_z
Si Si1 0.637700 0.095859 0.662860
Si Si2 0.239493 0.845860 0.162864
Si Si3 0.669169 0.124999 0.124020
Si Si4 0.986416 0.949711 0.577338
Si Si5 0.805250 0.300285 0.577339
O O1 0.434680 0.125004 0.655024
O O2 0.799652 0.065512 0.873707
O O3 0.746760 0.187261 0.614731
O O4 0.588060 0.989609 0.544489
O O5 0.170749 0.739609 0.044497
O O6 0.288380 0.815516 0.373708
O O7 0.082318 0.937270 0.114729
O O8 0.899039 0.093864 0.209129
O O9 0.524413 0.156132 0.209134
O O10 0.155295 0.874992 0.596277
#
# Coordination Sequence:
#
# PCOD9141108 Si02
#       5
#     4   4   4   4   4
#     4  12  28  52  83 120 165 215 275 339 415 491
#     4  12  28  52  83 120 165 215 275 339 415 491
#     4  12  26  48  82 110 162 218 264 334 412 490
#     4  12  26  52  82 119 160 218 272 340 406 495
#     4  12  26  52  82 119 160 218 272 340 406 495
#
# _framework density 27.752859999999998
#
# number of rings (size 3 to 8) (size 9 to 14) (size 15 to 20)
#    0.000    0.000    6.000    3.600    5.600    0.000 
#    7.200    0.000    0.000    0.000    0.000    0.000 
#    0.000    0.000    0.000    0.000    0.000    0.000 
#
# Total GULP energy -55840.915851 kJ/mol
# GULP energy per Si atom -5584.091585 kJ/mol
# Density = 2.768969 g / cm^3
# Si number density = 27.752860 Si / 1000 Ang^3
#
#
#
# Elastic Constant Matrix: (Units=GPa)
#
#
# Indices 1 2 3 4 5 6 
#
# 1 341.4760 155.3058 37.4876 0.0000 19.7231 0.0000
# 2 155.3058 320.0997 57.4852 0.0000 7.9400 0.0000
# 3 37.4876 57.4852 100.5615 0.0000 -0.1843 0.0000
# 4 0.0000 0.0000 0.0000 34.6838 0.0000 5.1795
# 5 19.7231 7.9400 -0.1843 0.0000 31.9671 0.0000
# 6 0.0000 0.0000 0.0000 5.1795 0.0000 98.6123
#
#
#
# Elastic Compliance Matrix: (Units=1/GPa)
#
#
# Indices 1 2 3 4 5 6 
#
# 1 0.003891 -0.001758 -0.000449 0.000000 -0.001967 0.000000
# 2 -0.001758 0.004301 -0.001803 0.000000 0.000006 0.000000
# 3 -0.000449 -0.001803 0.011144 0.000000 0.000789 0.000000
# 4 0.000000 0.000000 0.000000 0.029060 0.000000 -0.001526
# 5 -0.001967 0.000006 0.000789 0.000000 0.032498 0.000000
# 6 0.000000 0.000000 0.000000 -0.001526 0.000000 0.010221
#
#
# Mechanical properties :
#
#
# Convention : Reuss Voigt Hill
#
# Bulk Modulus (GPa) = 88.38001 140.29936 114.33968
# Shear Modulus (GPa) = 48.58751 67.17656 57.88204
#
# Velocity S-wave (km/s) = 4.18870 4.92522 4.57182
# Velocity P-wave (km/s) = 7.43694 9.11080 8.31609
#
# Compressibility (1/GPa) = 0.01131478
#
# Stress axis : x y z
#
# Youngs Moduli (GPa) = 256.99659 232.51256 89.73739
#
# Poissons Ratio (x) = 0.40887 0.04028
# Poissons Ratio (y) = 0.45192 0.16180
# Poissons Ratio (z) = 0.11537 0.41922
#
# Static dielectric constant tensor:
#      x y z
#    x 2.208950 0.000000 -0.024510 
#    y 0.000000 2.155930 0.000000 
#    z -0.024510 0.000000 2.511570 
# 
# From -- ./inp_files/14149.got.cif
#   From: 2010.05.17/outbox.cif.g08.bks.cpg/sg9_8_cif.got.tgz:14149.got - 2010.06.03 20:04:27.
