data_PCOD9141736
_publ_section_title
;
Structure prediction by ZEFSAII (Michael W. Deem and Ramdas Pophale) SiO2 
 PCOD9141736
Probable space group: P 2/M
;
_chemical_formula_sum "Si O2"
_cell_formula_units_Z 32
_cell_length_a 12.483249
_cell_length_b 8.942266
_cell_length_c 25.267469
_cell_angle_alpha 90.000000
_cell_angle_beta 131.091890
_cell_angle_gamma 90.000000
_cell_volume 2125.741104
_symmetry_space_group_name_H-M "P 2/M"
_symmetry_group_IT_number 10
_symmetry_cell_setting 'monoclinic'
loop_
_space_group_symop_operation_xyz
x,y,z
-x,y,-z
-x,-y,-z
x,-y,z
loop_
_atom_site_type_symbol
_atom_site_label
_atom_site_fract_x
_atom_site_fract_y
_atom_site_fract_z
Si Si1 0.633644 0.327961 0.658928
Si Si2 0.355942 0.679302 0.892228
Si Si3 0.397647 0.827456 0.518819
Si Si4 0.877335 0.179082 0.799664
Si Si5 0.348800 0.819326 0.007051
Si Si6 0.922514 0.822263 0.237037
Si Si7 0.162069 0.672326 0.378669
Si Si8 0.952898 0.818154 0.042373
O O1 0.604145 0.500000 0.661481
O O2 0.490248 0.243865 0.595704
O O3 0.728920 0.252646 0.735012
O O4 0.734244 0.323555 0.639195
O O5 0.362975 0.500000 0.897859
O O6 0.506675 0.748488 0.923538
O O7 0.224771 0.734041 0.814284
O O8 0.331644 0.750326 0.942768
O O9 0.500000 0.822458 0.500000
O O10 0.256008 0.739594 0.456423
O O11 0.365814 0.000000 0.519062
O O12 0.990658 0.209039 0.789371
O O13 0.944134 0.231733 0.876586
O O14 0.859061 0.000000 0.795409
O O15 0.360692 0.000000 0.006774
O O16 0.208949 0.781147 0.995080
O O17 0.025061 0.767231 0.317280
O O18 0.898455 0.000000 0.231839
O O19 0.124831 0.500000 0.376164
O O20 0.959994 0.000000 0.044533
O O21 0.000000 0.764693 0.000000
#
# Coordination Sequence:
#
# PCOD9141736 Si02
#       8
#     4   4   4   4   4   4   4   4
#     4   9  16  24  35  51  72 101 134 172 209 244
#     4  11  20  29  43  63  86 111 139 178 218 256
#     4   9  15  23  34  49  70 101 137 171 202 242
#     4   9  16  27  41  58  78 103 137 175 211 253
#     4  10  18  31  47  64  83 108 140 176 216 261
#     4  10  17  27  41  59  80 109 142 175 211 251
#     4   9  16  24  34  52  77 105 134 169 207 247
#     4   9  17  30  48  67  85 108 141 181 221 260
#
# _framework density 15.053573999999999
#
# number of rings (size 3 to 8) (size 9 to 14) (size 15 to 20)
#    0.000    2.500    1.250    3.750    0.000    5.000 
#    0.000    0.000    0.000    3.375    0.000    0.000 
#    0.000    0.000    0.000    1.125    0.000   23.375 
#
# Total GULP energy -178282.290251 kJ/mol
# GULP energy per Si atom -5571.321570 kJ/mol
# Density = 1.501931 g / cm^3
# Si number density = 15.053574 Si / 1000 Ang^3
#
#
#
# Elastic Constant Matrix: (Units=GPa)
#
#
# Indices 1 2 3 4 5 6 
#
# 1 50.1295 26.2793 47.0196 0.0000 6.6768 0.0000
# 2 26.2793 78.7599 53.7906 0.0000 11.4418 0.0000
# 3 47.0196 53.7906 130.7685 0.0000 25.0411 0.0000
# 4 0.0000 0.0000 0.0000 19.9828 0.0000 6.5616
# 5 6.6768 11.4418 25.0411 0.0000 15.0077 0.0000
# 6 0.0000 0.0000 0.0000 6.5616 0.0000 5.2024
#
#
#
# Elastic Compliance Matrix: (Units=1/GPa)
#
#
# Indices 1 2 3 4 5 6 
#
# 1 0.031471 -0.004009 -0.011126 0.000000 0.007619 0.000000
# 2 -0.004009 0.018208 -0.005484 0.000000 -0.002948 0.000000
# 3 -0.011126 -0.005484 0.017862 0.000000 -0.020673 0.000000
# 4 0.000000 0.000000 0.000000 0.085419 0.000000 -0.107736
# 5 0.007619 -0.002948 -0.020673 0.000000 0.099984 0.000000
# 6 0.000000 0.000000 0.000000 -0.107736 0.000000 0.328102
#
#
# Mechanical properties :
#
#
# Convention : Reuss Voigt Hill
#
# Bulk Modulus (GPa) = 38.01720 57.09300 47.55510
# Shear Modulus (GPa) = 7.92330 16.87647 12.39989
#
# Velocity S-wave (km/s) = 2.29670 3.35191 2.87316
# Velocity P-wave (km/s) = 5.68705 7.27937 6.53191
#
# Compressibility (1/GPa) = 0.02630388
#
# Stress axis : x y z
#
# Youngs Moduli (GPa) = 31.77575 54.92103 55.98537
#
# Poissons Ratio (x) = 0.22018 0.62287
# Poissons Ratio (y) = 0.12739 0.30700
# Poissons Ratio (z) = 0.35352 0.30117
#
# Static dielectric constant tensor:
#      x y z
#    x 1.473480 0.000000 0.015450 
#    y 0.000000 1.501440 0.000000 
#    z 0.015450 0.000000 1.509190 
# 
# From -- ./inp_files/88557.got.cif
#   From: 2010.05.17/outbox.cif.g08.bks.cpg/sg10_45_cif.got.tgz:88557.got - 2010.06.03 11:33:40.
