data_PCOD9141627
_publ_section_title
;
Structure prediction by ZEFSAII (Michael W. Deem and Ramdas Pophale) SiO2 
 PCOD9141627
Probable space group: P 2/M
;
_chemical_formula_sum "Si O2"
_cell_formula_units_Z 32
_cell_length_a 15.900689
_cell_length_b 7.746835
_cell_length_c 23.888549
_cell_angle_alpha 90.000000
_cell_angle_beta 153.556543
_cell_angle_gamma 90.000000
_cell_volume 1310.378561
_symmetry_space_group_name_H-M "P 2/M"
_symmetry_group_IT_number 10
_symmetry_cell_setting 'monoclinic'
loop_
_space_group_symop_operation_xyz
x,y,z
-x,y,-z
-x,-y,-z
x,-y,z
loop_
_atom_site_type_symbol
_atom_site_label
_atom_site_fract_x
_atom_site_fract_y
_atom_site_fract_z
Si Si1 0.480483 0.702123 0.552994
Si Si2 0.353137 0.794433 0.241971
Si Si3 0.097131 0.803042 0.866537
Si Si4 0.774272 0.211971 0.453035
Si Si5 0.084452 0.805291 0.351498
Si Si6 0.272580 0.303843 0.078566
Si Si7 0.325228 0.198173 0.722724
Si Si8 0.476583 0.200840 0.924614
O O1 0.500000 0.748153 0.500000
O O2 0.430683 0.500000 0.526137
O O3 0.655475 0.731177 0.699246
O O4 0.307123 0.812488 0.472516
O O5 0.563181 0.734809 0.346591
O O6 0.223128 0.731895 0.113542
O O7 0.345280 0.000000 0.237929
O O8 0.994129 0.718740 0.751721
O O9 0.026629 0.000000 0.829801
O O10 0.109132 0.727015 0.935735
O O11 0.313729 0.803327 0.975419
O O12 0.919570 0.269108 0.588039
O O13 0.792041 0.271106 0.399502
O O14 0.778899 0.000000 0.455745
O O15 0.003116 0.000000 0.305072
O O16 0.335485 0.500000 0.110192
O O17 0.457940 0.193635 0.171865
O O18 0.347019 0.276446 0.797717
O O19 0.261227 0.000000 0.692300
O O20 0.416535 0.000000 0.896782
O O21 0.500000 0.280865 0.000000
#
# Coordination Sequence:
#
# PCOD9141627 Si02
#       8
#     4   4   4   4   4   4   4   4
#     4  10  20  32  47  70  98 122 145 179 223 267
#     4   9  16  28  46  66  89 117 150 185 219 259
#     4   9  17  29  44  63  88 119 155 191 227 269
#     4   7  11  21  38  59  79 102 137 180 219 251
#     4   9  17  29  46  65  86 117 155 191 225 266
#     4  10  17  25  41  65  90 114 145 187 232 270
#     4   8  13  23  39  58  82 112 147 186 225 267
#     4   8  13  22  39  62  86 116 154 193 231 268
#
# _framework density 24.420425000000002
#
# number of rings (size 3 to 8) (size 9 to 14) (size 15 to 20)
#    0.000    3.250    0.000    4.125    0.000    1.500 
#    0.000    0.000    0.000    7.500    0.000   10.500 
#    0.000    0.000    0.000   31.500    0.000   37.750 
#
# Total GULP energy -178220.845308 kJ/mol
# GULP energy per Si atom -5569.401416 kJ/mol
# Density = 2.436484 g / cm^3
# Si number density = 24.420425 Si / 1000 Ang^3
#
#
#
# Elastic Constant Matrix: (Units=GPa)
#
#
# Indices 1 2 3 4 5 6 
#
# 1 60.7236 4.8036 66.3246 0.0000 -28.1918 0.0000
# 2 4.8036 51.9893 15.8513 0.0000 -8.2438 0.0000
# 3 66.3246 15.8513 220.9066 0.0000 -97.3750 0.0000
# 4 0.0000 0.0000 0.0000 60.5274 0.0000 -50.3636
# 5 -28.1918 -8.2438 -97.3750 0.0000 72.4064 0.0000
# 6 0.0000 0.0000 0.0000 -50.3636 0.0000 34.8676
#
#
#
# Elastic Compliance Matrix: (Units=1/GPa)
#
#
# Indices 1 2 3 4 5 6 
#
# 1 0.024526 -0.000043 -0.007744 0.000000 -0.000870 0.000000
# 2 -0.000043 0.019686 -0.001029 0.000000 0.000840 0.000000
# 3 -0.007744 -0.001029 0.013617 0.000000 0.015181 0.000000
# 4 0.000000 0.000000 0.000000 -0.081840 0.000000 -0.118212
# 5 -0.000870 0.000840 0.015181 0.000000 0.033984 0.000000
# 6 0.000000 0.000000 0.000000 -0.118212 0.000000 -0.142068
#
#
# Mechanical properties :
#
#
# Convention : Reuss Voigt Hill
#
# Bulk Modulus (GPa) = 24.87774 56.39761 40.63768
# Shear Modulus (GPa) = -49.47321 50.00297 0.26488
#
# Velocity S-wave (km/s) = -4.50588 4.52994 0.32970
# Velocity P-wave (km/s) = 4.10624 7.10669 4.10145
#
# Compressibility (1/GPa) = 0.04019657
#
# Stress axis : x y z
#
# Youngs Moduli (GPa) = 40.77330 50.79817 73.43552
#
# Poissons Ratio (x) = 0.00218 0.56869
# Poissons Ratio (y) = 0.00175 0.07558
# Poissons Ratio (z) = 0.31575 0.05228
#
# Static dielectric constant tensor:
#      x y z
#    x 2.000310 0.000000 -0.062820 
#    y 0.000000 1.894870 0.000000 
#    z -0.062820 0.000000 2.077030 
# 
# From -- ./inp_files/90321.got.cif
#   From: 2010.05.17/outbox.cif.g08.bks.cpg/sg10_46_cif.got.tgz:90321.got - 2010.06.03 11:33:40.
