data_PCOD9141146
_publ_section_title
;
Structure prediction by ZEFSAII (Michael W. Deem and Ramdas Pophale) SiO2 
 PCOD9141146
Probable space group: C C
;
_chemical_formula_sum "Si O2"
_cell_formula_units_Z 16
_cell_length_a 5.144434
_cell_length_b 23.999231
_cell_length_c 7.101984
_cell_angle_alpha 90.000000
_cell_angle_beta 46.384502
_cell_angle_gamma 90.000000
_cell_volume 634.810882
_symmetry_space_group_name_H-M "C C"
_symmetry_group_IT_number 9
_symmetry_cell_setting 'monoclinic'
loop_
_space_group_symop_operation_xyz
x,y,z
x,-y,1/2+z
1/2+x,1/2+y,z
1/2+x,1/2-y,1/2+z
loop_
_atom_site_type_symbol
_atom_site_label
_atom_site_fract_x
_atom_site_fract_y
_atom_site_fract_z
Si Si1 0.905980 0.427476 0.764820
Si Si2 0.833664 0.642207 0.629057
Si Si3 0.204190 0.713947 0.768053
Si Si4 0.573166 0.946310 0.257016
O O1 0.003131 0.423651 0.499403
O O2 0.041494 0.487235 0.771270
O O3 0.027386 0.377219 0.839150
O O4 0.472856 0.430168 0.994530
O O5 0.496812 0.678011 0.733231
O O6 0.045373 0.678437 0.675108
O O7 0.790589 0.582702 0.756931
O O8 0.406463 0.765028 0.563362
#
# Coordination Sequence:
#
# PCOD9141146 Si02
#       4
#     4   4   4   4
#     4  12  27  46  76 116 161 202 247 303 379 473
#     4  12  28  52  83 112 155 206 248 320 392 442
#     4  12  30  54  79 110 149 200 270 326 374 440
#     4  12  27  46  76 116 161 202 247 303 379 473
#
# _framework density 25.204359
#
# number of rings (size 3 to 8) (size 9 to 14) (size 15 to 20)
#    0.000    0.000    5.000    3.000    3.500    4.000 
#    0.000    0.000    0.000    0.000    0.000    0.000 
#    0.000    0.000    0.000    0.000    0.000    0.000 
#
# Total GULP energy -44896.563814 kJ/mol
# GULP energy per Si atom -5612.070477 kJ/mol
# Density = 2.514699 g / cm^3
# Si number density = 25.204359 Si / 1000 Ang^3
#
#
#
# Elastic Constant Matrix: (Units=GPa)
#
#
# Indices 1 2 3 4 5 6 
#
# 1 151.3440 31.6015 30.7566 0.0000 25.0075 0.0000
# 2 31.6015 74.5089 -3.7990 0.0000 10.0589 0.0000
# 3 30.7566 -3.7990 137.7449 0.0000 13.5260 0.0000
# 4 0.0000 0.0000 0.0000 49.9591 0.0000 10.1330
# 5 25.0075 10.0589 13.5260 0.0000 42.3496 0.0000
# 6 0.0000 0.0000 0.0000 10.1330 0.0000 67.7600
#
#
#
# Elastic Compliance Matrix: (Units=1/GPa)
#
#
# Indices 1 2 3 4 5 6 
#
# 1 0.008154 -0.003052 -0.001552 0.000000 -0.003594 0.000000
# 2 -0.003052 0.015080 0.001313 0.000000 -0.002199 0.000000
# 3 -0.001552 0.001313 0.007829 0.000000 -0.001896 0.000000
# 4 0.000000 0.000000 0.000000 0.020642 0.000000 -0.003087
# 5 -0.003594 -0.002199 -0.001896 0.000000 0.026863 0.000000
# 6 0.000000 0.000000 0.000000 -0.003087 0.000000 0.015220
#
#
# Mechanical properties :
#
#
# Convention : Reuss Voigt Hill
#
# Bulk Modulus (GPa) = 40.84854 53.41288 47.13071
# Shear Modulus (GPa) = 46.07032 52.34964 49.20998
#
# Velocity S-wave (km/s) = 4.28000 4.56236 4.42344
# Velocity P-wave (km/s) = 6.37704 6.99939 6.69545
#
# Compressibility (1/GPa) = 0.02448068
#
# Stress axis : x y z
#
# Youngs Moduli (GPa) = 122.63766 66.31478 127.73481
#
# Poissons Ratio (x) = 0.20241 0.19824
# Poissons Ratio (y) = 0.37432 -0.16776
# Poissons Ratio (z) = 0.19032 -0.08709
#
# Static dielectric constant tensor:
#      x y z
#    x 1.987940 0.000000 -0.023870 
#    y 0.000000 2.006520 0.000000 
#    z -0.023870 0.000000 1.951140 
# 
# From -- ./inp_files/132.got.cif
#   From: 2010.05.17/outbox.cif.g08.bks.cpg/sg9_1_cif.got.tgz:132.got - 2010.06.03 20:04:27.
