data_PCOD9141489
_publ_section_title
;
Structure prediction by ZEFSAII (Michael W. Deem and Ramdas Pophale) SiO2 
 PCOD9141489
Probable space group: P 2/M
;
_chemical_formula_sum "Si O2"
_cell_formula_units_Z 30
_cell_length_a 25.251999
_cell_length_b 9.441359
_cell_length_c 14.851353
_cell_angle_alpha 90.000000
_cell_angle_beta 28.065999
_cell_angle_gamma 90.000000
_cell_volume 1665.885472
_symmetry_space_group_name_H-M "P 2/M"
_symmetry_group_IT_number 10
_symmetry_cell_setting 'monoclinic'
loop_
_space_group_symop_operation_xyz
x,y,z
-x,y,-z
-x,-y,-z
x,-y,z
loop_
_atom_site_type_symbol
_atom_site_label
_atom_site_fract_x
_atom_site_fract_y
_atom_site_fract_z
Si Si1 0.066700 0.844921 0.594503
Si Si2 0.230477 0.664118 0.065975
Si Si3 0.872101 0.670737 0.961951
Si Si4 0.416696 0.669198 0.924449
Si Si5 0.667285 0.834498 0.775867
Si Si6 0.000000 0.246900 0.500000
Si Si7 0.661902 0.668498 0.599578
Si Si8 0.126174 0.327588 0.837087
O O1 0.198581 0.827196 0.409838
O O2 0.996185 0.725351 0.750712
O O3 0.038250 0.836337 0.531268
O O4 0.032413 0.000000 0.680121
O O5 0.258804 0.500000 0.009630
O O6 0.205903 0.724987 0.003347
O O7 0.112278 0.672087 0.298014
O O8 0.331920 0.723088 0.974034
O O9 0.871382 0.500000 0.960310
O O10 0.845072 0.715668 0.103819
O O11 0.395825 0.500000 0.968965
O O12 0.549684 0.685833 0.707517
O O13 0.388423 0.751808 0.058056
O O14 0.644280 0.756076 0.716869
O O15 0.634971 0.000000 0.822278
O O16 0.671217 0.500000 0.606327
O O17 0.775614 0.715518 0.378710
O O18 0.124782 0.500000 0.837818
O O19 0.000000 0.280568 0.000000
#
# Coordination Sequence:
#
# PCOD9141489 Si02
#       8
#     4   4   4   4   4   2   4   4
#     4  10  20  31  47  74 105 134 167 206 253 300
#     4   9  17  29  48  76 105 133 169 211 251 294
#     4   9  18  32  52  76 103 135 172 211 252 301
#     4  10  20  35  52  74 105 137 171 209 251 303
#     4  11  22  35  51  76 106 137 171 210 254 303
#     4  10  16  30  48  68 101 140 169 202 241 304
#     4  10  21  36  55  76  99 134 174 212 255 303
#     4   9  17  32  54  78 101 128 168 214 257 301
#
# _framework density 18.008441000000001
#
# number of rings (size 3 to 8) (size 9 to 14) (size 15 to 20)
#    0.000    2.267    1.333    2.000    0.000    4.800 
#    0.000    1.333    0.000    6.400    0.000    0.000 
#    0.000    4.533    0.000    0.000    0.000    0.000 
#
# Total GULP energy -167156.930667 kJ/mol
# GULP energy per Si atom -5571.897689 kJ/mol
# Density = 1.796745 g / cm^3
# Si number density = 18.008441 Si / 1000 Ang^3
#
#
#
# Elastic Constant Matrix: (Units=GPa)
#
#
# Indices 1 2 3 4 5 6 
#
# 1 116.5681 23.1258 56.9502 0.0000 -10.7187 0.0000
# 2 23.1258 31.2819 18.7610 0.0000 -3.1539 0.0000
# 3 56.9502 18.7610 68.0839 0.0000 -14.4174 0.0000
# 4 0.0000 0.0000 0.0000 4.4965 0.0000 -5.5609
# 5 -10.7187 -3.1539 -14.4174 0.0000 30.1776 0.0000
# 6 0.0000 0.0000 0.0000 -5.5609 0.0000 6.6066
#
#
#
# Elastic Compliance Matrix: (Units=1/GPa)
#
#
# Indices 1 2 3 4 5 6 
#
# 1 0.014977 -0.004244 -0.011488 0.000000 -0.000612 0.000000
# 2 -0.004244 0.039535 -0.007553 0.000000 -0.000984 0.000000
# 3 -0.011488 -0.007553 0.028200 0.000000 0.008603 0.000000
# 4 0.000000 0.000000 0.000000 -5.429962 0.000000 -4.570502
# 5 -0.000612 -0.000984 0.008603 0.000000 0.036927 0.000000
# 6 0.000000 0.000000 0.000000 -4.570502 0.000000 -3.695714
#
#
# Mechanical properties :
#
#
# Convention : Reuss Voigt Hill
#
# Bulk Modulus (GPa) = 27.66781 45.95645 36.81213
# Shear Modulus (GPa) = -0.55882 16.06262 7.75190
#
# Velocity S-wave (km/s) = -0.55766 2.98979 2.07700
# Velocity P-wave (km/s) = 3.87072 6.12318 5.12229
#
# Compressibility (1/GPa) = 0.03614309
#
# Stress axis : x y z
#
# Youngs Moduli (GPa) = 66.76994 25.29395 35.46103
#
# Poissons Ratio (x) = 0.10734 0.40737
# Poissons Ratio (y) = 0.28336 0.26782
# Poissons Ratio (z) = 0.76705 0.19104
#
# Static dielectric constant tensor:
#      x y z
#    x 1.648490 0.000000 -0.024290 
#    y 0.000000 1.609100 0.000000 
#    z -0.024290 0.000000 1.607840 
# 
# From -- ./inp_files/71308.got.cif
#   From: 2010.05.17/outbox.cif.g08.bks.cpg/sg10_36_cif.got.tgz:71308.got - 2010.06.03 11:33:40.
