data_PCOD9141939
_publ_section_title
;
Structure prediction by ZEFSAII (Michael W. Deem and Ramdas Pophale) SiO2 
 PCOD9141939
Probable space group: P 2/M
;
_chemical_formula_sum "Si O2"
_cell_formula_units_Z 20
_cell_length_a 8.806228
_cell_length_b 8.087199
_cell_length_c 18.962157
_cell_angle_alpha 90.000000
_cell_angle_beta 42.293647
_cell_angle_gamma 90.000000
_cell_volume 908.753309
_symmetry_space_group_name_H-M "P 2/M"
_symmetry_group_IT_number 10
_symmetry_cell_setting 'monoclinic'
loop_
_space_group_symop_operation_xyz
x,y,z
-x,y,-z
-x,-y,-z
x,-y,z
loop_
_atom_site_type_symbol
_atom_site_label
_atom_site_fract_x
_atom_site_fract_y
_atom_site_fract_z
Si Si1 0.477243 0.185969 0.742851
Si Si2 0.243724 0.500000 0.879427
Si Si3 0.119103 0.298863 0.293151
Si Si4 0.303750 0.500000 0.008399
Si Si5 0.782578 0.692324 0.521990
Si Si6 0.226276 0.819806 0.099533
O O1 0.306478 0.335220 0.816061
O O2 0.681057 0.222107 0.728066
O O3 0.587948 0.206821 0.627554
O O4 0.392992 0.000000 0.782661
O O5 0.397987 0.500000 0.897809
O O6 0.000000 0.500000 0.000000
O O7 0.122219 0.500000 0.294237
O O8 0.152278 0.231976 0.203220
O O9 0.884189 0.251552 0.412492
O O10 0.169573 0.667494 0.068673
O O11 0.500000 0.500000 0.000000
O O12 0.711477 0.500000 0.542340
O O13 0.000000 0.696403 0.500000
O O14 0.134592 0.000000 0.112401
O O15 0.500000 0.832183 0.000000
#
# Coordination Sequence:
#
# PCOD9141939 Si02
#       6
#     4   2   4   2   4   4
#     4  11  20  33  54  77 107 150 190 227 283 339
#     4  12  26  42  58  80 114 150 191 237 279 329
#     4  10  17  29  51  81 117 149 181 227 285 338
#     4  10  20  36  57  76 106 142 181 227 279 325
#     4   8  15  28  47  75 111 145 180 224 279 341
#     4  10  19  29  46  75 107 142 180 218 265 323
#
# _framework density 22.008174
#
# number of rings (size 3 to 8) (size 9 to 14) (size 15 to 20)
#    0.000    2.000    3.000    4.200    0.000    7.200 
#    0.000    0.000    0.000    0.000    0.000    2.800 
#    0.000    3.200    0.000    0.000    0.000    0.000 
#
# Total GULP energy -111620.931772 kJ/mol
# GULP energy per Si atom -5581.046589 kJ/mol
# Density = 2.195808 g / cm^3
# Si number density = 22.008174 Si / 1000 Ang^3
#
#
#
# Elastic Constant Matrix: (Units=GPa)
#
#
# Indices 1 2 3 4 5 6 
#
# 1 26.2082 11.7408 17.1383 0.0000 -5.4767 0.0000
# 2 11.7408 208.0127 74.6343 0.0000 -4.4075 0.0000
# 3 17.1383 74.6343 174.1088 0.0000 11.9619 0.0000
# 4 0.0000 0.0000 0.0000 0.7682 0.0000 14.7509
# 5 -5.4767 -4.4075 11.9619 0.0000 24.7999 0.0000
# 6 0.0000 0.0000 0.0000 14.7509 0.0000 -8.6687
#
#
#
# Elastic Compliance Matrix: (Units=1/GPa)
#
#
# Indices 1 2 3 4 5 6 
#
# 1 0.044137 -0.000448 -0.004982 0.000000 0.012070 0.000000
# 2 -0.000448 0.005811 -0.002597 0.000000 0.002186 0.000000
# 3 -0.004982 -0.002597 0.007710 0.000000 -0.005281 0.000000
# 4 0.000000 0.000000 0.000000 0.038656 0.000000 0.065779
# 5 0.012070 0.002186 -0.005281 0.000000 0.045924 0.000000
# 6 0.000000 0.000000 0.000000 0.065779 0.000000 -0.003426
#
#
# Mechanical properties :
#
#
# Convention : Reuss Voigt Hill
#
# Bulk Modulus (GPa) = 24.03620 68.37295 46.20457
# Shear Modulus (GPa) = 29.63250 23.70096 26.66673
#
# Velocity S-wave (km/s) = 3.67336 3.28520 3.48469
# Velocity P-wave (km/s) = 5.37927 6.74719 6.10169
#
# Compressibility (1/GPa) = 0.04160391
#
# Stress axis : x y z
#
# Youngs Moduli (GPa) = 22.65685 172.09299 129.70242
#
# Poissons Ratio (x) = 0.07709 0.64615
# Poissons Ratio (y) = 0.01015 0.33684
# Poissons Ratio (z) = 0.11287 0.44693
#
# Static dielectric constant tensor:
#      x y z
#    x 1.870430 0.000000 -0.024970 
#    y 0.000000 1.837190 0.000000 
#    z -0.024970 0.000000 1.820760 
# 
# From -- ./inp_files/83183.got.cif
#   From: 2010.05.17/outbox.cif.g08.bks.cpg/sg10_42_cif.got.tgz:83183.got - 2010.06.03 11:33:40.
