data_PCOD9141280
_publ_section_title
;
Structure prediction by ZEFSAII (Michael W. Deem and Ramdas Pophale) SiO2 
 PCOD9141280
Probable space group: C C
;
_chemical_formula_sum "Si O2"
_cell_formula_units_Z 16
_cell_length_a 6.000000
_cell_length_b 15.000000
_cell_length_c 18.000000
_cell_angle_alpha 90.000000
_cell_angle_beta 120.000000
_cell_angle_gamma 90.000000
_cell_volume 1402.961154
_symmetry_space_group_name_H-M "C C"
_symmetry_group_IT_number 9
_symmetry_cell_setting 'monoclinic'
loop_
_space_group_symop_operation_xyz
x,y,z
x,-y,1/2+z
1/2+x,1/2+y,z
1/2+x,1/2-y,1/2+z
loop_
_atom_site_type_symbol
_atom_site_label
_atom_site_fract_x
_atom_site_fract_y
_atom_site_fract_z
Si Si1 0.459190 0.372514 0.565770
Si Si2 0.847690 0.174631 0.221425
Si Si3 0.076426 0.366800 0.224657
Si Si4 0.136360 0.716668 0.486312
Si Si5 0.097862 0.930142 0.051025
Si Si6 0.089422 0.224804 0.802725
Si Si7 0.023394 0.578852 0.875675
Si Si8 0.201940 0.922328 0.899091
O O1 0.349650 0.352854 0.632468
O O2 0.630159 0.295915 0.548927
O O3 0.570775 0.473445 0.586684
O O4 0.238100 0.386988 0.467827
O O5 0.614981 0.200127 0.241629
O O6 0.988157 0.269211 0.237066
O O7 0.012664 0.108258 0.301216
O O8 0.358041 0.342155 0.243534
O O9 0.096823 0.431172 0.300539
O O10 0.873305 0.396905 0.128622
O O11 0.382847 0.647900 0.531900
O O12 0.098064 0.744262 0.391649
O O13 0.878021 0.660040 0.455046
O O14 0.082171 0.950077 0.959155
O O15 0.328918 0.160112 0.840750
O O16 0.888040 0.495028 0.892389
#
# Coordination Sequence:
#
# PCOD9141280 Si02
#       8
#     4   4   4   4   4   4   4   4
#     4  12  26  51  77 119 155 209 265 327 406 478
#     4  11  25  45  75 113 152 199 263 323 400 475
#     4  11  25  48  75 111 152 202 259 325 395 474
#     4  12  24  49  83 104 156 211 260 324 394 475
#     4  12  28  50  76 117 159 205 269 328 397 485
#     4  11  23  49  77 105 150 207 255 329 395 467
#     4  11  25  45  75 112 154 199 260 319 394 473
#     4  12  24  47  74 115 156 202 261 327 393 471
#
# _framework density 11.404450000000001
#
# number of rings (size 3 to 8) (size 9 to 14) (size 15 to 20)
#    0.000    0.500    5.000    3.000    1.750    4.000 
#    4.500    0.000    2.750    0.000    0.000    0.000 
#    0.000    0.000    0.000    0.000    0.000    0.000 
#
# Total GULP energy -89232.753774 kJ/mol
# GULP energy per Si atom -5577.047111 kJ/mol
# Density = 1.137849 g / cm^3
# Si number density = 11.404450 Si / 1000 Ang^3
#
#
#
# Elastic Constant Matrix: (Units=GPa)
#
#
# Indices 1 2 3 4 5 6 
#
# 1 54.6218 27.1605 59.7861 0.0000 -43.8597 0.0000
# 2 27.1605 104.5873 39.9605 0.0000 -13.8496 0.0000
# 3 59.7861 39.9605 174.1992 0.0000 -12.0330 0.0000
# 4 0.0000 0.0000 0.0000 38.0295 0.0000 -7.7363
# 5 -43.8597 -13.8496 -12.0330 0.0000 27.3906 0.0000
# 6 0.0000 0.0000 0.0000 -7.7363 0.0000 51.3509
#
#
#
# Elastic Compliance Matrix: (Units=1/GPa)
#
#
# Indices 1 2 3 4 5 6 
#
# 1 -0.039312 -0.001361 0.009703 0.000000 -0.059375 0.000000
# 2 -0.001361 0.010967 -0.001873 0.000000 0.002544 0.000000
# 3 0.009703 -0.001873 0.003968 0.000000 0.016333 0.000000
# 4 0.000000 0.000000 0.000000 0.027127 0.000000 0.004087
# 5 -0.059375 0.002544 0.016333 0.000000 -0.050104 0.000000
# 6 0.000000 0.000000 0.000000 0.004087 0.000000 0.020090
#
#
# Mechanical properties :
#
#
# Convention : Reuss Voigt Hill
#
# Bulk Modulus (GPa) = -87.42586 65.24694 -11.08946
# Shear Modulus (GPa) = -113.59665 37.12094 -38.23786
#
# Velocity S-wave (km/s) = -7.06483 4.03858 -4.09888
# Velocity P-wave (km/s) = 10.24509 7.10034 5.22241
#
# Compressibility (1/GPa) = -0.01143826
#
# Stress axis : x y z
#
# Youngs Moduli (GPa) = -25.43747 91.18041 251.99175
#
# Poissons Ratio (x) = 0.12407 -2.44505
# Poissons Ratio (y) = -0.03461 0.47202
# Poissons Ratio (z) = 0.24682 0.17079
#
# Static dielectric constant tensor:
#      x y z
#    x 2.080960 0.000000 -0.020500 
#    y 0.000000 1.877940 0.000000 
#    z -0.020500 0.000000 1.869950 
# 
# From -- ./inp_files/28735.got.cif
#   From: 2010.05.17/outbox.ucp.g08.bks.cvg/sg9_15_cif.got.tgz:28735.got - 2010.06.11 13:03:20.
