data_PCOD9141693
_publ_section_title
;
Structure prediction by ZEFSAII (Michael W. Deem and Ramdas Pophale) SiO2 
 PCOD9141693
Probable space group: P 2/M
;
_chemical_formula_sum "Si O2"
_cell_formula_units_Z 28
_cell_length_a 21.407493
_cell_length_b 8.569779
_cell_length_c 19.145123
_cell_angle_alpha 90.000000
_cell_angle_beta 26.402311
_cell_angle_gamma 90.000000
_cell_volume 1561.826189
_symmetry_space_group_name_H-M "P 2/M"
_symmetry_group_IT_number 10
_symmetry_cell_setting 'monoclinic'
loop_
_space_group_symop_operation_xyz
x,y,z
-x,y,-z
-x,-y,-z
x,-y,z
loop_
_atom_site_type_symbol
_atom_site_label
_atom_site_fract_x
_atom_site_fract_y
_atom_site_fract_z
Si Si1 0.156610 0.810240 0.565935
Si Si2 0.344554 0.186149 0.507137
Si Si3 0.340003 0.312622 0.811145
Si Si4 0.169199 0.186918 0.112941
Si Si5 0.834888 0.185707 0.595369
Si Si6 0.329272 0.318352 0.668466
Si Si7 0.848044 0.315410 0.725241
O O1 0.245594 0.758354 0.543215
O O2 0.217216 0.763378 0.429213
O O3 0.993577 0.762122 0.733794
O O4 0.156460 0.000000 0.566171
O O5 0.497400 0.263158 0.347184
O O6 0.285350 0.228090 0.643068
O O7 0.360611 0.000000 0.486208
O O8 0.331359 0.500000 0.821517
O O9 0.284088 0.261077 0.790398
O O10 0.256453 0.240043 0.958849
O O11 0.222767 0.261412 0.131925
O O12 0.172520 0.000000 0.116366
O O13 0.777683 0.267092 0.722396
O O14 0.001195 0.227332 0.425756
O O15 0.819007 0.000000 0.618337
O O16 0.500000 0.311202 0.500000
O O17 0.290611 0.500000 0.699501
O O18 0.872048 0.500000 0.701713
#
# Coordination Sequence:
#
# PCOD9141693 Si02
#       7
#     4   4   4   4   4   4   4
#     4   8  17  31  48  72 100 125 156 199 239 278
#     4  10  18  31  52  75  96 123 160 198 236 281
#     4  10  20  34  50  71  98 126 158 198 240 283
#     4  10  19  33  51  71  96 128 162 196 238 285
#     4   9  15  27  45  65  92 127 163 196 231 275
#     4   8  16  31  48  67  94 125 158 197 236 276
#     4  10  17  26  42  68  97 123 156 198 239 278
#
# _framework density 17.927731000000001
#
# number of rings (size 3 to 8) (size 9 to 14) (size 15 to 20)
#    0.000    2.714    0.000    5.571    0.000    3.143 
#    0.000    9.286    0.000    5.143    0.000    6.000 
#    0.000    0.000    0.000    0.000    0.000    0.000 
#
# Total GULP energy -155950.575670 kJ/mol
# GULP energy per Si atom -5569.663417 kJ/mol
# Density = 1.788693 g / cm^3
# Si number density = 17.927731 Si / 1000 Ang^3
#
#
#
# Elastic Constant Matrix: (Units=GPa)
#
#
# Indices 1 2 3 4 5 6 
#
# 1 183.4167 23.8487 35.9917 0.0000 30.5839 0.0000
# 2 23.8487 37.0282 12.6403 0.0000 10.0703 0.0000
# 3 35.9917 12.6403 71.8208 0.0000 40.8709 0.0000
# 4 0.0000 0.0000 0.0000 616.7114 0.0000 -353.7757
# 5 30.5839 10.0703 40.8709 0.0000 36.2429 0.0000
# 6 0.0000 0.0000 0.0000 -353.7757 0.0000 240.7800
#
#
#
# Elastic Compliance Matrix: (Units=1/GPa)
#
#
# Indices 1 2 3 4 5 6 
#
# 1 0.006636 -0.002967 -0.000239 0.000000 -0.004506 0.000000
# 2 -0.002967 0.030595 -0.001354 0.000000 -0.004471 0.000000
# 3 -0.000239 -0.001354 0.038945 0.000000 -0.043340 0.000000
# 4 0.000000 0.000000 0.000000 0.010319 0.000000 0.015161
# 5 -0.004506 -0.004471 -0.043340 0.000000 0.081511 0.000000
# 6 0.000000 0.000000 0.000000 0.015161 0.000000 0.026429
#
#
# Mechanical properties :
#
#
# Convention : Reuss Voigt Hill
#
# Bulk Modulus (GPa) = 14.91276 48.58080 31.74678
# Shear Modulus (GPa) = 22.13293 193.39920 107.76606
#
# Velocity S-wave (km/s) = 3.51745 10.39766 7.76156
# Velocity P-wave (km/s) = 4.98326 13.08837 9.90299
#
# Compressibility (1/GPa) = 0.06705665
#
# Stress axis : x y z
#
# Youngs Moduli (GPa) = 150.69051 32.68465 25.67700
#
# Poissons Ratio (x) = 0.09698 0.00615
# Poissons Ratio (y) = 0.44711 0.03476
# Poissons Ratio (z) = 0.03607 0.04424
#
# Static dielectric constant tensor:
#      x y z
#    x 1.663260 0.000000 0.038430 
#    y 0.000000 1.603860 0.000000 
#    z 0.038430 0.000000 1.612370 
# 
# From -- ./inp_files/79247.got.cif
#   From: 2010.05.17/outbox.cif.g08.bks.cpg/sg10_40_cif.got.tgz:79247.got - 2010.06.03 11:33:40.
