data_PCOD9141657
_publ_section_title
;
Structure prediction by ZEFSAII (Michael W. Deem and Ramdas Pophale) SiO2 
 PCOD9141657
Probable space group: P 2/M
;
_chemical_formula_sum "Si O2"
_cell_formula_units_Z 26
_cell_length_a 25.682351
_cell_length_b 12.976338
_cell_length_c 5.234121
_cell_angle_alpha 90.000000
_cell_angle_beta 108.410149
_cell_angle_gamma 90.000000
_cell_volume 1655.063092
_symmetry_space_group_name_H-M "P 2/M"
_symmetry_group_IT_number 10
_symmetry_cell_setting 'monoclinic'
loop_
_space_group_symop_operation_xyz
x,y,z
-x,y,-z
-x,-y,-z
x,-y,z
loop_
_atom_site_type_symbol
_atom_site_label
_atom_site_fract_x
_atom_site_fract_y
_atom_site_fract_z
Si Si1 0.962514 0.000000 0.191737
Si Si2 0.821036 0.383746 0.978460
Si Si3 0.376099 0.377096 0.749485
Si Si4 0.132171 0.164332 0.915046
Si Si5 0.437602 0.374077 0.345054
Si Si6 0.201416 0.885632 0.523987
Si Si7 0.249200 0.329733 0.632465
O O1 0.923895 0.898243 0.134990
O O2 0.000000 0.000000 0.500000
O O3 0.000000 0.000000 0.000000
O O4 0.843760 0.500000 0.021681
O O5 0.786461 0.369605 0.663647
O O6 0.864504 0.289280 0.064642
O O7 0.779296 0.369397 0.152102
O O8 0.383873 0.500000 0.755395
O O9 0.397587 0.338931 0.510333
O O10 0.312206 0.359409 0.702605
O O11 0.413810 0.337476 0.038630
O O12 0.156949 0.131960 0.679836
O O13 0.172020 0.127246 0.205164
O O14 0.500000 0.343498 0.500000
O O15 0.437222 0.500000 0.338182
O O16 0.244112 0.793787 0.621959
O O17 0.224249 0.000000 0.582761
#
# Coordination Sequence:
#
# PCOD9141657 Si02
#       7
#     2   4   4   4   4   4   4
#     4  12  22  34  54  76 100 120 158 208 237 266
#     4  10  19  32  49  69  97 128 159 185 218 288
#     4  10  17  26  39  57  88 114 142 189 224 266
#     4  10  20  33  51  73  96 126 156 189 236 275
#     4   9  17  27  39  54  76 115 155 186 226 268
#     4  10  17  32  51  68  98 125 151 186 228 286
#     4  10  20  28  45  72  94 125 155 186 233 276
#
# _framework density 15.709372
#
# number of rings (size 3 to 8) (size 9 to 14) (size 15 to 20)
#    0.000    2.000    1.538    3.692    0.000    3.077 
#    0.000    0.000    0.000    0.923    0.000    0.000 
#    0.000    3.692    0.000    0.000    0.000    0.000 
#
# Total GULP energy -144913.110525 kJ/mol
# GULP energy per Si atom -5573.581174 kJ/mol
# Density = 1.567362 g / cm^3
# Si number density = 15.709372 Si / 1000 Ang^3
#
#
#
# Elastic Constant Matrix: (Units=GPa)
#
#
# Indices 1 2 3 4 5 6 
#
# 1 38.8426 4.9760 -4.4760 0.0000 -6.0488 0.0000
# 2 4.9760 97.4818 7.0806 0.0000 -0.5243 0.0000
# 3 -4.4760 7.0806 33.0931 0.0000 -9.2122 0.0000
# 4 0.0000 0.0000 0.0000 0.7329 0.0000 -1.1960
# 5 -6.0488 -0.5243 -9.2122 0.0000 25.9128 0.0000
# 6 0.0000 0.0000 0.0000 -1.1960 0.0000 18.1106
#
#
#
# Elastic Compliance Matrix: (Units=1/GPa)
#
#
# Indices 1 2 3 4 5 6 
#
# 1 0.028143 -0.001874 0.006687 0.000000 0.008909 0.000000
# 2 -0.001874 0.010555 -0.002857 0.000000 -0.001240 0.000000
# 3 0.006687 -0.002857 0.035683 0.000000 0.014189 0.000000
# 4 0.000000 0.000000 0.000000 1.529280 0.000000 0.100989
# 5 0.008909 -0.001240 0.014189 0.000000 0.045690 0.000000
# 6 0.000000 0.000000 0.000000 0.100989 0.000000 0.061885
#
#
# Mechanical properties :
#
#
# Convention : Reuss Voigt Hill
#
# Bulk Modulus (GPa) = 12.77245 20.50877 16.64061
# Shear Modulus (GPa) = 2.88447 19.74037 11.31242
#
# Velocity S-wave (km/s) = 1.35651 3.54870 2.68639
# Velocity P-wave (km/s) = 3.25601 5.46575 4.49867
#
# Compressibility (1/GPa) = 0.07829354
#
# Stress axis : x y z
#
# Youngs Moduli (GPa) = 35.53274 94.74317 28.02428
#
# Poissons Ratio (x) = 0.17759 -0.18741
# Poissons Ratio (y) = 0.06660 0.08006
# Poissons Ratio (z) = -0.23763 0.27068
#
# Static dielectric constant tensor:
#      x y z
#    x 1.497020 0.000000 -0.022010 
#    y 0.000000 1.546070 0.000000 
#    z -0.022010 0.000000 1.534610 
# 
# From -- ./inp_files/13060.got.cif
#   From: 2010.05.17/outbox.cif.g08.bks.cpg/sg10_7_cif.got.tgz:13060.got - 2010.06.03 11:33:40.
