data_PCOD9141179
_publ_section_title
;
Structure prediction by ZEFSAII (Michael W. Deem and Ramdas Pophale) SiO2 
 PCOD9141179
Probable space group: C C
;
_chemical_formula_sum "Si O2"
_cell_formula_units_Z 20
_cell_length_a 4.989065
_cell_length_b 21.681729
_cell_length_c 7.984243
_cell_angle_alpha 90.000000
_cell_angle_beta 65.452326
_cell_angle_gamma 90.000000
_cell_volume 785.606132
_symmetry_space_group_name_H-M "C C"
_symmetry_group_IT_number 9
_symmetry_cell_setting 'monoclinic'
loop_
_space_group_symop_operation_xyz
x,y,z
x,-y,1/2+z
1/2+x,1/2+y,z
1/2+x,1/2-y,1/2+z
loop_
_atom_site_type_symbol
_atom_site_label
_atom_site_fract_x
_atom_site_fract_y
_atom_site_fract_z
Si Si1 0.884080 0.563287 0.334460
Si Si2 0.276222 0.626991 0.783492
Si Si3 0.223278 0.669575 0.416588
Si Si4 0.486496 0.490443 0.673623
Si Si5 0.138122 0.185305 0.989404
O O1 0.766196 0.511568 0.493719
O O2 0.620704 0.556714 0.272063
O O3 0.960872 0.626339 0.410869
O O4 0.196025 0.541874 0.176310
O O5 0.306208 0.643435 0.578398
O O6 0.362497 0.555360 0.773101
O O7 0.484396 0.661938 0.859777
O O8 0.948913 0.649630 0.917029
O O9 0.457374 0.672908 0.205058
O O10 0.153453 0.740998 0.469345
#
# Coordination Sequence:
#
# PCOD9141179 Si02
#       5
#     4   4   4   4   4
#     4  12  28  50  81 118 162 215 276 343 418 498
#     4  12  29  54  79 121 169 220 286 348 417 500
#     4  12  29  55  83 126 172 218 287 344 430 503
#     4  12  28  51  78 116 163 213 280 343 416 491
#     4  12  30  48  89 119 166 228 277 348 429 500
#
# _framework density 25.458047000000001
#
# number of rings (size 3 to 8) (size 9 to 14) (size 15 to 20)
#    0.000    0.000    2.000    6.000   11.200    4.800 
#    0.000    0.000    0.000    0.000    0.000    0.000 
#    0.000    0.000    0.000    0.000    0.000    0.000 
#
# Total GULP energy -56018.577881 kJ/mol
# GULP energy per Si atom -5601.857788 kJ/mol
# Density = 2.540010 g / cm^3
# Si number density = 25.458047 Si / 1000 Ang^3
#
#
#
# Elastic Constant Matrix: (Units=GPa)
#
#
# Indices 1 2 3 4 5 6 
#
# 1 166.5849 73.5444 18.6024 0.0000 -3.7077 0.0000
# 2 73.5444 184.5733 65.6151 0.0000 15.0177 0.0000
# 3 18.6024 65.6151 120.2349 0.0000 -3.5996 0.0000
# 4 0.0000 0.0000 0.0000 36.1015 0.0000 -9.1597
# 5 -3.7077 15.0177 -3.5996 0.0000 35.9114 0.0000
# 6 0.0000 0.0000 0.0000 -9.1597 0.0000 13.5385
#
#
#
# Elastic Compliance Matrix: (Units=1/GPa)
#
#
# Indices 1 2 3 4 5 6 
#
# 1 0.007490 -0.003454 0.000795 0.000000 0.002297 0.000000
# 2 -0.003454 0.008700 -0.004346 0.000000 -0.004430 0.000000
# 3 0.000795 -0.004346 0.010655 0.000000 0.002967 0.000000
# 4 0.000000 0.000000 0.000000 0.033440 0.000000 0.022624
# 5 0.002297 -0.004430 0.002967 0.000000 0.030234 0.000000
# 6 0.000000 0.000000 0.000000 0.022624 0.000000 0.089171
#
#
# Mechanical properties :
#
#
# Convention : Reuss Voigt Hill
#
# Bulk Modulus (GPa) = 77.91579 87.43522 82.67550
# Shear Modulus (GPa) = 25.25552 38.01902 31.63727
#
# Velocity S-wave (km/s) = 3.15309 3.86864 3.52905
# Velocity P-wave (km/s) = 6.62782 7.37391 7.01080
#
# Compressibility (1/GPa) = 0.01283437
#
# Stress axis : x y z
#
# Youngs Moduli (GPa) = 133.50767 114.94847 93.85689
#
# Poissons Ratio (x) = 0.39703 -0.07460
# Poissons Ratio (y) = 0.46114 0.40788
# Poissons Ratio (z) = -0.10612 0.49954
#
# Static dielectric constant tensor:
#      x y z
#    x 1.970520 0.000000 -0.011430 
#    y 0.000000 2.086420 0.000000 
#    z -0.011430 0.000000 2.055540 
# 
# From -- ./inp_files/3785.got.cif
#   From: 2010.05.17/outbox.cif.g08.bks.cpg/sg9_2_cif.got.tgz:3785.got - 2010.06.03 20:04:27.
