data_PCOD9141473
_publ_section_title
;
Structure prediction by ZEFSAII (Michael W. Deem and Ramdas Pophale) SiO2 
 PCOD9141473
Probable space group: P 2/M
;
_chemical_formula_sum "Si O2"
_cell_formula_units_Z 28
_cell_length_a 14.855031
_cell_length_b 12.163326
_cell_length_c 16.101593
_cell_angle_alpha 90.000000
_cell_angle_beta 144.083321
_cell_angle_gamma 90.000000
_cell_volume 1706.643604
_symmetry_space_group_name_H-M "P 2/M"
_symmetry_group_IT_number 10
_symmetry_cell_setting 'monoclinic'
loop_
_space_group_symop_operation_xyz
x,y,z
-x,y,-z
-x,-y,-z
x,-y,z
loop_
_atom_site_type_symbol
_atom_site_label
_atom_site_fract_x
_atom_site_fract_y
_atom_site_fract_z
Si Si1 0.693472 0.132447 0.946705
Si Si2 0.538205 0.630685 0.624591
Si Si3 0.824197 0.870087 0.396284
Si Si4 0.681059 0.124363 0.124709
Si Si5 0.175985 0.231809 0.108539
Si Si6 0.617201 0.191670 0.383884
Si Si7 0.834042 0.000000 0.829451
Si Si8 0.638513 0.000000 0.535006
O O1 0.808768 0.202602 0.976800
O O2 0.524772 0.156746 0.782597
O O3 0.718839 0.000000 0.959497
O O4 0.709438 0.167612 0.054045
O O5 0.500000 0.658585 0.500000
O O6 0.528914 0.500000 0.626918
O O7 0.707439 0.675594 0.774335
O O8 0.425702 0.694394 0.603700
O O9 0.739731 0.821261 0.252340
O O10 0.767116 0.812451 0.437575
O O11 0.000000 0.865367 0.500000
O O12 0.782117 0.000000 0.376376
O O13 0.747943 0.000000 0.175178
O O14 0.500000 0.115692 0.000000
O O15 0.233776 0.116035 0.191748
O O16 0.000000 0.252240 0.000000
O O17 0.628052 0.104097 0.466544
O O18 0.800003 0.000000 0.706157
O O19 0.000000 0.000000 0.000000
O O20 0.500000 0.000000 0.500000
#
# Coordination Sequence:
#
# PCOD9141473 Si02
#       8
#     4   4   4   4   4   4   2   2
#     4  10  16  28  48  74 105 142 176 204 246 307
#     4  10  22  39  57  76  98 133 186 233 268 315
#     4  10  19  33  45  75 114 141 171 210 257 319
#     4   9  16  27  46  65  98 143 174 199 239 298
#     4  10  20  34  51  78 111 139 168 212 261 318
#     4  11  19  32  55  77 104 139 177 221 268 314
#     4  10  20  34  44  72 116 138 162 197 261 321
#     4  12  20  30  53  77 103 143 176 213 258 322
#
# _framework density 16.406472000000001
#
# number of rings (size 3 to 8) (size 9 to 14) (size 15 to 20)
#    0.000    1.857    3.571    3.000    0.000    0.286 
#    7.714    0.000    0.000    0.429    0.000    8.000 
#    0.000    0.000    0.000    0.000    0.000    0.000 
#
# Total GULP energy -155930.316079 kJ/mol
# GULP energy per Si atom -5568.939860 kJ/mol
# Density = 1.636913 g / cm^3
# Si number density = 16.406472 Si / 1000 Ang^3
#
#
#
# Elastic Constant Matrix: (Units=GPa)
#
#
# Indices 1 2 3 4 5 6 
#
# 1 143.1053 40.8747 45.7252 0.0000 -17.8947 0.0000
# 2 40.8747 66.2042 26.4490 0.0000 -9.3937 0.0000
# 3 45.7252 26.4490 69.9422 0.0000 -17.1815 0.0000
# 4 0.0000 0.0000 0.0000 12.9567 0.0000 -3.0417
# 5 -17.8947 -9.3937 -17.1815 0.0000 28.7020 0.0000
# 6 0.0000 0.0000 0.0000 -3.0417 0.0000 16.2172
#
#
#
# Elastic Compliance Matrix: (Units=1/GPa)
#
#
# Indices 1 2 3 4 5 6 
#
# 1 0.009795 -0.003997 -0.004353 0.000000 0.002193 0.000000
# 2 -0.003997 0.019533 -0.004473 0.000000 0.001223 0.000000
# 3 -0.004353 -0.004473 0.020879 0.000000 0.008320 0.000000
# 4 0.000000 0.000000 0.000000 0.080735 0.000000 0.015143
# 5 0.002193 0.001223 0.008320 0.000000 0.041589 0.000000
# 6 0.000000 0.000000 0.000000 0.015143 0.000000 0.064503
#
#
# Mechanical properties :
#
#
# Convention : Reuss Voigt Hill
#
# Bulk Modulus (GPa) = 40.71624 56.14993 48.43309
# Shear Modulus (GPa) = 18.45924 22.65536 20.55730
#
# Velocity S-wave (km/s) = 3.35792 3.72005 3.54361
# Velocity P-wave (km/s) = 6.31706 7.26294 6.80645
#
# Compressibility (1/GPa) = 0.02456023
#
# Stress axis : x y z
#
# Youngs Moduli (GPa) = 102.09689 51.19514 47.89529
#
# Poissons Ratio (x) = 0.20463 0.20850
# Poissons Ratio (y) = 0.40808 0.21423
# Poissons Ratio (z) = 0.44445 0.22899
#
# Static dielectric constant tensor:
#      x y z
#    x 1.604440 0.000000 0.017050 
#    y 0.000000 1.530900 0.000000 
#    z 0.017050 0.000000 1.681270 
# 
# From -- ./inp_files/67166.got.cif
#   From: 2010.05.17/outbox.cif.g08.bks.cpg/sg10_34_cif.got.tgz:67166.got - 2010.06.03 11:33:40.
