data_PCOD9141200
_publ_section_title
;
Structure prediction by ZEFSAII (Michael W. Deem and Ramdas Pophale) SiO2 
 PCOD9141200
Probable space group: C C
;
_chemical_formula_sum "Si O2"
_cell_formula_units_Z 28
_cell_length_a 11.912997
_cell_length_b 9.108805
_cell_length_c 19.642066
_cell_angle_alpha 90.000000
_cell_angle_beta 151.453884
_cell_angle_gamma 90.000000
_cell_volume 1018.534360
_symmetry_space_group_name_H-M "C C"
_symmetry_group_IT_number 9
_symmetry_cell_setting 'monoclinic'
loop_
_space_group_symop_operation_xyz
x,y,z
x,-y,1/2+z
1/2+x,1/2+y,z
1/2+x,1/2-y,1/2+z
loop_
_atom_site_type_symbol
_atom_site_label
_atom_site_fract_x
_atom_site_fract_y
_atom_site_fract_z
Si Si1 0.434580 0.946846 0.409960
Si Si2 0.018151 0.900887 0.346109
Si Si3 0.030616 0.680819 0.572320
Si Si4 0.243235 0.673027 0.370486
Si Si5 0.626490 0.862677 0.337566
Si Si6 0.765437 0.574482 0.105828
Si Si7 0.956549 0.075738 0.172272
O O1 0.410962 0.776559 0.417316
O O2 0.686286 0.962677 0.506933
O O3 0.460784 0.034798 0.495186
O O4 0.178913 0.007184 0.249289
O O5 0.166580 0.760855 0.398071
O O6 0.140587 0.983964 0.472573
O O7 0.763991 0.850709 0.238578
O O8 0.968608 0.994103 0.252490
O O9 0.125934 0.794178 0.566118
O O10 0.798290 0.761321 0.474732
O O11 0.296019 0.502797 0.410295
O O12 0.997689 0.656543 0.199887
O O13 0.530526 0.742054 0.231959
O O14 0.383709 0.954525 0.219135
#
# Coordination Sequence:
#
# PCOD9141200 Si02
#       7
#     4   4   4   4   4   4   4
#     4   9  17  33  58  82 109 155 192 227 293 349
#     4   9  17  36  57  76 111 153 197 225 294 352
#     4   9  18  35  54  80 111 151 189 242 290 338
#     4   8  18  32  56  79 111 149 183 243 284 341
#     4   9  19  33  55  82 113 148 190 241 297 337
#     4   9  19  34  56  80 111 153 191 237 285 354
#     4   9  18  33  58  83 110 153 194 233 287 353
#
# _framework density 27.490480999999999
#
# number of rings (size 3 to 8) (size 9 to 14) (size 15 to 20)
#    0.857    2.286    0.000    0.857    2.000    0.000 
#   12.857    1.429   12.571    0.000    0.000    0.000 
#    0.000    0.000    0.000    0.000    0.000    0.000 
#
# Total GULP energy -78024.573413 kJ/mol
# GULP energy per Si atom -5573.183815 kJ/mol
# Density = 2.742791 g / cm^3
# Si number density = 27.490481 Si / 1000 Ang^3
#
#
#
# Elastic Constant Matrix: (Units=GPa)
#
#
# Indices 1 2 3 4 5 6 
#
# 1 83.6893 40.0545 48.3030 0.0000 14.2155 0.0000
# 2 40.0545 176.7356 35.2332 0.0009 18.4017 0.0000
# 3 48.3030 35.2332 166.6947 0.0025 30.1055 0.0001
# 4 0.0000 0.0009 0.0025 38.5979 0.0004 18.1773
# 5 14.2155 18.4017 30.1055 0.0004 21.0383 -0.0001
# 6 0.0000 0.0000 0.0001 18.1773 -0.0001 33.6312
#
#
#
# Elastic Compliance Matrix: (Units=1/GPa)
#
#
# Indices 1 2 3 4 5 6 
#
# 1 0.015708 -0.002514 -0.003372 0.000000 -0.003590 0.000000
# 2 -0.002514 0.006652 0.000090 0.000000 -0.004248 0.000000
# 3 -0.003372 0.000090 0.008846 -0.000001 -0.010458 0.000000
# 4 0.000000 0.000000 -0.000001 0.034754 0.000000 -0.018784
# 5 -0.003590 -0.004248 -0.010458 0.000000 0.068639 0.000000
# 6 0.000000 0.000000 0.000000 -0.018784 0.000000 0.039887
#
#
# Mechanical properties :
#
#
# Convention : Reuss Voigt Hill
#
# Bulk Modulus (GPa) = 50.98485 74.92232 62.95358
# Shear Modulus (GPa) = 25.95808 38.88876 32.42342
#
# Velocity S-wave (km/s) = 3.07621 3.76523 3.43803
# Velocity P-wave (km/s) = 5.58606 6.79821 6.22173
#
# Compressibility (1/GPa) = 0.01961367
#
# Stress axis : x y z
#
# Youngs Moduli (GPa) = 63.66100 150.32186 113.04582
#
# Poissons Ratio (x) = 0.37791 0.38120
# Poissons Ratio (y) = 0.16005 -0.01014
# Poissons Ratio (z) = 0.21467 -0.01348
#
# Static dielectric constant tensor:
#      x y z
#    x 2.130600 0.000000 0.052240 
#    y 0.000000 2.110760 0.000000 
#    z 0.052240 0.000000 2.223740 
# 
# From -- ./inp_files/37563.got.cif
#   From: 2010.05.17/outbox.cif.g08.bks.cpg/sg9_19_cif.got.tgz:37563.got - 2010.06.03 20:04:27.
