data_PCOD9141076
_publ_section_title
;
Structure prediction by ZEFSAII (Michael W. Deem and Ramdas Pophale) SiO2 
 PCOD9141076
Probable space group: C C
;
_chemical_formula_sum "Si O2"
_cell_formula_units_Z 28
_cell_length_a 18.777912
_cell_length_b 6.826173
_cell_length_c 25.367822
_cell_angle_alpha 90.000000
_cell_angle_beta 162.849912
_cell_angle_gamma 90.000000
_cell_volume 958.841574
_symmetry_space_group_name_H-M "C C"
_symmetry_group_IT_number 9
_symmetry_cell_setting 'monoclinic'
loop_
_space_group_symop_operation_xyz
x,y,z
x,-y,1/2+z
1/2+x,1/2+y,z
1/2+x,1/2-y,1/2+z
loop_
_atom_site_type_symbol
_atom_site_label
_atom_site_fract_x
_atom_site_fract_y
_atom_site_fract_z
Si Si1 0.240910 0.117237 0.263380
Si Si2 0.369639 0.374001 0.583927
Si Si3 0.512230 0.069402 0.188081
Si Si4 0.352135 0.368823 0.840112
Si Si5 0.815201 0.382701 0.229369
Si Si6 0.550555 0.347652 0.301013
Si Si7 0.215995 0.617756 0.665211
O O1 0.253609 0.382809 0.258842
O O2 0.439057 0.126289 0.450414
O O3 0.972096 0.087940 0.097505
O O4 0.261653 0.128814 0.210985
O O5 0.516939 0.495828 0.731292
O O6 0.090957 0.395277 0.403013
O O7 0.446741 0.152651 0.644649
O O8 0.760794 0.128850 0.337031
O O9 0.474367 0.153122 0.218347
O O10 0.320133 0.162635 0.011970
O O11 0.309062 0.124463 0.794997
O O12 0.280006 0.368708 0.722512
O O13 0.638076 0.381984 0.052990
O O14 0.381688 0.384158 0.230394
#
# Coordination Sequence:
#
# PCOD9141076 Si02
#       7
#     4   4   4   4   4   4   4
#     4  12  26  49  81 115 167 219 282 342 426 503
#     4  12  29  52  88 122 171 227 290 346 428 519
#     4  12  28  54  88 121 170 226 284 349 426 513
#     4  12  26  52  78 115 169 213 280 347 423 495
#     4  12  28  49  81 120 165 219 280 357 416 506
#     4  12  28  53  82 124 168 221 288 353 423 505
#     4  12  25  51  74 119 164 215 276 348 418 501
#
# _framework density 29.201906999999999
#
# number of rings (size 3 to 8) (size 9 to 14) (size 15 to 20)
#    0.000    0.000    2.857    6.000    2.000    2.286 
#    2.571    0.000    0.000    0.000    0.000    0.000 
#    0.000    0.000    0.000    0.000    0.000    0.000 
#
# Total GULP energy -78446.958621 kJ/mol
# GULP energy per Si atom -5603.354187 kJ/mol
# Density = 2.913544 g / cm^3
# Si number density = 29.201907 Si / 1000 Ang^3
#
#
#
# Elastic Constant Matrix: (Units=GPa)
#
#
# Indices 1 2 3 4 5 6 
#
# 1 210.8077 85.0034 33.2003 -0.2584 32.5680 0.1068
# 2 85.0034 254.8563 88.9647 0.2004 -64.8276 -0.0067
# 3 33.2003 88.9647 136.2173 -0.0182 -41.3013 0.1961
# 4 -0.2584 0.2004 -0.0182 50.5235 -0.2300 2.1130
# 5 32.5680 -64.8276 -41.3013 -0.2300 116.4031 0.0523
# 6 0.1068 -0.0067 0.1961 2.1130 0.0523 43.6904
#
#
#
# Elastic Compliance Matrix: (Units=1/GPa)
#
#
# Indices 1 2 3 4 5 6 
#
# 1 0.006612 -0.002850 -0.000888 0.000028 -0.003752 -0.000009
# 2 -0.002850 0.006694 -0.002583 -0.000026 0.003609 0.000017
# 3 -0.000888 -0.002583 0.009955 0.000022 0.002342 -0.000047
# 4 0.000028 -0.000026 0.000022 0.019833 0.000025 -0.000959
# 5 -0.003752 0.003609 0.002342 0.000025 0.012482 -0.000017
# 6 -0.000009 0.000017 -0.000047 -0.000959 -0.000017 0.022935
#
#
# Mechanical properties :
#
#
# Convention : Reuss Voigt Hill
#
# Bulk Modulus (GPa) = 94.16928 112.91311 103.54119
# Shear Modulus (GPa) = 52.80210 68.43759 60.61984
#
# Velocity S-wave (km/s) = 4.25687 4.84633 4.56113
# Velocity P-wave (km/s) = 7.51525 8.37055 7.95440
#
# Compressibility (1/GPa) = 0.01061917
#
# Stress axis : x y z
#
# Youngs Moduli (GPa) = 151.23005 149.38580 100.45321
#
# Poissons Ratio (x) = 0.42575 0.08920
# Poissons Ratio (y) = 0.43101 0.25948
# Poissons Ratio (z) = 0.13429 0.38588
#
# Static dielectric constant tensor:
#      x y z
#    x 1.982000 -0.000360 0.086340 
#    y -0.000360 2.900050 -0.000530 
#    z 0.086340 -0.000530 2.391300 
# 
# From -- ./inp_files/35826.got.cif
#   From: 2010.05.17/outbox.cif.g08.bks.cpg/sg9_18_cif.got.tgz:35826.got - 2010.06.03 20:04:27.
