data_PCOD9141615
_publ_section_title
;
Structure prediction by ZEFSAII (Michael W. Deem and Ramdas Pophale) SiO2 
 PCOD9141615
Probable space group: P 2/M
;
_chemical_formula_sum "Si O2"
_cell_formula_units_Z 28
_cell_length_a 27.009535
_cell_length_b 8.319043
_cell_length_c 21.486376
_cell_angle_alpha 90.000000
_cell_angle_beta 18.354919
_cell_angle_gamma 90.000000
_cell_volume 1520.300901
_symmetry_space_group_name_H-M "P 2/M"
_symmetry_group_IT_number 10
_symmetry_cell_setting 'monoclinic'
loop_
_space_group_symop_operation_xyz
x,y,z
-x,y,-z
-x,-y,-z
x,-y,z
loop_
_atom_site_type_symbol
_atom_site_label
_atom_site_fract_x
_atom_site_fract_y
_atom_site_fract_z
Si Si1 0.691478 0.193841 0.455855
Si Si2 0.164883 0.691641 0.834535
Si Si3 0.056290 0.805543 0.224480
Si Si4 0.930558 0.312363 0.494799
Si Si5 0.757701 0.188405 0.810921
Si Si6 0.614765 0.196299 0.104830
Si Si7 0.018529 0.806183 0.127665
O O1 0.702722 0.246573 0.370564
O O2 0.539102 0.251056 0.675072
O O3 0.850637 0.250126 0.300546
O O4 0.691183 0.000000 0.457414
O O5 0.166260 0.500000 0.832486
O O6 0.000000 0.749618 0.000000
O O7 0.153482 0.750936 0.918807
O O8 0.928326 0.737597 0.425555
O O9 0.037854 0.752239 0.175486
O O10 0.047680 0.000000 0.236530
O O11 0.227477 0.756393 0.046448
O O12 0.967851 0.500000 0.455885
O O13 0.782315 0.274055 0.715578
O O14 0.076582 0.213497 0.350159
O O15 0.733764 0.000000 0.828248
O O16 0.632330 0.247823 0.011741
O O17 0.613258 0.000000 0.105412
O O18 0.017792 0.000000 0.128396
#
# Coordination Sequence:
#
# PCOD9141615 Si02
#       7
#     4   4   4   4   4   4   4
#     4   9  16  29  48  68  86 108 143 183 215 248
#     4   9  17  29  45  65  88 114 144 176 212 256
#     4   9  17  30  45  64  89 116 143 174 217 262
#     4  10  17  25  40  64  89 114 146 182 215 249
#     4   9  15  26  43  62  86 117 148 178 214 255
#     4   8  15  27  45  66  88 112 140 176 217 257
#     4   9  17  29  48  68  85 109 145 183 214 249
#
# _framework density 18.417406
#
# number of rings (size 3 to 8) (size 9 to 14) (size 15 to 20)
#    0.000    3.000    0.000    3.857    0.000    2.286 
#    0.000    4.286    0.000    5.143    0.000    6.000 
#    0.000    0.000    0.000    0.000    0.000    0.000 
#
# Total GULP energy -155887.423940 kJ/mol
# GULP energy per Si atom -5567.407998 kJ/mol
# Density = 1.837549 g / cm^3
# Si number density = 18.417406 Si / 1000 Ang^3
#
#
#
# Elastic Constant Matrix: (Units=GPa)
#
#
# Indices 1 2 3 4 5 6 
#
# 1 148.3459 18.4669 36.6300 0.0000 57.2524 0.0000
# 2 18.4669 13.6072 9.1044 0.0000 7.9728 0.0000
# 3 36.6300 9.1044 142.9471 0.0000 49.4034 0.0000
# 4 0.0000 0.0000 0.0000 -6.0381 0.0000 -5.8983
# 5 57.2524 7.9728 49.4034 0.0000 40.8512 0.0000
# 6 0.0000 0.0000 0.0000 -5.8983 0.0000 -1.7601
#
#
#
# Elastic Compliance Matrix: (Units=1/GPa)
#
#
# Indices 1 2 3 4 5 6 
#
# 1 0.019545 -0.011490 0.007586 0.000000 -0.034323 0.000000
# 2 -0.011490 0.089758 -0.003923 0.000000 0.003330 0.000000
# 3 0.007586 -0.003923 0.014967 0.000000 -0.027966 0.000000
# 4 0.000000 0.000000 0.000000 0.072842 0.000000 -0.244109
# 5 -0.034323 0.003330 -0.027966 0.000000 0.105753 0.000000
# 6 0.000000 0.000000 0.000000 -0.244109 0.000000 0.249894
#
#
# Mechanical properties :
#
#
# Convention : Reuss Voigt Hill
#
# Bulk Modulus (GPa) = 9.20686 48.14476 28.67581
# Shear Modulus (GPa) = 8.26968 22.65723 15.46345
#
# Velocity S-wave (km/s) = 2.12129 3.51124 2.90075
# Velocity P-wave (km/s) = 3.31809 6.52963 5.17908
#
# Compressibility (1/GPa) = 0.10861461
#
# Stress axis : x y z
#
# Youngs Moduli (GPa) = 51.16414 11.14110 66.81468
#
# Poissons Ratio (x) = 0.12801 -0.50685
# Poissons Ratio (y) = 0.58787 0.26214
# Poissons Ratio (z) = -0.38812 0.04371
#
# Static dielectric constant tensor:
#      x y z
#    x 1.655040 0.000000 0.035740 
#    y 0.000000 1.619290 0.000000 
#    z 0.035740 0.000000 1.669620 
# 
# From -- ./inp_files/54529.got.cif
#   From: 2010.05.17/outbox.cif.g08.bks.cpg/sg10_28_cif.got.tgz:54529.got - 2010.06.03 11:33:40.
