data_PCOD9141518
_publ_section_title
;
Structure prediction by ZEFSAII (Michael W. Deem and Ramdas Pophale) SiO2 
 PCOD9141518
Probable space group: P 2/M
;
_chemical_formula_sum "Si O2"
_cell_formula_units_Z 30
_cell_length_a 30.980917
_cell_length_b 7.975001
_cell_length_c 12.733147
_cell_angle_alpha 90.000000
_cell_angle_beta 150.902728
_cell_angle_gamma 90.000000
_cell_volume 1529.887442
_symmetry_space_group_name_H-M "P 2/M"
_symmetry_group_IT_number 10
_symmetry_cell_setting 'monoclinic'
loop_
_space_group_symop_operation_xyz
x,y,z
-x,y,-z
-x,-y,-z
x,-y,z
loop_
_atom_site_type_symbol
_atom_site_label
_atom_site_fract_x
_atom_site_fract_y
_atom_site_fract_z
Si Si1 0.916280 0.693289 0.624174
Si Si2 0.268053 0.197583 0.713035
Si Si3 0.957348 0.700491 0.302006
Si Si4 0.232757 0.195285 0.183747
Si Si5 0.416202 0.297290 0.182664
Si Si6 0.812098 0.794216 0.679007
Si Si7 0.385573 0.300157 0.350350
Si Si8 0.000000 0.244300 0.000000
O O1 0.934813 0.500000 0.698806
O O2 0.811387 0.713439 0.392273
O O3 0.970606 0.725670 0.635685
O O4 0.951013 0.814625 0.789871
O O5 0.251847 0.241931 0.555994
O O6 0.253788 0.000000 0.690710
O O7 0.360449 0.238901 0.964279
O O8 0.942184 0.500000 0.279994
O O9 0.000000 0.763885 0.500000
O O10 0.864236 0.779276 0.072357
O O11 0.226515 0.259651 0.290630
O O12 0.306596 0.266386 0.262712
O O13 0.252543 0.000000 0.234978
O O14 0.415059 0.500000 0.177908
O O15 0.374149 0.240058 0.205363
O O16 0.518665 0.239371 0.404064
O O17 0.828558 0.000000 0.716900
O O18 0.906501 0.703175 0.858036
O O19 0.394004 0.500000 0.359407
#
# Coordination Sequence:
#
# PCOD9141518 Si02
#       8
#     4   4   4   4   4   4   4   2
#     4  10  20  33  51  78 107 142 185 227 269 314
#     4  10  21  35  55  81 112 144 180 224 274 325
#     4  10  22  38  53  73 107 151 187 220 268 325
#     4  11  22  37  57  83 112 144 185 230 271 321
#     4   9  19  39  63  84 108 139 180 224 271 329
#     4   9  19  34  52  77 110 149 184 220 273 324
#     4   9  20  39  62  84 108 143 179 220 276 331
#     4  10  16  32  54  74 101 142 191 234 263 304
#
# _framework density 19.609286999999998
#
# number of rings (size 3 to 8) (size 9 to 14) (size 15 to 20)
#    0.000    2.267    1.333    2.000    1.867    2.400 
#    0.000    4.000    0.000    4.000    0.000    0.000 
#    0.000    0.000    0.000    0.000    0.000    0.000 
#
# Total GULP energy -167033.404405 kJ/mol
# GULP energy per Si atom -5567.780147 kJ/mol
# Density = 1.956466 g / cm^3
# Si number density = 19.609287 Si / 1000 Ang^3
#
#
#
# Elastic Constant Matrix: (Units=GPa)
#
#
# Indices 1 2 3 4 5 6 
#
# 1 122.9020 12.3577 42.5158 0.0000 -1.7841 0.0000
# 2 12.3577 31.4021 3.9246 0.0000 -4.2564 0.0000
# 3 42.5158 3.9246 108.0844 0.0000 -15.9259 0.0000
# 4 0.0000 0.0000 0.0000 -57.8307 0.0000 -147.1662
# 5 -1.7841 -4.2564 -15.9259 0.0000 17.6336 0.0000
# 6 0.0000 0.0000 0.0000 -147.1662 0.0000 -246.9861
#
#
#
# Elastic Compliance Matrix: (Units=1/GPa)
#
#
# Indices 1 2 3 4 5 6 
#
# 1 0.009979 -0.003907 -0.004353 0.000000 -0.003865 0.000000
# 2 -0.003907 0.034452 0.001676 0.000000 0.009434 0.000000
# 3 -0.004353 0.001676 0.012571 0.000000 0.011318 0.000000
# 4 0.000000 0.000000 0.000000 0.033492 0.000000 -0.019956
# 5 -0.003865 0.009434 0.011318 0.000000 0.068818 0.000000
# 6 0.000000 0.000000 0.000000 -0.019956 0.000000 0.007842
#
#
# Mechanical properties :
#
#
# Convention : Reuss Voigt Hill
#
# Bulk Modulus (GPa) = 22.81324 42.22053 32.51688
# Shear Modulus (GPa) = 25.64983 -43.86396 -9.10707
#
# Velocity S-wave (km/s) = 3.62061 -4.73472 -2.15739
# Velocity P-wave (km/s) = 5.39793 2.88313 3.22686
#
# Compressibility (1/GPa) = 0.04383419
#
# Stress axis : x y z
#
# Youngs Moduli (GPa) = 100.20915 29.02608 79.54761
#
# Poissons Ratio (x) = 0.11340 0.34627
# Poissons Ratio (y) = 0.39151 -0.13332
# Poissons Ratio (z) = 0.43621 -0.04865
#
# Static dielectric constant tensor:
#      x y z
#    x 1.701160 0.000000 -0.012470 
#    y 0.000000 1.791000 0.000000 
#    z -0.012470 0.000000 1.669960 
# 
# From -- ./inp_files/58036.got.cif
#   From: 2010.05.17/outbox.cif.g08.bks.cpg/sg10_30_cif.got.tgz:58036.got - 2010.06.03 11:33:40.
