data_PCOD9141204
_publ_section_title
;
Structure prediction by ZEFSAII (Michael W. Deem and Ramdas Pophale) SiO2 
 PCOD9141204
Probable space group: C C
;
_chemical_formula_sum "Si O2"
_cell_formula_units_Z 32
_cell_length_a 17.864424
_cell_length_b 7.274284
_cell_length_c 12.529803
_cell_angle_alpha 90.000000
_cell_angle_beta 129.785813
_cell_angle_gamma 90.000000
_cell_volume 1251.222673
_symmetry_space_group_name_H-M "C C"
_symmetry_group_IT_number 9
_symmetry_cell_setting 'monoclinic'
loop_
_space_group_symop_operation_xyz
x,y,z
x,-y,1/2+z
1/2+x,1/2+y,z
1/2+x,1/2-y,1/2+z
loop_
_atom_site_type_symbol
_atom_site_label
_atom_site_fract_x
_atom_site_fract_y
_atom_site_fract_z
Si Si1 0.200480 0.051893 0.594290
Si Si2 0.024754 0.317455 0.183173
Si Si3 0.305960 0.223857 0.499609
Si Si4 0.073420 0.806994 0.339318
Si Si5 0.748725 0.682545 0.859349
Si Si6 0.200059 0.306992 0.203203
Si Si7 0.572999 0.051891 0.948231
Si Si8 0.467519 0.223856 0.042912
O O1 0.107343 0.975071 0.444127
O O2 0.246794 0.854878 0.674470
O O3 0.265062 0.185768 0.580463
O O4 0.188972 0.153278 0.696225
O O5 0.097061 0.236225 0.160729
O O6 0.084507 0.346723 0.346296
O O7 0.994730 0.521325 0.115204
O O8 0.919831 0.232968 0.108839
O O9 0.261088 0.350073 0.364712
O O10 0.278748 0.021326 0.427316
O O11 0.176418 0.736226 0.381793
O O12 0.026685 0.645124 0.368050
O O13 0.012392 0.850073 0.177809
O O14 0.853648 0.767031 0.933683
O O15 0.166136 0.475069 0.098394
O O16 0.508417 0.185767 0.962058
#
# Coordination Sequence:
#
# PCOD9141204 Si02
#       8
#     4   4   4   4   4   4   4   4
#     4   9  17  31  49  71 104 137 167 211 265 308
#     4   9  17  30  51  77 101 132 178 219 254 310
#     4   9  17  30  51  77 101 132 178 219 254 310
#     4   9  18  31  50  76 106 135 170 219 268 306
#     4   9  17  30  51  77 101 132 178 219 254 310
#     4   9  18  31  50  76 106 135 170 219 268 306
#     4   9  17  31  49  71 104 137 167 211 265 308
#     4   9  17  30  51  77 101 132 178 219 254 310
#
# _framework density 25.574983
#
# number of rings (size 3 to 8) (size 9 to 14) (size 15 to 20)
#    0.000    3.000    0.000    0.750    0.000    3.000 
#    0.000    3.750    0.000   16.500    0.000    0.000 
#    0.000    0.000    0.000    0.000    0.000    0.000 
#
# Total GULP energy -89196.255917 kJ/mol
# GULP energy per Si atom -5574.765995 kJ/mol
# Density = 2.551677 g / cm^3
# Si number density = 25.574983 Si / 1000 Ang^3
#
#
#
# Elastic Constant Matrix: (Units=GPa)
#
#
# Indices 1 2 3 4 5 6 
#
# 1 93.2814 26.3975 79.7437 0.0000 -10.5252 0.0000
# 2 26.3975 66.7006 29.7432 0.0000 -0.7188 0.0000
# 3 79.7437 29.7432 137.7483 0.0000 -25.7720 0.0000
# 4 0.0000 0.0000 0.0000 35.2553 0.0000 -4.7490
# 5 -10.5252 -0.7188 -25.7720 0.0000 46.8236 0.0000
# 6 0.0000 0.0000 0.0000 -4.7490 0.0000 21.7757
#
#
#
# Elastic Compliance Matrix: (Units=1/GPa)
#
#
# Indices 1 2 3 4 5 6 
#
# 1 0.022027 -0.003199 -0.012423 0.000000 -0.001936 0.000000
# 2 -0.003199 0.017209 -0.002173 0.000000 -0.001651 0.000000
# 3 -0.012423 -0.002173 0.016044 0.000000 0.006005 0.000000
# 4 0.000000 0.000000 0.000000 0.029223 0.000000 0.006373
# 5 -0.001936 -0.001651 0.006005 0.000000 0.024202 0.000000
# 6 0.000000 0.000000 0.000000 0.006373 0.000000 0.047313
#
#
# Mechanical properties :
#
#
# Convention : Reuss Voigt Hill
#
# Bulk Modulus (GPa) = 50.78443 63.27770 57.03107
# Shear Modulus (GPa) = 25.23060 31.56065 28.39562
#
# Velocity S-wave (km/s) = 3.14432 3.51671 3.33571
# Velocity P-wave (km/s) = 5.75174 6.42537 6.09786
#
# Compressibility (1/GPa) = 0.01969107
#
# Stress axis : x y z
#
# Youngs Moduli (GPa) = 45.39804 58.10746 62.32733
#
# Poissons Ratio (x) = 0.18586 0.77431
# Poissons Ratio (y) = 0.14521 0.13544
# Poissons Ratio (z) = 0.56399 0.12627
#
# Static dielectric constant tensor:
#      x y z
#    x 2.011230 0.000000 -0.014860 
#    y 0.000000 2.019310 0.000000 
#    z -0.014860 0.000000 2.040840 
# 
# From -- ./inp_files/19216.got.cif
#   From: 2010.05.17/outbox.cif.g08.bks.cpg/sg9_10_cif.got.tgz:19216.got - 2010.06.03 20:04:27.
