data_PCOD9141354
_publ_section_title
;
Structure prediction by ZEFSAII (Michael W. Deem and Ramdas Pophale) SiO2 
 PCOD9141354
Probable space group: P 2/M
;
_chemical_formula_sum "Si O2"
_cell_formula_units_Z 32
_cell_length_a 22.571800
_cell_length_b 8.033586
_cell_length_c 23.467411
_cell_angle_alpha 90.000000
_cell_angle_beta 162.387210
_cell_angle_gamma 90.000000
_cell_volume 1287.611536
_symmetry_space_group_name_H-M "P 2/M"
_symmetry_group_IT_number 10
_symmetry_cell_setting 'monoclinic'
loop_
_space_group_symop_operation_xyz
x,y,z
-x,y,-z
-x,-y,-z
x,-y,z
loop_
_atom_site_type_symbol
_atom_site_label
_atom_site_fract_x
_atom_site_fract_y
_atom_site_fract_z
Si Si1 0.783728 0.192379 0.855139
Si Si2 0.169949 0.296492 0.345968
Si Si3 0.136638 0.692363 0.439369
Si Si4 0.290909 0.302547 0.096027
Si Si5 0.225197 0.692850 0.274007
Si Si6 0.695570 0.199615 0.010645
Si Si7 0.966826 0.812701 0.533095
Si Si8 0.582758 0.809821 0.020806
O O1 0.655894 0.235620 0.793186
O O2 0.697821 0.228869 0.714061
O O3 0.839166 0.000000 0.908329
O O4 0.987100 0.294124 0.048747
O O5 0.186679 0.500000 0.361671
O O6 0.265625 0.236223 0.374255
O O7 0.224322 0.236349 0.459590
O O8 0.938836 0.257200 0.124564
O O9 0.192744 0.500000 0.492348
O O10 0.903545 0.710404 0.210714
O O11 0.149415 0.755678 0.516425
O O12 0.310265 0.500000 0.114916
O O13 0.388588 0.235330 0.128413
O O14 0.280348 0.500000 0.324618
O O15 0.557972 0.261149 0.935637
O O16 0.725222 0.000000 0.043876
O O17 0.187204 0.818653 0.758172
O O18 0.000000 0.731703 0.500000
O O19 0.896791 0.000000 0.457078
O O20 0.506041 0.000000 0.949630
O O21 0.500000 0.720263 0.000000
#
# Coordination Sequence:
#
# PCOD9141354 Si02
#       8
#     4   4   4   4   4   4   4   4
#     4  10  16  20  26  39  57  78 110 150 186 220
#     4   7  12  20  30  42  56  78 109 143 176 214
#     4   9  15  24  37  52  70  93 121 151 186 229
#     4   9  15  23  32  42  59  85 115 147 186 228
#     4   9  14  21  29  37  54  81 110 142 184 227
#     4   9  15  23  36  53  70  89 117 154 190 223
#     4   9  17  28  41  58  79 101 128 164 200 230
#     4   8  14  25  41  59  78 101 128 157 193 238
#
# _framework density 24.852218000000001
#
# number of rings (size 3 to 8) (size 9 to 14) (size 15 to 20)
#    0.000    3.250    0.000    5.625    0.000    0.250 
#    0.000    1.875    0.000    9.375    0.000    0.000 
#    0.000    0.000    0.000    0.000    0.000    1.250 
#
# Total GULP energy -178321.921308 kJ/mol
# GULP energy per Si atom -5572.560041 kJ/mol
# Density = 2.479565 g / cm^3
# Si number density = 24.852218 Si / 1000 Ang^3
#
#
#
# Elastic Constant Matrix: (Units=GPa)
#
#
# Indices 1 2 3 4 5 6 
#
# 1 305.1316 21.5937 38.4318 0.0000 -71.8557 0.0000
# 2 21.5937 40.3191 -6.5708 0.0000 -8.0556 0.0000
# 3 38.4318 -6.5708 114.6725 0.0000 -20.5099 0.0000
# 4 0.0000 0.0000 0.0000 22.4584 0.0000 -0.9140
# 5 -71.8557 -8.0556 -20.5099 0.0000 36.7526 0.0000
# 6 0.0000 0.0000 0.0000 -0.9140 0.0000 39.0412
#
#
#
# Elastic Compliance Matrix: (Units=1/GPa)
#
#
# Indices 1 2 3 4 5 6 
#
# 1 0.006107 -0.000926 -0.000001 0.000000 0.011736 0.000000
# 2 -0.000926 0.026902 0.002869 0.000000 0.005687 0.000000
# 3 -0.000001 0.002869 0.009995 0.000000 0.006205 0.000000
# 4 0.000000 0.000000 0.000000 0.044569 0.000000 0.001043
# 5 0.011736 0.005687 0.006205 0.000000 0.054863 0.000000
# 6 0.000000 0.000000 0.000000 0.001043 0.000000 0.025638
#
#
# Mechanical properties :
#
#
# Convention : Reuss Voigt Hill
#
# Bulk Modulus (GPa) = 21.32717 63.00362 42.16540
# Shear Modulus (GPa) = 27.80582 46.76168 37.28375
#
# Velocity S-wave (km/s) = 3.34855 4.34244 3.87747
# Velocity P-wave (km/s) = 4.85289 7.10976 6.08684
#
# Compressibility (1/GPa) = 0.04688854
#
# Stress axis : x y z
#
# Youngs Moduli (GPa) = 163.75936 37.17211 100.05045
#
# Poissons Ratio (x) = 0.03441 0.00006
# Poissons Ratio (y) = 0.15161 -0.28705
# Poissons Ratio (z) = 0.00010 -0.10665
#
# Static dielectric constant tensor:
#      x y z
#    x 2.205000 0.000000 0.533450 
#    y 0.000000 1.884710 0.000000 
#    z 0.533450 0.000000 5.997470 
# 
# From -- ./inp_files/90513.got.cif
#   From: 2010.05.17/outbox.cif.g08.bks.cpg/sg10_46_cif.got.tgz:90513.got - 2010.06.03 11:33:40.
