data_PCOD9141758
_publ_section_title
;
Structure prediction by ZEFSAII (Michael W. Deem and Ramdas Pophale) SiO2 
 PCOD9141758
Probable space group: P 2/M
;
_chemical_formula_sum "Si O2"
_cell_formula_units_Z 32
_cell_length_a 7.993100
_cell_length_b 14.866489
_cell_length_c 26.135616
_cell_angle_alpha 90.000000
_cell_angle_beta 145.666616
_cell_angle_gamma 90.000000
_cell_volume 1751.624927
_symmetry_space_group_name_H-M "P 2/M"
_symmetry_group_IT_number 10
_symmetry_cell_setting 'monoclinic'
loop_
_space_group_symop_operation_xyz
x,y,z
-x,y,-z
-x,-y,-z
x,-y,z
loop_
_atom_site_type_symbol
_atom_site_label
_atom_site_fract_x
_atom_site_fract_y
_atom_site_fract_z
Si Si1 0.789832 0.895085 0.729503
Si Si2 0.399433 0.399984 0.047568
Si Si3 0.286015 0.400261 0.141856
Si Si4 0.175904 0.896627 0.635912
Si Si5 0.540670 0.891657 0.451947
Si Si6 0.948509 0.897665 0.048572
Si Si7 0.534500 0.213528 0.208809
Si Si8 0.638023 0.788354 0.112395
O O1 0.481917 0.892950 0.682425
O O2 0.690300 0.858794 0.648533
O O3 0.052542 0.836924 0.819885
O O4 0.887362 0.000000 0.750733
O O5 0.509648 0.500000 0.061796
O O6 0.348000 0.399539 0.096171
O O7 0.602896 0.314962 0.086348
O O8 0.067809 0.387304 0.941760
O O9 0.364180 0.500000 0.180711
O O10 0.463370 0.315316 0.207424
O O11 0.215165 0.832521 0.694167
O O12 0.887989 0.873678 0.529718
O O13 0.134792 0.000000 0.643394
O O14 0.500000 0.861723 0.500000
O O15 0.505668 0.000000 0.441541
O O16 0.233803 0.844258 0.140246
O O17 0.937630 0.000000 0.065383
O O18 0.643453 0.844251 0.979532
O O19 0.000000 0.901676 0.000000
O O20 0.604278 0.210869 0.165991
#
# Coordination Sequence:
#
# PCOD9141758 Si02
#       8
#     4   4   4   4   4   4   4   4
#     4  10  20  32  45  64  93 125 152 182 224 271
#     4   8  13  23  41  65  90 114 147 195 241 271
#     4   8  13  23  41  65  90 114 147 195 241 271
#     4  10  20  32  45  64  93 125 152 182 224 271
#     4   9  17  31  51  71  88 111 148 191 227 262
#     4   9  16  24  36  58  88 119 153 191 222 249
#     4  10  17  27  44  66  89 119 157 192 226 266
#     4  10  17  27  44  66  89 119 157 192 226 266
#
# _framework density 18.268751999999999
#
# number of rings (size 3 to 8) (size 9 to 14) (size 15 to 20)
#    0.000    2.750    1.250    2.625    0.000    4.000 
#    0.000    0.625    0.000    3.000    0.000    2.625 
#    0.000    7.000    0.000    0.000    0.000    0.000 
#
# Total GULP energy -178533.490513 kJ/mol
# GULP energy per Si atom -5579.171579 kJ/mol
# Density = 1.822717 g / cm^3
# Si number density = 18.268752 Si / 1000 Ang^3
#
#
#
# Elastic Constant Matrix: (Units=GPa)
#
#
# Indices 1 2 3 4 5 6 
#
# 1 45.7359 18.9559 19.1117 0.0000 3.2092 0.0000
# 2 18.9559 109.1954 26.9363 0.0000 13.5629 0.0000
# 3 19.1117 26.9363 61.9547 0.0000 13.8041 0.0000
# 4 0.0000 0.0000 0.0000 8.4911 0.0000 -2.9112
# 5 3.2092 13.5629 13.8041 0.0000 27.9138 0.0000
# 6 0.0000 0.0000 0.0000 -2.9112 0.0000 -5.8483
#
#
#
# Elastic Compliance Matrix: (Units=1/GPa)
#
#
# Indices 1 2 3 4 5 6 
#
# 1 0.025952 -0.002990 -0.007153 0.000000 0.002006 0.000000
# 2 -0.002990 0.010851 -0.003031 0.000000 -0.003429 0.000000
# 3 -0.007153 -0.003031 0.021526 0.000000 -0.008350 0.000000
# 4 0.000000 0.000000 0.000000 0.100601 0.000000 -0.050077
# 5 0.002006 -0.003429 -0.008350 0.000000 0.041389 0.000000
# 6 0.000000 0.000000 0.000000 -0.050077 0.000000 -0.146062
#
#
# Mechanical properties :
#
#
# Convention : Reuss Voigt Hill
#
# Bulk Modulus (GPa) = 31.26892 38.54376 34.90634
# Shear Modulus (GPa) = 54.78547 16.23678 35.51113
#
# Velocity S-wave (km/s) = 5.48213 2.98446 4.41366
# Velocity P-wave (km/s) = 7.56471 5.74631 6.71732
#
# Compressibility (1/GPa) = 0.03198064
#
# Stress axis : x y z
#
# Youngs Moduli (GPa) = 38.53267 92.16065 46.45634
#
# Poissons Ratio (x) = 0.27556 0.33229
# Poissons Ratio (y) = 0.11521 0.14082
# Poissons Ratio (z) = 0.27561 0.27935
#
# Static dielectric constant tensor:
#      x y z
#    x 1.721180 0.000000 -0.007200 
#    y 0.000000 1.626510 0.000000 
#    z -0.007200 0.000000 1.602580 
# 
# From -- ./inp_files/38278.got.cif
#   From: 2010.05.17/outbox.cif.g08.bks.cpg/sg10_20_cif.got.tgz:38278.got - 2010.06.03 11:33:40.
