data_PCOD9141948
_publ_section_title
;
Structure prediction by ZEFSAII (Michael W. Deem and Ramdas Pophale) SiO2 
 PCOD9141948
Probable space group: P 2/M
;
_chemical_formula_sum "Si O2"
_cell_formula_units_Z 32
_cell_length_a 14.298685
_cell_length_b 13.838711
_cell_length_c 9.429650
_cell_angle_alpha 90.000000
_cell_angle_beta 118.114678
_cell_angle_gamma 90.000000
_cell_volume 1645.731330
_symmetry_space_group_name_H-M "P 2/M"
_symmetry_group_IT_number 10
_symmetry_cell_setting 'monoclinic'
loop_
_space_group_symop_operation_xyz
x,y,z
-x,y,-z
-x,-y,-z
x,-y,z
loop_
_atom_site_type_symbol
_atom_site_label
_atom_site_fract_x
_atom_site_fract_y
_atom_site_fract_z
Si Si1 0.928397 0.112940 0.071395
Si Si2 0.929153 0.809303 0.589314
Si Si3 0.306582 0.115916 0.020326
Si Si4 0.233877 0.389219 0.811662
Si Si5 0.291119 0.803070 0.693721
Si Si6 0.449345 0.388637 0.113475
Si Si7 0.005533 0.393538 0.332539
Si Si8 0.502337 0.786388 0.670435
O O1 0.002453 0.123110 0.261047
O O2 0.912592 0.000000 0.025947
O O3 0.810028 0.151379 0.012051
O O4 0.000000 0.159061 0.000000
O O5 0.813589 0.842806 0.459049
O O6 0.000000 0.799626 0.500000
O O7 0.926405 0.700858 0.653999
O O8 0.400687 0.157937 0.183776
O O9 0.309823 0.000000 0.028097
O O10 0.315064 0.148538 0.862609
O O11 0.236697 0.500000 0.757196
O O12 0.261230 0.308330 0.714233
O O13 0.117378 0.373513 0.792143
O O14 0.324244 0.382728 0.994884
O O15 0.391385 0.814838 0.664051
O O16 0.481608 0.500000 0.151779
O O17 0.482193 0.324219 0.268090
O O18 0.500000 0.352392 0.000000
O O19 0.038226 0.500000 0.302899
O O20 0.000000 0.400753 0.500000
O O21 0.500000 0.798744 0.500000
#
# Coordination Sequence:
#
# PCOD9141948 Si02
#       8
#     4   4   4   4   4   4   4   4
#     4  10  23  42  65  92 123 157 191 240 308 375
#     4  11  20  34  61  95 122 153 198 249 299 351
#     4  11  24  45  68  88 116 157 204 253 306 366
#     4  10  17  29  55  87 118 153 198 248 294 347
#     4  12  22  39  60  92 123 158 209 254 298 362
#     4  10  19  35  61  86 112 155 207 254 297 349
#     4   9  16  27  47  85 124 150 184 235 291 344
#     4  12  27  41  59  87 126 164 205 256 307 364
#
# _framework density 19.444241999999999
#
# number of rings (size 3 to 8) (size 9 to 14) (size 15 to 20)
#    0.000    1.375    6.250    0.375    1.750    2.250 
#    0.000    0.000    0.000    0.375    0.000    0.000 
#    0.000    0.000    0.000    0.000    0.000    0.000 
#
# Total GULP energy -178470.281616 kJ/mol
# GULP energy per Si atom -5577.196300 kJ/mol
# Density = 1.939999 g / cm^3
# Si number density = 19.444242 Si / 1000 Ang^3
#
#
#
# Elastic Constant Matrix: (Units=GPa)
#
#
# Indices 1 2 3 4 5 6 
#
# 1 118.9944 22.7722 82.7409 0.0000 8.6959 0.0000
# 2 22.7722 46.5928 17.1803 0.0000 -2.0385 0.0000
# 3 82.7409 17.1803 105.8289 0.0000 17.4104 0.0000
# 4 0.0000 0.0000 0.0000 31.1232 0.0000 8.6755
# 5 8.6959 -2.0385 17.4104 0.0000 34.2402 0.0000
# 6 0.0000 0.0000 0.0000 8.6755 0.0000 17.5982
#
#
#
# Elastic Compliance Matrix: (Units=1/GPa)
#
#
# Indices 1 2 3 4 5 6 
#
# 1 0.019296 -0.003845 -0.014861 0.000000 0.002427 0.000000
# 2 -0.003845 0.023995 -0.001402 0.000000 0.003118 0.000000
# 3 -0.014861 -0.001402 0.022577 0.000000 -0.007789 0.000000
# 4 0.000000 0.000000 0.000000 0.037249 0.000000 -0.018363
# 5 0.002427 0.003118 -0.007789 0.000000 0.032735 0.000000
# 6 0.000000 0.000000 0.000000 -0.018363 0.000000 0.065877
#
#
# Mechanical properties :
#
#
# Convention : Reuss Voigt Hill
#
# Bulk Modulus (GPa) = 38.98403 57.42255 48.20329
# Shear Modulus (GPa) = 19.96035 26.50716 23.23376
#
# Velocity S-wave (km/s) = 3.20745 3.69621 3.46047
# Velocity P-wave (km/s) = 5.81460 6.91462 6.38833
#
# Compressibility (1/GPa) = 0.02565153
#
# Stress axis : x y z
#
# Youngs Moduli (GPa) = 51.82503 41.67500 44.29204
#
# Poissons Ratio (x) = 0.16023 0.65824
# Poissons Ratio (y) = 0.19925 0.06212
# Poissons Ratio (z) = 0.77018 0.05845
#
# Static dielectric constant tensor:
#      x y z
#    x 1.645300 0.000000 0.138910 
#    y 0.000000 1.752050 0.000000 
#    z 0.138910 0.000000 1.483840 
# 
# From -- ./inp_files/29568.got.cif
#   From: 2010.05.17/outbox.cif.g08.bks.cpg/sg10_15_cif.got.tgz:29568.got - 2010.06.03 11:33:40.
