data_PCOD9141461
_publ_section_title
;
Structure prediction by ZEFSAII (Michael W. Deem and Ramdas Pophale) SiO2 
 PCOD9141461
Probable space group: P 2/M
;
_chemical_formula_sum "Si O2"
_cell_formula_units_Z 13
_cell_length_a 5.522386
_cell_length_b 15.496010
_cell_length_c 7.677234
_cell_angle_alpha 90.000000
_cell_angle_beta 122.433418
_cell_angle_gamma 90.000000
_cell_volume 554.500221
_symmetry_space_group_name_H-M "P 2/M"
_symmetry_group_IT_number 10
_symmetry_cell_setting 'monoclinic'
loop_
_space_group_symop_operation_xyz
x,y,z
-x,y,-z
-x,-y,-z
x,-y,z
loop_
_atom_site_type_symbol
_atom_site_label
_atom_site_fract_x
_atom_site_fract_y
_atom_site_fract_z
Si Si1 0.500000 0.500000 0.500000
Si Si2 0.651440 0.372544 0.874129
Si Si3 0.948790 0.899229 0.250454
Si Si4 0.579252 0.830232 0.784199
O O1 0.524674 0.425569 0.664010
O O2 0.587349 0.271077 0.827609
O O3 0.500000 0.397886 0.000000
O O4 0.000000 0.385081 0.000000
O O5 0.738199 0.867687 0.320993
O O6 0.232394 0.846536 0.313010
O O7 0.012569 0.000000 0.289278
O O8 0.752571 0.880701 0.003088
#
# Coordination Sequence:
#
# PCOD9141461 Si02
#       4
#     1   4   4   4
#     4  12  32  46  76 108 122 186 232 282 348 420
#     4  12  24  48  71  98 142 174 226 284 346 404
#     4  10  16  26  50  93 127 162 225 258 305 400
#     4  10  16  30  52  85 127 170 203 266 325 371
#
# _framework density 23.444534000000001
#
# number of rings (size 3 to 8) (size 9 to 14) (size 15 to 20)
#    0.000    1.231    6.154    5.538    0.000    2.462 
#    0.000    0.000    0.000    0.000    0.000   11.846 
#    0.000    0.000    0.000    0.000    0.000    0.615 
#
# Total GULP energy -72437.691710 kJ/mol
# GULP energy per Si atom -5572.130132 kJ/mol
# Density = 2.339117 g / cm^3
# Si number density = 23.444534 Si / 1000 Ang^3
#
#
#
# Elastic Constant Matrix: (Units=GPa)
#
#
# Indices 1 2 3 4 5 6 
#
# 1 232.8996 58.9059 64.3115 0.0000 -14.8993 0.0000
# 2 58.9059 156.2265 32.0409 0.0000 -22.9206 0.0000
# 3 64.3115 32.0409 90.3140 0.0000 -24.7617 0.0000
# 4 0.0000 0.0000 0.0000 57.6891 0.0000 -106.1441
# 5 -14.8993 -22.9206 -24.7617 0.0000 67.7032 0.0000
# 6 0.0000 0.0000 0.0000 -106.1441 0.0000 116.2485
#
#
#
# Elastic Compliance Matrix: (Units=1/GPa)
#
#
# Indices 1 2 3 4 5 6 
#
# 1 0.005635 -0.001462 -0.003657 0.000000 -0.000592 0.000000
# 2 -0.001462 0.007442 -0.001108 0.000000 0.001793 0.000000
# 3 -0.003657 -0.001108 0.015278 0.000000 0.004408 0.000000
# 4 0.000000 0.000000 0.000000 -0.025492 0.000000 -0.023276
# 5 -0.000592 0.001793 0.004408 0.000000 0.016859 0.000000
# 6 0.000000 0.000000 0.000000 -0.023276 0.000000 -0.012650
#
#
# Mechanical properties :
#
#
# Convention : Reuss Voigt Hill
#
# Bulk Modulus (GPa) = 62.88112 87.77297 75.32705
# Shear Modulus (GPa) = 201.40093 69.94029 135.67061
#
# Velocity S-wave (km/s) = 9.27857 5.46782 7.61540
# Velocity P-wave (km/s) = 11.90246 8.79673 10.46544
#
# Compressibility (1/GPa) = 0.01590302
#
# Stress axis : x y z
#
# Youngs Moduli (GPa) = 177.45564 134.36609 65.45425
#
# Poissons Ratio (x) = 0.19641 0.23933
# Poissons Ratio (y) = 0.25939 0.07252
# Poissons Ratio (z) = 0.64887 0.14887
#
# Static dielectric constant tensor:
#      x y z
#    x 1.920040 0.000000 0.002040 
#    y 0.000000 1.812430 0.000000 
#    z 0.002040 0.000000 1.916350 
# 
# From -- ./inp_files/14377.got.cif
#   From: 2010.05.17/outbox.cif.g08.bks.cpg/sg10_8_cif.got.tgz:14377.got - 2010.06.03 11:33:40.
