data_PCOD9141058
_publ_section_title
;
Structure prediction by ZEFSAII (Michael W. Deem and Ramdas Pophale) SiO2 
 PCOD9141058
Probable space group: C C
;
_chemical_formula_sum "Si O2"
_cell_formula_units_Z 32
_cell_length_a 10.325010
_cell_length_b 13.790899
_cell_length_c 12.760334
_cell_angle_alpha 90.000000
_cell_angle_beta 41.659696
_cell_angle_gamma 90.000000
_cell_volume 1207.741616
_symmetry_space_group_name_H-M "C C"
_symmetry_group_IT_number 9
_symmetry_cell_setting 'monoclinic'
loop_
_space_group_symop_operation_xyz
x,y,z
x,-y,1/2+z
1/2+x,1/2+y,z
1/2+x,1/2-y,1/2+z
loop_
_atom_site_type_symbol
_atom_site_label
_atom_site_fract_x
_atom_site_fract_y
_atom_site_fract_z
Si Si1 0.444670 0.012746 0.677870
Si Si2 0.945802 0.368496 0.962348
Si Si3 0.386711 0.465311 0.414092
Si Si4 0.856927 0.144350 0.734195
Si Si5 0.661230 0.331504 0.865976
Si Si6 0.367313 0.670635 0.110814
Si Si7 0.569028 0.657849 0.209694
Si Si8 0.951182 0.569785 0.891668
O O1 0.652524 0.958725 0.559731
O O2 0.275836 0.931654 0.776809
O O3 0.445425 0.075523 0.572963
O O4 0.445861 0.089926 0.771863
O O5 0.491627 0.314541 0.642320
O O6 0.875923 0.457047 0.932495
O O7 0.858069 0.264312 0.041738
O O8 0.461196 0.407992 0.267926
O O9 0.446765 0.417154 0.488603
O O10 0.441950 0.573578 0.344400
O O11 0.808096 0.248739 0.813395
O O12 0.664000 0.083022 0.815286
O O13 0.991879 0.154336 0.551515
O O14 0.588985 0.277586 0.801512
O O15 0.657696 0.850038 0.785923
O O16 0.788819 0.625270 0.053757
#
# Coordination Sequence:
#
# PCOD9141058 Si02
#       8
#     4   4   4   4   4   4   4   4
#     4  12  25  49  75 109 151 205 251 323 389 462
#     4  12  28  51  73 113 159 204 264 317 393 462
#     4  12  26  50  78 106 159 199 265 318 393 463
#     4  12  27  51  76 113 150 201 262 327 385 469
#     4  12  28  47  81 111 151 200 263 321 391 469
#     4  12  31  48  76 117 154 211 256 330 389 471
#     4  12  27  48  78 113 153 205 259 317 398 461
#     4  12  26  48  77 108 153 203 254 321 392 461
#
# _framework density 26.495735
#
# number of rings (size 3 to 8) (size 9 to 14) (size 15 to 20)
#    0.000    0.000    5.000    3.000   10.500    1.000 
#    0.000    0.000    0.000    0.000    0.000    0.000 
#    0.000    0.000    0.000    0.000    0.000    0.000 
#
# Total GULP energy -89545.060740 kJ/mol
# GULP energy per Si atom -5596.566296 kJ/mol
# Density = 2.643543 g / cm^3
# Si number density = 26.495735 Si / 1000 Ang^3
#
#
#
# Elastic Constant Matrix: (Units=GPa)
#
#
# Indices 1 2 3 4 5 6 
#
# 1 110.6272 -10.2478 30.6122 -0.0002 36.6865 0.0000
# 2 -10.2478 95.6767 25.9305 -0.0003 -3.0097 0.0002
# 3 30.6122 25.9305 168.5586 -0.0006 8.8576 0.0005
# 4 -0.0002 -0.0003 -0.0006 40.4276 0.0005 10.0520
# 5 36.6865 -3.0097 8.8576 0.0005 48.4097 -0.0003
# 6 0.0000 0.0002 0.0005 10.0520 -0.0003 29.8372
#
#
#
# Elastic Compliance Matrix: (Units=1/GPa)
#
#
# Indices 1 2 3 4 5 6 
#
# 1 0.012839 0.001654 -0.002100 0.000000 -0.009243 0.000000
# 2 0.001654 0.011167 -0.002008 0.000000 -0.000191 0.000000
# 3 -0.002100 -0.002008 0.006610 0.000000 0.000258 0.000000
# 4 0.000000 0.000000 0.000000 0.026997 0.000000 -0.009095
# 5 -0.009243 -0.000191 0.000258 0.000000 0.027602 0.000000
# 6 0.000000 0.000000 0.000000 -0.009095 0.000000 0.036579
#
#
# Mechanical properties :
#
#
# Convention : Reuss Voigt Hill
#
# Bulk Modulus (GPa) = 38.90188 51.93914 45.42051
# Shear Modulus (GPa) = 36.96241 45.63939 41.30090
#
# Velocity S-wave (km/s) = 3.73907 4.15483 3.95242
# Velocity P-wave (km/s) = 5.77538 6.53163 6.16511
#
# Compressibility (1/GPa) = 0.02570570
#
# Stress axis : x y z
#
# Youngs Moduli (GPa) = 77.88893 89.54774 151.29717
#
# Poissons Ratio (x) = -0.14808 0.31778
# Poissons Ratio (y) = -0.12880 0.30383
# Poissons Ratio (z) = 0.16360 0.17983
#
# Static dielectric constant tensor:
#      x y z
#    x 2.215030 0.000000 0.024240 
#    y 0.000000 2.221430 0.000000 
#    z 0.024240 0.000000 2.004880 
# 
# From -- ./inp_files/25020.got.cif
#   From: 2010.05.17/outbox.cif.g08.bks.cpg/sg9_13_cif.got.tgz:25020.got - 2010.06.03 20:04:27.
