data_PCOD9141697
_publ_section_title
;
Structure prediction by ZEFSAII (Michael W. Deem and Ramdas Pophale) SiO2 
 PCOD9141697
Probable space group: P 2/M
;
_chemical_formula_sum "Si O2"
_cell_formula_units_Z 28
_cell_length_a 13.856592
_cell_length_b 12.342219
_cell_length_c 10.770938
_cell_angle_alpha 90.000000
_cell_angle_beta 139.939974
_cell_angle_gamma 90.000000
_cell_volume 1185.529484
_symmetry_space_group_name_H-M "P 2/M"
_symmetry_group_IT_number 10
_symmetry_cell_setting 'monoclinic'
loop_
_space_group_symop_operation_xyz
x,y,z
-x,y,-z
-x,-y,-z
x,-y,z
loop_
_atom_site_type_symbol
_atom_site_label
_atom_site_fract_x
_atom_site_fract_y
_atom_site_fract_z
Si Si1 0.678567 0.620004 0.680788
Si Si2 0.532084 0.375470 0.236874
Si Si3 0.248879 0.000000 0.220576
Si Si4 0.052817 0.623697 0.195963
Si Si5 0.041237 0.000000 0.254466
Si Si6 0.086321 0.205084 0.754165
Si Si7 0.357668 0.803461 0.182734
Si Si8 0.755146 0.620661 0.232039
O O1 0.500000 0.626070 0.500000
O O2 0.721599 0.500000 0.762744
O O3 0.767633 0.639688 0.642396
O O4 0.724028 0.704991 0.827425
O O5 0.535339 0.500000 0.297775
O O6 0.504867 0.259610 0.280131
O O7 0.669649 0.369945 0.278020
O O8 0.377926 0.378313 0.002336
O O9 0.348848 0.102556 0.276374
O O10 0.183576 0.000000 0.297819
O O11 0.099820 0.000000 0.983593
O O12 0.024684 0.500000 0.205063
O O13 0.985274 0.705226 0.225949
O O14 0.000000 0.637842 0.000000
O O15 0.022423 0.896925 0.327670
O O16 0.139468 0.276520 0.689154
O O17 0.248139 0.162345 0.964421
O O18 0.824864 0.500000 0.293798
#
# Coordination Sequence:
#
# PCOD9141697 Si02
#       8
#     4   4   2   4   2   4   4   4
#     4  10  20  31  43  64  93 119 145 184 233 279
#     4   8  14  24  40  61  85 113 144 180 228 279
#     4   9  18  28  40  59  85 116 156 191 219 259
#     4  10  18  27  43  67  88 112 148 185 222 269
#     4   9  18  26  37  57  89 122 149 183 229 269
#     4  10  17  26  43  63  86 116 151 187 224 264
#     4  10  17  28  44  61  84 118 152 183 223 267
#     4   8  14  24  38  61  89 111 139 186 232 268
#
# _framework density 23.618141000000001
#
# number of rings (size 3 to 8) (size 9 to 14) (size 15 to 20)
#    0.000    2.714    1.429    2.571    2.000    1.143 
#    0.000    1.071    0.000    4.286    0.000    1.000 
#    0.000    5.714    0.000    4.429    0.000    4.429 
#
# Total GULP energy -156009.480735 kJ/mol
# GULP energy per Si atom -5571.767169 kJ/mol
# Density = 2.356439 g / cm^3
# Si number density = 23.618141 Si / 1000 Ang^3
#
#
#
# Elastic Constant Matrix: (Units=GPa)
#
#
# Indices 1 2 3 4 5 6 
#
# 1 142.8743 83.6753 13.8412 0.0000 22.7522 0.0000
# 2 83.6753 127.7181 9.3286 0.0000 16.5617 0.0000
# 3 13.8412 9.3286 55.3218 0.0000 18.2675 0.0000
# 4 0.0000 0.0000 0.0000 5.8062 0.0000 8.4034
# 5 22.7522 16.5617 18.2675 0.0000 22.7078 0.0000
# 6 0.0000 0.0000 0.0000 8.4034 0.0000 49.2997
#
#
#
# Elastic Compliance Matrix: (Units=1/GPa)
#
#
# Indices 1 2 3 4 5 6 
#
# 1 0.012338 -0.007135 0.000654 0.000000 -0.007684 0.000000
# 2 -0.007135 0.012803 0.000475 0.000000 -0.002571 0.000000
# 3 0.000654 0.000475 0.024733 0.000000 -0.020898 0.000000
# 4 0.000000 0.000000 0.000000 0.228635 0.000000 -0.038972
# 5 -0.007684 -0.002571 -0.020898 0.000000 0.070424 0.000000
# 6 0.000000 0.000000 0.000000 -0.038972 0.000000 0.026927
#
#
# Mechanical properties :
#
#
# Convention : Reuss Voigt Hill
#
# Bulk Modulus (GPa) = 26.41154 59.95605 43.18379
# Shear Modulus (GPa) = 12.48463 30.16733 21.32598
#
# Velocity S-wave (km/s) = 2.30163 3.57780 3.00817
# Velocity P-wave (km/s) = 4.27438 6.51984 5.51265
#
# Compressibility (1/GPa) = 0.03786224
#
# Stress axis : x y z
#
# Youngs Moduli (GPa) = 81.05067 78.10834 40.43169
#
# Poissons Ratio (x) = 0.55727 -0.02642
# Poissons Ratio (y) = 0.57826 -0.01922
# Poissons Ratio (z) = -0.05297 -0.03712
#
# Static dielectric constant tensor:
#      x y z
#    x 1.924910 0.000000 -0.029070 
#    y 0.000000 1.868660 0.000000 
#    z -0.029070 0.000000 2.064000 
# 
# From -- ./inp_files/67172.got.cif
#   From: 2010.05.17/outbox.cif.g08.bks.cpg/sg10_34_cif.got.tgz:67172.got - 2010.06.03 11:33:40.
