data_PCOD9141490
_publ_section_title
;
Structure prediction by ZEFSAII (Michael W. Deem and Ramdas Pophale) SiO2 
 PCOD9141490
Probable space group: P 2/M
;
_chemical_formula_sum "Si O2"
_cell_formula_units_Z 16
_cell_length_a 7.373308
_cell_length_b 11.247386
_cell_length_c 9.943817
_cell_angle_alpha 90.000000
_cell_angle_beta 45.860689
_cell_angle_gamma 90.000000
_cell_volume 591.805472
_symmetry_space_group_name_H-M "P 2/M"
_symmetry_group_IT_number 10
_symmetry_cell_setting 'monoclinic'
loop_
_space_group_symop_operation_xyz
x,y,z
-x,y,-z
-x,-y,-z
x,-y,z
loop_
_atom_site_type_symbol
_atom_site_label
_atom_site_fract_x
_atom_site_fract_y
_atom_site_fract_z
Si Si1 0.350848 0.000000 0.431338
Si Si2 0.391160 0.257637 0.408447
Si Si3 0.261304 0.255050 0.025582
Si Si4 0.669261 0.500000 0.688397
Si Si5 0.206944 0.000000 0.009091
Si Si6 0.861290 0.500000 0.891009
O O1 0.500000 0.000000 0.500000
O O2 0.238593 0.866737 0.482442
O O3 0.529109 0.000000 0.206731
O O4 0.500000 0.272575 0.500000
O O5 0.268420 0.380558 0.423794
O O6 0.622052 0.243250 0.183267
O O7 0.178188 0.122187 0.104382
O O8 0.057755 0.361915 0.133981
O O9 0.500000 0.285832 0.000000
O O10 0.787475 0.500000 0.773635
O O11 0.369284 0.500000 0.880372
O O12 0.000000 0.000000 0.000000
#
# Coordination Sequence:
#
# PCOD9141490 Si02
#       6
#     2   4   4   2   2   2
#     4   8  16  29  44  63  92 126 153 192 239 285
#     4   9  15  23  39  66  93 119 146 195 238 278
#     4  10  16  30  48  68  96 128 160 198 244 287
#     4   9  13  22  36  62  99 111 147 193 253 265
#     4  10  21  31  46  75 105 126 159 206 246 287
#     4   9  14  26  43  66  96 123 153 205 245 281
#
# _framework density 27.035910000000001
#
# number of rings (size 3 to 8) (size 9 to 14) (size 15 to 20)
#    0.000    2.750    5.000    0.750    0.000    0.000 
#    0.000    0.625    0.000    0.000    0.000   56.000 
#    0.000   18.000    0.000    0.000    0.000    0.000 
#
# Total GULP energy -89296.622264 kJ/mol
# GULP energy per Si atom -5581.038891 kJ/mol
# Density = 2.697438 g / cm^3
# Si number density = 27.035910 Si / 1000 Ang^3
#
#
#
# Elastic Constant Matrix: (Units=GPa)
#
#
# Indices 1 2 3 4 5 6 
#
# 1 57.0418 41.2954 26.5049 0.0000 12.7522 0.0000
# 2 41.2954 364.5444 51.6552 0.0000 12.0015 0.0000
# 3 26.5049 51.6552 150.0140 0.0000 6.1766 0.0000
# 4 0.0000 0.0000 0.0000 6.7390 0.0000 46.2196
# 5 12.7522 12.0015 6.1766 0.0000 44.9418 0.0000
# 6 0.0000 0.0000 0.0000 46.2196 0.0000 -16.9830
#
#
#
# Elastic Compliance Matrix: (Units=1/GPa)
#
#
# Indices 1 2 3 4 5 6 
#
# 1 0.021379 -0.001836 -0.002932 0.000000 -0.005173 0.000000
# 2 -0.001836 0.003060 -0.000721 0.000000 -0.000197 0.000000
# 3 -0.002932 -0.000721 0.007432 0.000000 0.000003 0.000000
# 4 0.000000 0.000000 0.000000 0.007546 0.000000 0.020536
# 5 -0.005173 -0.000197 0.000003 0.000000 0.023771 0.000000
# 6 0.000000 0.000000 0.000000 0.020536 0.000000 -0.002994
#
#
# Mechanical properties :
#
#
# Convention : Reuss Voigt Hill
#
# Bulk Modulus (GPa) = 47.86362 90.05681 68.96022
# Shear Modulus (GPa) = 63.99064 37.08253 50.53659
#
# Velocity S-wave (km/s) = 4.87033 3.70753 4.32816
# Velocity P-wave (km/s) = 7.02631 7.19098 7.10912
#
# Compressibility (1/GPa) = 0.02089270
#
# Stress axis : x y z
#
# Youngs Moduli (GPa) = 46.77462 326.81879 134.54841
#
# Poissons Ratio (x) = 0.60005 0.39451
# Poissons Ratio (y) = 0.08588 0.09702
# Poissons Ratio (z) = 0.13715 0.23567
#
# Static dielectric constant tensor:
#      x y z
#    x 2.145200 0.000000 -0.051760 
#    y 0.000000 2.250600 0.000000 
#    z -0.051760 0.000000 2.037600 
# 
# From -- ./inp_files/16900.got.cif
#   From: 2010.05.17/outbox.cif.g08.bks.cpg/sg10_9_cif.got.tgz:16900.got - 2010.06.03 11:33:40.
