data_PCOD9141797
_publ_section_title
;
Structure prediction by ZEFSAII (Michael W. Deem and Ramdas Pophale) SiO2 
 PCOD9141797
Probable space group: P 2/M
;
_chemical_formula_sum "Si O2"
_cell_formula_units_Z 28
_cell_length_a 26.362744
_cell_length_b 10.118602
_cell_length_c 8.981740
_cell_angle_alpha 90.000000
_cell_angle_beta 142.792126
_cell_angle_gamma 90.000000
_cell_volume 1448.831007
_symmetry_space_group_name_H-M "P 2/M"
_symmetry_group_IT_number 10
_symmetry_cell_setting 'monoclinic'
loop_
_space_group_symop_operation_xyz
x,y,z
-x,y,-z
-x,-y,-z
x,-y,z
loop_
_atom_site_type_symbol
_atom_site_label
_atom_site_fract_x
_atom_site_fract_y
_atom_site_fract_z
Si Si1 0.127426 0.659116 0.017566
Si Si2 0.296110 0.343723 0.569667
Si Si3 0.412314 0.349844 0.103276
Si Si4 0.380677 0.857289 0.274152
Si Si5 0.445689 0.218316 0.738926
Si Si6 0.185482 0.154188 0.884582
Si Si7 0.982249 0.850560 0.637982
O O1 0.116690 0.500000 0.971162
O O2 0.198977 0.681697 0.308946
O O3 0.164738 0.735315 0.959822
O O4 0.040622 0.737336 0.843397
O O5 0.309711 0.500000 0.577380
O O6 0.358671 0.268875 0.604371
O O7 0.330250 0.314391 0.813754
O O8 0.407675 0.500000 0.141762
O O9 0.415427 0.254838 0.249795
O O10 0.490996 0.330431 0.176008
O O11 0.421262 0.857272 0.532434
O O12 0.394686 0.000000 0.235333
O O13 0.281350 0.835177 0.061379
O O14 0.500000 0.154674 0.000000
O O15 0.117668 0.171754 0.593839
O O16 0.173884 0.000000 0.911435
O O17 0.000000 0.848292 0.500000
O O18 0.001590 0.000000 0.735761
#
# Coordination Sequence:
#
# PCOD9141797 Si02
#       7
#     4   4   4   4   4   4   4
#     4  10  17  27  50  80 108 132 167 219 269 307
#     4   9  18  34  54  80 109 138 176 224 265 309
#     4  10  22  38  57  78 105 143 184 219 262 319
#     4  11  23  38  55  78 111 143 177 220 266 314
#     4  10  20  36  58  81 105 137 177 221 269 316
#     4   9  18  33  50  71 103 144 177 208 255 314
#     4   8  15  28  46  70 104 139 172 208 255 312
#
# _framework density 19.325923
#
# number of rings (size 3 to 8) (size 9 to 14) (size 15 to 20)
#    0.000    2.429    1.429    2.143    0.000    8.000 
#    0.000    3.571    0.000    0.857    0.000    6.000 
#    0.000    0.000    0.000    0.000    0.000    0.000 
#
# Total GULP energy -155968.709760 kJ/mol
# GULP energy per Si atom -5570.311063 kJ/mol
# Density = 1.928194 g / cm^3
# Si number density = 19.325923 Si / 1000 Ang^3
#
#
#
# Elastic Constant Matrix: (Units=GPa)
#
#
# Indices 1 2 3 4 5 6 
#
# 1 39.8282 33.6085 40.7860 0.0000 2.0009 0.0000
# 2 33.6085 110.9426 77.4505 0.0000 -7.9270 0.0000
# 3 40.7860 77.4505 140.7650 0.0000 22.9085 0.0000
# 4 0.0000 0.0000 0.0000 17.0280 0.0000 8.3639
# 5 2.0009 -7.9270 22.9085 0.0000 27.5975 0.0000
# 6 0.0000 0.0000 0.0000 8.3639 0.0000 18.4361
#
#
#
# Elastic Compliance Matrix: (Units=1/GPa)
#
#
# Indices 1 2 3 4 5 6 
#
# 1 0.038325 -0.005430 -0.008568 0.000000 0.002774 0.000000
# 2 -0.005430 0.020506 -0.012408 0.000000 0.016583 0.000000
# 3 -0.008568 -0.012408 0.019531 0.000000 -0.019155 0.000000
# 4 0.000000 0.000000 0.000000 0.075565 0.000000 -0.034282
# 5 0.002774 0.016583 -0.019155 0.000000 0.056698 0.000000
# 6 0.000000 0.000000 0.000000 -0.034282 0.000000 0.069794
#
#
# Mechanical properties :
#
#
# Convention : Reuss Voigt Hill
#
# Bulk Modulus (GPa) = 39.14050 66.13619 52.63835
# Shear Modulus (GPa) = 14.63067 21.92502 18.27785
#
# Velocity S-wave (km/s) = 2.75444 3.37187 3.07867
# Velocity P-wave (km/s) = 5.51477 7.03243 6.31933
#
# Compressibility (1/GPa) = 0.02554898
#
# Stress axis : x y z
#
# Youngs Moduli (GPa) = 26.09274 48.76678 51.20082
#
# Poissons Ratio (x) = 0.26482 0.43869
# Poissons Ratio (y) = 0.14169 0.63530
# Poissons Ratio (z) = 0.22356 0.60509
#
# Static dielectric constant tensor:
#      x y z
#    x 1.660530 0.000000 0.025620 
#    y 0.000000 1.658770 0.000000 
#    z 0.025620 0.000000 1.735190 
# 
# From -- ./inp_files/37326.got.cif
#   From: 2010.05.17/outbox.cif.g08.bks.cpg/sg10_19_cif.got.tgz:37326.got - 2010.06.03 11:33:40.
