data_PCOD9141726
_publ_section_title
;
Structure prediction by ZEFSAII (Michael W. Deem and Ramdas Pophale) SiO2 
 PCOD9141726
Probable space group: P 2/M
;
_chemical_formula_sum "Si O2"
_cell_formula_units_Z 24
_cell_length_a 11.759789
_cell_length_b 8.622296
_cell_length_c 20.498999
_cell_angle_alpha 90.000000
_cell_angle_beta 136.296340
_cell_angle_gamma 90.000000
_cell_volume 1436.111886
_symmetry_space_group_name_H-M "P 2/M"
_symmetry_group_IT_number 10
_symmetry_cell_setting 'monoclinic'
loop_
_space_group_symop_operation_xyz
x,y,z
-x,y,-z
-x,-y,-z
x,-y,z
loop_
_atom_site_type_symbol
_atom_site_label
_atom_site_fract_x
_atom_site_fract_y
_atom_site_fract_z
Si Si1 0.395245 0.185083 0.182744
Si Si2 0.111271 0.812588 0.449422
Si Si3 0.237999 0.188571 0.643967
Si Si4 0.881068 0.320624 0.014435
Si Si5 0.688010 0.687303 0.588994
Si Si6 0.813437 0.688133 0.782866
O O1 0.583789 0.240828 0.257890
O O2 0.309376 0.252859 0.212022
O O3 0.394985 0.000000 0.188195
O O4 0.282490 0.232555 0.074716
O O5 0.205967 0.766449 0.555339
O O6 0.198295 0.745648 0.422309
O O7 0.921534 0.762329 0.380905
O O8 0.114437 0.000000 0.447543
O O9 0.237073 0.000000 0.644597
O O10 0.839529 0.500000 0.009727
O O11 0.001043 0.260559 0.121135
O O12 0.000000 0.316639 0.000000
O O13 0.500000 0.739612 0.500000
O O14 0.688442 0.500000 0.588834
O O15 0.754602 0.738068 0.687261
O O16 0.813736 0.500000 0.785962
#
# Coordination Sequence:
#
# PCOD9141726 Si02
#       6
#     4   4   4   4   4   4
#     4  10  17  26  45  71  92 110 144 189 223 253
#     4   9  17  32  50  65  87 120 152 176 211 266
#     4   8  16  30  47  67  91 117 143 180 224 260
#     4   8  15  28  43  60  86 120 150 175 215 266
#     4  10  20  32  46  67  94 118 143 181 223 257
#     4   9  18  31  44  61  92 126 146 171 219 270
#
# _framework density 16.711790000000001
#
# number of rings (size 3 to 8) (size 9 to 14) (size 15 to 20)
#    0.000    3.000    0.000    3.500    0.000    4.000 
#    0.000    4.167    0.000    1.000    0.000    7.000 
#    0.000    0.000    0.000    0.000    0.000    0.000 
#
# Total GULP energy -133681.089328 kJ/mol
# GULP energy per Si atom -5570.045389 kJ/mol
# Density = 1.667375 g / cm^3
# Si number density = 16.711790 Si / 1000 Ang^3
#
#
#
# Elastic Constant Matrix: (Units=GPa)
#
#
# Indices 1 2 3 4 5 6 
#
# 1 92.6335 14.8033 83.7559 0.0000 6.6603 0.0000
# 2 14.8033 7.4353 25.8932 0.0000 3.1363 0.0000
# 3 83.7559 25.8932 181.1300 0.0000 16.8355 0.0000
# 4 0.0000 0.0000 0.0000 22.7391 0.0000 6.7438
# 5 6.6603 3.1363 16.8355 0.0000 27.7258 0.0000
# 6 0.0000 0.0000 0.0000 6.7438 0.0000 60.9592
#
#
#
# Elastic Compliance Matrix: (Units=1/GPa)
#
#
# Indices 1 2 3 4 5 6 
#
# 1 0.019361 -0.014919 -0.006936 0.000000 0.001248 0.000000
# 2 -0.014919 0.280790 -0.032454 0.000000 -0.008472 0.000000
# 3 -0.006936 -0.032454 0.013641 0.000000 -0.002946 0.000000
# 4 0.000000 0.000000 0.000000 0.045469 0.000000 -0.005030
# 5 0.001248 -0.008472 -0.002946 0.000000 0.038515 0.000000
# 6 0.000000 0.000000 0.000000 -0.005030 0.000000 0.016961
#
#
# Mechanical properties :
#
#
# Convention : Reuss Voigt Hill
#
# Bulk Modulus (GPa) = 4.87390 58.90041 31.88716
# Shear Modulus (GPa) = 8.44958 32.73459 20.59209
#
# Velocity S-wave (km/s) = 2.25101 4.43060 3.51406
# Velocity P-wave (km/s) = 3.11108 7.84187 5.96548
#
# Compressibility (1/GPa) = 0.20517449
#
# Stress axis : x y z
#
# Youngs Moduli (GPa) = 51.65087 3.56138 73.30658
#
# Poissons Ratio (x) = 0.05313 0.50845
# Poissons Ratio (y) = 0.77057 2.37909
# Poissons Ratio (z) = 0.35824 0.11558
#
# Static dielectric constant tensor:
#      x y z
#    x 1.528750 0.000000 0.013530 
#    y 0.000000 1.573400 0.000000 
#    z 0.013530 0.000000 1.599910 
# 
# From -- ./inp_files/48656.got.cif
#   From: 2010.05.17/outbox.cif.g08.bks.cpg/sg10_25_cif.got.tgz:48656.got - 2010.06.03 11:33:40.
