data_PCOD9141654
_publ_section_title
;
Structure prediction by ZEFSAII (Michael W. Deem and Ramdas Pophale) SiO2 
 PCOD9141654
Probable space group: P 2/M
;
_chemical_formula_sum "Si O2"
_cell_formula_units_Z 28
_cell_length_a 23.440196
_cell_length_b 15.686704
_cell_length_c 5.335530
_cell_angle_alpha 90.000000
_cell_angle_beta 62.920245
_cell_angle_gamma 90.000000
_cell_volume 1746.798603
_symmetry_space_group_name_H-M "P 2/M"
_symmetry_group_IT_number 10
_symmetry_cell_setting 'monoclinic'
loop_
_space_group_symop_operation_xyz
x,y,z
-x,y,-z
-x,-y,-z
x,-y,z
loop_
_atom_site_type_symbol
_atom_site_label
_atom_site_fract_x
_atom_site_fract_y
_atom_site_fract_z
Si Si1 0.524093 0.762592 0.201817
Si Si2 0.564526 0.592327 0.620954
Si Si3 0.957291 0.000000 0.835415
Si Si4 0.217056 0.395871 0.315971
Si Si5 0.140514 0.345881 0.969043
Si Si6 0.955295 0.189634 0.839407
Si Si7 0.958294 0.500000 0.833410
Si Si8 0.365811 0.356711 0.018366
O O1 0.500000 0.806969 0.500000
O O2 0.484312 0.671697 0.281375
O O3 0.500000 0.806969 0.000000
O O4 0.598255 0.735498 0.053497
O O5 0.532117 0.500000 0.685763
O O6 0.607774 0.600399 0.781296
O O7 0.607778 0.600402 0.287629
O O8 0.000000 0.000000 0.500000
O O9 0.926106 0.906479 0.897785
O O10 0.000000 0.000000 0.000000
O O11 0.216075 0.500000 0.317935
O O12 0.182079 0.361735 0.635742
O O13 0.289923 0.362805 0.170158
O O14 0.182046 0.361734 0.136240
O O15 0.101934 0.257376 0.046156
O O16 0.086139 0.417797 0.077729
O O17 0.000000 0.199789 0.500000
O O18 0.000000 0.199791 0.000000
O O19 0.000000 0.500000 0.500000
O O20 0.000000 0.500000 0.000000
#
# Coordination Sequence:
#
# PCOD9141654 Si02
#       8
#     4   4   2   4   4   4   2   4
#     4   8  16  26  37  54  72  89 125 181 230 266
#     4  10  17  26  38  56  72  90 130 185 232 269
#     4   8  16  30  54  80 100 110 126 164 216 282
#     4  12  22  35  44  58  88 122 159 194 217 254
#     4  12  23  36  48  67  90 117 151 189 220 259
#     4  10  19  35  55  77  95 113 137 173 228 276
#     4  12  22  36  52  64  80 110 146 186 220 246
#     4  10  20  29  41  53  71 107 140 177 231 260
#
# _framework density 16.029323000000002
#
# number of rings (size 3 to 8) (size 9 to 14) (size 15 to 20)
#    0.000    1.714    1.429    4.714    0.000    5.714 
#    0.000    0.000    0.000    0.000    0.000    0.000 
#    0.000    0.000    0.000    0.000    0.000    0.000 
#
# Total GULP energy -156096.812238 kJ/mol
# GULP energy per Si atom -5574.886151 kJ/mol
# Density = 1.599284 g / cm^3
# Si number density = 16.029323 Si / 1000 Ang^3
#
#
#
# Elastic Constant Matrix: (Units=GPa)
#
#
# Indices 1 2 3 4 5 6 
#
# 1 123.9767 36.8187 73.4406 0.0000 8.0703 0.0000
# 2 36.8187 79.6404 27.2404 0.0000 -9.9170 0.0000
# 3 73.4406 27.2404 149.3783 0.0000 17.8539 0.0000
# 4 0.0000 0.0000 0.0000 10.2100 0.0000 2.9717
# 5 8.0703 -9.9170 17.8539 0.0000 39.3307 0.0000
# 6 0.0000 0.0000 0.0000 2.9717 0.0000 7.3286
#
#
#
# Elastic Compliance Matrix: (Units=1/GPa)
#
#
# Indices 1 2 3 4 5 6 
#
# 1 0.012471 -0.004129 -0.005232 0.000000 -0.001225 0.000000
# 2 -0.004129 0.015651 -0.001477 0.000000 0.005464 0.000000
# 3 -0.005232 -0.001477 0.009995 0.000000 -0.003836 0.000000
# 4 0.000000 0.000000 0.000000 0.111050 0.000000 -0.045030
# 5 -0.001225 0.005464 -0.003836 0.000000 0.028796 0.000000
# 6 0.000000 0.000000 0.000000 -0.045030 0.000000 0.154711
#
#
# Mechanical properties :
#
#
# Convention : Reuss Voigt Hill
#
# Bulk Modulus (GPa) = 60.82480 69.77723 65.30102
# Shear Modulus (GPa) = 13.89548 25.74024 19.81786
#
# Velocity S-wave (km/s) = 2.94747 4.01162 3.51999
# Velocity P-wave (km/s) = 7.04357 8.06740 7.57280
#
# Compressibility (1/GPa) = 0.01644066
#
# Stress axis : x y z
#
# Youngs Moduli (GPa) = 80.18465 63.89438 100.05381
#
# Poissons Ratio (x) = 0.26379 0.52349
# Poissons Ratio (y) = 0.33104 0.14782
# Poissons Ratio (z) = 0.41953 0.09440
#
# Static dielectric constant tensor:
#      x y z
#    x 1.573450 0.000000 0.073530 
#    y 0.000000 1.596880 0.000000 
#    z 0.073530 0.000000 1.644850 
# 
# From -- ./inp_files/12771.got.cif
#   From: 2010.05.17/outbox.cif.g08.bks.cpg/sg10_7_cif.got.tgz:12771.got - 2010.06.03 11:33:40.
