data_PCOD9141389
_publ_section_title
;
Structure prediction by ZEFSAII (Michael W. Deem and Ramdas Pophale) SiO2 
 PCOD9141389
Probable space group: P 2/M
;
_chemical_formula_sum "Si O2"
_cell_formula_units_Z 30
_cell_length_a 5.531612
_cell_length_b 29.946779
_cell_length_c 10.593987
_cell_angle_alpha 90.000000
_cell_angle_beta 63.897994
_cell_angle_gamma 90.000000
_cell_volume 1575.953819
_symmetry_space_group_name_H-M "P 2/M"
_symmetry_group_IT_number 10
_symmetry_cell_setting 'monoclinic'
loop_
_space_group_symop_operation_xyz
x,y,z
-x,y,-z
-x,-y,-z
x,-y,z
loop_
_atom_site_type_symbol
_atom_site_label
_atom_site_fract_x
_atom_site_fract_y
_atom_site_fract_z
Si Si1 0.822595 0.240165 0.413830
Si Si2 0.018038 0.676229 0.779376
Si Si3 0.609721 0.099530 0.667933
Si Si4 0.325685 0.000000 0.409889
Si Si5 0.879004 0.135731 0.344661
Si Si6 0.756713 0.387745 0.491503
Si Si7 0.324871 0.549266 0.911165
Si Si8 0.496180 0.355104 0.208413
O O1 0.500000 0.248380 0.500000
O O2 0.940559 0.274992 0.286785
O O3 0.857130 0.188738 0.365364
O O4 0.000000 0.246079 0.500000
O O5 0.132614 0.639968 0.651819
O O6 0.221058 0.670022 0.848486
O O7 0.707332 0.662292 0.850935
O O8 0.604163 0.046184 0.674847
O O9 0.748541 0.113513 0.501441
O O10 0.310825 0.119378 0.725210
O O11 0.812001 0.120006 0.724406
O O12 0.500000 0.000000 0.500000
O O13 0.000000 0.000000 0.500000
O O14 0.500000 0.413899 0.500000
O O15 0.657323 0.352090 0.620485
O O16 0.000000 0.413740 0.500000
O O17 0.360991 0.500000 0.843911
O O18 0.440000 0.592486 0.816240
O O19 0.500000 0.548539 0.000000
O O20 0.000000 0.555260 0.000000
#
# Coordination Sequence:
#
# PCOD9141389 Si02
#       8
#     4   4   4   2   4   4   4   4
#     4  12  18  25  38  55  78 110 139 173 201 248
#     4  10  19  28  43  66  89 119 149 163 197 245
#     4  10  16  25  28  44  56  87 121 168 222 267
#     4  12  16  20  34  36  54  76 120 166 216 278
#     4  10  16  24  31  42  66  86 120 163 212 252
#     4   8  14  25  39  59  84 113 138 163 183 228
#     4  10  21  37  57  78  93 110 139 171 212 258
#     4  10  18  32  48  66  93 115 134 175 201 235
#
# _framework density 19.036089
#
# number of rings (size 3 to 8) (size 9 to 14) (size 15 to 20)
#    0.000    1.867    5.333    4.000    0.000    0.000 
#    0.000    0.000    0.000    7.200    0.000    0.000 
#    0.000    0.000    0.000    0.000    0.000    0.000 
#
# Total GULP energy -167045.939379 kJ/mol
# GULP energy per Si atom -5568.197979 kJ/mol
# Density = 1.899276 g / cm^3
# Si number density = 19.036089 Si / 1000 Ang^3
#
#
#
# Elastic Constant Matrix: (Units=GPa)
#
#
# Indices 1 2 3 4 5 6 
#
# 1 230.5481 39.7369 13.7670 0.0000 -15.5357 0.0000
# 2 39.7369 129.7366 10.7327 0.0000 -8.2279 0.0000
# 3 13.7670 10.7327 23.6187 0.0000 -10.3570 0.0000
# 4 0.0000 0.0000 0.0000 -31.5443 0.0000 0.0571
# 5 -15.5357 -8.2279 -10.3570 0.0000 12.0527 0.0000
# 6 0.0000 0.0000 0.0000 0.0571 0.0000 29.6196
#
#
#
# Elastic Compliance Matrix: (Units=1/GPa)
#
#
# Indices 1 2 3 4 5 6 
#
# 1 0.004910 -0.001157 0.000149 0.000000 0.005667 0.000000
# 2 -0.001157 0.008389 -0.002055 0.000000 0.002470 0.000000
# 3 0.000149 -0.002055 0.068447 0.000000 0.057607 0.000000
# 4 0.000000 0.000000 0.000000 -0.031701 0.000000 0.000061
# 5 0.005667 0.002470 0.057607 0.000000 0.141462 0.000000
# 6 0.000000 0.000000 0.000000 0.000061 0.000000 0.033761
#
#
# Mechanical properties :
#
#
# Convention : Reuss Voigt Hill
#
# Bulk Modulus (GPa) = 13.22385 56.93074 35.07730
# Shear Modulus (GPa) = 19.48558 23.33673 21.41116
#
# Velocity S-wave (km/s) = 3.20287 3.50511 3.35739
# Velocity P-wave (km/s) = 4.54308 6.80829 5.78759
#
# Compressibility (1/GPa) = 0.07562092
#
# Stress axis : x y z
#
# Youngs Moduli (GPa) = 203.67224 119.20586 14.60977
#
# Poissons Ratio (x) = 0.13789 -0.00217
# Poissons Ratio (y) = 0.23560 0.03002
# Poissons Ratio (z) = -0.03029 0.24491
#
# Static dielectric constant tensor:
#      x y z
#    x 1.893800 0.000000 -0.059640 
#    y 0.000000 1.627940 0.000000 
#    z -0.059640 0.000000 1.698730 
# 
# From -- ./inp_files/40066.got.cif
#   From: 2010.05.17/outbox.cif.g08.bks.cpg/sg10_21_cif.got.tgz:40066.got - 2010.06.03 11:33:40.
