data_PCOD9141501
_publ_section_title
;
Structure prediction by ZEFSAII (Michael W. Deem and Ramdas Pophale) SiO2 
 PCOD9141501
Probable space group: P 2/M
;
_chemical_formula_sum "Si O2"
_cell_formula_units_Z 30
_cell_length_a 12.550397
_cell_length_b 19.015204
_cell_length_c 13.594598
_cell_angle_alpha 90.000000
_cell_angle_beta 149.056621
_cell_angle_gamma 90.000000
_cell_volume 1668.203712
_symmetry_space_group_name_H-M "P 2/M"
_symmetry_group_IT_number 10
_symmetry_cell_setting 'monoclinic'
loop_
_space_group_symop_operation_xyz
x,y,z
-x,y,-z
-x,-y,-z
x,-y,z
loop_
_atom_site_type_symbol
_atom_site_label
_atom_site_fract_x
_atom_site_fract_y
_atom_site_fract_z
Si Si1 0.191933 0.636388 0.079299
Si Si2 0.616594 0.921930 0.698453
Si Si3 0.043557 0.801805 0.643176
Si Si4 0.412213 0.577491 0.541118
Si Si5 0.925754 0.696192 0.717833
Si Si6 0.313330 0.919201 0.646793
Si Si7 0.500000 0.135684 0.000000
Si Si8 0.279780 0.226140 0.270675
O O1 0.380294 0.583415 0.231479
O O2 0.273397 0.710954 0.187332
O O3 0.000000 0.615750 0.000000
O O4 0.109635 0.649108 0.905847
O O5 0.500000 0.924529 0.500000
O O6 0.459679 0.911307 0.666215
O O7 0.751892 0.851166 0.798824
O O8 0.713025 0.000000 0.788060
O O9 0.977311 0.743264 0.667151
O O10 0.885511 0.868518 0.523096
O O11 0.000000 0.773538 0.500000
O O12 0.284177 0.822832 0.848447
O O13 0.500000 0.586524 0.500000
O O14 0.315841 0.500000 0.472239
O O15 0.262199 0.642047 0.444526
O O16 0.876522 0.750003 0.768301
O O17 0.438082 0.903539 0.847857
O O18 0.243679 0.000000 0.595318
O O19 0.500000 0.225913 0.500000
#
# Coordination Sequence:
#
# PCOD9141501 Si02
#       8
#     4   4   4   4   4   4   2   4
#     4  10  19  31  50  83 114 150 185 212 263 320
#     4   9  18  30  51  79 109 152 192 226 274 331
#     4  10  23  39  59  83 108 142 193 245 289 332
#     4  11  21  35  56  87 123 152 179 214 264 334
#     4  11  21  36  57  83 112 151 184 228 278 335
#     4  10  21  37  58  82 113 149 189 241 293 341
#     4  10  23  38  56  86 105 142 194 250 301 338
#     4  10  16  30  52  77 111 149 184 215 268 327
#
# _framework density 17.983415000000001
#
# number of rings (size 3 to 8) (size 9 to 14) (size 15 to 20)
#    0.000    1.867    4.000    1.800    1.867    4.800 
#    0.000    0.000    0.000    4.000    0.000    1.400 
#    0.000    0.000    0.000    0.000    0.000    0.000 
#
# Total GULP energy -167145.044989 kJ/mol
# GULP energy per Si atom -5571.501500 kJ/mol
# Density = 1.794248 g / cm^3
# Si number density = 17.983415 Si / 1000 Ang^3
#
#
#
# Elastic Constant Matrix: (Units=GPa)
#
#
# Indices 1 2 3 4 5 6 
#
# 1 90.9794 57.2956 33.8929 0.0000 -8.0270 0.0000
# 2 57.2956 104.7413 38.6093 0.0000 11.1396 0.0000
# 3 33.8929 38.6093 106.3236 0.0000 -0.7870 0.0000
# 4 0.0000 0.0000 0.0000 18.4426 0.0000 -9.2729
# 5 -8.0270 11.1396 -0.7870 0.0000 16.2261 0.0000
# 6 0.0000 0.0000 0.0000 -9.2729 0.0000 -29.3600
#
#
#
# Elastic Compliance Matrix: (Units=1/GPa)
#
#
# Indices 1 2 3 4 5 6 
#
# 1 0.021910 -0.013374 -0.001980 0.000000 0.019924 0.000000
# 2 -0.013374 0.020260 -0.003247 0.000000 -0.020683 0.000000
# 3 -0.001980 -0.003247 0.011229 0.000000 0.001794 0.000000
# 4 0.000000 0.000000 0.000000 0.046792 0.000000 -0.014778
# 5 0.019924 -0.020683 0.001794 0.000000 0.085772 0.000000
# 6 0.000000 0.000000 0.000000 -0.014778 0.000000 -0.029392
#
#
# Mechanical properties :
#
#
# Convention : Reuss Voigt Hill
#
# Bulk Modulus (GPa) = 61.74328 62.40446 62.07387
# Shear Modulus (GPa) = 25.10417 12.54484 18.82450
#
# Velocity S-wave (km/s) = 3.74031 2.64404 3.23889
# Velocity P-wave (km/s) = 7.28431 6.64061 6.96990
#
# Compressibility (1/GPa) = 0.01619610
#
# Stress axis : x y z
#
# Youngs Moduli (GPa) = 45.64197 49.35896 89.05741
#
# Poissons Ratio (x) = 0.66014 0.17634
# Poissons Ratio (y) = 0.61042 0.28914
# Poissons Ratio (z) = 0.09038 0.16025
#
# Static dielectric constant tensor:
#      x y z
#    x 1.599550 0.000000 -0.003640 
#    y 0.000000 1.642530 0.000000 
#    z -0.003640 0.000000 1.673220 
# 
# From -- ./inp_files/65460.got.cif
#   From: 2010.05.17/outbox.cif.g08.bks.cpg/sg10_33_cif.got.tgz:65460.got - 2010.06.03 11:33:40.
