data_PCOD9141575
_publ_section_title
;
Structure prediction by ZEFSAII (Michael W. Deem and Ramdas Pophale) SiO2 
 PCOD9141575
Probable space group: P 2/M
;
_chemical_formula_sum "Si O2"
_cell_formula_units_Z 28
_cell_length_a 18.813256
_cell_length_b 9.328728
_cell_length_c 18.359952
_cell_angle_alpha 90.000000
_cell_angle_beta 156.408637
_cell_angle_gamma 90.000000
_cell_volume 1289.575700
_symmetry_space_group_name_H-M "P 2/M"
_symmetry_group_IT_number 10
_symmetry_cell_setting 'monoclinic'
loop_
_space_group_symop_operation_xyz
x,y,z
-x,y,-z
-x,-y,-z
x,-y,z
loop_
_atom_site_type_symbol
_atom_site_label
_atom_site_fract_x
_atom_site_fract_y
_atom_site_fract_z
Si Si1 0.156633 0.837029 0.904289
Si Si2 0.617992 0.826929 0.450897
Si Si3 0.278249 0.664708 0.732555
Si Si4 0.244179 0.670913 0.125807
Si Si5 0.903101 0.333362 0.295625
Si Si6 0.427249 0.159784 0.747399
Si Si7 0.282639 0.163689 0.302339
O O1 0.138200 0.745807 0.960583
O O2 0.368910 0.844070 0.087139
O O3 0.090607 0.000000 0.851219
O O4 0.085934 0.759435 0.766211
O O5 0.446000 0.728344 0.302899
O O6 0.677449 0.794728 0.424407
O O7 0.746610 0.802710 0.640105
O O8 0.573527 0.000000 0.411132
O O9 0.331916 0.500000 0.790064
O O10 0.237690 0.720447 0.775624
O O11 0.407174 0.745172 0.799297
O O12 0.090753 0.668132 0.513481
O O13 0.233950 0.500000 0.113067
O O14 0.202439 0.732029 0.166850
O O15 0.861309 0.500000 0.238926
O O16 0.367481 0.000000 0.710284
O O17 0.500000 0.167363 0.500000
O O18 0.228946 0.000000 0.236219
#
# Coordination Sequence:
#
# PCOD9141575 Si02
#       7
#     4   4   4   4   4   4   4
#     4  10  20  33  48  69  97 127 158 194 236 279
#     4   8  15  27  40  58  89 126 157 189 230 273
#     4   9  19  35  53  71  94 123 154 191 236 283
#     4  10  17  24  38  62  91 121 154 193 233 274
#     4   9  19  36  53  70  93 122 157 194 232 280
#     4   9  18  31  47  70  99 126 157 195 232 275
#     4   8  13  23  38  55  83 123 158 187 226 273
#
# _framework density 21.712568000000001
#
# number of rings (size 3 to 8) (size 9 to 14) (size 15 to 20)
#    0.000    3.000    0.000    4.286    0.000    7.143 
#    0.000    4.286    0.000    0.000    0.000    1.000 
#    0.000    8.000    0.000    0.000    0.000    0.000 
#
# Total GULP energy -156209.949739 kJ/mol
# GULP energy per Si atom -5578.926776 kJ/mol
# Density = 2.166315 g / cm^3
# Si number density = 21.712568 Si / 1000 Ang^3
#
#
#
# Elastic Constant Matrix: (Units=GPa)
#
#
# Indices 1 2 3 4 5 6 
#
# 1 42.7722 37.9598 81.3203 0.0000 3.2957 0.0000
# 2 37.9598 105.6281 66.0493 0.0000 -23.8180 0.0000
# 3 81.3203 66.0493 77.7872 0.0000 -53.5613 0.0000
# 4 0.0000 0.0000 0.0000 37.1918 0.0000 -26.3537
# 5 3.2957 -23.8180 -53.5613 0.0000 26.1940 0.0000
# 6 0.0000 0.0000 0.0000 -26.3537 0.0000 6.8007
#
#
#
# Elastic Compliance Matrix: (Units=1/GPa)
#
#
# Indices 1 2 3 4 5 6 
#
# 1 0.004956 -0.004725 0.011170 0.000000 0.017920 0.000000
# 2 -0.004725 0.015205 -0.004799 0.000000 0.004607 0.000000
# 3 0.011170 -0.004799 -0.003141 0.000000 -0.012191 0.000000
# 4 0.000000 0.000000 0.000000 -0.015400 0.000000 -0.059679
# 5 0.017920 0.004607 -0.012191 0.000000 0.015183 0.000000
# 6 0.000000 0.000000 0.000000 -0.059679 0.000000 -0.084222
#
#
# Mechanical properties :
#
#
# Convention : Reuss Voigt Hill
#
# Bulk Modulus (GPa) = 49.23285 66.31625 57.77455
# Shear Modulus (GPa) = -78.19725 16.76117 -30.71804
#
# Velocity S-wave (km/s) = -6.00774 2.78143 -3.76541
# Velocity P-wave (km/s) = 5.03983 6.39720 2.78607
#
# Compressibility (1/GPa) = 0.02031164
#
# Stress axis : x y z
#
# Youngs Moduli (GPa) = 201.77754 65.76888 -318.41135
#
# Poissons Ratio (x) = 0.31073 3.55651
# Poissons Ratio (y) = 0.95333 -1.52811
# Poissons Ratio (z) = -2.25376 0.31564
#
# Static dielectric constant tensor:
#      x y z
#    x 1.844760 0.000000 0.021770 
#    y 0.000000 1.734150 0.000000 
#    z 0.021770 0.000000 1.855650 
# 
# From -- ./inp_files/75746.got.cif
#   From: 2010.05.17/outbox.cif.g08.bks.cpg/sg10_38_cif.got.tgz:75746.got - 2010.06.03 11:33:40.
