data_PCOD9141447
_publ_section_title
;
Structure prediction by ZEFSAII (Michael W. Deem and Ramdas Pophale) SiO2 
 PCOD9141447
Probable space group: P 2/M
;
_chemical_formula_sum "Si O2"
_cell_formula_units_Z 20
_cell_length_a 6.979451
_cell_length_b 24.622492
_cell_length_c 8.400791
_cell_angle_alpha 90.000000
_cell_angle_beta 141.425957
_cell_angle_gamma 90.000000
_cell_volume 900.176458
_symmetry_space_group_name_H-M "P 2/M"
_symmetry_group_IT_number 10
_symmetry_cell_setting 'monoclinic'
loop_
_space_group_symop_operation_xyz
x,y,z
-x,y,-z
-x,-y,-z
x,-y,z
loop_
_atom_site_type_symbol
_atom_site_label
_atom_site_fract_x
_atom_site_fract_y
_atom_site_fract_z
Si Si1 0.359718 0.113113 0.089481
Si Si2 0.136266 0.840189 0.415686
Si Si3 0.134448 0.500000 0.761497
Si Si4 0.868943 0.609279 0.737987
Si Si5 0.627174 0.000000 0.262093
Si Si6 0.869841 0.272355 0.736168
O O1 0.503801 0.155932 0.307158
O O2 0.481131 0.055392 0.233117
O O3 0.500000 0.120270 0.000000
O O4 0.004278 0.120885 0.812137
O O5 0.032705 0.779896 0.301419
O O6 0.000000 0.855910 0.500000
O O7 0.000000 0.500000 0.500000
O O8 0.012108 0.555364 0.758858
O O9 0.500000 0.500000 0.000000
O O10 0.500000 0.604374 0.500000
O O11 0.954526 0.668290 0.720822
O O12 0.000000 0.612276 0.000000
O O13 0.000000 0.000000 0.500000
O O14 0.500000 0.000000 0.000000
O O15 0.500000 0.271427 0.500000
O O16 0.000000 0.268021 0.000000
#
# Coordination Sequence:
#
# PCOD9141447 Si02
#       6
#     4   4   2   4   2   4
#     4   9  17  28  45  72 103 135 169 212 267 321
#     4  10  19  32  50  76 107 135 168 218 277 321
#     4  12  24  38  60  92 122 146 184 236 286 328
#     4  10  21  40  62  82 112 155 195 227 269 332
#     4  10  16  26  44  68 102 136 170 214 261 318
#     4  10  21  37  57  80 105 142 189 224 259 320
#
# _framework density 22.217866000000001
#
# number of rings (size 3 to 8) (size 9 to 14) (size 15 to 20)
#    0.000    2.000    0.000    6.000    0.000    0.800 
#    0.000    3.000    0.000    0.000    0.000   14.000 
#    0.000    0.000    0.000    0.000    0.000    0.000 
#
# Total GULP energy -111571.416419 kJ/mol
# GULP energy per Si atom -5578.570821 kJ/mol
# Density = 2.216730 g / cm^3
# Si number density = 22.217866 Si / 1000 Ang^3
#
#
#
# Elastic Constant Matrix: (Units=GPa)
#
#
# Indices 1 2 3 4 5 6 
#
# 1 31.3989 15.8840 29.4407 0.0000 13.5609 0.0000
# 2 15.8840 182.7552 62.0580 0.0000 -5.1570 0.0000
# 3 29.4407 62.0580 206.3965 0.0000 15.4964 0.0000
# 4 0.0000 0.0000 0.0000 35.6269 0.0000 -4.0762
# 5 13.5609 -5.1570 15.4964 0.0000 26.0184 0.0000
# 6 0.0000 0.0000 0.0000 -4.0762 0.0000 13.1441
#
#
#
# Elastic Compliance Matrix: (Units=1/GPa)
#
#
# Indices 1 2 3 4 5 6 
#
# 1 0.047196 -0.003392 -0.003993 0.000000 -0.022892 0.000000
# 2 -0.003392 0.006485 -0.001775 0.000000 0.004110 0.000000
# 3 -0.003993 -0.001775 0.006091 0.000000 -0.001898 0.000000
# 4 0.000000 0.000000 0.000000 0.029101 0.000000 0.009025
# 5 -0.022892 0.004110 -0.001898 0.000000 0.052311 0.000000
# 6 0.000000 0.000000 0.000000 0.009025 0.000000 0.078879
#
#
# Mechanical properties :
#
#
# Convention : Reuss Voigt Hill
#
# Bulk Modulus (GPa) = 24.12460 70.59067 47.35764
# Shear Modulus (GPa) = 19.82557 35.83575 27.83066
#
# Velocity S-wave (km/s) = 2.99042 4.02048 3.54308
# Velocity P-wave (km/s) = 4.77549 7.30708 6.17246
#
# Compressibility (1/GPa) = 0.04145146
#
# Stress axis : x y z
#
# Youngs Moduli (GPa) = 21.18846 154.19657 164.18259
#
# Poissons Ratio (x) = 0.52302 0.65565
# Poissons Ratio (y) = 0.07187 0.29138
# Poissons Ratio (z) = 0.08461 0.27365
#
# Static dielectric constant tensor:
#      x y z
#    x 1.851010 0.000000 0.076870 
#    y 0.000000 2.022550 0.000000 
#    z 0.076870 0.000000 1.771110 
# 
# From -- ./inp_files/20803.got.cif
#   From: 2010.05.17/outbox.cif.g08.bks.cpg/sg10_11_cif.got.tgz:20803.got - 2010.06.03 11:33:40.
