data_PCOD9141570
_publ_section_title
;
Structure prediction by ZEFSAII (Michael W. Deem and Ramdas Pophale) SiO2 
 PCOD9141570
Probable space group: P 2/M
;
_chemical_formula_sum "Si O2"
_cell_formula_units_Z 32
_cell_length_a 20.671903
_cell_length_b 8.015113
_cell_length_c 14.023298
_cell_angle_alpha 90.000000
_cell_angle_beta 58.292053
_cell_angle_gamma 90.000000
_cell_volume 1976.679299
_symmetry_space_group_name_H-M "P 2/M"
_symmetry_group_IT_number 10
_symmetry_cell_setting 'monoclinic'
loop_
_space_group_symop_operation_xyz
x,y,z
-x,y,-z
-x,-y,-z
x,-y,z
loop_
_atom_site_type_symbol
_atom_site_label
_atom_site_fract_x
_atom_site_fract_y
_atom_site_fract_z
Si Si1 0.548372 0.802191 0.166461
Si Si2 0.320015 0.701520 0.057619
Si Si3 0.169030 0.196907 0.471867
Si Si4 0.161517 0.299934 0.257510
Si Si5 0.400153 0.304154 0.190193
Si Si6 0.319250 0.806336 0.442020
Si Si7 0.531648 0.795608 0.577064
Si Si8 0.996086 0.694346 0.387561
O O1 0.489739 0.718363 0.137645
O O2 0.522180 0.747277 0.292265
O O3 0.536475 0.000000 0.169829
O O4 0.633794 0.761970 0.069627
O O5 0.318909 0.500000 0.056482
O O6 0.233995 0.761455 0.142136
O O7 0.368298 0.753342 0.113691
O O8 0.174548 0.269304 0.360385
O O9 0.235593 0.266788 0.488271
O O10 0.083952 0.224421 0.576349
O O11 0.181869 0.000000 0.451567
O O12 0.157695 0.500000 0.249509
O O13 0.077948 0.233610 0.293637
O O14 0.381190 0.500000 0.215181
O O15 0.359626 0.206610 0.307382
O O16 0.382869 0.735274 0.464209
O O17 0.309563 0.000000 0.476488
O O18 0.500000 0.740105 0.500000
O O19 0.533537 0.000000 0.574852
O O20 0.991705 0.500000 0.363793
O O21 0.000000 0.701310 0.500000
#
# Coordination Sequence:
#
# PCOD9141570 Si02
#       8
#     4   4   4   4   4   4   4   4
#     4  10  20  30  42  61  81 102 132 169 208 242
#     4  10  19  29  41  57  80 110 142 168 194 234
#     4  10  17  24  37  58  84 106 132 170 207 238
#     4   9  17  29  40  53  76 111 147 170 191 227
#     4  10  18  28  42  57  78 110 142 167 195 234
#     4   9  17  27  41  63  84 105 135 171 208 241
#     4   8  15  30  48  61  77 103 134 166 202 248
#     4   8  15  26  39  52  73 107 144 172 193 227
#
# _framework density 16.188766999999999
#
# number of rings (size 3 to 8) (size 9 to 14) (size 15 to 20)
#    0.000    2.750    1.250    3.000    0.000    5.750 
#    0.000    0.000    0.000    9.375    0.000    0.000 
#    0.000    1.000    0.000   12.500    0.000    1.000 
#
# Total GULP energy -178177.096764 kJ/mol
# GULP energy per Si atom -5568.034274 kJ/mol
# Density = 1.615192 g / cm^3
# Si number density = 16.188767 Si / 1000 Ang^3
#
#
#
# Elastic Constant Matrix: (Units=GPa)
#
#
# Indices 1 2 3 4 5 6 
#
# 1 127.6767 3.4384 60.4561 0.0000 -22.5434 0.0000
# 2 3.4384 11.6430 2.8324 0.0000 -1.9192 0.0000
# 3 60.4561 2.8324 61.9540 0.0000 -18.3448 0.0000
# 4 0.0000 0.0000 0.0000 20.8115 0.0000 -0.0469
# 5 -22.5434 -1.9192 -18.3448 0.0000 27.0519 0.0000
# 6 0.0000 0.0000 0.0000 -0.0469 0.0000 20.2384
#
#
#
# Elastic Compliance Matrix: (Units=1/GPa)
#
#
# Indices 1 2 3 4 5 6 
#
# 1 0.014778 -0.000571 -0.013463 0.000000 0.003145 0.000000
# 2 -0.000571 0.087286 -0.002178 0.000000 0.004240 0.000000
# 3 -0.013463 -0.002178 0.032546 0.000000 0.010696 0.000000
# 4 0.000000 0.000000 0.000000 0.048051 0.000000 0.000111
# 5 0.003145 0.004240 0.010696 0.000000 0.047141 0.000000
# 6 0.000000 0.000000 0.000000 0.000111 0.000000 0.049411
#
#
# Mechanical properties :
#
#
# Convention : Reuss Voigt Hill
#
# Bulk Modulus (GPa) = 9.78623 37.19196 23.48909
# Shear Modulus (GPa) = 14.46350 22.59016 18.52683
#
# Velocity S-wave (km/s) = 2.99227 3.73959 3.38661
# Velocity P-wave (km/s) = 4.24222 6.45522 5.46197
#
# Compressibility (1/GPa) = 0.10218438
#
# Stress axis : x y z
#
# Youngs Moduli (GPa) = 67.66838 11.45665 30.72602
#
# Poissons Ratio (x) = 0.00654 0.41368
# Poissons Ratio (y) = 0.03861 0.06693
# Poissons Ratio (z) = 0.91105 0.02496
#
# Static dielectric constant tensor:
#      x y z
#    x 1.589210 0.000000 -0.045530 
#    y 0.000000 1.581700 0.000000 
#    z -0.045530 0.000000 1.531880 
# 
# From -- ./inp_files/56433.got.cif
#   From: 2010.05.17/outbox.cif.g08.bks.cpg/sg10_29_cif.got.tgz:56433.got - 2010.06.03 11:33:40.
