data_PCOD9141762
_publ_section_title
;
Structure prediction by ZEFSAII (Michael W. Deem and Ramdas Pophale) SiO2 
 PCOD9141762
Probable space group: P 2/M
;
_chemical_formula_sum "Si O2"
_cell_formula_units_Z 28
_cell_length_a 20.194001
_cell_length_b 7.331567
_cell_length_c 11.823594
_cell_angle_alpha 90.000000
_cell_angle_beta 54.161848
_cell_angle_gamma 90.000000
_cell_volume 1419.106545
_symmetry_space_group_name_H-M "P 2/M"
_symmetry_group_IT_number 10
_symmetry_cell_setting 'monoclinic'
loop_
_space_group_symop_operation_xyz
x,y,z
-x,y,-z
-x,-y,-z
x,-y,z
loop_
_atom_site_type_symbol
_atom_site_label
_atom_site_fract_x
_atom_site_fract_y
_atom_site_fract_z
Si Si1 0.403110 0.213741 0.596889
Si Si2 0.499999 0.721848 0.132267
Si Si3 0.339377 0.295360 0.902641
Si Si4 0.820177 0.276027 0.047416
Si Si5 0.179822 0.276027 0.687773
Si Si6 0.000000 0.709907 0.137056
Si Si7 0.660625 0.704639 0.581395
O O1 0.500000 0.226700 0.500000
O O2 0.370952 0.302475 0.742434
O O3 0.370953 0.302475 0.515658
O O4 0.380670 0.000000 0.619329
O O5 0.499999 0.500000 0.147582
O O6 0.584498 0.787966 0.104995
O O7 0.415499 0.787966 0.273991
O O8 0.500000 0.762321 0.000000
O O9 0.327554 0.500000 0.960711
O O10 0.249709 0.213894 0.969847
O O11 0.819393 0.500000 0.048395
O O12 0.804996 0.223874 0.195003
O O13 0.911115 0.213999 0.922254
O O14 0.180607 0.500000 0.687183
O O15 0.088884 0.213999 0.744486
O O16 0.249708 0.213895 0.530737
O O17 0.000000 0.500000 0.176179
O O18 0.000000 0.707841 0.000000
O O19 0.672449 0.500000 0.615818
#
# Coordination Sequence:
#
# PCOD9141762 Si02
#       7
#     4   4   4   4   4   4   4
#     4  11  21  29  39  60  89 110 130 163 207 248
#     4   9  18  29  41  60  82 103 134 177 214 235
#     4  10  17  27  45  62  79 107 141 169 196 238
#     4   8  12  18  32  56  81 102 129 159 193 234
#     4   8  12  18  32  56  81 102 129 159 193 234
#     4   7  10  16  26  48  83 107 119 154 195 226
#     4  10  17  27  45  62  79 107 141 169 196 238
#
# _framework density 19.730723999999999
#
# number of rings (size 3 to 8) (size 9 to 14) (size 15 to 20)
#    0.000    3.000    2.857    2.143    0.000    0.571 
#    0.000    0.000    0.000    1.714    0.000    3.000 
#    0.000    8.000    0.000    0.000    0.000    2.857 
#
# Total GULP energy -155887.880505 kJ/mol
# GULP energy per Si atom -5567.424304 kJ/mol
# Density = 1.968582 g / cm^3
# Si number density = 19.730724 Si / 1000 Ang^3
#
#
#
# Elastic Constant Matrix: (Units=GPa)
#
#
# Indices 1 2 3 4 5 6 
#
# 1 135.9339 7.5242 95.4717 0.0000 -50.1745 0.0000
# 2 7.5242 74.9367 1.5874 0.0000 -10.8897 0.0000
# 3 95.4717 1.5874 91.5969 0.0000 -31.1694 0.0000
# 4 0.0000 0.0000 0.0000 -58.0979 0.0000 -27.4679
# 5 -50.1745 -10.8897 -31.1694 0.0000 41.4189 0.0000
# 6 0.0000 0.0000 0.0000 -27.4679 0.0000 -43.1224
#
#
#
# Elastic Compliance Matrix: (Units=1/GPa)
#
#
# Indices 1 2 3 4 5 6 
#
# 1 0.038065 0.000038 -0.032236 0.000000 0.021862 0.000000
# 2 0.000038 0.013999 0.001325 0.000000 0.004724 0.000000
# 3 -0.032236 0.001325 0.042107 0.000000 -0.007015 0.000000
# 4 0.000000 0.000000 0.000000 -0.024630 0.000000 0.015688
# 5 0.021862 0.004724 -0.007015 0.000000 0.046591 0.000000
# 6 0.000000 0.000000 0.000000 0.015688 0.000000 -0.033183
#
#
# Mechanical properties :
#
#
# Convention : Reuss Voigt Hill
#
# Bulk Modulus (GPa) = 30.84005 56.84825 43.84415
# Shear Modulus (GPa) = 32.15379 1.23199 16.69289
#
# Velocity S-wave (km/s) = 4.04125 0.79105 2.91182
# Velocity P-wave (km/s) = 6.11882 5.45059 5.79435
#
# Compressibility (1/GPa) = 0.03242536
#
# Stress axis : x y z
#
# Youngs Moduli (GPa) = 26.27113 71.43275 23.74899
#
# Poissons Ratio (x) = -0.00271 0.76557
# Poissons Ratio (y) = -0.00100 -0.03148
# Poissons Ratio (z) = 0.84688 -0.09468
#
# Static dielectric constant tensor:
#      x y z
#    x 1.733990 0.000000 -0.082350 
#    y 0.000000 1.748170 0.000000 
#    z -0.082350 0.000000 1.689100 
# 
# From -- ./inp_files/54674.got.cif
#   From: 2010.05.17/outbox.cif.g08.bks.cpg/sg10_28_cif.got.tgz:54674.got - 2010.06.03 11:33:40.
