data_PCOD9141268
_publ_section_title
;
Structure prediction by ZEFSAII (Michael W. Deem and Ramdas Pophale) SiO2 
 PCOD9141268
Probable space group: C C
;
_chemical_formula_sum "Si O2"
_cell_formula_units_Z 16
_cell_length_a 21.000000
_cell_length_b 9.000000
_cell_length_c 27.000000
_cell_angle_alpha 90.000000
_cell_angle_beta 160.000000
_cell_angle_gamma 90.000000
_cell_volume 1745.328791
_symmetry_space_group_name_H-M "C C"
_symmetry_group_IT_number 9
_symmetry_cell_setting 'monoclinic'
loop_
_space_group_symop_operation_xyz
x,y,z
x,-y,1/2+z
1/2+x,1/2+y,z
1/2+x,1/2-y,1/2+z
loop_
_atom_site_type_symbol
_atom_site_label
_atom_site_fract_x
_atom_site_fract_y
_atom_site_fract_z
Si Si1 0.326990 0.767874 0.547090
Si Si2 0.415645 0.424703 0.526485
Si Si3 0.120045 0.787294 0.763074
Si Si4 0.122027 0.479797 0.405919
Si Si5 0.331675 0.926298 0.109432
Si Si6 0.714806 0.379157 0.357039
Si Si7 0.554361 0.712574 0.559962
Si Si8 0.998305 0.751226 0.899577
O O1 0.185373 0.646333 0.466314
O O2 0.536406 0.698558 0.700320
O O3 0.245726 0.811642 0.434125
O O4 0.344501 0.919367 0.590165
O O5 0.293112 0.322263 0.400238
O O6 0.574609 0.332171 0.672705
O O7 0.277159 0.454529 0.473667
O O8 0.489680 0.565730 0.546911
O O9 0.945140 0.700983 0.661235
O O10 0.167669 0.945595 0.823605
O O11 0.935022 0.449026 0.237671
O O12 0.090612 0.386646 0.434368
O O13 0.116753 0.882427 0.959966
O O14 0.907460 0.338732 0.470454
O O15 0.774114 0.741692 0.730394
O O16 0.534387 0.720686 0.485012
#
# Coordination Sequence:
#
# PCOD9141268 Si02
#       8
#     4   4   4   4   4   4   4   4
#     4  12  22  40  73 100 141 174 240 299 346 408
#     4  11  22  43  67 102 140 177 240 291 342 413
#     4  11  22  39  71 101 139 175 239 299 341 408
#     4  11  22  44  66 106 139 177 235 297 338 421
#     4  11  23  42  67 107 132 181 233 290 352 418
#     4  12  22  40  65 107 134 185 230 290 353 410
#     4  12  26  44  68 100 144 187 231 285 356 426
#     4  12  25  44  71  95 145 188 226 283 356 426
#
# _framework density 9.1673270000000002
#
# number of rings (size 3 to 8) (size 9 to 14) (size 15 to 20)
#    0.000    0.500    6.250    3.000    1.750    2.000 
#    0.000    3.750    0.000    0.000    0.000    0.000 
#    0.000    0.000    0.000    0.000    0.000    0.000 
#
# Total GULP energy -89093.719093 kJ/mol
# GULP energy per Si atom -5568.357443 kJ/mol
# Density = 0.914646 g / cm^3
# Si number density = 9.167327 Si / 1000 Ang^3
#
#
#
# Elastic Constant Matrix: (Units=GPa)
#
#
# Indices 1 2 3 4 5 6 
#
# 1 97.8890 44.5876 37.9865 0.0019 -5.6463 -0.0003
# 2 44.5876 127.7578 51.4270 0.0067 13.8476 0.0004
# 3 37.9865 51.4270 136.4299 0.0139 1.5574 -0.0024
# 4 0.0019 0.0067 0.0139 41.2747 0.0002 -3.3618
# 5 -5.6463 13.8476 1.5574 0.0002 44.5106 -0.0014
# 6 -0.0003 0.0004 -0.0024 -3.3618 -0.0014 37.1282
#
#
#
# Elastic Compliance Matrix: (Units=1/GPa)
#
#
# Indices 1 2 3 4 5 6 
#
# 1 0.013050 -0.004009 -0.002156 0.000001 0.002978 0.000000
# 2 -0.004009 0.010808 -0.002915 -0.000001 -0.003769 -0.000001
# 3 -0.002156 -0.002915 0.009025 -0.000002 0.000318 0.000000
# 4 0.000001 -0.000001 -0.000002 0.024408 0.000000 0.002210
# 5 0.002978 -0.003769 0.000318 0.000000 0.024006 0.000001
# 6 0.000000 -0.000001 0.000000 0.002210 0.000001 0.027134
#
#
# Mechanical properties :
#
#
# Convention : Reuss Voigt Hill
#
# Bulk Modulus (GPa) = 67.92090 70.00877 68.96483
# Shear Modulus (GPa) = 38.02260 39.78776 38.90518
#
# Velocity S-wave (km/s) = 4.55885 4.66347 4.61146
# Velocity P-wave (km/s) = 8.05210 8.20146 8.12713
#
# Compressibility (1/GPa) = 0.01472301
#
# Stress axis : x y z
#
# Youngs Moduli (GPa) = 76.62550 92.51999 110.79987
#
# Poissons Ratio (x) = 0.37095 0.23892
# Poissons Ratio (y) = 0.30723 0.32296
# Poissons Ratio (z) = 0.16523 0.26968
#
# Static dielectric constant tensor:
#      x y z
#    x 1.642010 0.000000 -0.009440 
#    y 0.000000 1.663820 0.000000 
#    z -0.009440 0.000000 1.664190 
# 
# From -- ./inp_files/31200.got.cif
#   From: 2010.05.17/outbox.ucp.g08.bks.cvg/sg9_16_cif.got.tgz:31200.got - 2010.06.11 13:03:20.
