data_PCOD9141235
_publ_section_title
;
Structure prediction by ZEFSAII (Michael W. Deem and Ramdas Pophale) SiO2 
 PCOD9141235
Probable space group: C C
;
_chemical_formula_sum "Si O2"
_cell_formula_units_Z 14
_cell_length_a 21.000000
_cell_length_b 12.000000
_cell_length_c 9.000000
_cell_angle_alpha 90.000000
_cell_angle_beta 40.000000
_cell_angle_gamma 90.000000
_cell_volume 1457.842299
_symmetry_space_group_name_H-M "C C"
_symmetry_group_IT_number 9
_symmetry_cell_setting 'monoclinic'
loop_
_space_group_symop_operation_xyz
x,y,z
x,-y,1/2+z
1/2+x,1/2+y,z
1/2+x,1/2-y,1/2+z
loop_
_atom_site_type_symbol
_atom_site_label
_atom_site_fract_x
_atom_site_fract_y
_atom_site_fract_z
Si Si1 0.954400 0.552141 0.032620
Si Si2 0.467478 0.275167 0.195587
Si Si3 0.750546 0.553823 0.777768
Si Si4 0.107718 0.952399 0.799189
Si Si5 0.055748 0.633048 0.550104
Si Si6 0.971413 0.830035 0.517373
Si Si7 0.285825 0.686991 0.172598
O O1 0.949741 0.656249 0.153477
O O2 0.845910 0.505446 0.180795
O O3 0.019179 0.456540 0.994486
O O4 0.008567 0.594972 0.788816
O O5 0.502491 0.271356 0.305157
O O6 0.362176 0.340116 0.401778
O O7 0.547572 0.346618 0.964409
O O8 0.702387 0.483172 0.731634
O O9 0.779951 0.678670 0.681191
O O10 0.657460 0.567539 0.053051
O O11 0.031105 0.055360 0.926949
O O12 0.005928 0.749198 0.586763
O O13 0.174954 0.642380 0.353443
O O14 0.852783 0.844142 0.698915
#
# Coordination Sequence:
#
# PCOD9141235 Si02
#       7
#     4   4   4   4   4   4   4
#     4  12  25  42  66 101 132 169 220 275 325 399
#     4  10  24  43  62  98 134 166 222 266 330 391
#     4  12  22  39  70  96 126 173 226 262 321 385
#     4  12  23  42  67  98 131 175 217 273 324 389
#     4  12  23  43  69  93 135 170 215 278 333 380
#     4  10  23  43  64  95 132 167 219 279 316 394
#     4  10  22  42  66  93 128 172 215 267 329 388
#
# _framework density 9.6032329999999995
#
# number of rings (size 3 to 8) (size 9 to 14) (size 15 to 20)
#    0.857    0.000    4.286    4.286    0.000    1.143 
#    0.000    1.429    0.000    0.000    0.000    0.000 
#    0.000    0.000    0.000    0.000    0.000    0.000 
#
# Total GULP energy -78090.365199 kJ/mol
# GULP energy per Si atom -5577.883229 kJ/mol
# Density = 0.958138 g / cm^3
# Si number density = 9.603233 Si / 1000 Ang^3
#
#
#
# Elastic Constant Matrix: (Units=GPa)
#
#
# Indices 1 2 3 4 5 6 
#
# 1 108.0961 39.5699 15.2629 0.0000 -34.0894 0.0000
# 2 39.5699 72.0295 27.2011 0.0000 -12.8746 0.0000
# 3 15.2629 27.2011 65.4438 0.0000 -13.1647 0.0000
# 4 0.0000 0.0000 0.0000 35.0193 0.0000 -2.7595
# 5 -34.0894 -12.8746 -13.1647 0.0000 45.2947 0.0000
# 6 0.0000 0.0000 0.0000 -2.7595 0.0000 18.3472
#
#
#
# Elastic Compliance Matrix: (Units=1/GPa)
#
#
# Indices 1 2 3 4 5 6 
#
# 1 0.014507 -0.006795 0.001326 0.000000 0.009372 0.000000
# 2 -0.006795 0.020007 -0.007027 0.000000 -0.001470 0.000000
# 3 0.001326 -0.007027 0.018789 0.000000 0.004462 0.000000
# 4 0.000000 0.000000 0.000000 0.028898 0.000000 0.004346
# 5 0.009372 -0.001470 0.004462 0.000000 0.030010 0.000000
# 6 0.000000 0.000000 0.000000 0.004346 0.000000 0.055158
#
#
# Mechanical properties :
#
#
# Convention : Reuss Voigt Hill
#
# Bulk Modulus (GPa) = 35.32055 45.51524 40.41790
# Shear Modulus (GPa) = 24.77735 30.63461 27.70598
#
# Velocity S-wave (km/s) = 3.59563 3.99810 3.80219
# Velocity P-wave (km/s) = 5.97226 6.71285 6.35336
#
# Compressibility (1/GPa) = 0.02831213
#
# Stress axis : x y z
#
# Youngs Moduli (GPa) = 68.93334 49.98256 53.22248
#
# Poissons Ratio (x) = 0.33964 -0.07059
# Poissons Ratio (y) = 0.46841 0.37397
# Poissons Ratio (z) = -0.09143 0.35121
#
# Static dielectric constant tensor:
#      x y z
#    x 1.670660 0.000000 0.010990 
#    y 0.000000 1.666320 0.000000 
#    z 0.010990 0.000000 1.671040 
# 
# From -- ./inp_files/6978.got.cif
#   From: 2010.05.17/outbox.ucp.g08.bks.cvg/sg9_4_cif.got.tgz:6978.got - 2010.06.11 13:03:20.
