data_PCOD9141835
_publ_section_title
;
Structure prediction by ZEFSAII (Michael W. Deem and Ramdas Pophale) SiO2 
 PCOD9141835
Probable space group: P 2/M
;
_chemical_formula_sum "Si O2"
_cell_formula_units_Z 16
_cell_length_a 9.179511
_cell_length_b 17.287984
_cell_length_c 5.355286
_cell_angle_alpha 90.000000
_cell_angle_beta 126.327707
_cell_angle_gamma 90.000000
_cell_volume 684.681533
_symmetry_space_group_name_H-M "P 2/M"
_symmetry_group_IT_number 10
_symmetry_cell_setting 'monoclinic'
loop_
_space_group_symop_operation_xyz
x,y,z
-x,y,-z
-x,-y,-z
x,-y,z
loop_
_atom_site_type_symbol
_atom_site_label
_atom_site_fract_x
_atom_site_fract_y
_atom_site_fract_z
Si Si1 0.294690 0.412166 0.194950
Si Si2 0.772756 0.153263 0.503061
Si Si3 0.182584 0.909709 0.949848
Si Si4 0.800331 0.326121 0.404712
O O1 0.500000 0.414259 0.500000
O O2 0.230139 0.500000 0.086428
O O3 0.194301 0.374167 0.331436
O O4 0.292253 0.367647 0.927181
O O5 0.717392 0.104542 0.207201
O O6 0.726892 0.241984 0.404497
O O7 0.991852 0.137179 0.741398
O O8 0.711029 0.122798 0.706510
O O9 0.141203 0.000000 0.936619
O O10 0.000000 0.313417 0.500000
#
# Coordination Sequence:
#
# PCOD9141835 Si02
#       4
#     4   4   4   4
#     4  11  26  46  64  85 120 164 208 249 299 373
#     4  10  18  29  46  80 119 154 180 243 296 347
#     4  10  17  28  47  74 123 167 187 222 299 363
#     4  12  23  38  66  94 125 157 193 262 316 353
#
# _framework density 23.368525999999999
#
# number of rings (size 3 to 8) (size 9 to 14) (size 15 to 20)
#    0.000    1.250    2.500    7.500    3.500    5.000 
#    0.000    0.000    0.000    0.000    0.000    0.000 
#    0.000  116.000    0.000    0.000    0.000    0.000 
#
# Total GULP energy -89391.215683 kJ/mol
# GULP energy per Si atom -5586.950980 kJ/mol
# Density = 2.331534 g / cm^3
# Si number density = 23.368526 Si / 1000 Ang^3
#
#
#
# Elastic Constant Matrix: (Units=GPa)
#
#
# Indices 1 2 3 4 5 6 
#
# 1 48.6383 11.8123 53.4135 0.0000 -28.5020 0.0000
# 2 11.8123 191.9779 82.9019 0.0000 -42.7690 0.0000
# 3 53.4135 82.9019 166.4062 0.0000 -73.5932 0.0000
# 4 0.0000 0.0000 0.0000 105.6134 0.0000 434.4150
# 5 -28.5020 -42.7690 -73.5932 0.0000 60.7840 0.0000
# 6 0.0000 0.0000 0.0000 434.4150 0.0000 3760.0547
#
#
#
# Elastic Compliance Matrix: (Units=1/GPa)
#
#
# Indices 1 2 3 4 5 6 
#
# 1 0.034521 0.003664 -0.009917 0.000000 0.006758 0.000000
# 2 0.003664 0.007084 -0.003748 0.000000 0.002165 0.000000
# 3 -0.009917 -0.003748 0.016870 0.000000 0.013138 0.000000
# 4 0.000000 0.000000 0.000000 0.018043 0.000000 -0.002085
# 5 0.006758 0.002165 0.013138 0.000000 0.037050 0.000000
# 6 0.000000 0.000000 0.000000 -0.002085 0.000000 0.000507
#
#
# Mechanical properties :
#
#
# Convention : Reuss Voigt Hill
#
# Bulk Modulus (GPa) = 25.99213 78.14197 52.06705
# Shear Modulus (GPa) = 34.03621 802.55007 418.29314
#
# Velocity S-wave (km/s) = 3.82055 18.55202 13.39355
# Velocity P-wave (km/s) = 5.53254 22.19043 16.17133
#
# Compressibility (1/GPa) = 0.03847319
#
# Stress axis : x y z
#
# Youngs Moduli (GPa) = 28.96756 141.15736 59.27671
#
# Poissons Ratio (x) = -0.51722 0.58787
# Poissons Ratio (y) = -0.10614 0.22217
# Poissons Ratio (z) = 0.28728 0.52905
#
# Static dielectric constant tensor:
#      x y z
#    x 1.904010 0.000000 -0.057470 
#    y 0.000000 1.832790 0.000000 
#    z -0.057470 0.000000 1.888750 
# 
# From -- ./inp_files/4240.got.cif
#   From: 2010.05.17/outbox.cif.g08.bks.cpg/sg10_3_cif.got.tgz:4240.got - 2010.06.03 11:33:40.
