data_PCOD9141821
_publ_section_title
;
Structure prediction by ZEFSAII (Michael W. Deem and Ramdas Pophale) SiO2 
 PCOD9141821
Probable space group: P 2/M
;
_chemical_formula_sum "Si O2"
_cell_formula_units_Z 32
_cell_length_a 11.196187
_cell_length_b 7.261628
_cell_length_c 24.950278
_cell_angle_alpha 90.000000
_cell_angle_beta 47.692408
_cell_angle_gamma 90.000000
_cell_volume 1500.176370
_symmetry_space_group_name_H-M "P 2/M"
_symmetry_group_IT_number 10
_symmetry_cell_setting 'monoclinic'
loop_
_space_group_symop_operation_xyz
x,y,z
-x,y,-z
-x,-y,-z
x,-y,z
loop_
_atom_site_type_symbol
_atom_site_label
_atom_site_fract_x
_atom_site_fract_y
_atom_site_fract_z
Si Si1 0.627774 0.221287 0.414817
Si Si2 0.936335 0.275600 0.784990
Si Si3 0.533474 0.294068 0.646892
Si Si4 0.974150 0.294068 0.353108
Si Si5 0.208694 0.724400 0.784990
Si Si6 0.314938 0.723915 0.047727
Si Si7 0.140951 0.285543 0.500000
Si Si8 0.958120 0.276085 0.952273
O O1 0.500000 0.260975 0.500000
O O2 0.563355 0.301603 0.379485
O O3 0.798191 0.301604 0.379485
O O4 0.640697 0.000000 0.406202
O O5 0.939829 0.500000 0.781779
O O6 0.791060 0.223682 0.868263
O O7 0.924650 0.212054 0.726913
O O8 0.100092 0.217766 0.766605
O O9 0.573315 0.500000 0.655187
O O10 0.394609 0.212054 0.726913
O O11 0.701008 0.205589 0.576850
O O12 0.038877 0.500000 0.344813
O O13 0.931558 0.205589 0.423150
O O14 0.214834 0.500000 0.781779
O O15 0.104151 0.776318 0.868263
O O16 0.317535 0.500000 0.045203
O O17 0.209154 0.780898 0.027231
O O18 0.500000 0.784322 0.000000
O O19 0.184429 0.500000 0.500000
O O20 0.000000 0.284379 0.500000
O O21 0.953143 0.500000 0.954797
O O22 0.000000 0.215678 0.000000
#
# Coordination Sequence:
#
# PCOD9141821 Si02
#       8
#     4   4   4   4   4   4   4   4
#     4  11  21  29  41  67  95 107 129 183 235 263
#     4   8  13  21  36  58  78 100 139 177 200 242
#     4  10  17  28  47  63  82 115 149 174 212 266
#     4  10  17  28  47  63  82 115 149 174 212 266
#     4   8  13  21  36  58  78 100 139 177 200 242
#     4   8  13  21  32  49  77 109 135 164 205 250
#     4   9  18  29  41  60  84 111 146 185 212 239
#     4   8  13  21  32  49  77 109 135 164 205 250
#
# _framework density 21.330826999999999
#
# number of rings (size 3 to 8) (size 9 to 14) (size 15 to 20)
#    0.000    3.000    2.500    1.875    0.000    0.500 
#    0.000    1.250    0.000    9.000    0.000    0.000 
#    0.000    1.000    0.000    0.000    0.000    0.000 
#
# Total GULP energy -178280.853254 kJ/mol
# GULP energy per Si atom -5571.276664 kJ/mol
# Density = 2.128228 g / cm^3
# Si number density = 21.330827 Si / 1000 Ang^3
#
#
#
# Elastic Constant Matrix: (Units=GPa)
#
#
# Indices 1 2 3 4 5 6 
#
# 1 96.6266 2.5493 79.7978 0.0000 -1.9337 0.0000
# 2 2.5493 96.2542 8.5425 0.0000 -0.4060 0.0000
# 3 79.7978 8.5425 175.4520 0.0000 -3.4057 0.0000
# 4 0.0000 0.0000 0.0000 -22.6260 0.0000 3.7243
# 5 -1.9337 -0.4060 -3.4057 0.0000 22.7868 0.0000
# 6 0.0000 0.0000 0.0000 3.7243 0.0000 32.3431
#
#
#
# Elastic Compliance Matrix: (Units=1/GPa)
#
#
# Indices 1 2 3 4 5 6 
#
# 1 0.016581 0.000232 -0.007547 0.000000 0.000283 0.000000
# 2 0.000232 0.010438 -0.000611 0.000000 0.000114 0.000000
# 3 -0.007547 -0.000611 0.009176 0.000000 0.000720 0.000000
# 4 0.000000 0.000000 0.000000 -0.043375 0.000000 0.004995
# 5 0.000283 0.000114 0.000720 0.000000 0.044019 0.000000
# 6 0.000000 0.000000 0.000000 0.004995 0.000000 0.030343
#
#
# Mechanical properties :
#
#
# Convention : Reuss Voigt Hill
#
# Bulk Modulus (GPa) = 49.16068 61.12354 55.14211
# Shear Modulus (GPa) = 55.66904 24.99700 40.33302
#
# Velocity S-wave (km/s) = 5.11416 3.42698 4.35309
# Velocity P-wave (km/s) = 7.61378 6.66154 7.15352
#
# Compressibility (1/GPa) = 0.02034146
#
# Stress axis : x y z
#
# Youngs Moduli (GPa) = 60.30830 95.80599 108.98116
#
# Poissons Ratio (x) = -0.02221 0.82251
# Poissons Ratio (y) = -0.01398 0.06663
# Poissons Ratio (z) = 0.45516 0.05858
#
# Static dielectric constant tensor:
#      x y z
#    x 1.714410 0.000000 -0.008120 
#    y 0.000000 1.803100 0.000000 
#    z -0.008120 0.000000 1.834310 
# 
# From -- ./inp_files/88539.got.cif
#   From: 2010.05.17/outbox.cif.g08.bks.cpg/sg10_45_cif.got.tgz:88539.got - 2010.06.03 11:33:40.
