data_PCOD9141812
_publ_section_title
;
Structure prediction by ZEFSAII (Michael W. Deem and Ramdas Pophale) SiO2 
 PCOD9141812
Probable space group: P 2/M
;
_chemical_formula_sum "Si O2"
_cell_formula_units_Z 30
_cell_length_a 12.522816
_cell_length_b 8.144374
_cell_length_c 18.424433
_cell_angle_alpha 90.000000
_cell_angle_beta 57.807788
_cell_angle_gamma 90.000000
_cell_volume 1590.232124
_symmetry_space_group_name_H-M "P 2/M"
_symmetry_group_IT_number 10
_symmetry_cell_setting 'monoclinic'
loop_
_space_group_symop_operation_xyz
x,y,z
-x,y,-z
-x,-y,-z
x,-y,z
loop_
_atom_site_type_symbol
_atom_site_label
_atom_site_fract_x
_atom_site_fract_y
_atom_site_fract_z
Si Si1 0.220101 0.191524 0.879405
Si Si2 0.348468 0.307434 0.186172
Si Si3 0.839050 0.198713 0.256985
Si Si4 0.775204 0.680656 0.962924
Si Si5 0.561218 0.302266 0.403835
Si Si6 0.901335 0.812255 0.782314
Si Si7 0.500000 0.746514 0.000000
Si Si8 0.506920 0.302707 0.265799
O O1 0.153876 0.255286 0.829845
O O2 0.368312 0.212308 0.807616
O O3 0.189106 0.000000 0.900601
O O4 0.199554 0.282050 0.962520
O O5 0.380278 0.500000 0.157410
O O6 0.200574 0.283371 0.228286
O O7 0.422619 0.196657 0.099889
O O8 0.395989 0.270776 0.249287
O O9 0.705249 0.248993 0.338534
O O10 0.957927 0.255839 0.260738
O O11 0.843841 0.000000 0.252391
O O12 0.822869 0.500000 0.926635
O O13 0.843938 0.805536 0.884600
O O14 0.625310 0.680836 0.997754
O O15 0.500000 0.237596 0.500000
O O16 0.560109 0.500000 0.407923
O O17 0.487743 0.255473 0.356475
O O18 0.906156 0.000000 0.755498
O O19 0.532245 0.500000 0.254391
#
# Coordination Sequence:
#
# PCOD9141812 Si02
#       8
#     4   4   4   4   4   4   2   4
#     4  10  19  31  48  71  96 128 169 212 252 290
#     4  10  18  30  48  70  98 134 170 206 250 296
#     4   9  20  37  53  70 101 136 163 198 250 306
#     4  11  20  32  47  67  96 134 175 211 253 295
#     4   9  18  33  57  86 106 122 155 204 250 300
#     4  10  21  35  48  68  97 134 175 211 245 285
#     4  10  17  28  45  64  93 130 169 206 241 286
#     4   9  17  31  50  73 104 134 158 198 259 305
#
# _framework density 18.865171
#
# number of rings (size 3 to 8) (size 9 to 14) (size 15 to 20)
#    0.000    2.267    1.333    3.200    0.000    2.933 
#    0.000    4.333    0.000    0.800    0.000    5.600 
#    0.000    0.000    0.000    0.000    0.000    0.000 
#
# Total GULP energy -167023.928957 kJ/mol
# GULP energy per Si atom -5567.464299 kJ/mol
# Density = 1.882223 g / cm^3
# Si number density = 18.865171 Si / 1000 Ang^3
#
#
#
# Elastic Constant Matrix: (Units=GPa)
#
#
# Indices 1 2 3 4 5 6 
#
# 1 134.0635 9.6908 48.1904 0.0000 10.2079 0.0000
# 2 9.6908 25.5463 4.1103 0.0000 5.0109 0.0000
# 3 48.1904 4.1103 67.4668 0.0000 13.9484 0.0000
# 4 0.0000 0.0000 0.0000 14.2395 0.0000 -1.3761
# 5 10.2079 5.0109 13.9484 0.0000 18.0232 0.0000
# 6 0.0000 0.0000 0.0000 -1.3761 0.0000 15.3923
#
#
#
# Elastic Compliance Matrix: (Units=1/GPa)
#
#
# Indices 1 2 3 4 5 6 
#
# 1 0.010226 -0.002832 -0.007259 0.000000 0.000613 0.000000
# 2 -0.002832 0.042188 0.001840 0.000000 -0.011550 0.000000
# 3 -0.007259 0.001840 0.022798 0.000000 -0.014044 0.000000
# 4 0.000000 0.000000 0.000000 0.070839 0.000000 0.006333
# 5 0.000613 -0.011550 -0.014044 0.000000 0.069217 0.000000
# 6 0.000000 0.000000 0.000000 0.006333 0.000000 0.065534
#
#
# Mechanical properties :
#
#
# Convention : Reuss Voigt Hill
#
# Bulk Modulus (GPa) = 17.03214 39.00661 28.01937
# Shear Modulus (GPa) = 15.77912 20.53667 18.15790
#
# Velocity S-wave (km/s) = 2.89522 3.30298 3.10580
# Velocity P-wave (km/s) = 4.49715 5.93865 5.26745
#
# Compressibility (1/GPa) = 0.05871254
#
# Stress axis : x y z
#
# Youngs Moduli (GPa) = 97.78620 23.70338 43.86268
#
# Poissons Ratio (x) = 0.06712 0.31839
# Poissons Ratio (y) = 0.27689 -0.08072
# Poissons Ratio (z) = 0.70981 -0.04362
#
# Static dielectric constant tensor:
#      x y z
#    x 1.681700 0.000000 0.015310 
#    y 0.000000 1.683010 0.000000 
#    z 0.015310 0.000000 1.628830 
# 
# From -- ./inp_files/76210.got.cif
#   From: 2010.05.17/outbox.cif.g08.bks.cpg/sg10_39_cif.got.tgz:76210.got - 2010.06.03 11:33:40.
