data_PCOD9141832
_publ_section_title
;
Structure prediction by ZEFSAII (Michael W. Deem and Ramdas Pophale) SiO2 
 PCOD9141832
Probable space group: P 2/M
;
_chemical_formula_sum "Si O2"
_cell_formula_units_Z 30
_cell_length_a 12.294783
_cell_length_b 9.245408
_cell_length_c 31.458599
_cell_angle_alpha 90.000000
_cell_angle_beta 28.499927
_cell_angle_gamma 90.000000
_cell_volume 1706.271785
_symmetry_space_group_name_H-M "P 2/M"
_symmetry_group_IT_number 10
_symmetry_cell_setting 'monoclinic'
loop_
_space_group_symop_operation_xyz
x,y,z
-x,y,-z
-x,-y,-z
x,-y,z
loop_
_atom_site_type_symbol
_atom_site_label
_atom_site_fract_x
_atom_site_fract_y
_atom_site_fract_z
Si Si1 0.326475 0.334254 0.221651
Si Si2 0.145077 0.665558 0.380985
Si Si3 0.500000 0.780697 0.500000
Si Si4 0.646933 0.327537 0.230018
Si Si5 0.032723 0.162507 0.709147
Si Si6 0.754161 0.828853 0.105410
Si Si7 0.757908 0.832102 0.274010
Si Si8 0.298273 0.829380 0.484746
O O1 0.380416 0.500000 0.192770
O O2 0.223610 0.331373 0.304673
O O3 0.554051 0.239072 0.145466
O O4 0.136193 0.270011 0.256151
O O5 0.080299 0.500000 0.414022
O O6 0.375209 0.705808 0.326931
O O7 0.933038 0.772479 0.456571
O O8 0.720681 0.843008 0.399138
O O9 0.363816 0.731346 0.503746
O O10 0.665259 0.500000 0.218803
O O11 0.736341 0.249351 0.157075
O O12 0.772213 0.269414 0.228569
O O13 0.079848 0.202671 0.741832
O O14 0.938721 0.000000 0.739536
O O15 0.715754 0.000000 0.123918
O O16 0.000000 0.806160 0.000000
O O17 0.504937 0.821085 0.380896
O O18 0.794885 0.000000 0.249394
O O19 0.278673 0.000000 0.505154
#
# Coordination Sequence:
#
# PCOD9141832 Si02
#       8
#     4   4   2   4   4   4   4   4
#     4  10  20  33  51  80 114 143 175 217 270 325
#     4   9  19  32  45  68 100 135 176 220 266 312
#     4  10  17  28  47  72 101 138 189 236 269 302
#     4  10  21  37  55  75 106 141 172 211 264 324
#     4  10  18  31  52  75 105 145 189 233 269 307
#     4  10  21  38  63  90 109 130 165 212 268 326
#     4   9  20  34  49  73 103 141 188 227 262 309
#     4  10  18  29  47  69  96 136 185 229 265 303
#
# _framework density 17.582193
#
# number of rings (size 3 to 8) (size 9 to 14) (size 15 to 20)
#    0.000    2.267    1.333    4.000    0.000    5.333 
#    0.000    5.333    0.000    0.800    0.000    5.600 
#    0.000    0.000    0.000    0.000    0.000    0.000 
#
# Total GULP energy -167057.631665 kJ/mol
# GULP energy per Si atom -5568.587722 kJ/mol
# Density = 1.754218 g / cm^3
# Si number density = 17.582193 Si / 1000 Ang^3
#
#
#
# Elastic Constant Matrix: (Units=GPa)
#
#
# Indices 1 2 3 4 5 6 
#
# 1 90.5371 51.5441 24.0666 0.0000 1.6112 0.0000
# 2 51.5441 68.5232 38.3275 0.0000 -5.6116 0.0000
# 3 24.0666 38.3275 44.3978 0.0000 -8.8067 0.0000
# 4 0.0000 0.0000 0.0000 86.3622 0.0000 20.0776
# 5 1.6112 -5.6116 -8.8067 0.0000 16.8050 0.0000
# 6 0.0000 0.0000 0.0000 20.0776 0.0000 25.2578
#
#
#
# Elastic Compliance Matrix: (Units=1/GPa)
#
#
# Indices 1 2 3 4 5 6 
#
# 1 0.020273 -0.017248 0.002647 0.000000 -0.006316 0.000000
# 2 -0.017248 0.043105 -0.027542 0.000000 0.001614 0.000000
# 3 0.002647 -0.027542 0.047977 0.000000 0.015692 0.000000
# 4 0.000000 0.000000 0.000000 0.014204 0.000000 -0.011291
# 5 -0.006316 0.001614 0.015692 0.000000 0.068874 0.000000
# 6 0.000000 0.000000 0.000000 -0.011291 0.000000 0.048567
#
#
# Mechanical properties :
#
#
# Convention : Reuss Voigt Hill
#
# Bulk Modulus (GPa) = 36.93980 47.92605 42.43293
# Shear Modulus (GPa) = 14.86730 31.65300 23.26015
#
# Velocity S-wave (km/s) = 2.91106 4.24758 3.64117
# Velocity P-wave (km/s) = 5.68809 7.16752 6.47023
#
# Compressibility (1/GPa) = 0.02707107
#
# Stress axis : x y z
#
# Youngs Moduli (GPa) = 49.32592 23.19926 20.84320
#
# Poissons Ratio (x) = 0.40014 -0.05518
# Poissons Ratio (y) = 0.85076 0.57406
# Poissons Ratio (z) = -0.13058 0.63895
#
# Static dielectric constant tensor:
#      x y z
#    x 1.615860 0.000000 -0.001050 
#    y 0.000000 1.602230 0.000000 
#    z -0.001050 0.000000 1.571820 
# 
# From -- ./inp_files/94866.got.cif
#   From: 2010.05.17/outbox.cif.g08.bks.cpg/sg10_48_cif.got.tgz:94866.got - 2010.06.03 11:33:40.
