data_PCOD9141808
_publ_section_title
;
Structure prediction by ZEFSAII (Michael W. Deem and Ramdas Pophale) SiO2 
 PCOD9141808
Probable space group: P 2/M
;
_chemical_formula_sum "Si O2"
_cell_formula_units_Z 28
_cell_length_a 10.161692
_cell_length_b 7.424054
_cell_length_c 33.308695
_cell_angle_alpha 90.000000
_cell_angle_beta 33.266666
_cell_angle_gamma 90.000000
_cell_volume 1378.384144
_symmetry_space_group_name_H-M "P 2/M"
_symmetry_group_IT_number 10
_symmetry_cell_setting 'monoclinic'
loop_
_space_group_symop_operation_xyz
x,y,z
-x,y,-z
-x,-y,-z
x,-y,z
loop_
_atom_site_type_symbol
_atom_site_label
_atom_site_fract_x
_atom_site_fract_y
_atom_site_fract_z
Si Si1 0.757175 0.720466 0.293305
Si Si2 0.612152 0.218560 0.106276
Si Si3 0.942962 0.213814 0.952618
Si Si4 0.699109 0.279683 0.694911
Si Si5 0.211773 0.719248 0.417145
Si Si6 0.840990 0.285233 0.183608
Si Si7 0.895878 0.707496 0.727767
O O1 0.765137 0.500000 0.291869
O O2 0.478044 0.772633 0.363394
O O3 0.872314 0.778843 0.221294
O O4 0.902455 0.786868 0.294682
O O5 0.353976 0.289203 0.184199
O O6 0.814465 0.278746 0.086894
O O7 0.597238 0.000000 0.111296
O O8 0.715900 0.277016 0.036507
O O9 0.963658 0.247368 0.900194
O O10 0.945303 0.000000 0.957515
O O11 0.695078 0.500000 0.697542
O O12 0.811490 0.227591 0.623544
O O13 0.420497 0.220004 0.765016
O O14 0.835674 0.213630 0.699494
O O15 0.208961 0.500000 0.418342
O O16 0.000000 0.782148 0.500000
O O17 0.822120 0.500000 0.190943
O O18 0.965595 0.500000 0.702761
#
# Coordination Sequence:
#
# PCOD9141808 Si02
#       7
#     4   4   4   4   4   4   4
#     4   8  16  27  41  62  90 118 142 176 220 255
#     4   9  18  30  43  62  89 115 141 182 227 259
#     4   9  17  29  44  63  86 111 144 187 225 254
#     4   8  14  23  39  62  84 110 146 180 206 245
#     4   8  13  24  41  61  89 122 145 166 210 264
#     4   9  15  27  44  62  84 113 148 182 214 256
#     4  10  17  28  44  64  89 116 146 181 217 254
#
# _framework density 20.313642000000002
#
# number of rings (size 3 to 8) (size 9 to 14) (size 15 to 20)
#    0.000    3.286    1.429    2.571    0.000    0.571 
#    0.000    3.571    0.000    8.571    0.000    0.000 
#    0.000   21.714    0.000    0.000    0.000    0.000 
#
# Total GULP energy -156082.210777 kJ/mol
# GULP energy per Si atom -5574.364671 kJ/mol
# Density = 2.026741 g / cm^3
# Si number density = 20.313642 Si / 1000 Ang^3
#
#
#
# Elastic Constant Matrix: (Units=GPa)
#
#
# Indices 1 2 3 4 5 6 
#
# 1 159.1812 5.0090 66.4443 0.0000 20.1998 0.0000
# 2 5.0090 63.1127 -7.3182 0.0000 0.8760 0.0000
# 3 66.4443 -7.3182 124.5085 0.0000 26.5519 0.0000
# 4 0.0000 0.0000 0.0000 30.5763 0.0000 10.8850
# 5 20.1998 0.8760 26.5519 0.0000 21.9614 0.0000
# 6 0.0000 0.0000 0.0000 10.8850 0.0000 0.6603
#
#
#
# Elastic Compliance Matrix: (Units=1/GPa)
#
#
# Indices 1 2 3 4 5 6 
#
# 1 0.008301 -0.001067 -0.003872 0.000000 -0.002912 0.000000
# 2 -0.001067 0.016184 0.001953 0.000000 -0.002024 0.000000
# 3 -0.003872 0.001953 0.012759 0.000000 -0.011943 0.000000
# 4 0.000000 0.000000 0.000000 -0.006717 0.000000 0.110739
# 5 -0.002912 -0.002024 -0.011943 0.000000 0.062733 0.000000
# 6 0.000000 0.000000 0.000000 0.110739 0.000000 -0.311070
#
#
# Mechanical properties :
#
#
# Convention : Reuss Voigt Hill
#
# Bulk Modulus (GPa) = 31.97805 52.78585 42.38195
# Shear Modulus (GPa) = -24.82462 29.48409 2.32974
#
# Velocity S-wave (km/s) = -3.49960 3.81391 1.07209
# Velocity P-wave (km/s) = 0.74381 6.74065 4.73725
#
# Compressibility (1/GPa) = 0.03127145
#
# Stress axis : x y z
#
# Youngs Moduli (GPa) = 120.46161 61.78984 78.37298
#
# Poissons Ratio (x) = 0.06595 0.30345
# Poissons Ratio (y) = 0.12858 -0.15303
# Poissons Ratio (z) = 0.46641 -0.12065
#
# Static dielectric constant tensor:
#      x y z
#    x 1.727420 0.000000 0.032590 
#    y 0.000000 1.781070 0.000000 
#    z 0.032590 0.000000 1.706990 
# 
# From -- ./inp_files/34564.got.cif
#   From: 2010.05.17/outbox.cif.g08.bks.cpg/sg10_18_cif.got.tgz:34564.got - 2010.06.03 11:33:40.
