data_PCOD9141246
_publ_section_title
;
Structure prediction by ZEFSAII (Michael W. Deem and Ramdas Pophale) SiO2 
 PCOD9141246
Probable space group: C C
;
_chemical_formula_sum "Si O2"
_cell_formula_units_Z 16
_cell_length_a 15.000000
_cell_length_b 21.000000
_cell_length_c 9.000000
_cell_angle_alpha 90.000000
_cell_angle_beta 30.000000
_cell_angle_gamma 90.000000
_cell_volume 1417.500000
_symmetry_space_group_name_H-M "C C"
_symmetry_group_IT_number 9
_symmetry_cell_setting 'monoclinic'
loop_
_space_group_symop_operation_xyz
x,y,z
x,-y,1/2+z
1/2+x,1/2+y,z
1/2+x,1/2-y,1/2+z
loop_
_atom_site_type_symbol
_atom_site_label
_atom_site_fract_x
_atom_site_fract_y
_atom_site_fract_z
Si Si1 0.398380 0.454239 0.025710
Si Si2 0.647374 0.164894 0.566216
Si Si3 0.951490 0.919282 0.605587
Si Si4 0.736636 0.757745 0.363983
Si Si5 0.264649 0.827002 0.094174
Si Si6 0.864181 0.286590 0.264245
Si Si7 0.573318 0.667518 0.372118
Si Si8 0.049717 0.615273 0.016403
O O1 0.478685 0.519807 0.964524
O O2 0.184090 0.443196 0.343006
O O3 0.445669 0.438939 0.787016
O O4 0.474380 0.398703 0.022058
O O5 0.758133 0.107056 0.341026
O O6 0.784468 0.218508 0.425535
O O7 0.543909 0.200579 0.588393
O O8 0.540274 0.134953 0.857844
O O9 0.081054 0.859791 0.401142
O O10 0.744636 0.734548 0.519774
O O11 0.658800 0.696560 0.394601
O O12 0.631778 0.821336 0.475618
O O13 0.933925 0.777405 0.027935
O O14 0.367736 0.801147 0.087622
O O15 0.362714 0.884766 0.866427
O O16 0.725846 0.337315 0.531269
#
# Coordination Sequence:
#
# PCOD9141246 Si02
#       8
#     4   4   4   4   4   4   4   4
#     4  10  25  48  69  93 132 185 228 270 333 402
#     4  11  25  43  70  95 140 182 218 278 338 409
#     4  11  26  49  67  97 134 183 229 278 331 396
#     4  11  22  38  66 101 135 173 208 270 348 396
#     4  12  25  41  66 107 137 166 230 279 337 397
#     4  12  23  39  68 105 137 168 221 276 350 397
#     4  11  21  42  69  98 133 176 217 269 336 411
#     4  10  23  44  67  98 136 173 225 272 339 404
#
# _framework density 11.287478
#
# number of rings (size 3 to 8) (size 9 to 14) (size 15 to 20)
#    0.000    1.000    3.750    2.250    7.000    1.000 
#    2.250    1.250    0.000    0.000    0.000    0.000 
#    0.000    0.000    0.000    0.000    0.000    0.000 
#
# Total GULP energy -89240.292027 kJ/mol
# GULP energy per Si atom -5577.518252 kJ/mol
# Density = 1.126179 g / cm^3
# Si number density = 11.287478 Si / 1000 Ang^3
#
#
#
# Elastic Constant Matrix: (Units=GPa)
#
#
# Indices 1 2 3 4 5 6 
#
# 1 119.3102 17.6763 28.4583 0.0012 3.6784 -0.0004
# 2 17.6763 33.4082 -9.4893 0.0022 -6.8730 0.0000
# 3 28.4583 -9.4893 75.4429 0.0060 3.8700 0.0002
# 4 0.0012 0.0022 0.0060 14.5013 -0.0014 0.4867
# 5 3.6784 -6.8730 3.8700 -0.0014 19.8768 0.0007
# 6 -0.0004 0.0000 0.0002 0.4867 0.0007 19.9831
#
#
#
# Elastic Compliance Matrix: (Units=1/GPa)
#
#
# Indices 1 2 3 4 5 6 
#
# 1 0.010834 -0.007899 -0.004886 0.000002 -0.003785 0.000000
# 2 -0.007899 0.038935 0.007183 -0.000007 0.013526 0.000000
# 3 -0.004886 0.007183 0.015988 -0.000007 0.000275 0.000000
# 4 0.000002 -0.000007 -0.000007 0.069016 0.000004 -0.001681
# 5 -0.003785 0.013526 0.000275 0.000004 0.055634 -0.000002
# 6 0.000000 0.000000 0.000000 -0.001681 -0.000002 0.050083
#
#
# Mechanical properties :
#
#
# Convention : Reuss Voigt Hill
#
# Bulk Modulus (GPa) = 18.33091 33.49467 25.91279
# Shear Modulus (GPa) = 18.52693 23.63995 21.08344
#
# Velocity S-wave (km/s) = 2.86787 3.23952 3.05934
# Velocity P-wave (km/s) = 4.37080 5.37233 4.89724
#
# Compressibility (1/GPa) = 0.05455267
#
# Stress axis : x y z
#
# Youngs Moduli (GPa) = 92.30301 25.68387 62.54873
#
# Poissons Ratio (x) = 0.20287 0.30562
# Poissons Ratio (y) = 0.72908 -0.44928
# Poissons Ratio (z) = 0.45100 -0.18449
#
# Static dielectric constant tensor:
#      x y z
#    x 1.862960 0.000000 -0.049950 
#    y 0.000000 1.791020 0.000000 
#    z -0.049950 0.000000 2.008430 
# 
# From -- ./inp_files/10081.got.cif
#   From: 2010.05.17/outbox.ucp.g08.bks.cvg/sg9_6_cif.got.tgz:10081.got - 2010.06.11 13:03:20.
