data_PCOD9141097
_publ_section_title
;
Structure prediction by ZEFSAII (Michael W. Deem and Ramdas Pophale) SiO2 
 PCOD9141097
Probable space group: C C
;
_chemical_formula_sum "Si O2"
_cell_formula_units_Z 32
_cell_length_a 11.625032
_cell_length_b 16.516820
_cell_length_c 9.006564
_cell_angle_alpha 90.000000
_cell_angle_beta 125.596285
_cell_angle_gamma 90.000000
_cell_volume 1406.190820
_symmetry_space_group_name_H-M "C C"
_symmetry_group_IT_number 9
_symmetry_cell_setting 'monoclinic'
loop_
_space_group_symop_operation_xyz
x,y,z
x,-y,1/2+z
1/2+x,1/2+y,z
1/2+x,1/2-y,1/2+z
loop_
_atom_site_type_symbol
_atom_site_label
_atom_site_fract_x
_atom_site_fract_y
_atom_site_fract_z
Si Si1 0.170040 0.602957 0.125000
Si Si2 0.244019 0.922812 0.047584
Si Si3 0.002569 0.672380 0.245245
Si Si4 0.005740 0.326486 0.240612
Si Si5 0.661005 0.084463 0.606129
Si Si6 0.965539 0.852347 0.340009
Si Si7 0.251094 0.913888 0.407552
Si Si8 0.968882 0.140681 0.199303
O O1 0.162292 0.508259 0.160865
O O2 0.318710 0.619544 0.158155
O O3 0.134345 0.664995 0.230408
O O4 0.048172 0.620722 0.914017
O O5 0.347150 0.850260 0.076097
O O6 0.236463 0.922594 0.219965
O O7 0.090240 0.913946 0.860867
O O8 0.306912 0.003668 0.023624
O O9 0.981427 0.757575 0.310867
O O10 0.043182 0.602638 0.393572
O O11 0.862249 0.653152 0.046238
O O12 0.009748 0.232127 0.273052
O O13 0.117776 0.353620 0.202492
O O14 0.817943 0.109886 0.672173
O O15 0.967353 0.864504 0.519496
O O16 0.099503 0.894477 0.365165
#
# Coordination Sequence:
#
# PCOD9141097 Si02
#       8
#     4   4   4   4   4   4   4   4
#     4  12  26  48  75 108 144 194 254 305 362 441
#     4  12  28  47  76 108 149 193 243 304 370 439
#     4  12  28  45  76 110 149 192 247 307 369 436
#     4  12  26  47  74 105 147 191 249 303 368 436
#     4  12  26  48  76 106 150 197 245 305 368 443
#     4  12  28  49  73 109 151 194 244 306 376 438
#     4  12  28  48  74 110 150 193 243 304 369 442
#     4  12  28  48  76 106 148 196 245 306 374 439
#
# _framework density 22.756513999999999
#
# number of rings (size 3 to 8) (size 9 to 14) (size 15 to 20)
#    0.000    0.000    3.750    5.250    8.750    0.000 
#    0.000    0.000    0.000    0.000    0.000    0.000 
#    0.000    0.000    0.000    0.000    0.000    0.000 
#
# Total GULP energy -89588.137075 kJ/mol
# GULP energy per Si atom -5599.258567 kJ/mol
# Density = 2.270472 g / cm^3
# Si number density = 22.756514 Si / 1000 Ang^3
#
#
#
# Elastic Constant Matrix: (Units=GPa)
#
#
# Indices 1 2 3 4 5 6 
#
# 1 108.8995 8.8541 20.6915 0.0000 5.7975 0.0000
# 2 8.8541 90.0534 12.9471 0.0000 2.3741 0.0000
# 3 20.6915 12.9471 98.6718 0.0000 6.9964 0.0000
# 4 0.0000 0.0000 0.0000 24.1301 0.0000 10.6059
# 5 5.7975 2.3741 6.9964 0.0000 32.0608 0.0000
# 6 0.0000 0.0000 0.0000 10.6059 0.0000 31.9083
#
#
#
# Elastic Compliance Matrix: (Units=1/GPa)
#
#
# Indices 1 2 3 4 5 6 
#
# 1 0.009656 -0.000650 -0.001848 0.000000 -0.001295 0.000000
# 2 -0.000650 0.011370 -0.001325 0.000000 -0.000435 0.000000
# 3 -0.001848 -0.001325 0.010833 0.000000 -0.001932 0.000000
# 4 0.000000 0.000000 0.000000 0.048532 0.000000 -0.016132
# 5 -0.001295 -0.000435 -0.001932 0.000000 0.031879 0.000000
# 6 0.000000 0.000000 0.000000 -0.016132 0.000000 0.036702
#
#
# Mechanical properties :
#
#
# Convention : Reuss Voigt Hill
#
# Bulk Modulus (GPa) = 41.29755 42.51221 41.90488
# Shear Modulus (GPa) = 30.36055 34.62864 32.49459
#
# Velocity S-wave (km/s) = 3.65656 3.90513 3.78289
# Velocity P-wave (km/s) = 6.00119 6.24942 6.12656
#
# Compressibility (1/GPa) = 0.02421451
#
# Stress axis : x y z
#
# Youngs Moduli (GPa) = 103.56683 87.94807 92.31138
#
# Poissons Ratio (x) = 0.05713 0.17057
# Poissons Ratio (y) = 0.06727 0.12230
# Poissons Ratio (z) = 0.19137 0.11652
#
# Static dielectric constant tensor:
#      x y z
#    x 1.833930 0.000000 -0.023760 
#    y 0.000000 1.818650 0.000000 
#    z -0.023760 0.000000 1.849740 
# 
# From -- ./inp_files/7664.got.cif
#   From: 2010.05.17/outbox.cif.g08.bks.cpg/sg9_4_cif.got.tgz:7664.got - 2010.06.03 20:04:27.
