data_PCOD9141531
_publ_section_title
;
Structure prediction by ZEFSAII (Michael W. Deem and Ramdas Pophale) SiO2 
 PCOD9141531
Probable space group: P 2/M
;
_chemical_formula_sum "Si O2"
_cell_formula_units_Z 32
_cell_length_a 17.099990
_cell_length_b 18.099564
_cell_length_c 13.030714
_cell_angle_alpha 90.000000
_cell_angle_beta 154.195309
_cell_angle_gamma 90.000000
_cell_volume 1755.600309
_symmetry_space_group_name_H-M "P 2/M"
_symmetry_group_IT_number 10
_symmetry_cell_setting 'monoclinic'
loop_
_space_group_symop_operation_xyz
x,y,z
-x,y,-z
-x,-y,-z
x,-y,z
loop_
_atom_site_type_symbol
_atom_site_label
_atom_site_fract_x
_atom_site_fract_y
_atom_site_fract_z
Si Si1 0.350198 0.234949 0.062402
Si Si2 0.893134 0.178433 0.965021
Si Si3 0.871786 0.583952 0.749519
Si Si4 0.377651 0.703361 0.454007
Si Si5 0.197207 0.237035 0.674864
Si Si6 0.226211 0.915476 0.997097
Si Si7 0.982472 0.709155 0.730214
Si Si8 0.126094 0.921510 0.547500
O O1 0.515316 0.256132 0.328603
O O2 0.318820 0.146361 0.034824
O O3 0.340044 0.257230 0.931104
O O4 0.177845 0.275302 0.911344
O O5 0.772675 0.241977 0.770139
O O6 0.776163 0.122002 0.893753
O O7 0.026121 0.223571 0.198159
O O8 0.000000 0.140020 0.000000
O O9 0.833804 0.500000 0.672793
O O10 0.702641 0.630273 0.589947
O O11 0.962306 0.633318 0.767657
O O12 0.000000 0.581995 0.000000
O O13 0.500000 0.685739 0.500000
O O14 0.234291 0.153625 0.681558
O O15 0.000000 0.235785 0.500000
O O16 0.162200 0.284302 0.531825
O O17 0.292597 0.000000 0.070768
O O18 0.018741 0.917083 0.714953
O O19 0.000000 0.923562 0.500000
O O20 0.224291 0.000000 0.658343
#
# Coordination Sequence:
#
# PCOD9141531 Si02
#       8
#     4   4   4   4   4   4   4   4
#     4  10  19  31  52  82 107 142 181 219 260 307
#     4  11  19  33  53  73 101 146 179 220 258 315
#     4  11  22  37  59  85 106 132 172 217 269 325
#     4  12  20  34  55  79 108 140 170 218 269 318
#     4   9  15  27  49  77 104 134 181 221 251 306
#     4  10  18  28  47  77 109 140 180 226 268 301
#     4  10  16  34  55  77 104 137 172 217 256 316
#     4   9  13  20  40  71 103 128 163 223 268 284
#
# _framework density 18.227383
#
# number of rings (size 3 to 8) (size 9 to 14) (size 15 to 20)
#    0.000    1.750   10.000    0.000    0.000    0.500 
#    0.000    2.500    0.000    4.875    0.000    0.000 
#    0.000    4.000    0.000    0.000    0.000    0.000 
#
# Total GULP energy -178233.698392 kJ/mol
# GULP energy per Si atom -5569.803075 kJ/mol
# Density = 1.818590 g / cm^3
# Si number density = 18.227383 Si / 1000 Ang^3
#
#
#
# Elastic Constant Matrix: (Units=GPa)
#
#
# Indices 1 2 3 4 5 6 
#
# 1 32.0655 28.9245 25.7700 0.0000 -16.9063 0.0000
# 2 28.9245 123.6006 32.9153 0.0000 -13.2229 0.0000
# 3 25.7700 32.9153 73.7049 0.0000 -31.0721 0.0000
# 4 0.0000 0.0000 0.0000 19.1814 0.0000 -11.7621
# 5 -16.9063 -13.2229 -31.0721 0.0000 26.5754 0.0000
# 6 0.0000 0.0000 0.0000 -11.7621 0.0000 -24.7961
#
#
#
# Elastic Compliance Matrix: (Units=1/GPa)
#
#
# Indices 1 2 3 4 5 6 
#
# 1 0.057255 -0.009313 -0.004847 0.000000 0.026123 0.000000
# 2 -0.009313 0.010700 -0.003501 0.000000 -0.004695 0.000000
# 3 -0.004847 -0.003501 0.029169 0.000000 0.029280 0.000000
# 4 0.000000 0.000000 0.000000 0.040386 0.000000 -0.019157
# 5 0.026123 -0.004695 0.029280 0.000000 0.086145 0.000000
# 6 0.000000 0.000000 0.000000 -0.019157 0.000000 -0.031242
#
#
# Mechanical properties :
#
#
# Convention : Reuss Voigt Hill
#
# Bulk Modulus (GPa) = 16.18058 44.95449 30.56754
# Shear Modulus (GPa) = 20.13379 13.64288 16.88833
#
# Velocity S-wave (km/s) = 3.32714 2.73881 3.04721
# Velocity P-wave (km/s) = 4.86376 5.89221 5.40251
#
# Compressibility (1/GPa) = 0.06180248
#
# Stress axis : x y z
#
# Youngs Moduli (GPa) = 17.46557 93.45593 34.28265
#
# Poissons Ratio (x) = 0.87038 0.16615
# Poissons Ratio (y) = 0.16266 0.12004
# Poissons Ratio (z) = 0.08465 0.32722
#
# Static dielectric constant tensor:
#      x y z
#    x 1.695570 0.000000 -0.002430 
#    y 0.000000 1.619640 0.000000 
#    z -0.002430 0.000000 1.661890 
# 
# From -- ./inp_files/54149.got.cif
#   From: 2010.05.17/outbox.cif.g08.bks.cpg/sg10_28_cif.got.tgz:54149.got - 2010.06.03 11:33:40.
