data_PCOD9141848
_publ_section_title
;
Structure prediction by ZEFSAII (Michael W. Deem and Ramdas Pophale) SiO2 
 PCOD9141848
Probable space group: P 2/M
;
_chemical_formula_sum "Si O2"
_cell_formula_units_Z 28
_cell_length_a 9.937219
_cell_length_b 12.649531
_cell_length_c 15.881502
_cell_angle_alpha 90.000000
_cell_angle_beta 63.225201
_cell_angle_gamma 90.000000
_cell_volume 1782.285523
_symmetry_space_group_name_H-M "P 2/M"
_symmetry_group_IT_number 10
_symmetry_cell_setting 'monoclinic'
loop_
_space_group_symop_operation_xyz
x,y,z
-x,y,-z
-x,-y,-z
x,-y,z
loop_
_atom_site_type_symbol
_atom_site_label
_atom_site_fract_x
_atom_site_fract_y
_atom_site_fract_z
Si Si1 0.275140 0.716756 0.219344
Si Si2 0.349994 0.500000 0.916940
Si Si3 0.335560 0.878665 0.067386
Si Si4 0.160548 0.622355 0.411139
Si Si5 0.299971 0.500000 0.120577
Si Si6 0.828611 0.877544 0.065252
Si Si7 0.477400 0.626080 0.409932
Si Si8 0.387216 0.294303 0.799297
O O1 0.254301 0.813670 0.162746
O O2 0.175615 0.703341 0.330262
O O3 0.245969 0.609679 0.175236
O O4 0.448258 0.723990 0.204069
O O5 0.523816 0.500000 0.900382
O O6 0.325727 0.397226 0.866352
O O7 0.268035 0.500000 0.029947
O O8 0.358362 0.000000 0.088171
O O9 0.500000 0.830514 0.000000
O O10 0.248030 0.876925 0.004826
O O11 0.178935 0.500000 0.375138
O O12 0.302659 0.639961 0.432419
O O13 0.000000 0.630247 0.500000
O O14 0.727502 0.801547 0.151808
O O15 0.831105 0.000000 0.094851
O O16 0.000000 0.842440 0.000000
O O17 0.500000 0.661176 0.500000
O O18 0.509717 0.500000 0.397041
O O19 0.577197 0.680243 0.308525
#
# Coordination Sequence:
#
# PCOD9141848 Si02
#       8
#     4   2   4   4   2   4   4   4
#     4  10  17  28  48  75  98 129 163 200 241 283
#     4   9  16  24  42  68 100 128 153 192 239 282
#     4  10  19  32  51  75  98 124 165 206 234 282
#     4   9  17  31  48  70 100 128 161 201 242 289
#     4   9  16  22  39  72 102 126 155 187 236 291
#     4  10  21  36  51  70  99 134 165 197 244 293
#     4   9  17  31  51  70  93 129 168 201 237 287
#     4  10  17  30  50  71  97 130 165 200 239 289
#
# _framework density 15.710165
#
# number of rings (size 3 to 8) (size 9 to 14) (size 15 to 20)
#    0.000    2.429    2.857    0.857    2.000    0.000 
#    2.571    0.357    0.000    0.857    0.000    0.000 
#    0.000    0.000    0.000    0.000    0.000    0.000 
#
# Total GULP energy -155895.579344 kJ/mol
# GULP energy per Si atom -5567.699262 kJ/mol
# Density = 1.567441 g / cm^3
# Si number density = 15.710165 Si / 1000 Ang^3
#
#
#
# Elastic Constant Matrix: (Units=GPa)
#
#
# Indices 1 2 3 4 5 6 
#
# 1 40.7342 16.3282 38.3499 0.0000 -7.7985 0.0000
# 2 16.3282 64.6228 53.1195 0.0000 -3.1640 0.0000
# 3 38.3499 53.1195 125.9653 0.0000 7.7170 0.0000
# 4 0.0000 0.0000 0.0000 -5.6792 0.0000 -10.5908
# 5 -7.7985 -3.1640 7.7170 0.0000 21.1074 0.0000
# 6 0.0000 0.0000 0.0000 -10.5908 0.0000 8.5088
#
#
#
# Elastic Compliance Matrix: (Units=1/GPa)
#
#
# Indices 1 2 3 4 5 6 
#
# 1 0.041939 0.003128 -0.015411 0.000000 0.021598 0.000000
# 2 0.003128 0.025093 -0.012106 0.000000 0.009343 0.000000
# 3 -0.015411 -0.012106 0.018613 0.000000 -0.014313 0.000000
# 4 0.000000 0.000000 0.000000 -0.053019 0.000000 -0.065991
# 5 0.021598 0.009343 -0.014313 0.000000 0.061990 0.000000
# 6 0.000000 0.000000 0.000000 -0.065991 0.000000 0.035387
#
#
# Mechanical properties :
#
#
# Convention : Reuss Voigt Hill
#
# Bulk Modulus (GPa) = 27.12464 49.65749 38.39107
# Shear Modulus (GPa) = 26.16842 13.02238 19.59540
#
# Velocity S-wave (km/s) = 4.08573 2.88221 3.53556
# Velocity P-wave (km/s) = 6.28973 6.53860 6.41537
#
# Compressibility (1/GPa) = 0.03686684
#
# Stress axis : x y z
#
# Youngs Moduli (GPa) = 23.84413 39.85192 53.72715
#
# Poissons Ratio (x) = -0.12466 0.82797
# Poissons Ratio (y) = -0.07459 0.65044
# Poissons Ratio (z) = 0.36745 0.48246
#
# Static dielectric constant tensor:
#      x y z
#    x 1.530620 0.000000 0.000850 
#    y 0.000000 1.533510 0.000000 
#    z 0.000850 0.000000 1.523700 
# 
# From -- ./inp_files/46177.got.cif
#   From: 2010.05.17/outbox.cif.g08.bks.cpg/sg10_24_cif.got.tgz:46177.got - 2010.06.03 11:33:40.
