data_PCOD9141316
_publ_section_title
;
Structure prediction by ZEFSAII (Michael W. Deem and Ramdas Pophale) SiO2 
 PCOD9141316
Probable space group: P 2/M
;
_chemical_formula_sum "Si O2"
_cell_formula_units_Z 24
_cell_length_a 18.547822
_cell_length_b 8.755779
_cell_length_c 12.917734
_cell_angle_alpha 90.000000
_cell_angle_beta 28.413760
_cell_angle_gamma 90.000000
_cell_volume 998.230515
_symmetry_space_group_name_H-M "P 2/M"
_symmetry_group_IT_number 10
_symmetry_cell_setting 'monoclinic'
loop_
_space_group_symop_operation_xyz
x,y,z
-x,y,-z
-x,-y,-z
x,-y,z
loop_
_atom_site_type_symbol
_atom_site_label
_atom_site_fract_x
_atom_site_fract_y
_atom_site_fract_z
Si Si1 0.714108 0.824073 0.457442
Si Si2 0.851686 0.000000 0.121702
Si Si3 0.636910 0.000000 0.238251
Si Si4 0.922057 0.673548 0.355437
Si Si5 0.648602 0.324413 0.867128
Si Si6 0.540429 0.332286 0.324255
Si Si7 0.137512 0.179104 0.242381
O O1 0.765839 0.852040 0.274196
O O2 0.857729 0.778183 0.344674
O O3 0.593904 0.690373 0.592271
O O4 0.664445 0.000000 0.550781
O O5 0.810728 0.000000 0.056969
O O6 0.000000 0.000000 0.000000
O O7 0.500000 0.000000 0.500000
O O8 0.615920 0.165588 0.214798
O O9 0.944932 0.500000 0.290930
O O10 0.782342 0.676262 0.613200
O O11 0.069089 0.732104 0.230399
O O12 0.612851 0.500000 0.937923
O O13 0.717492 0.246112 0.880983
O O14 0.500000 0.254400 0.000000
O O15 0.500000 0.335634 0.500000
O O16 0.611053 0.500000 0.216263
O O17 0.000000 0.193673 0.500000
O O18 0.158397 0.000000 0.199300
#
# Coordination Sequence:
#
# PCOD9141316 Si02
#       7
#     4   2   2   4   4   4   4
#     4  10  18  32  52  76 107 130 173 221 264 313
#     4  10  20  34  58  78 104 140 170 219 277 325
#     4  10  14  34  52  80 102 128 181 221 253 316
#     4  10  19  31  52  78 103 136 177 215 259 313
#     4   9  18  33  53  76 105 138 171 214 262 306
#     4  10  16  27  53  80 101 134 177 222 263 311
#     4   9  17  30  49  73 100 135 179 214 247 305
#
# _framework density 24.042542999999998
#
# number of rings (size 3 to 8) (size 9 to 14) (size 15 to 20)
#    0.500    1.833    4.167    1.500    0.000    3.000 
#    0.000    0.000    3.667    4.500    0.000    0.000 
#    0.000    0.000    0.000    0.000    0.000    0.000 
#
# Total GULP energy -133733.145996 kJ/mol
# GULP energy per Si atom -5572.214417 kJ/mol
# Density = 2.398782 g / cm^3
# Si number density = 24.042543 Si / 1000 Ang^3
#
#
#
# Elastic Constant Matrix: (Units=GPa)
#
#
# Indices 1 2 3 4 5 6 
#
# 1 137.6059 56.4950 39.0978 0.0000 -46.4692 0.0000
# 2 56.4950 166.4951 36.9764 0.0000 -30.7690 0.0000
# 3 39.0978 36.9764 77.2464 0.0000 -38.0059 0.0000
# 4 0.0000 0.0000 0.0000 26.9593 0.0000 -12.0076
# 5 -46.4692 -30.7690 -38.0059 0.0000 58.2554 0.0000
# 6 0.0000 0.0000 0.0000 -12.0076 0.0000 38.4511
#
#
#
# Elastic Compliance Matrix: (Units=1/GPa)
#
#
# Indices 1 2 3 4 5 6 
#
# 1 0.010728 -0.002158 -0.001101 0.000000 0.006700 0.000000
# 2 -0.002158 0.007340 -0.002004 0.000000 0.000848 0.000000
# 3 -0.001101 -0.002004 0.019895 0.000000 0.011043 0.000000
# 4 0.000000 0.000000 0.000000 0.043086 0.000000 0.013455
# 5 0.006700 0.000848 0.011043 0.000000 0.030163 0.000000
# 6 0.000000 0.000000 0.000000 0.013455 0.000000 0.030209
#
#
# Mechanical properties :
#
#
# Convention : Reuss Voigt Hill
#
# Bulk Modulus (GPa) = 36.44489 71.83175 54.13832
# Shear Modulus (GPa) = 31.03802 41.31837 36.17820
#
# Velocity S-wave (km/s) = 3.59689 4.15004 3.88333
# Velocity P-wave (km/s) = 5.69575 7.27362 6.53250
#
# Compressibility (1/GPa) = 0.02743869
#
# Stress axis : x y z
#
# Youngs Moduli (GPa) = 93.21126 136.23650 50.26276
#
# Poissons Ratio (x) = 0.29395 0.05533
# Poissons Ratio (y) = 0.20112 0.10074
# Poissons Ratio (z) = 0.10260 0.27304
#
# Static dielectric constant tensor:
#      x y z
#    x 1.932730 0.000000 0.064680 
#    y 0.000000 1.873640 0.000000 
#    z 0.064680 0.000000 2.106250 
# 
# From -- ./inp_files/78606.got.cif
#   From: 2010.05.17/outbox.cif.g08.bks.cpg/sg10_40_cif.got.tgz:78606.got - 2010.06.03 11:33:40.
