data_PCOD9141926
_publ_section_title
;
Structure prediction by ZEFSAII (Michael W. Deem and Ramdas Pophale) SiO2 
 PCOD9141926
Probable space group: P 2/M
;
_chemical_formula_sum "Si O2"
_cell_formula_units_Z 32
_cell_length_a 23.745330
_cell_length_b 7.874494
_cell_length_c 13.461448
_cell_angle_alpha 90.000000
_cell_angle_beta 146.030810
_cell_angle_gamma 90.000000
_cell_volume 1406.396780
_symmetry_space_group_name_H-M "P 2/M"
_symmetry_group_IT_number 10
_symmetry_cell_setting 'monoclinic'
loop_
_space_group_symop_operation_xyz
x,y,z
-x,y,-z
-x,-y,-z
x,-y,z
loop_
_atom_site_type_symbol
_atom_site_label
_atom_site_fract_x
_atom_site_fract_y
_atom_site_fract_z
Si Si1 0.755345 0.192257 0.843918
Si Si2 0.734569 0.699730 0.177722
Si Si3 0.556977 0.194587 0.677378
Si Si4 0.125016 0.205900 0.803921
Si Si5 0.079068 0.792856 0.199890
Si Si6 0.700551 0.203559 0.545663
Si Si7 0.482404 0.310810 0.165987
Si Si8 0.081357 0.205006 0.427788
O O1 0.668215 0.178558 0.798534
O O2 0.708936 0.262697 0.673914
O O3 0.791174 0.000000 0.870086
O O4 0.839438 0.275280 0.035924
O O5 0.718444 0.500000 0.143122
O O6 0.798977 0.752778 0.174339
O O7 0.809730 0.734209 0.377932
O O8 0.621276 0.775886 0.025887
O O9 0.500000 0.267587 0.500000
O O10 0.544310 0.302932 0.755890
O O11 0.518571 0.000000 0.641220
O O12 0.008006 0.258503 0.628077
O O13 0.125891 0.000000 0.810757
O O14 0.193722 0.738383 0.345534
O O15 0.056051 0.741967 0.278708
O O16 0.077257 0.000000 0.194242
O O17 0.000000 0.735013 0.000000
O O18 0.597892 0.247791 0.337482
O O19 0.700615 0.000000 0.547773
O O20 0.487786 0.500000 0.132450
O O21 0.085129 0.000000 0.435417
#
# Coordination Sequence:
#
# PCOD9141926 Si02
#       8
#     4   4   4   4   4   4   4   4
#     4   9  16  27  49  81 112 142 177 215 264 327
#     4  11  24  39  54  76 110 153 192 228 276 328
#     4  10  17  29  49  74 107 146 185 221 266 328
#     4  10  19  33  56  84 114 146 182 226 274 330
#     4   9  18  36  64  94 118 138 172 227 281 328
#     4  10  19  34  58  85 113 148 185 223 273 332
#     4  11  23  36  50  75 112 150 190 233 276 321
#     4  10  21  37  59  87 112 140 182 230 279 328
#
# _framework density 22.753181000000001
#
# number of rings (size 3 to 8) (size 9 to 14) (size 15 to 20)
#    0.000    2.000    2.500    1.875    0.000    6.750 
#    0.000    1.875    0.000    6.750    0.000    0.000 
#    0.000    0.000    0.000    0.000    0.000    0.000 
#
# Total GULP energy -178294.305979 kJ/mol
# GULP energy per Si atom -5571.697062 kJ/mol
# Density = 2.270139 g / cm^3
# Si number density = 22.753181 Si / 1000 Ang^3
#
#
#
# Elastic Constant Matrix: (Units=GPa)
#
#
# Indices 1 2 3 4 5 6 
#
# 1 77.5304 3.7976 50.6474 0.0000 22.1428 0.0000
# 2 3.7976 27.4327 6.4588 0.0000 3.9424 0.0000
# 3 50.6474 6.4588 184.3222 0.0000 19.8170 0.0000
# 4 0.0000 0.0000 0.0000 21.1910 0.0000 -37.2362
# 5 22.1428 3.9424 19.8170 0.0000 39.8948 0.0000
# 6 0.0000 0.0000 0.0000 -37.2362 0.0000 11.6564
#
#
#
# Elastic Compliance Matrix: (Units=1/GPa)
#
#
# Indices 1 2 3 4 5 6 
#
# 1 0.017788 -0.000388 -0.004032 0.000000 -0.007832 0.000000
# 2 -0.000388 0.037146 -0.000870 0.000000 -0.003023 0.000000
# 3 -0.004032 -0.000870 0.006670 0.000000 -0.000989 0.000000
# 4 0.000000 0.000000 0.000000 -0.010229 0.000000 -0.032677
# 5 -0.007832 -0.003023 -0.000989 0.000000 0.030203 0.000000
# 6 0.000000 0.000000 0.000000 -0.032677 0.000000 -0.018596
#
#
# Mechanical properties :
#
#
# Convention : Reuss Voigt Hill
#
# Bulk Modulus (GPa) = 19.59853 45.67697 32.63775
# Shear Modulus (GPa) = 55.20666 29.77387 42.49026
#
# Velocity S-wave (km/s) = 4.93112 3.62132 4.32608
# Velocity P-wave (km/s) = 6.40730 6.13220 6.27126
#
# Compressibility (1/GPa) = 0.05102425
#
# Stress axis : x y z
#
# Youngs Moduli (GPa) = 56.21802 26.92095 149.92362
#
# Poissons Ratio (x) = 0.01043 0.60451
# Poissons Ratio (y) = 0.02179 0.13044
# Poissons Ratio (z) = 0.22668 0.02342
#
# Static dielectric constant tensor:
#      x y z
#    x 1.839550 0.000000 0.033850 
#    y 0.000000 1.868870 0.000000 
#    z 0.033850 0.000000 1.945660 
# 
# From -- ./inp_files/72224.got.cif
#   From: 2010.05.17/outbox.cif.g08.bks.cpg/sg10_37_cif.got.tgz:72224.got - 2010.06.03 11:33:40.
