data_PCOD9141711
_publ_section_title
;
Structure prediction by ZEFSAII (Michael W. Deem and Ramdas Pophale) SiO2 
 PCOD9141711
Probable space group: P 2/M
;
_chemical_formula_sum "Si O2"
_cell_formula_units_Z 24
_cell_length_a 24.498944
_cell_length_b 7.648717
_cell_length_c 12.642156
_cell_angle_alpha 90.000000
_cell_angle_beta 145.476677
_cell_angle_gamma 90.000000
_cell_volume 1342.586393
_symmetry_space_group_name_H-M "P 2/M"
_symmetry_group_IT_number 10
_symmetry_cell_setting 'monoclinic'
loop_
_space_group_symop_operation_xyz
x,y,z
-x,y,-z
-x,-y,-z
x,-y,z
loop_
_atom_site_type_symbol
_atom_site_label
_atom_site_fract_x
_atom_site_fract_y
_atom_site_fract_z
Si Si1 0.154635 0.200183 0.264645
Si Si2 0.268498 0.212184 0.072417
Si Si3 0.948906 0.293398 0.314495
Si Si4 0.326109 0.214970 0.402117
Si Si5 0.469646 0.796151 0.327418
Si Si6 0.989707 0.297309 0.147779
O O1 0.255165 0.273713 0.381732
O O2 0.094822 0.288688 0.262597
O O3 0.169587 0.000000 0.320268
O O4 0.083605 0.204422 0.049338
O O5 0.165958 0.271091 0.866288
O O6 0.270841 0.000000 0.075565
O O7 0.283163 0.265938 0.218660
O O8 0.361636 0.276922 0.155351
O O9 0.971825 0.500000 0.348621
O O10 0.000000 0.218586 0.500000
O O11 0.983683 0.223329 0.256176
O O12 0.436933 0.276358 0.583301
O O13 0.326450 0.000000 0.403264
O O14 0.500000 0.792874 0.500000
O O15 0.462267 0.000000 0.284693
O O16 0.959027 0.500000 0.100540
#
# Coordination Sequence:
#
# PCOD9141711 Si02
#       6
#     4   4   4   4   4   4
#     4  10  17  26  44  66  89 112 137 170 209 254
#     4   9  15  26  44  64  85 110 142 177 209 247
#     4  10  21  34  45  58  82 118 152 181 216 252
#     4   8  13  22  39  65  91 113 134 161 207 260
#     4   7  11  20  37  61  87 111 134 162 203 258
#     4  10  19  30  42  58  83 114 146 176 212 254
#
# _framework density 17.875945000000002
#
# number of rings (size 3 to 8) (size 9 to 14) (size 15 to 20)
#    0.000    3.000    1.667    4.000    0.000    1.000 
#    0.000    0.000    0.000    6.500    0.000    1.167 
#    0.000    9.333    0.000    0.000    0.000    0.000 
#
# Total GULP energy -133631.243067 kJ/mol
# GULP energy per Si atom -5567.968461 kJ/mol
# Density = 1.783526 g / cm^3
# Si number density = 17.875945 Si / 1000 Ang^3
#
#
#
# Elastic Constant Matrix: (Units=GPa)
#
#
# Indices 1 2 3 4 5 6 
#
# 1 136.0853 -4.7157 61.3787 0.0000 29.8834 0.0000
# 2 -4.7157 32.9456 -7.0125 0.0000 -5.8820 0.0000
# 3 61.3787 -7.0125 74.7615 0.0000 6.5279 0.0000
# 4 0.0000 0.0000 0.0000 -25.6305 0.0000 -1.0969
# 5 29.8834 -5.8820 6.5279 0.0000 25.1788 0.0000
# 6 0.0000 0.0000 0.0000 -1.0969 0.0000 15.4216
#
#
#
# Elastic Compliance Matrix: (Units=1/GPa)
#
#
# Indices 1 2 3 4 5 6 
#
# 1 0.016671 -0.003367 -0.012489 0.000000 -0.017335 0.000000
# 2 -0.003367 0.032773 0.004933 0.000000 0.010373 0.000000
# 3 -0.012489 0.004933 0.023223 0.000000 0.009954 0.000000
# 4 0.000000 0.000000 0.000000 -0.038898 0.000000 -0.002767
# 5 -0.017335 0.010373 0.009954 0.000000 0.060132 0.000000
# 6 0.000000 0.000000 0.000000 -0.002767 0.000000 0.064647
#
#
# Mechanical properties :
#
#
# Convention : Reuss Voigt Hill
#
# Bulk Modulus (GPa) = 19.67730 38.12149 28.89939
# Shear Modulus (GPa) = 25.33741 15.93677 20.63709
#
# Velocity S-wave (km/s) = 3.76892 2.98907 3.40142
# Velocity P-wave (km/s) = 5.47461 5.76928 5.62388
#
# Compressibility (1/GPa) = 0.05081998
#
# Stress axis : x y z
#
# Youngs Moduli (GPa) = 59.98328 30.51290 43.06081
#
# Poissons Ratio (x) = 0.10274 0.53780
# Poissons Ratio (y) = 0.20196 -0.21240
# Poissons Ratio (z) = 0.74915 -0.15051
#
# Static dielectric constant tensor:
#      x y z
#    x 1.664100 0.000000 0.034990 
#    y 0.000000 1.647210 0.000000 
#    z 0.034990 0.000000 1.590840 
# 
# From -- ./inp_files/56320.got.cif
#   From: 2010.05.17/outbox.cif.g08.bks.cpg/sg10_29_cif.got.tgz:56320.got - 2010.06.03 11:33:40.
