data_PCOD9141517
_publ_section_title
;
Structure prediction by ZEFSAII (Michael W. Deem and Ramdas Pophale) SiO2 
 PCOD9141517
Probable space group: P 2/M
;
_chemical_formula_sum "Si O2"
_cell_formula_units_Z 32
_cell_length_a 16.718327
_cell_length_b 15.236488
_cell_length_c 11.012639
_cell_angle_alpha 90.000000
_cell_angle_beta 31.838564
_cell_angle_gamma 90.000000
_cell_volume 1479.838670
_symmetry_space_group_name_H-M "P 2/M"
_symmetry_group_IT_number 10
_symmetry_cell_setting 'monoclinic'
loop_
_space_group_symop_operation_xyz
x,y,z
-x,y,-z
-x,-y,-z
x,-y,z
loop_
_atom_site_type_symbol
_atom_site_label
_atom_site_fract_x
_atom_site_fract_y
_atom_site_fract_z
Si Si1 0.826288 0.404811 0.768898
Si Si2 0.915257 0.373510 0.929330
Si Si3 0.280372 0.096506 0.806952
Si Si4 0.320792 0.791728 0.530956
Si Si5 0.240005 0.594288 0.616062
Si Si6 0.976506 0.817137 0.212579
Si Si7 0.166767 0.780812 0.345829
Si Si8 0.585838 0.100472 0.094803
O O1 0.754862 0.500000 0.831613
O O2 0.841227 0.396089 0.895942
O O3 0.770323 0.315195 0.777210
O O4 0.000000 0.408837 0.500000
O O5 0.092175 0.400517 0.718147
O O6 0.921205 0.269278 0.932798
O O7 0.827237 0.407237 0.160313
O O8 0.345743 0.170909 0.633801
O O9 0.350980 0.101508 0.849026
O O10 0.313546 0.000000 0.710559
O O11 0.099022 0.106806 0.060241
O O12 0.327823 0.686878 0.499555
O O13 0.147945 0.822170 0.730572
O O14 0.434408 0.841860 0.295217
O O15 0.317561 0.500000 0.493595
O O16 0.874498 0.795529 0.461555
O O17 0.000000 0.789635 0.500000
O O18 0.285137 0.853077 0.150352
O O19 0.558190 0.000000 0.094287
#
# Coordination Sequence:
#
# PCOD9141517 Si02
#       8
#     4   4   4   4   4   4   4   4
#     4  10  18  29  53  87 119 153 195 242 290 343
#     4  10  16  32  53  87 126 159 197 246 291 352
#     4  11  22  40  66  90 118 156 199 247 305 367
#     4  11  24  39  60  89 130 157 199 246 303 365
#     4  10  20  32  55  86 122 165 199 237 297 360
#     4  11  21  38  61  95 123 158 197 256 303 345
#     4  11  21  40  63  86 123 155 208 256 299 350
#     4  11  25  44  66  88 116 163 204 246 311 373
#
# _framework density 21.623978999999999
#
# number of rings (size 3 to 8) (size 9 to 14) (size 15 to 20)
#    0.000    1.375    5.000    2.625    0.000    3.750 
#    0.000    1.250    0.000    1.500    0.000    2.625 
#    0.000    0.000    0.000    0.000    0.000    0.000 
#
# Total GULP energy -178592.668901 kJ/mol
# GULP energy per Si atom -5581.020903 kJ/mol
# Density = 2.157476 g / cm^3
# Si number density = 21.623979 Si / 1000 Ang^3
#
#
#
# Elastic Constant Matrix: (Units=GPa)
#
#
# Indices 1 2 3 4 5 6 
#
# 1 39.4699 15.0508 9.4487 0.0000 10.4848 0.0000
# 2 15.0508 181.2187 56.2122 0.0000 -13.4801 0.0000
# 3 9.4487 56.2122 78.8895 0.0000 0.7181 0.0000
# 4 0.0000 0.0000 0.0000 38.8574 0.0000 -2.3171
# 5 10.4848 -13.4801 0.7181 0.0000 18.8359 0.0000
# 6 0.0000 0.0000 0.0000 -2.3171 0.0000 15.3083
#
#
#
# Elastic Compliance Matrix: (Units=1/GPa)
#
#
# Indices 1 2 3 4 5 6 
#
# 1 0.032651 -0.004006 -0.000865 0.000000 -0.021009 0.000000
# 2 -0.004006 0.008139 -0.005395 0.000000 0.008260 0.000000
# 3 -0.000865 -0.005395 0.016660 0.000000 -0.004014 0.000000
# 4 0.000000 0.000000 0.000000 0.025970 0.000000 0.003931
# 5 -0.021009 0.008260 -0.004014 0.000000 0.070850 0.000000
# 6 0.000000 0.000000 0.000000 0.003931 0.000000 0.065919
#
#
# Mechanical properties :
#
#
# Convention : Reuss Voigt Hill
#
# Bulk Modulus (GPa) = 27.08646 51.22239 39.15443
# Shear Modulus (GPa) = 19.76084 29.19142 24.47613
#
# Velocity S-wave (km/s) = 3.02626 3.67816 3.36802
# Velocity P-wave (km/s) = 4.97637 6.46357 5.76810
#
# Compressibility (1/GPa) = 0.03691882
#
# Stress axis : x y z
#
# Youngs Moduli (GPa) = 30.62647 122.86940 60.02434
#
# Poissons Ratio (x) = 0.49226 0.05190
# Poissons Ratio (y) = 0.12270 0.32380
# Poissons Ratio (z) = 0.02648 0.66282
#
# Static dielectric constant tensor:
#      x y z
#    x 1.840320 0.000000 0.006170 
#    y 0.000000 1.842060 0.000000 
#    z 0.006170 0.000000 1.798910 
# 
# From -- ./inp_files/54031.got.cif
#   From: 2010.05.17/outbox.cif.g08.bks.cpg/sg10_28_cif.got.tgz:54031.got - 2010.06.03 11:33:40.
