data_PCOD9141896
_publ_section_title
;
Structure prediction by ZEFSAII (Michael W. Deem and Ramdas Pophale) SiO2 
 PCOD9141896
Probable space group: P 2/M
;
_chemical_formula_sum "Si O2"
_cell_formula_units_Z 32
_cell_length_a 14.503553
_cell_length_b 8.126945
_cell_length_c 15.537667
_cell_angle_alpha 90.000000
_cell_angle_beta 88.629092
_cell_angle_gamma 90.000000
_cell_volume 1830.894032
_symmetry_space_group_name_H-M "P 2/M"
_symmetry_group_IT_number 10
_symmetry_cell_setting 'monoclinic'
loop_
_space_group_symop_operation_xyz
x,y,z
-x,y,-z
-x,-y,-z
x,-y,z
loop_
_atom_site_type_symbol
_atom_site_label
_atom_site_fract_x
_atom_site_fract_y
_atom_site_fract_z
Si Si1 0.819972 0.193777 0.828859
Si Si2 0.519484 0.700853 0.595772
Si Si3 0.315636 0.307571 0.019702
Si Si4 0.215361 0.702134 0.850193
Si Si5 0.530522 0.187473 0.868418
Si Si6 0.383461 0.692901 0.747996
Si Si7 0.328467 0.697232 0.280926
Si Si8 0.010444 0.699281 0.899233
O O1 0.759807 0.284759 0.903318
O O2 0.774970 0.249175 0.739352
O O3 0.925424 0.236686 0.845044
O O4 0.805465 0.000000 0.839327
O O5 0.500000 0.759247 0.500000
O O6 0.514590 0.500000 0.595086
O O7 0.443812 0.761218 0.667488
O O8 0.620963 0.740593 0.631078
O O9 0.333684 0.500000 0.008657
O O10 0.411411 0.228870 0.047778
O O11 0.267185 0.241635 0.935650
O O12 0.215311 0.500000 0.850807
O O13 0.281566 0.758336 0.771136
O O14 0.109268 0.752764 0.859422
O O15 0.444984 0.290818 0.833739
O O16 0.607721 0.217229 0.792613
O O17 0.500656 0.000000 0.870853
O O18 0.373307 0.500000 0.730400
O O19 0.335969 0.500000 0.269200
O O20 0.007379 0.500000 0.899069
O O21 0.000000 0.750643 0.000000
#
# Coordination Sequence:
#
# PCOD9141896 Si02
#       8
#     4   4   4   4   4   4   4   4
#     4  11  20  29  43  66  94 120 151 193 234 266
#     4   8  14  26  48  76  98 114 138 177 224 271
#     4  10  17  29  45  61  82 116 159 193 223 258
#     4   9  18  30  46  64  82 113 157 194 222 258
#     4  10  18  28  41  61  89 119 151 186 223 260
#     4   9  17  31  47  64  88 118 149 180 218 270
#     4   9  16  28  47  68  91 121 152 182 221 269
#     4  10  18  32  49  64  84 116 159 201 230 263
#
# _framework density 17.477799999999998
#
# number of rings (size 3 to 8) (size 9 to 14) (size 15 to 20)
#    0.000    2.500    1.250    5.250    0.000    0.750 
#    0.000    4.375    0.000    9.375    0.000    0.875 
#    0.000    7.000    0.000    0.000    0.000    0.000 
#
# Total GULP energy -178314.128438 kJ/mol
# GULP energy per Si atom -5572.316514 kJ/mol
# Density = 1.743802 g / cm^3
# Si number density = 17.477800 Si / 1000 Ang^3
#
#
#
# Elastic Constant Matrix: (Units=GPa)
#
#
# Indices 1 2 3 4 5 6 
#
# 1 133.9734 -0.4787 64.7105 0.0000 14.4753 0.0000
# 2 -0.4787 24.2419 8.8957 0.0000 2.0229 0.0000
# 3 64.7105 8.8957 86.4087 0.0000 21.3737 0.0000
# 4 0.0000 0.0000 0.0000 -19.8188 0.0000 0.0232
# 5 14.4753 2.0229 21.3737 0.0000 19.9083 0.0000
# 6 0.0000 0.0000 0.0000 0.0232 0.0000 4.7341
#
#
#
# Elastic Compliance Matrix: (Units=1/GPa)
#
#
# Indices 1 2 3 4 5 6 
#
# 1 0.012026 0.003691 -0.009709 0.000000 0.001304 0.000000
# 2 0.003691 0.044007 -0.007523 0.000000 0.000921 0.000000
# 3 -0.009709 -0.007523 0.024077 0.000000 -0.018025 0.000000
# 4 0.000000 0.000000 0.000000 -0.050457 0.000000 0.000247
# 5 0.001304 0.000921 -0.018025 0.000000 0.068540 0.000000
# 6 0.000000 0.000000 0.000000 0.000247 0.000000 0.211231
#
#
# Mechanical properties :
#
#
# Convention : Reuss Voigt Hill
#
# Bulk Modulus (GPa) = 18.85725 43.43101 31.14413
# Shear Modulus (GPa) = 14.11707 12.39784 13.25746
#
# Velocity S-wave (km/s) = 2.84511 2.66625 2.75713
# Velocity P-wave (km/s) = 4.64818 5.86359 5.29090
#
# Compressibility (1/GPa) = 0.05303000
#
# Stress axis : x y z
#
# Youngs Moduli (GPa) = 83.15469 22.72342 41.53396
#
# Poissons Ratio (x) = -0.08388 0.40324
# Poissons Ratio (y) = -0.30694 0.31244
# Poissons Ratio (z) = 0.80731 0.17094
#
# Static dielectric constant tensor:
#      x y z
#    x 1.630150 0.000000 0.001320 
#    y 0.000000 1.603560 0.000000 
#    z 0.001320 0.000000 1.616990 
# 
# From -- ./inp_files/66188.got.cif
#   From: 2010.05.17/outbox.cif.g08.bks.cpg/sg10_34_cif.got.tgz:66188.got - 2010.06.03 11:33:40.
