data_PCOD9141582
_publ_section_title
;
Structure prediction by ZEFSAII (Michael W. Deem and Ramdas Pophale) SiO2 
 PCOD9141582
Probable space group: P 2/M
;
_chemical_formula_sum "Si O2"
_cell_formula_units_Z 32
_cell_length_a 22.682757
_cell_length_b 8.705249
_cell_length_c 29.042402
_cell_angle_alpha 90.000000
_cell_angle_beta 161.351839
_cell_angle_gamma 90.000000
_cell_volume 1833.699149
_symmetry_space_group_name_H-M "P 2/M"
_symmetry_group_IT_number 10
_symmetry_cell_setting 'monoclinic'
loop_
_space_group_symop_operation_xyz
x,y,z
-x,y,-z
-x,-y,-z
x,-y,z
loop_
_atom_site_type_symbol
_atom_site_label
_atom_site_fract_x
_atom_site_fract_y
_atom_site_fract_z
Si Si1 0.065016 0.685406 0.857484
Si Si2 0.862305 0.685782 0.439265
Si Si3 0.486072 0.315987 0.420308
Si Si4 0.218860 0.182899 0.287974
Si Si5 0.365607 0.814833 0.942004
Si Si6 0.043174 0.816364 0.391158
Si Si7 0.456114 0.685149 0.108360
Si Si8 0.224286 0.684508 0.437713
O O1 0.054353 0.500000 0.853531
O O2 0.976335 0.759345 0.837328
O O3 0.936945 0.728548 0.718439
O O4 0.274677 0.732608 0.002668
O O5 0.865833 0.500000 0.443312
O O6 0.653081 0.736088 0.273601
O O7 0.000000 0.734398 0.500000
O O8 0.922405 0.748222 0.533128
O O9 0.474433 0.500000 0.415224
O O10 0.294164 0.242789 0.294683
O O11 0.638198 0.256096 0.569405
O O12 0.579672 0.276230 0.440817
O O13 0.230672 0.000000 0.298345
O O14 0.158250 0.766994 0.776130
O O15 0.369413 0.000000 0.948724
O O16 0.500000 0.769601 0.000000
O O17 0.430009 0.743982 0.037398
O O18 0.186221 0.760158 0.458404
O O19 0.045764 0.000000 0.395886
O O20 0.456048 0.500000 0.107689
O O21 0.215558 0.500000 0.435867
#
# Coordination Sequence:
#
# PCOD9141582 Si02
#       8
#     4   4   4   4   4   4   4   4
#     4   9  17  30  47  69  99 133 169 211 257 304
#     4  10  22  39  57  77 102 133 173 220 264 310
#     4   9  16  27  42  63  96 137 172 205 250 298
#     4  10  17  24  39  66  99 134 169 206 249 300
#     4  10  21  35  51  75 105 134 166 207 259 316
#     4  11  22  34  52  77 104 137 171 209 260 314
#     4  10  20  35  55  77  99 132 176 217 260 307
#     4   9  17  30  49  71  99 134 169 213 255 297
#
# _framework density 17.451063000000001
#
# number of rings (size 3 to 8) (size 9 to 14) (size 15 to 20)
#    0.000    2.250    1.250    4.125    0.000    4.500 
#    0.000    0.000    0.000    0.000    0.000    0.875 
#    0.000    7.000    0.000    0.000    0.000    0.000 
#
# Total GULP energy -178438.673710 kJ/mol
# GULP energy per Si atom -5576.208553 kJ/mol
# Density = 1.741134 g / cm^3
# Si number density = 17.451063 Si / 1000 Ang^3
#
#
#
# Elastic Constant Matrix: (Units=GPa)
#
#
# Indices 1 2 3 4 5 6 
#
# 1 106.5183 21.2554 16.5196 0.0000 21.5068 0.0000
# 2 21.2554 11.7813 5.6757 0.0000 5.8605 0.0000
# 3 16.5196 5.6757 30.8252 0.0000 2.5726 0.0000
# 4 0.0000 0.0000 0.0000 9.8009 0.0000 -47.4706
# 5 21.5068 5.8605 2.5726 0.0000 31.6163 0.0000
# 6 0.0000 0.0000 0.0000 -47.4706 0.0000 -171.4498
#
#
#
# Elastic Compliance Matrix: (Units=1/GPa)
#
#
# Indices 1 2 3 4 5 6 
#
# 1 0.015985 -0.024047 -0.003628 0.000000 -0.006121 0.000000
# 2 -0.024047 0.138089 -0.011848 0.000000 -0.008275 0.000000
# 3 -0.003628 -0.011848 0.036425 0.000000 0.001700 0.000000
# 4 0.000000 0.000000 0.000000 0.043584 0.000000 -0.012067
# 5 -0.006121 -0.008275 0.001700 0.000000 0.037189 0.000000
# 6 0.000000 0.000000 0.000000 -0.012067 0.000000 -0.002491
#
#
# Mechanical properties :
#
#
# Convention : Reuss Voigt Hill
#
# Bulk Modulus (GPa) = 8.97239 26.22514 17.59876
# Shear Modulus (GPa) = 12.98776 -18.96159 -2.98691
#
# Velocity S-wave (km/s) = 2.73103 -3.29987 -1.30970
# Velocity P-wave (km/s) = 3.88553 0.73590 2.79633
#
# Compressibility (1/GPa) = 0.11145304
#
# Stress axis : x y z
#
# Youngs Moduli (GPa) = 62.55799 7.24168 27.45373
#
# Poissons Ratio (x) = 0.17414 0.09960
# Poissons Ratio (y) = 1.50434 0.32527
# Poissons Ratio (z) = 0.22697 0.08580
#
# Static dielectric constant tensor:
#      x y z
#    x 1.607600 0.000000 0.043100 
#    y 0.000000 1.580870 0.000000 
#    z 0.043100 0.000000 1.600600 
# 
# From -- ./inp_files/93769.got.cif
#   From: 2010.05.17/outbox.cif.g08.bks.cpg/sg10_47_cif.got.tgz:93769.got - 2010.06.03 11:33:40.
