data_PCOD9141573
_publ_section_title
;
Structure prediction by ZEFSAII (Michael W. Deem and Ramdas Pophale) SiO2 
 PCOD9141573
Probable space group: P 2/M
;
_chemical_formula_sum "Si O2"
_cell_formula_units_Z 32
_cell_length_a 14.152957
_cell_length_b 8.922119
_cell_length_c 16.805488
_cell_angle_alpha 90.000000
_cell_angle_beta 86.642650
_cell_angle_gamma 90.000000
_cell_volume 2118.460183
_symmetry_space_group_name_H-M "P 2/M"
_symmetry_group_IT_number 10
_symmetry_cell_setting 'monoclinic'
loop_
_space_group_symop_operation_xyz
x,y,z
-x,y,-z
-x,-y,-z
x,-y,z
loop_
_atom_site_type_symbol
_atom_site_label
_atom_site_fract_x
_atom_site_fract_y
_atom_site_fract_z
Si Si1 0.013272 0.178538 0.771150
Si Si2 0.868368 0.679202 0.556458
Si Si3 0.804486 0.819844 0.713926
Si Si4 0.276903 0.820919 0.973443
Si Si5 0.651087 0.179880 0.853767
Si Si6 0.920820 0.679150 0.068506
Si Si7 0.463019 0.672426 0.910342
Si Si8 0.070829 0.820466 0.596645
O O1 0.046373 0.265449 0.846770
O O2 0.078834 0.207685 0.690423
O O3 0.905155 0.216524 0.751287
O O4 0.015325 0.000000 0.786664
O O5 0.871956 0.500000 0.553111
O O6 0.799846 0.737274 0.629413
O O7 0.855741 0.748053 0.468872
O O8 0.969719 0.746927 0.579259
O O9 0.719963 0.780518 0.777845
O O10 0.805025 0.000000 0.700879
O O11 0.179163 0.750105 0.950297
O O12 0.365059 0.762123 0.917047
O O13 0.271824 0.000000 0.969316
O O14 0.299468 0.779284 0.064443
O O15 0.548347 0.255384 0.856542
O O16 0.639279 0.000000 0.855161
O O17 0.912950 0.500000 0.067957
O O18 0.000000 0.724483 0.000000
O O19 0.447366 0.500000 0.889139
O O20 0.500000 0.676763 0.000000
O O21 0.065862 0.000000 0.585070
#
# Coordination Sequence:
#
# PCOD9141573 Si02
#       8
#     4   4   4   4   4   4   4   4
#     4   9  18  31  46  62  81 113 154 187 215 251
#     4  10  17  24  38  61  85 110 141 174 213 259
#     4   9  17  29  43  61  88 118 147 179 215 256
#     4  10  19  32  49  64  82 112 151 188 216 252
#     4   9  17  29  46  66  86 113 148 181 215 257
#     4  11  23  34  44  62  89 118 147 182 223 260
#     4   9  17  29  45  65  88 111 137 175 223 267
#     4   9  16  28  43  57  78 109 144 179 215 254
#
# _framework density 15.105311
#
# number of rings (size 3 to 8) (size 9 to 14) (size 15 to 20)
#    0.000    2.500    0.000    4.875    0.000    7.000 
#    0.000    0.000    0.000    0.000    0.000    0.000 
#    0.000    1.000    0.000   10.500    0.000    5.250 
#
# Total GULP energy -178303.344857 kJ/mol
# GULP energy per Si atom -5571.979527 kJ/mol
# Density = 1.507093 g / cm^3
# Si number density = 15.105311 Si / 1000 Ang^3
#
#
#
# Elastic Constant Matrix: (Units=GPa)
#
#
# Indices 1 2 3 4 5 6 
#
# 1 90.9270 43.5529 55.7675 0.0000 -19.6056 0.0000
# 2 43.5529 66.9348 55.7134 0.0000 -12.7302 0.0000
# 3 55.7675 55.7134 113.4170 0.0000 -26.5289 0.0000
# 4 0.0000 0.0000 0.0000 23.8623 0.0000 3.1889
# 5 -19.6056 -12.7302 -26.5289 0.0000 22.0088 0.0000
# 6 0.0000 0.0000 0.0000 3.1889 0.0000 38.4769
#
#
#
# Elastic Compliance Matrix: (Units=1/GPa)
#
#
# Indices 1 2 3 4 5 6 
#
# 1 0.018491 -0.007611 -0.003524 0.000000 0.007822 0.000000
# 2 -0.007611 0.028410 -0.011079 0.000000 -0.003702 0.000000
# 3 -0.003524 -0.011079 0.019161 0.000000 0.013549 0.000000
# 4 0.000000 0.000000 0.000000 0.042376 0.000000 -0.003512
# 5 0.007822 -0.003702 0.013549 0.000000 0.066595 0.000000
# 6 0.000000 0.000000 0.000000 -0.003512 0.000000 0.026281
#
#
# Mechanical properties :
#
#
# Convention : Reuss Voigt Hill
#
# Bulk Modulus (GPa) = 46.22263 64.59403 55.40833
# Shear Modulus (GPa) = 19.76639 24.61928 22.19284
#
# Velocity S-wave (km/s) = 3.62134 4.04151 3.83718
# Velocity P-wave (km/s) = 6.93918 8.03951 7.50952
#
# Compressibility (1/GPa) = 0.02163442
#
# Stress axis : x y z
#
# Youngs Moduli (GPa) = 54.07942 35.19876 52.18857
#
# Poissons Ratio (x) = 0.26790 0.18390
# Poissons Ratio (y) = 0.41161 0.57821
# Poissons Ratio (z) = 0.19056 0.38998
#
# Static dielectric constant tensor:
#      x y z
#    x 1.483340 0.000000 -0.025710 
#    y 0.000000 1.503280 0.000000 
#    z -0.025710 0.000000 1.525660 
# 
# From -- ./inp_files/75990.got.cif
#   From: 2010.05.17/outbox.cif.g08.bks.cpg/sg10_38_cif.got.tgz:75990.got - 2010.06.03 11:33:40.
