data_PCOD9141642
_publ_section_title
;
Structure prediction by ZEFSAII (Michael W. Deem and Ramdas Pophale) SiO2 
 PCOD9141642
Probable space group: P 2/M
;
_chemical_formula_sum "Si O2"
_cell_formula_units_Z 32
_cell_length_a 18.660380
_cell_length_b 8.770091
_cell_length_c 11.930756
_cell_angle_alpha 90.000000
_cell_angle_beta 87.843401
_cell_angle_gamma 90.000000
_cell_volume 1951.123819
_symmetry_space_group_name_H-M "P 2/M"
_symmetry_group_IT_number 10
_symmetry_cell_setting 'monoclinic'
loop_
_space_group_symop_operation_xyz
x,y,z
-x,y,-z
-x,-y,-z
x,-y,z
loop_
_atom_site_type_symbol
_atom_site_label
_atom_site_fract_x
_atom_site_fract_y
_atom_site_fract_z
Si Si1 0.630175 0.683681 0.753941
Si Si2 0.763002 0.817073 0.610945
Si Si3 0.584041 0.315819 0.001063
Si Si4 0.214498 0.184224 0.650691
Si Si5 0.933552 0.681931 0.367778
Si Si6 0.922208 0.817131 0.620089
Si Si7 0.513539 0.683046 0.369498
Si Si8 0.356346 0.182092 0.773465
O O1 0.633288 0.500000 0.750821
O O2 0.697902 0.746852 0.683200
O O3 0.556395 0.729141 0.696920
O O4 0.623120 0.731248 0.883852
O O5 0.764852 0.770798 0.479036
O O6 0.840880 0.778731 0.659553
O O7 0.756306 0.000000 0.612327
O O8 0.584510 0.500000 0.007381
O O9 0.622237 0.251265 0.108344
O O10 0.500000 0.269598 0.000000
O O11 0.138651 0.259547 0.686667
O O12 0.278725 0.227542 0.729772
O O13 0.206193 0.000000 0.650898
O O14 0.935090 0.500000 0.374304
O O15 0.926437 0.754065 0.492744
O O16 0.010242 0.743850 0.320419
O O17 0.929846 0.000000 0.617655
O O18 0.500000 0.717364 0.500000
O O19 0.522421 0.500000 0.356945
O O20 0.583484 0.763077 0.317411
O O21 0.357526 0.000000 0.780754
#
# Coordination Sequence:
#
# PCOD9141642 Si02
#       8
#     4   4   4   4   4   4   4   4
#     4  10  20  33  50  71  94 127 163 203 250 289
#     4   9  18  31  48  70  99 133 163 196 239 293
#     4  10  20  38  56  68  93 128 165 208 253 301
#     4   9  19  34  47  67 103 137 160 193 250 302
#     4  10  17  25  43  71  97 127 169 206 232 275
#     4   9  16  28  44  64  98 139 165 190 242 294
#     4  10  20  34  51  71  98 132 165 195 241 303
#     4  11  22  34  52  75  97 125 166 211 250 291
#
# _framework density 16.400803
#
# number of rings (size 3 to 8) (size 9 to 14) (size 15 to 20)
#    0.000    2.250    1.250    4.125    0.000    5.000 
#    0.000    0.000    0.000    0.000    0.000    0.875 
#    0.000    7.000    0.000    0.000    0.000    0.000 
#
# Total GULP energy -178408.562162 kJ/mol
# GULP energy per Si atom -5575.267568 kJ/mol
# Density = 1.636347 g / cm^3
# Si number density = 16.400803 Si / 1000 Ang^3
#
#
#
# Elastic Constant Matrix: (Units=GPa)
#
#
# Indices 1 2 3 4 5 6 
#
# 1 137.3720 38.7038 41.9783 0.0000 32.6024 0.0000
# 2 38.7038 29.9569 21.4905 0.0000 9.6116 0.0000
# 3 41.9783 21.4905 69.7466 0.0000 21.6704 0.0000
# 4 0.0000 0.0000 0.0000 17.5673 0.0000 -6.5679
# 5 32.6024 9.6116 21.6704 0.0000 12.0378 0.0000
# 6 0.0000 0.0000 0.0000 -6.5679 0.0000 22.2986
#
#
#
# Elastic Compliance Matrix: (Units=1/GPa)
#
#
# Indices 1 2 3 4 5 6 
#
# 1 0.033678 -0.023188 0.021472 0.000000 -0.111350 0.000000
# 2 -0.023188 0.062024 -0.021059 0.000000 0.051189 0.000000
# 3 0.021472 -0.021059 0.047080 0.000000 -0.126092 0.000000
# 4 0.000000 0.000000 0.000000 0.063968 0.000000 0.018841
# 5 -0.111350 0.051189 -0.126092 0.000000 0.570763 0.000000
# 6 0.000000 0.000000 0.000000 0.018841 0.000000 0.050396
#
#
# Mechanical properties :
#
#
# Convention : Reuss Voigt Hill
#
# Bulk Modulus (GPa) = 10.28487 49.04673 29.66580
# Shear Modulus (GPa) = 5.51956 19.37425 12.44691
#
# Velocity S-wave (km/s) = 1.83650 3.44073 2.75784
# Velocity P-wave (km/s) = 3.28352 6.76423 5.31678
#
# Compressibility (1/GPa) = 0.09723022
#
# Stress axis : x y z
#
# Youngs Moduli (GPa) = 29.69318 16.12292 21.24034
#
# Poissons Ratio (x) = 0.37386 -0.45607
# Poissons Ratio (y) = 0.68853 0.44730
# Poissons Ratio (z) = -0.63756 0.33954
#
# Static dielectric constant tensor:
#      x y z
#    x 1.580410 0.000000 0.015230 
#    y 0.000000 1.551300 0.000000 
#    z 0.015230 0.000000 1.529180 
# 
# From -- ./inp_files/52787.got.cif
#   From: 2010.05.17/outbox.cif.g08.bks.cpg/sg10_27_cif.got.tgz:52787.got - 2010.06.03 11:33:40.
