data_PCOD9141013
_publ_section_title
;
Structure prediction by ZEFSAII (Michael W. Deem and Ramdas Pophale) SiO2 
 PCOD9141013
Probable space group: C C
;
_chemical_formula_sum "Si O2"
_cell_formula_units_Z 20
_cell_length_a 17.114502
_cell_length_b 7.044746
_cell_length_c 7.316254
_cell_angle_alpha 90.000000
_cell_angle_beta 121.164309
_cell_angle_gamma 90.000000
_cell_volume 754.802284
_symmetry_space_group_name_H-M "C C"
_symmetry_group_IT_number 9
_symmetry_cell_setting 'monoclinic'
loop_
_space_group_symop_operation_xyz
x,y,z
x,-y,1/2+z
1/2+x,1/2+y,z
1/2+x,1/2-y,1/2+z
loop_
_atom_site_type_symbol
_atom_site_label
_atom_site_fract_x
_atom_site_fract_y
_atom_site_fract_z
Si Si1 0.113980 0.223619 0.563670
Si Si2 0.802805 0.885906 0.852885
Si Si3 0.960394 0.346729 0.652821
Si Si4 0.065566 0.189958 0.114093
Si Si5 0.878383 0.234557 0.054215
O O1 0.202705 0.308789 0.765283
O O2 0.118550 0.272761 0.353097
O O3 0.023240 0.298171 0.554369
O O4 0.112465 0.995585 0.587172
O O5 0.841107 0.798585 0.711306
O O6 0.878169 0.801642 0.082189
O O7 0.804190 0.113828 0.851676
O O8 0.972454 0.869048 0.608314
O O9 0.030271 0.321985 0.907352
O O10 0.907742 0.453028 0.067344
#
# Coordination Sequence:
#
# PCOD9141013 Si02
#       5
#     4   4   4   4   4
#     4  12  27  52  86 134 172 226 286 365 429 520
#     4  12  28  53  81 125 176 222 287 365 426 518
#     4  12  27  54  89 120 172 237 283 358 438 512
#     4  12  24  53  88 120 173 226 289 351 438 512
#     4  12  26  54  82 117 169 229 285 351 427 508
#
# _framework density 26.497005999999999
#
# number of rings (size 3 to 8) (size 9 to 14) (size 15 to 20)
#    0.000    0.000    6.000    2.400    2.800    1.600 
#   10.800    0.000    0.000    0.000    0.000    0.000 
#    0.000    0.000    0.000    0.000    0.000    0.000 
#
# Total GULP energy -55967.806138 kJ/mol
# GULP energy per Si atom -5596.780614 kJ/mol
# Density = 2.643670 g / cm^3
# Si number density = 26.497006 Si / 1000 Ang^3
#
#
#
# Elastic Constant Matrix: (Units=GPa)
#
#
# Indices 1 2 3 4 5 6 
#
# 1 112.2888 42.6816 31.8360 0.0000 3.1671 0.0000
# 2 42.6816 194.6542 56.6220 0.0000 2.7361 0.0000
# 3 31.8360 56.6220 105.8362 0.0000 -1.5896 0.0000
# 4 0.0000 0.0000 0.0000 38.5264 0.0000 2.9988
# 5 3.1671 2.7361 -1.5896 0.0000 50.6041 0.0000
# 6 0.0000 0.0000 0.0000 2.9988 0.0000 38.1253
#
#
#
# Elastic Compliance Matrix: (Units=1/GPa)
#
#
# Indices 1 2 3 4 5 6 
#
# 1 0.010150 -0.001570 -0.002222 0.000000 -0.000620 0.000000
# 2 -0.001570 0.006337 -0.002923 0.000000 -0.000336 0.000000
# 3 -0.002222 -0.002923 0.011691 0.000000 0.000664 0.000000
# 4 0.000000 0.000000 0.000000 0.026116 0.000000 -0.002054
# 5 -0.000620 -0.000336 0.000664 0.000000 0.019839 0.000000
# 6 0.000000 0.000000 0.000000 -0.002054 0.000000 0.026391
#
#
# Mechanical properties :
#
#
# Convention : Reuss Voigt Hill
#
# Bulk Modulus (GPa) = 67.81318 75.00650 71.40984
# Shear Modulus (GPa) = 42.06282 44.22713 43.14498
#
# Velocity S-wave (km/s) = 3.98861 4.08994 4.03959
# Velocity P-wave (km/s) = 6.84546 7.11846 6.98330
#
# Compressibility (1/GPa) = 0.01474640
#
# Stress axis : x y z
#
# Youngs Moduli (GPa) = 98.52113 157.81447 85.53835
#
# Poissons Ratio (x) = 0.24784 0.19009
# Poissons Ratio (y) = 0.15472 0.25000
# Poissons Ratio (z) = 0.21895 0.46124
#
# Static dielectric constant tensor:
#      x y z
#    x 1.965540 0.000000 -0.038420 
#    y 0.000000 2.137510 0.000000 
#    z -0.038420 0.000000 2.266600 
# 
# From -- ./inp_files/10387.got.cif
#   From: 2010.05.17/outbox.cif.g08.bks.cpg/sg9_6_cif.got.tgz:10387.got - 2010.06.03 20:04:27.
