data_PCOD9141103
_publ_section_title
;
Structure prediction by ZEFSAII (Michael W. Deem and Ramdas Pophale) SiO2 
 PCOD9141103
Probable space group: C C
;
_chemical_formula_sum "Si O2"
_cell_formula_units_Z 32
_cell_length_a 27.589916
_cell_length_b 8.051298
_cell_length_c 17.096702
_cell_angle_alpha 90.000000
_cell_angle_beta 20.741788
_cell_angle_gamma 90.000000
_cell_volume 1345.006730
_symmetry_space_group_name_H-M "C C"
_symmetry_group_IT_number 9
_symmetry_cell_setting 'monoclinic'
loop_
_space_group_symop_operation_xyz
x,y,z
x,-y,1/2+z
1/2+x,1/2+y,z
1/2+x,1/2-y,1/2+z
loop_
_atom_site_type_symbol
_atom_site_label
_atom_site_fract_x
_atom_site_fract_y
_atom_site_fract_z
Si Si1 0.805750 0.831759 0.904730
Si Si2 0.758751 0.382977 0.696295
Si Si3 0.016773 0.454949 0.388892
Si Si4 0.005553 0.823149 0.347966
Si Si5 0.728190 0.880222 0.858460
Si Si6 0.782476 0.465021 0.992646
Si Si7 0.540924 0.902430 0.528554
Si Si8 0.564467 0.444321 0.612263
O O1 0.807741 0.924921 0.818194
O O2 0.811696 0.631628 0.898261
O O3 0.926100 0.896586 0.777721
O O4 0.661427 0.873361 0.159451
O O5 0.797599 0.479360 0.559154
O O6 0.653679 0.235761 0.838070
O O7 0.896756 0.339214 0.535152
O O8 0.674025 0.494382 0.883929
O O9 0.017131 0.624744 0.338516
O O10 0.002736 0.485967 0.502893
O O11 0.852179 0.855398 0.610273
O O12 0.034130 0.916525 0.223025
O O13 0.130206 0.895744 0.211900
O O14 0.617855 0.989340 0.978603
O O15 0.638104 0.725647 0.027196
O O16 0.900084 0.342621 0.782351
#
# Coordination Sequence:
#
# PCOD9141103 Si02
#       8
#     4   4   4   4   4   4   4   4
#     4  12  26  48  76 110 152 199 256 328 382 469
#     4  12  29  47  73 115 154 202 262 323 389 473
#     4  12  28  49  76 115 156 198 266 319 394 470
#     4  12  28  48  79 111 154 209 259 327 393 468
#     4  12  26  49  78 109 151 212 256 318 394 464
#     4  12  26  49  76 111 156 201 260 320 393 463
#     4  12  28  49  81 110 157 207 257 324 396 464
#     4  12  27  49  73 111 158 200 268 319 391 469
#
# _framework density 23.791702999999998
#
# number of rings (size 3 to 8) (size 9 to 14) (size 15 to 20)
#    0.000    0.000    5.000    3.750    8.750    1.000 
#    0.000    0.000    0.000    0.000    0.000    0.000 
#    0.000    0.000    0.000    0.000    0.000    0.000 
#
# Total GULP energy -89487.763644 kJ/mol
# GULP energy per Si atom -5592.985228 kJ/mol
# Density = 2.373755 g / cm^3
# Si number density = 23.791703 Si / 1000 Ang^3
#
#
#
# Elastic Constant Matrix: (Units=GPa)
#
#
# Indices 1 2 3 4 5 6 
#
# 1 149.8072 57.5380 59.8904 0.0000 -16.4125 0.0000
# 2 57.5380 146.1479 60.5290 0.0000 -32.1983 0.0000
# 3 59.8904 60.5290 183.2144 0.0000 -24.6384 0.0000
# 4 0.0000 0.0000 0.0000 33.7118 0.0000 -5.5507
# 5 -16.4125 -32.1983 -24.6384 0.0000 65.1517 0.0000
# 6 0.0000 0.0000 0.0000 -5.5507 0.0000 8.6608
#
#
#
# Elastic Compliance Matrix: (Units=1/GPa)
#
#
# Indices 1 2 3 4 5 6 
#
# 1 0.008410 -0.002484 -0.001905 0.000000 0.000170 0.000000
# 2 -0.002484 0.009296 -0.001818 0.000000 0.003281 0.000000
# 3 -0.001905 -0.001818 0.006844 0.000000 0.001210 0.000000
# 4 0.000000 0.000000 0.000000 0.033163 0.000000 0.021254
# 5 0.000170 0.003281 0.001210 0.000000 0.017471 0.000000
# 6 0.000000 0.000000 0.000000 0.021254 0.000000 0.129085
#
#
# Mechanical properties :
#
#
# Convention : Reuss Voigt Hill
#
# Bulk Modulus (GPa) = 82.40620 92.78714 87.59667
# Shear Modulus (GPa) = 22.65219 41.58567 32.11893
#
# Velocity S-wave (km/s) = 3.08897 4.18533 3.67823
# Velocity P-wave (km/s) = 6.88724 7.90193 7.41197
#
# Compressibility (1/GPa) = 0.01213501
#
# Stress axis : x y z
#
# Youngs Moduli (GPa) = 118.90881 107.57123 146.10835
#
# Poissons Ratio (x) = 0.26723 0.27840
# Poissons Ratio (y) = 0.29540 0.26561
# Poissons Ratio (z) = 0.22657 0.19555
#
# Static dielectric constant tensor:
#      x y z
#    x 1.911210 0.000000 0.000120 
#    y 0.000000 1.986800 0.000000 
#    z 0.000120 0.000000 1.879210 
# 
# From -- ./inp_files/31857.got.cif
#   From: 2010.05.17/outbox.cif.g08.bks.cpg/sg9_16_cif.got.tgz:31857.got - 2010.06.03 20:04:27.
