data_PCOD9141650
_publ_section_title
;
Structure prediction by ZEFSAII (Michael W. Deem and Ramdas Pophale) SiO2 
 PCOD9141650
Probable space group: P 2/M
;
_chemical_formula_sum "Si O2"
_cell_formula_units_Z 32
_cell_length_a 8.422466
_cell_length_b 22.814499
_cell_length_c 10.870847
_cell_angle_alpha 90.000000
_cell_angle_beta 120.023736
_cell_angle_gamma 90.000000
_cell_volume 1808.590702
_symmetry_space_group_name_H-M "P 2/M"
_symmetry_group_IT_number 10
_symmetry_cell_setting 'monoclinic'
loop_
_space_group_symop_operation_xyz
x,y,z
-x,y,-z
-x,-y,-z
x,-y,z
loop_
_atom_site_type_symbol
_atom_site_label
_atom_site_fract_x
_atom_site_fract_y
_atom_site_fract_z
Si Si1 0.842702 0.338115 0.347953
Si Si2 0.211375 0.338443 0.057969
Si Si3 0.489484 0.288076 0.350588
Si Si4 0.949923 0.934517 0.834614
Si Si5 0.118105 0.246914 0.837603
Si Si6 0.708017 0.863382 0.063859
Si Si7 0.716935 0.566007 0.103773
Si Si8 0.756939 0.180248 0.800289
O O1 0.679096 0.305041 0.356842
O O2 0.934323 0.291338 0.290212
O O3 0.765039 0.391567 0.236178
O O4 0.000000 0.359355 0.500000
O O5 0.250679 0.286150 0.976098
O O6 0.220313 0.400303 0.994248
O O7 0.338412 0.328936 0.223994
O O8 0.000000 0.328209 0.000000
O O9 0.500000 0.298932 0.500000
O O10 0.413519 0.221498 0.301603
O O11 0.800975 0.883064 0.756011
O O12 0.895394 0.000000 0.776945
O O13 0.142724 0.913222 0.852795
O O14 0.000000 0.935634 0.000000
O O15 0.938332 0.218759 0.833811
O O16 0.237197 0.192827 0.834053
O O17 0.738890 0.837585 0.937063
O O18 0.500000 0.881799 0.000000
O O19 0.789009 0.500000 0.145833
O O20 0.500000 0.563174 0.000000
#
# Coordination Sequence:
#
# PCOD9141650 Si02
#       8
#     4   4   4   4   4   4   4   4
#     4  11  24  38  57  85 116 149 186 233 288 342
#     4  11  20  35  61  84 111 147 184 233 280 341
#     4  12  23  35  54  87 118 145 178 235 293 344
#     4   8  16  29  46  70 104 147 190 232 280 331
#     4  10  18  31  54  79 107 144 186 229 283 340
#     4  10  17  25  46  76 109 144 185 234 283 338
#     4  10  22  41  64  84 108 150 198 236 270 329
#     4  10  18  33  51  77 111 145 182 232 285 337
#
# _framework density 17.693335999999999
#
# number of rings (size 3 to 8) (size 9 to 14) (size 15 to 20)
#    0.000    1.750    3.750    2.625    1.750    0.750 
#    0.000    0.000    0.000    1.125    0.000    0.000 
#    0.000   13.500    0.000    0.000    0.000    0.000 
#
# Total GULP energy -178160.871005 kJ/mol
# GULP energy per Si atom -5567.527219 kJ/mol
# Density = 1.765306 g / cm^3
# Si number density = 17.693336 Si / 1000 Ang^3
#
#
#
# Elastic Constant Matrix: (Units=GPa)
#
#
# Indices 1 2 3 4 5 6 
#
# 1 63.2423 40.7920 23.6647 0.0000 5.8648 0.0000
# 2 40.7920 147.1425 36.9469 0.0000 0.0702 0.0000
# 3 23.6647 36.9469 95.8069 0.0000 -2.4926 0.0000
# 4 0.0000 0.0000 0.0000 20.1592 0.0000 7.8499
# 5 5.8648 0.0702 -2.4926 0.0000 23.9694 0.0000
# 6 0.0000 0.0000 0.0000 7.8499 0.0000 15.9060
#
#
#
# Elastic Compliance Matrix: (Units=1/GPa)
#
#
# Indices 1 2 3 4 5 6 
#
# 1 0.020736 -0.004899 -0.003373 0.000000 -0.005410 0.000000
# 2 -0.004899 0.008685 -0.002114 0.000000 0.000953 0.000000
# 3 -0.003373 -0.002114 0.012141 0.000000 0.002094 0.000000
# 4 0.000000 0.000000 0.000000 0.061406 0.000000 -0.030305
# 5 -0.005410 0.000953 0.002094 0.000000 0.043259 0.000000
# 6 0.000000 0.000000 0.000000 -0.030305 0.000000 0.077825
#
#
# Mechanical properties :
#
#
# Convention : Reuss Voigt Hill
#
# Bulk Modulus (GPa) = 48.10430 56.55543 52.32987
# Shear Modulus (GPa) = 19.86070 25.65949 22.76009
#
# Velocity S-wave (km/s) = 3.35400 3.81233 3.59048
# Velocity P-wave (km/s) = 6.49969 7.17022 6.84317
#
# Compressibility (1/GPa) = 0.02078816
#
# Stress axis : x y z
#
# Youngs Moduli (GPa) = 48.22503 115.14497 82.36732
#
# Poissons Ratio (x) = 0.56409 0.27786
# Poissons Ratio (y) = 0.23625 0.17415
# Poissons Ratio (z) = 0.16268 0.24345
#
# Static dielectric constant tensor:
#      x y z
#    x 0.194630 0.000000 0.449630 
#    y 0.000000 1.633650 0.000000 
#    z 0.449630 0.000000 1.464240 
# 
# From -- ./inp_files/43616.got.cif
#   From: 2010.05.17/outbox.cif.g08.bks.cpg/sg10_22_cif.got.tgz:43616.got - 2010.06.03 11:33:40.
