data_PCOD9141714
_publ_section_title
;
Structure prediction by ZEFSAII (Michael W. Deem and Ramdas Pophale) SiO2 
 PCOD9141714
Probable space group: P 2/M
;
_chemical_formula_sum "Si O2"
_cell_formula_units_Z 28
_cell_length_a 16.428939
_cell_length_b 13.566551
_cell_length_c 20.887034
_cell_angle_alpha 90.000000
_cell_angle_beta 18.532946
_cell_angle_gamma 90.000000
_cell_volume 1479.714157
_symmetry_space_group_name_H-M "P 2/M"
_symmetry_group_IT_number 10
_symmetry_cell_setting 'monoclinic'
loop_
_space_group_symop_operation_xyz
x,y,z
-x,y,-z
-x,-y,-z
x,-y,z
loop_
_atom_site_type_symbol
_atom_site_label
_atom_site_fract_x
_atom_site_fract_y
_atom_site_fract_z
Si Si1 0.493289 0.610145 0.112780
Si Si2 0.579294 0.887239 0.318424
Si Si3 0.297700 0.196925 0.995562
Si Si4 0.930886 0.610147 0.675097
Si Si5 0.492869 0.000000 0.113388
Si Si6 0.932081 0.000000 0.674090
Si Si7 0.124676 0.803080 0.581981
Si Si8 0.011871 0.112763 0.885922
O O1 0.487083 0.500000 0.145693
O O2 0.232558 0.626742 0.267493
O O3 0.551280 0.700602 0.116266
O O4 0.718519 0.608631 0.890721
O O5 0.359212 0.818212 0.455464
O O6 0.723505 0.859591 0.276453
O O7 0.481538 0.000000 0.398086
O O8 0.798206 0.889499 0.100862
O O9 0.100069 0.181791 0.085168
O O10 0.129774 0.198027 0.185154
O O11 0.469264 0.098791 0.873554
O O12 0.043899 0.500000 0.588771
O O13 0.118821 0.700598 0.548618
O O14 0.230304 0.000000 0.269751
O O15 0.720083 0.000000 0.889935
O O16 0.097894 0.098794 0.559169
O O17 0.037296 0.000000 0.842414
#
# Coordination Sequence:
#
# PCOD9141714 Si02
#       8
#     4   4   4   4   2   2   4   4
#     4   8  14  25  42  65  92 121 151 179 209 252
#     4   9  18  32  47  62  85 118 149 177 218 272
#     4  10  17  26  44  69  91 113 144 183 220 252
#     4   8  14  25  42  65  92 121 151 179 209 252
#     4   9  16  24  36  61  94 118 135 165 214 263
#     4   9  16  24  36  61  94 118 135 165 214 263
#     4  10  17  26  44  69  91 113 144 183 220 252
#     4   9  18  32  47  62  85 118 149 177 218 272
#
# _framework density 18.922573
#
# number of rings (size 3 to 8) (size 9 to 14) (size 15 to 20)
#    0.000    3.000    1.429    2.571    0.000    4.000 
#    0.000    1.429    0.000    6.000    0.000    8.000 
#    0.000    0.000    0.000    0.000    0.000    0.000 
#
# Total GULP energy -156165.185459 kJ/mol
# GULP energy per Si atom -5577.328052 kJ/mol
# Density = 1.887950 g / cm^3
# Si number density = 18.922573 Si / 1000 Ang^3
#
#
#
# Elastic Constant Matrix: (Units=GPa)
#
#
# Indices 1 2 3 4 5 6 
#
# 1 100.8255 90.2561 8.4151 0.0000 -26.5279 0.0000
# 2 90.2561 188.1717 36.2187 0.0000 -47.1805 0.0000
# 3 8.4151 36.2187 59.7746 0.0000 -9.2649 0.0000
# 4 0.0000 0.0000 0.0000 3.9651 0.0000 -13.8188
# 5 -26.5279 -47.1805 -9.2649 0.0000 46.1213 0.0000
# 6 0.0000 0.0000 0.0000 -13.8188 0.0000 19.7442
#
#
#
# Elastic Compliance Matrix: (Units=1/GPa)
#
#
# Indices 1 2 3 4 5 6 
#
# 1 0.017997 -0.008704 0.003060 0.000000 0.002062 0.000000
# 2 -0.008704 0.012049 -0.005100 0.000000 0.006295 0.000000
# 3 0.003060 -0.005100 0.019459 0.000000 0.000452 0.000000
# 4 0.000000 0.000000 0.000000 -0.175239 0.000000 -0.122648
# 5 0.002062 0.006295 0.000452 0.000000 0.029398 0.000000
# 6 0.000000 0.000000 0.000000 -0.122648 0.000000 -0.035192
#
#
# Mechanical properties :
#
#
# Convention : Reuss Voigt Hill
#
# Bulk Modulus (GPa) = 35.69237 68.72796 52.21017
# Shear Modulus (GPa) = -49.65189 28.22492 -10.71348
#
# Velocity S-wave (km/s) = -5.12801 3.86631 -2.38202
# Velocity P-wave (km/s) = 4.01979 7.50538 4.48174
#
# Compressibility (1/GPa) = 0.02801719
#
# Stress axis : x y z
#
# Youngs Moduli (GPa) = 55.56478 82.99327 51.39056
#
# Poissons Ratio (x) = 0.72239 -0.15726
# Poissons Ratio (y) = 0.48365 0.26208
# Poissons Ratio (z) = -0.17003 0.42325
#
# Static dielectric constant tensor:
#      x y z
#    x 1.659350 0.000000 0.039300 
#    y 0.000000 1.655150 0.000000 
#    z 0.039300 0.000000 1.704210 
# 
# From -- ./inp_files/36005.got.cif
#   From: 2010.05.17/outbox.cif.g08.bks.cpg/sg10_19_cif.got.tgz:36005.got - 2010.06.03 11:33:40.
