data_PCOD9141841
_publ_section_title
;
Structure prediction by ZEFSAII (Michael W. Deem and Ramdas Pophale) SiO2 
 PCOD9141841
Probable space group: P 2/M
;
_chemical_formula_sum "Si O2"
_cell_formula_units_Z 28
_cell_length_a 12.442706
_cell_length_b 7.337595
_cell_length_c 14.519517
_cell_angle_alpha 90.000000
_cell_angle_beta 110.237138
_cell_angle_gamma 90.000000
_cell_volume 1243.793030
_symmetry_space_group_name_H-M "P 2/M"
_symmetry_group_IT_number 10
_symmetry_cell_setting 'monoclinic'
loop_
_space_group_symop_operation_xyz
x,y,z
-x,y,-z
-x,-y,-z
x,-y,z
loop_
_atom_site_type_symbol
_atom_site_label
_atom_site_fract_x
_atom_site_fract_y
_atom_site_fract_z
Si Si1 0.566311 0.280988 0.813304
Si Si2 0.742070 0.278900 0.717353
Si Si3 0.158503 0.703586 0.794903
Si Si4 0.317674 0.723031 0.688940
Si Si5 0.974163 0.276716 0.886910
Si Si6 0.372864 0.277705 0.497294
Si Si7 0.372422 0.790224 0.974094
O O1 0.565315 0.500000 0.815808
O O2 0.627781 0.225575 0.738143
O O3 0.434859 0.220345 0.775493
O O4 0.642173 0.216872 0.920787
O O5 0.746762 0.500000 0.717950
O O6 0.721476 0.222026 0.606395
O O7 0.851842 0.220870 0.808579
O O8 0.115473 0.500000 0.760155
O O9 0.206672 0.785172 0.713690
O O10 0.066862 0.786074 0.838123
O O11 0.273390 0.692814 0.890376
O O12 0.314225 0.500000 0.689677
O O13 0.336265 0.779291 0.588903
O O14 0.978258 0.500000 0.890451
O O15 0.000000 0.218779 0.000000
O O16 0.500000 0.221617 0.500000
O O17 0.377000 0.500000 0.500943
O O18 0.372701 0.000000 0.944505
O O19 0.500000 0.712479 0.000000
#
# Coordination Sequence:
#
# PCOD9141841 Si02
#       7
#     4   4   4   4   4   4   4
#     4  10  17  28  48  71  94 123 158 194 233 281
#     4   9  16  26  45  71  97 127 161 195 237 282
#     4  10  19  32  49  67  94 128 161 198 235 280
#     4   9  16  25  41  68  95 120 154 194 235 280
#     4   9  17  29  44  65  93 126 165 201 232 276
#     4   9  14  23  39  66 102 128 149 191 245 290
#     4  11  22  32  44  68  99 125 153 195 247 294
#
# _framework density 22.511785
#
# number of rings (size 3 to 8) (size 9 to 14) (size 15 to 20)
#    0.000    2.429    2.857    1.286    0.000    2.857 
#    0.000    0.714    0.000    8.143    0.000    3.000 
#    0.000    1.143    0.000    0.000    0.000    0.000 
#
# Total GULP energy -156250.331874 kJ/mol
# GULP energy per Si atom -5580.368995 kJ/mol
# Density = 2.246055 g / cm^3
# Si number density = 22.511785 Si / 1000 Ang^3
#
#
#
# Elastic Constant Matrix: (Units=GPa)
#
#
# Indices 1 2 3 4 5 6 
#
# 1 135.6000 6.7589 56.2422 0.0000 -25.7058 0.0000
# 2 6.7589 88.8014 1.9257 0.0000 -2.9600 0.0000
# 3 56.2422 1.9257 156.2101 0.0000 -27.6780 0.0000
# 4 0.0000 0.0000 0.0000 -20.9556 0.0000 -17.1955
# 5 -25.7058 -2.9600 -27.6780 0.0000 42.6625 0.0000
# 6 0.0000 0.0000 0.0000 -17.1955 0.0000 -7.1694
#
#
#
# Elastic Compliance Matrix: (Units=1/GPa)
#
#
# Indices 1 2 3 4 5 6 
#
# 1 0.009216 -0.000517 -0.002637 0.000000 0.003806 0.000000
# 2 -0.000517 0.011316 0.000148 0.000000 0.000569 0.000000
# 3 -0.002637 0.000148 0.007988 0.000000 0.003603 0.000000
# 4 0.000000 0.000000 0.000000 0.049292 0.000000 -0.118226
# 5 0.003806 0.000569 0.003603 0.000000 0.028110 0.000000
# 6 0.000000 0.000000 0.000000 -0.118226 0.000000 0.144078
#
#
# Mechanical properties :
#
#
# Convention : Reuss Voigt Hill
#
# Bulk Modulus (GPa) = 44.43328 56.71836 50.57582
# Shear Modulus (GPa) = 18.97413 23.95318 21.46365
#
# Velocity S-wave (km/s) = 2.90634 3.26548 3.09113
# Velocity P-wave (km/s) = 5.57163 6.28232 5.93762
#
# Compressibility (1/GPa) = 0.02250565
#
# Stress axis : x y z
#
# Youngs Moduli (GPa) = 108.50945 88.36863 125.19050
#
# Poissons Ratio (x) = 0.04572 0.33017
# Poissons Ratio (y) = 0.05614 -0.01848
# Poissons Ratio (z) = 0.28618 -0.01305
#
# Static dielectric constant tensor:
#      x y z
#    x 1.838170 0.000000 -0.053710 
#    y 0.000000 1.861240 0.000000 
#    z -0.053710 0.000000 1.830370 
# 
# From -- ./inp_files/49347.got.cif
#   From: 2010.05.17/outbox.cif.g08.bks.cpg/sg10_25_cif.got.tgz:49347.got - 2010.06.03 11:33:40.
