data_PCOD9141242
_publ_section_title
;
Structure prediction by ZEFSAII (Michael W. Deem and Ramdas Pophale) SiO2 
 PCOD9141242
Probable space group: C C
;
_chemical_formula_sum "Si O2"
_cell_formula_units_Z 14
_cell_length_a 21.000000
_cell_length_b 9.000000
_cell_length_c 9.000000
_cell_angle_alpha 90.000000
_cell_angle_beta 50.000000
_cell_angle_gamma 90.000000
_cell_volume 1303.041598
_symmetry_space_group_name_H-M "C C"
_symmetry_group_IT_number 9
_symmetry_cell_setting 'monoclinic'
loop_
_space_group_symop_operation_xyz
x,y,z
x,-y,1/2+z
1/2+x,1/2+y,z
1/2+x,1/2-y,1/2+z
loop_
_atom_site_type_symbol
_atom_site_label
_atom_site_fract_x
_atom_site_fract_y
_atom_site_fract_z
Si Si1 0.419540 0.014117 0.208820
Si Si2 0.542122 0.948813 0.268623
Si Si3 0.208644 0.621843 0.010211
Si Si4 0.219064 0.933925 0.059806
Si Si5 0.116115 0.852176 0.510930
Si Si6 0.325204 0.511010 0.086362
Si Si7 0.931382 0.157143 0.186499
O O1 0.481591 0.042963 0.252575
O O2 0.427991 0.835437 0.172759
O O3 0.320599 0.043591 0.390346
O O4 0.472396 0.094305 0.997290
O O5 0.587638 0.810895 0.116098
O O6 0.621988 0.048578 0.193788
O O7 0.196515 0.793352 0.990725
O O8 0.278161 0.612483 0.035885
O O9 0.251504 0.546497 0.803843
O O10 0.182159 0.882230 0.276570
O O11 0.163458 0.068252 0.077906
O O12 0.024920 0.900682 0.583227
O O13 0.391442 0.587081 0.097510
O O14 0.372819 0.389244 0.914059
#
# Coordination Sequence:
#
# PCOD9141242 Si02
#       7
#     4   4   4   4   4   4   4
#     4  11  26  44  75 100 145 186 242 287 353 426
#     4  11  25  49  71 102 142 191 234 285 361 430
#     4  11  24  42  71 101 136 183 234 284 354 413
#     4  12  27  44  71 108 140 183 241 298 351 412
#     4  11  26  45  71 101 144 183 235 292 358 414
#     4  10  23  41  72 101 142 179 233 290 351 416
#     4  10  23  45  69 103 139 185 233 288 354 419
#
# _framework density 10.744092999999999
#
# number of rings (size 3 to 8) (size 9 to 14) (size 15 to 20)
#    0.000    1.143    0.000    5.143   14.000    1.143 
#    2.571    0.000    0.000    0.000    0.000    0.000 
#    0.000    0.000    0.000    0.000    0.000    0.000 
#
# Total GULP energy -78067.587436 kJ/mol
# GULP energy per Si atom -5576.256245 kJ/mol
# Density = 1.071964 g / cm^3
# Si number density = 10.744093 Si / 1000 Ang^3
#
#
#
# Elastic Constant Matrix: (Units=GPa)
#
#
# Indices 1 2 3 4 5 6 
#
# 1 129.5581 24.9373 39.4571 0.0000 -25.3984 0.0000
# 2 24.9373 68.7166 25.0460 0.0000 -16.0885 0.0000
# 3 39.4571 25.0460 166.5559 0.0000 -22.8690 0.0000
# 4 0.0000 0.0000 0.0000 34.3713 0.0000 -8.9763
# 5 -25.3984 -16.0885 -22.8690 0.0000 51.3179 0.0000
# 6 0.0000 0.0000 0.0000 -8.9763 0.0000 26.6632
#
#
#
# Elastic Compliance Matrix: (Units=1/GPa)
#
#
# Indices 1 2 3 4 5 6 
#
# 1 0.009187 -0.002051 -0.001419 0.000000 0.003272 0.000000
# 2 -0.002051 0.016684 -0.001538 0.000000 0.003530 0.000000
# 3 -0.001419 -0.001538 0.006826 0.000000 0.001858 0.000000
# 4 0.000000 0.000000 0.000000 0.031899 0.000000 0.010739
# 5 0.003272 0.003530 0.001858 0.000000 0.023040 0.000000
# 6 0.000000 0.000000 0.000000 0.010739 0.000000 0.041120
#
#
# Mechanical properties :
#
#
# Convention : Reuss Voigt Hill
#
# Bulk Modulus (GPa) = 44.08902 60.41236 52.25069
# Shear Modulus (GPa) = 34.16886 40.82982 37.49934
#
# Velocity S-wave (km/s) = 3.99196 4.36375 4.18199
# Velocity P-wave (km/s) = 6.46607 7.31881 6.90561
#
# Compressibility (1/GPa) = 0.02268138
#
# Stress axis : x y z
#
# Youngs Moduli (GPa) = 108.85288 59.93791 146.48825
#
# Poissons Ratio (x) = 0.12292 0.20783
# Poissons Ratio (y) = 0.22323 0.22535
# Poissons Ratio (z) = 0.15443 0.09220
#
# Static dielectric constant tensor:
#      x y z
#    x 1.789870 0.000000 0.058790 
#    y 0.000000 1.828400 0.000000 
#    z 0.058790 0.000000 1.827990 
# 
# From -- ./inp_files/8749.got.cif
#   From: 2010.05.17/outbox.ucp.g08.bks.cvg/sg9_5_cif.got.tgz:8749.got - 2010.06.11 13:03:20.
