data_PCOD9141265
_publ_section_title
;
Structure prediction by ZEFSAII (Michael W. Deem and Ramdas Pophale) SiO2 
 PCOD9141265
Probable space group: C C
;
_chemical_formula_sum "Si O2"
_cell_formula_units_Z 16
_cell_length_a 12.000000
_cell_length_b 15.000000
_cell_length_c 18.000000
_cell_angle_alpha 90.000000
_cell_angle_beta 30.000000
_cell_angle_gamma 90.000000
_cell_volume 1620.000000
_symmetry_space_group_name_H-M "C C"
_symmetry_group_IT_number 9
_symmetry_cell_setting 'monoclinic'
loop_
_space_group_symop_operation_xyz
x,y,z
x,-y,1/2+z
1/2+x,1/2+y,z
1/2+x,1/2-y,1/2+z
loop_
_atom_site_type_symbol
_atom_site_label
_atom_site_fract_x
_atom_site_fract_y
_atom_site_fract_z
Si Si1 0.060290 0.237937 0.638930
Si Si2 0.615236 0.148473 0.963292
Si Si3 0.359762 0.829198 0.186122
Si Si4 0.403225 0.373653 0.674998
Si Si5 0.402258 0.114496 0.502313
Si Si6 0.678841 0.429199 0.650191
Si Si7 0.741492 0.028400 0.485778
Si Si8 0.876168 0.884398 0.519191
O O1 0.039109 0.284604 0.572115
O O2 0.255363 0.163717 0.525688
O O3 0.168381 0.316795 0.627195
O O4 0.833494 0.192247 0.798969
O O5 0.685514 0.053664 0.961056
O O6 0.394821 0.130987 0.041697
O O7 0.403273 0.731776 0.193733
O O8 0.411153 0.822276 0.068907
O O9 0.098934 0.851788 0.347511
O O10 0.529928 0.905970 0.114818
O O11 0.584555 0.418266 0.622241
O O12 0.443202 0.389532 0.565723
O O13 0.152508 0.407450 0.835329
O O14 0.269198 0.028930 0.606761
O O15 0.460248 0.420068 0.828713
O O16 0.803908 0.978254 0.525539
#
# Coordination Sequence:
#
# PCOD9141265 Si02
#       8
#     4   4   4   4   4   4   4   4
#     4  11  21  40  67  97 126 168 226 273 313 398
#     4  11  23  41  67  98 130 176 219 268 340 388
#     4  12  21  42  68  98 129 175 226 268 333 396
#     4  12  25  40  67 105 130 171 224 284 328 385
#     4  12  21  42  70  92 129 177 223 264 327 402
#     4  12  24  43  67  96 140 175 217 268 342 410
#     4  11  22  42  71  94 131 181 225 269 330 408
#     4  11  23  40  67 102 131 169 228 282 325 385
#
# _framework density 9.8765429999999999
#
# number of rings (size 3 to 8) (size 9 to 14) (size 15 to 20)
#    0.000    0.500    7.500    1.500    0.000    2.000 
#    0.000    2.500    0.000    0.000    0.000    0.000 
#    0.000    0.000    0.000    0.000    0.000    0.000 
#
# Total GULP energy -89353.819997 kJ/mol
# GULP energy per Si atom -5584.613750 kJ/mol
# Density = 0.985406 g / cm^3
# Si number density = 9.876543 Si / 1000 Ang^3
#
#
#
# Elastic Constant Matrix: (Units=GPa)
#
#
# Indices 1 2 3 4 5 6 
#
# 1 108.9942 17.2793 33.8467 -0.0008 -13.4958 0.0003
# 2 17.2793 36.1140 19.2612 -0.0022 -10.7583 0.0033
# 3 33.8467 19.2612 85.4601 -0.0136 -18.1903 0.0054
# 4 -0.0008 -0.0022 -0.0136 36.0495 0.0046 -7.8030
# 5 -13.4958 -10.7583 -18.1903 0.0046 29.7886 -0.0007
# 6 0.0003 0.0033 0.0054 -7.8030 -0.0007 32.8974
#
#
#
# Elastic Compliance Matrix: (Units=1/GPa)
#
#
# Indices 1 2 3 4 5 6 
#
# 1 0.010880 -0.002908 -0.003250 -0.000001 0.001894 0.000000
# 2 -0.002908 0.034042 -0.004809 -0.000001 0.008040 -0.000003
# 3 -0.003250 -0.004809 0.015390 0.000004 0.006188 -0.000001
# 4 -0.000001 -0.000001 0.000004 0.029241 -0.000003 0.006936
# 5 0.001894 0.008040 0.006188 -0.000003 0.041110 -0.000002
# 6 0.000000 -0.000003 -0.000001 0.006936 -0.000002 0.032043
#
#
# Mechanical properties :
#
#
# Convention : Reuss Voigt Hill
#
# Bulk Modulus (GPa) = 26.05802 41.26030 33.65916
# Shear Modulus (GPa) = 25.32515 30.42584 27.87550
#
# Velocity S-wave (km/s) = 3.58451 3.92893 3.76067
# Velocity P-wave (km/s) = 5.50927 6.44324 5.99448
#
# Compressibility (1/GPa) = 0.03837590
#
# Stress axis : x y z
#
# Youngs Moduli (GPa) = 91.91455 29.37584 64.97797
#
# Poissons Ratio (x) = 0.08542 0.21121
# Poissons Ratio (y) = 0.26726 0.31251
# Poissons Ratio (z) = 0.29876 0.14128
#
# Static dielectric constant tensor:
#      x y z
#    x 1.705960 0.000000 0.004610 
#    y 0.000000 1.714960 0.000010 
#    z 0.004610 0.000010 1.669750 
# 
# From -- ./inp_files/7390.got.cif
#   From: 2010.05.17/outbox.ucp.g08.bks.cvg/sg9_4_cif.got.tgz:7390.got - 2010.06.11 13:03:20.
