data_PCOD9141514
_publ_section_title
;
Structure prediction by ZEFSAII (Michael W. Deem and Ramdas Pophale) SiO2 
 PCOD9141514
Probable space group: P 2/M
;
_chemical_formula_sum "Si O2"
_cell_formula_units_Z 17
_cell_length_a 16.171830
_cell_length_b 10.972365
_cell_length_c 9.864139
_cell_angle_alpha 90.000000
_cell_angle_beta 23.460102
_cell_angle_gamma 90.000000
_cell_volume 696.822385
_symmetry_space_group_name_H-M "P 2/M"
_symmetry_group_IT_number 10
_symmetry_cell_setting 'monoclinic'
loop_
_space_group_symop_operation_xyz
x,y,z
-x,y,-z
-x,-y,-z
x,-y,z
loop_
_atom_site_type_symbol
_atom_site_label
_atom_site_fract_x
_atom_site_fract_y
_atom_site_fract_z
Si Si1 0.239503 0.294322 0.461523
Si Si2 0.740652 0.500000 0.770081
Si Si3 0.498468 0.859007 0.727288
Si Si4 0.766396 0.500000 0.027369
Si Si5 0.000000 0.500000 0.000000
Si Si6 0.205406 0.767883 0.950118
O O1 0.314635 0.377532 0.223789
O O2 0.397371 0.207450 0.302296
O O3 0.143846 0.392925 0.710615
O O4 0.039043 0.220719 0.705656
O O5 0.655140 0.500000 0.050571
O O6 0.991490 0.500000 0.378113
O O7 0.291877 0.801439 0.968976
O O8 0.668756 0.842884 0.350570
O O9 0.461143 0.000000 0.811742
O O10 0.737680 0.623486 0.152843
#
# Coordination Sequence:
#
# PCOD9141514 Si02
#       6
#     4   2   4   2   1   4
#     4  10  19  34  57  79 112 140 171 225 282 314
#     4   8  18  34  57  84 111 134 178 228 270 338
#     4  11  23  35  51  82 111 145 187 218 260 324
#     4   9  18  34  57  85 107 140 180 219 285 321
#     4  10  16  32  50  84 106 124 172 218 274 330
#     4  10  20  34  54  79 110 142 173 227 270 324
#
# _framework density 24.396460999999999
#
# number of rings (size 3 to 8) (size 9 to 14) (size 15 to 20)
#    0.000    2.118    2.353    2.118    0.000    6.588 
#    0.000    2.353    0.000    4.235    0.000   16.471 
#    0.000    0.000    0.000    0.000    0.000    0.000 
#
# Total GULP energy -94865.203390 kJ/mol
# GULP energy per Si atom -5580.306082 kJ/mol
# Density = 2.434093 g / cm^3
# Si number density = 24.396461 Si / 1000 Ang^3
#
#
#
# Elastic Constant Matrix: (Units=GPa)
#
#
# Indices 1 2 3 4 5 6 
#
# 1 196.0542 62.6971 39.6659 0.0000 -39.2633 0.0000
# 2 62.6971 141.7987 13.7993 0.0000 -21.5289 0.0000
# 3 39.6659 13.7993 49.3374 0.0000 -30.4591 0.0000
# 4 0.0000 0.0000 0.0000 -7.6025 0.0000 6.9604
# 5 -39.2633 -21.5289 -30.4591 0.0000 50.7969 0.0000
# 6 0.0000 0.0000 0.0000 6.9604 0.0000 28.3206
#
#
#
# Elastic Compliance Matrix: (Units=1/GPa)
#
#
# Indices 1 2 3 4 5 6 
#
# 1 0.007059 -0.002426 -0.003593 0.000000 0.002273 0.000000
# 2 -0.002426 0.008373 0.001019 0.000000 0.002284 0.000000
# 3 -0.003593 0.001019 0.034017 0.000000 0.018052 0.000000
# 4 0.000000 0.000000 0.000000 -0.107376 0.000000 0.026390
# 5 0.002273 0.002284 0.018052 0.000000 0.033236 0.000000
# 6 0.000000 0.000000 0.000000 0.026390 0.000000 0.028824
#
#
# Mechanical properties :
#
#
# Convention : Reuss Voigt Hill
#
# Bulk Modulus (GPa) = 25.34976 68.83498 47.09237
# Shear Modulus (GPa) = 183.26529 32.37154 107.81841
#
# Velocity S-wave (km/s) = 8.67656 3.64661 6.65509
# Velocity P-wave (km/s) = 10.52569 6.78283 8.85429
#
# Compressibility (1/GPa) = 0.03944811
#
# Stress axis : x y z
#
# Youngs Moduli (GPa) = 141.66851 119.43620 29.39703
#
# Poissons Ratio (x) = 0.28978 0.10562
# Poissons Ratio (y) = 0.34372 -0.02996
# Poissons Ratio (z) = 0.50901 -0.12171
#
# Static dielectric constant tensor:
#      x y z
#    x 2.083480 0.000000 -0.067970 
#    y 0.000000 1.872340 0.000000 
#    z -0.067970 0.000000 1.973710 
# 
# From -- ./inp_files/52548.got.cif
#   From: 2010.05.17/outbox.cif.g08.bks.cpg/sg10_27_cif.got.tgz:52548.got - 2010.06.03 11:33:40.
