data_PCOD9141882
_publ_section_title
;
Structure prediction by ZEFSAII (Michael W. Deem and Ramdas Pophale) SiO2 
 PCOD9141882
Probable space group: P 2/M
;
_chemical_formula_sum "Si O2"
_cell_formula_units_Z 20
_cell_length_a 14.531848
_cell_length_b 11.573710
_cell_length_c 8.231780
_cell_angle_alpha 90.000000
_cell_angle_beta 38.859460
_cell_angle_gamma 90.000000
_cell_volume 868.640734
_symmetry_space_group_name_H-M "P 2/M"
_symmetry_group_IT_number 10
_symmetry_cell_setting 'monoclinic'
loop_
_space_group_symop_operation_xyz
x,y,z
-x,y,-z
-x,-y,-z
x,-y,z
loop_
_atom_site_type_symbol
_atom_site_label
_atom_site_fract_x
_atom_site_fract_y
_atom_site_fract_z
Si Si1 0.906815 0.868881 0.458426
Si Si2 0.661595 0.500000 0.851777
Si Si3 0.397601 0.864972 0.476971
Si Si4 0.336907 0.751774 0.036093
Si Si5 0.146773 0.261527 0.979503
Si Si6 0.991889 0.500000 0.309400
O O1 0.762917 0.794084 0.679960
O O2 0.000000 0.860388 0.500000
O O3 0.865124 0.000000 0.494875
O O4 0.009178 0.823197 0.176276
O O5 0.658599 0.614894 0.961362
O O6 0.812989 0.500000 0.536043
O O7 0.500000 0.500000 0.000000
O O8 0.500000 0.863017 0.500000
O O9 0.262362 0.775023 0.682299
O O10 0.354617 0.000000 0.513772
O O11 0.509931 0.816521 0.188555
O O12 0.243411 0.773461 0.003083
O O13 0.074079 0.387951 0.117444
O O14 0.000000 0.500000 0.500000
#
# Coordination Sequence:
#
# PCOD9141882 Si02
#       6
#     4   2   4   4   4   2
#     4   9  15  24  45  76 104 135 175 215 260 313
#     4  12  24  37  55  79 109 145 191 236 271 316
#     4   9  18  30  48  82 120 143 170 218 276 333
#     4  10  18  32  50  75 110 148 174 219 275 322
#     4  10  17  28  52  80 112 140 172 219 274 325
#     4  12  18  35  55  81 109 141 182 233 273 320
#
# _framework density 23.024477999999998
#
# number of rings (size 3 to 8) (size 9 to 14) (size 15 to 20)
#    0.000    2.000    4.000    1.800    0.000    5.600 
#    0.000    3.000    0.000    4.800    0.000    1.400 
#    0.000    0.000    0.000    0.000    0.000    0.000 
#
# Total GULP energy -111522.516041 kJ/mol
# GULP energy per Si atom -5576.125802 kJ/mol
# Density = 2.297207 g / cm^3
# Si number density = 23.024478 Si / 1000 Ang^3
#
#
#
# Elastic Constant Matrix: (Units=GPa)
#
#
# Indices 1 2 3 4 5 6 
#
# 1 81.2812 -2.6103 38.9988 0.0000 -18.3741 0.0000
# 2 -2.6103 91.7368 47.3548 0.0000 -1.8266 0.0000
# 3 38.9988 47.3548 156.8602 0.0000 -26.2064 0.0000
# 4 0.0000 0.0000 0.0000 34.3372 0.0000 -8.8440
# 5 -18.3741 -1.8266 -26.2064 0.0000 25.0710 0.0000
# 6 0.0000 0.0000 0.0000 -8.8440 0.0000 -82.3085
#
#
#
# Elastic Compliance Matrix: (Units=1/GPa)
#
#
# Indices 1 2 3 4 5 6 
#
# 1 0.015818 0.002278 -0.003218 0.000000 0.008395 0.000000
# 2 0.002278 0.013547 -0.005103 0.000000 -0.002678 0.000000
# 3 -0.003218 -0.005103 0.010007 0.000000 0.007730 0.000000
# 4 0.000000 0.000000 0.000000 0.028339 0.000000 -0.003045
# 5 0.008395 -0.002678 0.007730 0.000000 0.053925 0.000000
# 6 0.000000 0.000000 0.000000 -0.003045 0.000000 -0.011822
#
#
# Mechanical properties :
#
#
# Convention : Reuss Voigt Hill
#
# Bulk Modulus (GPa) = 36.64920 55.26278 45.95599
# Shear Modulus (GPa) = 38.16961 11.82893 24.99927
#
# Velocity S-wave (km/s) = 4.07601 2.26907 3.29868
# Velocity P-wave (km/s) = 6.17283 5.56047 5.87463
#
# Compressibility (1/GPa) = 0.02728572
#
# Stress axis : x y z
#
# Youngs Moduli (GPa) = 63.21987 73.81877 99.92642
#
# Poissons Ratio (x) = -0.16819 0.32156
# Poissons Ratio (y) = -0.14404 0.50997
# Poissons Ratio (z) = 0.20344 0.37673
#
# Static dielectric constant tensor:
#      x y z
#    x 4.017450 0.000000 -0.084290 
#    y 0.000000 1.790600 0.000000 
#    z -0.084290 0.000000 1.855420 
# 
# From -- ./inp_files/32394.got.cif
#   From: 2010.05.17/outbox.cif.g08.bks.cpg/sg10_17_cif.got.tgz:32394.got - 2010.06.03 11:33:40.
