data_PCOD9141559
_publ_section_title
;
Structure prediction by ZEFSAII (Michael W. Deem and Ramdas Pophale) SiO2 
 PCOD9141559
Probable space group: P 2/M
;
_chemical_formula_sum "Si O2"
_cell_formula_units_Z 28
_cell_length_a 16.485907
_cell_length_b 7.200169
_cell_length_c 13.533300
_cell_angle_alpha 90.000000
_cell_angle_beta 38.389112
_cell_angle_gamma 90.000000
_cell_volume 997.585288
_symmetry_space_group_name_H-M "P 2/M"
_symmetry_group_IT_number 10
_symmetry_cell_setting 'monoclinic'
loop_
_space_group_symop_operation_xyz
x,y,z
-x,y,-z
-x,-y,-z
x,-y,z
loop_
_atom_site_type_symbol
_atom_site_label
_atom_site_fract_x
_atom_site_fract_y
_atom_site_fract_z
Si Si1 0.658709 0.709650 0.699420
Si Si2 0.179284 0.283766 0.777508
Si Si3 0.087450 0.726002 0.653726
Si Si4 0.623013 0.273097 0.997018
Si Si5 0.892837 0.275181 0.681199
Si Si6 0.553723 0.222420 0.585268
Si Si7 0.731306 0.709212 0.106528
O O1 0.680051 0.500000 0.717534
O O2 0.799449 0.788921 0.531922
O O3 0.599382 0.698444 0.645612
O O4 0.526210 0.790056 0.874975
O O5 0.143165 0.500000 0.820757
O O6 0.106287 0.210248 0.748519
O O7 0.328152 0.268455 0.598704
O O8 0.177909 0.210022 0.891999
O O9 0.098441 0.500000 0.644800
O O10 0.951666 0.776747 0.731997
O O11 0.615034 0.500000 0.005790
O O12 0.741926 0.218590 0.809900
O O13 0.684234 0.213956 0.044990
O O14 0.893337 0.500000 0.678281
O O15 0.000000 0.213294 0.500000
O O16 0.410705 0.299139 0.705785
O O17 0.542999 0.000000 0.599380
O O18 0.780509 0.500000 0.039117
#
# Coordination Sequence:
#
# PCOD9141559 Si02
#       7
#     4   4   4   4   4   4   4
#     4   8  14  27  44  60  85 119 148 175 209 250
#     4   9  16  26  39  55  81 119 152 174 204 248
#     4   8  14  25  40  58  83 115 146 173 206 254
#     4   8  14  25  40  58  83 115 146 173 206 254
#     4   9  16  26  41  63  90 113 133 171 228 270
#     4  10  17  23  36  62  92 117 145 181 213 244
#     4   9  16  26  39  55  81 119 152 174 204 248
#
# _framework density 28.067778000000001
#
# number of rings (size 3 to 8) (size 9 to 14) (size 15 to 20)
#    0.000    3.286    0.000    3.429    0.000    2.286 
#    0.000    1.429    0.000    8.571    0.000   16.000 
#    0.000   64.000    0.000    0.000    0.000    0.000 
#
# Total GULP energy -156221.497773 kJ/mol
# GULP energy per Si atom -5579.339206 kJ/mol
# Density = 2.800389 g / cm^3
# Si number density = 28.067778 Si / 1000 Ang^3
#
#
#
# Elastic Constant Matrix: (Units=GPa)
#
#
# Indices 1 2 3 4 5 6 
#
# 1 130.6532 9.5691 36.9332 0.0000 -8.1708 0.0000
# 2 9.5691 146.6755 5.7166 0.0000 -5.5234 0.0000
# 3 36.9332 5.7166 159.5612 0.0000 -46.5870 0.0000
# 4 0.0000 0.0000 0.0000 45.5598 0.0000 -22.1796
# 5 -8.1708 -5.5234 -46.5870 0.0000 48.9002 0.0000
# 6 0.0000 0.0000 0.0000 -22.1796 0.0000 30.2486
#
#
#
# Elastic Compliance Matrix: (Units=1/GPa)
#
#
# Indices 1 2 3 4 5 6 
#
# 1 0.008236 -0.000481 -0.002083 0.000000 -0.000662 0.000000
# 2 -0.000481 0.006875 0.000095 0.000000 0.000786 0.000000
# 3 -0.002083 0.000095 0.009209 0.000000 0.008436 0.000000
# 4 0.000000 0.000000 0.000000 0.034133 0.000000 0.025028
# 5 -0.000662 0.000786 0.008436 0.000000 0.028465 0.000000
# 6 0.000000 0.000000 0.000000 0.025028 0.000000 0.051411
#
#
# Mechanical properties :
#
#
# Convention : Reuss Voigt Hill
#
# Bulk Modulus (GPa) = 51.59346 60.14752 55.87049
# Shear Modulus (GPa) = 33.39377 50.58645 41.99011
#
# Velocity S-wave (km/s) = 3.45302 4.24995 3.87204
# Velocity P-wave (km/s) = 5.85828 6.74972 6.31974
#
# Compressibility (1/GPa) = 0.01938230
#
# Stress axis : x y z
#
# Youngs Moduli (GPa) = 121.41271 145.45284 108.59078
#
# Poissons Ratio (x) = 0.06998 0.22614
# Poissons Ratio (y) = 0.05841 -0.01028
# Poissons Ratio (z) = 0.25285 -0.01376
#
# Static dielectric constant tensor:
#      x y z
#    x 2.206970 0.000000 0.062270 
#    y 0.000000 2.159270 0.000000 
#    z 0.062270 0.000000 2.251610 
# 
# From -- ./inp_files/68575.got.cif
#   From: 2010.05.17/outbox.cif.g08.bks.cpg/sg10_35_cif.got.tgz:68575.got - 2010.06.03 11:33:40.
