data_PCOD9141300
_publ_section_title
;
Structure prediction by ZEFSAII (Michael W. Deem and Ramdas Pophale) SiO2 
 PCOD9141300
Probable space group: P 2/M
;
_chemical_formula_sum "Si O2"
_cell_formula_units_Z 22
_cell_length_a 5.394987
_cell_length_b 28.019096
_cell_length_c 8.501779
_cell_angle_alpha 90.000000
_cell_angle_beta 56.274908
_cell_angle_gamma 90.000000
_cell_volume 1068.874724
_symmetry_space_group_name_H-M "P 2/M"
_symmetry_group_IT_number 10
_symmetry_cell_setting 'monoclinic'
loop_
_space_group_symop_operation_xyz
x,y,z
-x,y,-z
-x,-y,-z
x,-y,z
loop_
_atom_site_type_symbol
_atom_site_label
_atom_site_fract_x
_atom_site_fract_y
_atom_site_fract_z
Si Si1 0.361370 0.000000 0.871919
Si Si2 0.358958 0.196602 0.376488
Si Si3 0.913973 0.443901 0.306023
Si Si4 0.361162 0.698201 0.372403
Si Si5 0.360186 0.896563 0.875436
Si Si6 0.450004 0.595450 0.264714
O O1 0.444286 0.948390 0.770833
O O2 0.500000 0.000000 0.000000
O O3 0.000000 0.000000 0.000000
O O4 0.500000 0.198253 0.500000
O O5 0.430951 0.249110 0.280808
O O6 0.502543 0.150379 0.248612
O O7 0.000000 0.191947 0.500000
O O8 0.887633 0.500000 0.346650
O O9 0.744170 0.415898 0.507055
O O10 0.752447 0.430434 0.202670
O O11 0.250720 0.426841 0.199482
O O12 0.500000 0.695553 0.500000
O O13 0.481742 0.652117 0.239339
O O14 0.000000 0.694207 0.500000
O O15 0.500000 0.898033 0.000000
O O16 0.000000 0.893024 0.000000
#
# Coordination Sequence:
#
# PCOD9141300 Si02
#       6
#     2   4   4   4   4   4
#     4   8  16  30  52  76  98 130 170 204 238 302
#     4  10  21  33  50  74 104 130 169 214 250 290
#     4  10  16  20  29  45  67  95 143 186 217 260
#     4  10  16  27  39  54  78 115 150 191 222 282
#     4  10  19  35  56  77 102 135 172 206 250 300
#     4  10  14  22  31  43  65  98 141 178 214 267
#
# _framework density 20.582391000000001
#
# number of rings (size 3 to 8) (size 9 to 14) (size 15 to 20)
#    0.000    2.182    3.636    3.818    0.000    0.000 
#    0.000    0.909    0.000    0.000    0.000    0.000 
#    0.000    0.000    0.000    0.000    0.000   30.909 
#
# Total GULP energy -122590.035597 kJ/mol
# GULP energy per Si atom -5572.274345 kJ/mol
# Density = 2.053554 g / cm^3
# Si number density = 20.582391 Si / 1000 Ang^3
#
#
#
# Elastic Constant Matrix: (Units=GPa)
#
#
# Indices 1 2 3 4 5 6 
#
# 1 195.1147 35.4752 18.1571 0.0000 17.5826 0.0000
# 2 35.4752 232.0166 19.7573 0.0000 -4.2334 0.0000
# 3 18.1571 19.7573 18.7835 0.0000 -10.3257 0.0000
# 4 0.0000 0.0000 0.0000 61.7023 0.0000 -11.6827
# 5 17.5826 -4.2334 -10.3257 0.0000 15.6506 0.0000
# 6 0.0000 0.0000 0.0000 -11.6827 0.0000 40.5725
#
#
#
# Elastic Compliance Matrix: (Units=1/GPa)
#
#
# Indices 1 2 3 4 5 6 
#
# 1 0.009865 0.000092 -0.024653 0.000000 -0.027322 0.000000
# 2 0.000092 0.004836 -0.007083 0.000000 -0.003469 0.000000
# 3 -0.024653 -0.007083 0.154854 0.000000 0.127947 0.000000
# 4 0.000000 0.000000 0.000000 0.017141 0.000000 0.004936
# 5 -0.027322 -0.003469 0.127947 0.000000 0.178067 0.000000
# 6 0.000000 0.000000 0.000000 0.004936 0.000000 0.026068
#
#
# Mechanical properties :
#
#
# Convention : Reuss Voigt Hill
#
# Bulk Modulus (GPa) = 9.41011 65.85489 37.63250
# Shear Modulus (GPa) = 10.21368 48.42011 29.31690
#
# Velocity S-wave (km/s) = 2.23005 4.85552 3.77817
# Velocity P-wave (km/s) = 3.34853 7.96869 6.11198
#
# Compressibility (1/GPa) = 0.10626864
#
# Stress axis : x y z
#
# Youngs Moduli (GPa) = 101.37226 206.79406 6.45771
#
# Poissons Ratio (x) = -0.01912 0.15920
# Poissons Ratio (y) = -0.00937 0.04574
# Poissons Ratio (z) = 2.49909 1.46465
#
# Static dielectric constant tensor:
#      x y z
#    x 1.733410 0.000000 0.008320 
#    y 0.000000 1.758900 0.000000 
#    z 0.008320 0.000000 1.738160 
# 
# From -- ./inp_files/15547.got.cif
#   From: 2010.05.17/outbox.cif.g08.bks.cpg/sg10_8_cif.got.tgz:15547.got - 2010.06.03 11:33:40.
