data_PCOD9141259
_publ_section_title
;
Structure prediction by ZEFSAII (Michael W. Deem and Ramdas Pophale) SiO2 
 PCOD9141259
Probable space group: C C
;
_chemical_formula_sum "Si O2"
_cell_formula_units_Z 10
_cell_length_a 9.000000
_cell_length_b 12.000000
_cell_length_c 12.000000
_cell_angle_alpha 90.000000
_cell_angle_beta 130.000000
_cell_angle_gamma 90.000000
_cell_volume 992.793598
_symmetry_space_group_name_H-M "C C"
_symmetry_group_IT_number 9
_symmetry_cell_setting 'monoclinic'
loop_
_space_group_symop_operation_xyz
x,y,z
x,-y,1/2+z
1/2+x,1/2+y,z
1/2+x,1/2-y,1/2+z
loop_
_atom_site_type_symbol
_atom_site_label
_atom_site_fract_x
_atom_site_fract_y
_atom_site_fract_z
Si Si1 0.985420 0.684044 0.723720
Si Si2 0.010630 0.523711 0.525550
Si Si3 0.721245 0.335958 0.307910
Si Si4 0.813141 0.892519 0.545951
Si Si5 0.307877 0.637137 0.520059
O O1 0.804351 0.674605 0.721964
O O2 0.973883 0.805145 0.660821
O O3 0.987486 0.586504 0.631601
O O4 0.170180 0.670320 0.892500
O O5 0.185566 0.432920 0.592401
O O6 0.099430 0.615699 0.481099
O O7 0.820046 0.451309 0.401237
O O8 0.487320 0.334380 0.188663
O O9 0.789123 0.231895 0.417481
O O10 0.865682 0.010015 0.512727
#
# Coordination Sequence:
#
# PCOD9141259 Si02
#       5
#     4   4   4   4   4
#     4  11  22  43  70  96 135 173 229 273 335 401
#     4   9  24  44  64 104 133 174 231 273 333 411
#     4  11  23  45  73  97 139 184 220 288 339 400
#     4   9  24  41  66  96 133 172 222 276 328 399
#     4  10  25  45  67 101 138 181 224 276 347 395
#
# _framework density 10.072587
#
# number of rings (size 3 to 8) (size 9 to 14) (size 15 to 20)
#    1.200    0.800    0.000    2.400    8.400    1.600 
#    7.200    0.000    0.000    0.000    0.000    0.000 
#    0.000    0.000    0.000    0.000    0.000    0.000 
#
# Total GULP energy -55695.878652 kJ/mol
# GULP energy per Si atom -5569.587865 kJ/mol
# Density = 1.004966 g / cm^3
# Si number density = 10.072587 Si / 1000 Ang^3
#
#
#
# Elastic Constant Matrix: (Units=GPa)
#
#
# Indices 1 2 3 4 5 6 
#
# 1 59.7892 44.1749 32.4234 0.0000 -18.7068 0.0000
# 2 44.1749 135.8668 75.6043 0.0000 -7.1950 0.0000
# 3 32.4234 75.6043 81.7340 0.0000 -0.3147 0.0000
# 4 0.0000 0.0000 0.0000 50.3224 0.0000 -4.4724
# 5 -18.7068 -7.1950 -0.3147 0.0000 31.8980 0.0000
# 6 0.0000 0.0000 0.0000 -4.4724 0.0000 36.9094
#
#
#
# Elastic Compliance Matrix: (Units=1/GPa)
#
#
# Indices 1 2 3 4 5 6 
#
# 1 0.028986 -0.004571 -0.007209 0.000000 0.015897 0.000000
# 2 -0.004571 0.016239 -0.013205 0.000000 0.000852 0.000000
# 3 -0.007209 -0.013205 0.027283 0.000000 -0.006937 0.000000
# 4 0.000000 0.000000 0.000000 0.020088 0.000000 0.002434
# 5 0.015897 0.000852 -0.006937 0.000000 0.040796 0.000000
# 6 0.000000 0.000000 0.000000 0.002434 0.000000 0.027388
#
#
# Mechanical properties :
#
#
# Convention : Reuss Voigt Hill
#
# Bulk Modulus (GPa) = 44.37011 64.64392 54.50701
# Shear Modulus (GPa) = 22.90803 32.17180 27.53991
#
# Velocity S-wave (km/s) = 3.37582 4.00058 3.70141
# Velocity P-wave (km/s) = 6.10474 7.31425 6.73669
#
# Compressibility (1/GPa) = 0.02253770
#
# Stress axis : x y z
#
# Youngs Moduli (GPa) = 34.49956 61.57833 36.65317
#
# Poissons Ratio (x) = 0.28146 0.26425
# Poissons Ratio (y) = 0.15769 0.48401
# Poissons Ratio (z) = 0.24872 0.81315
#
# Static dielectric constant tensor:
#      x y z
#    x 1.740010 0.000000 0.016790 
#    y 0.000000 1.738600 0.000000 
#    z 0.016790 0.000000 1.708850 
# 
# From -- ./inp_files/4706.got.cif
#   From: 2010.05.17/outbox.ucp.g08.bks.cvg/sg9_3_cif.got.tgz:4706.got - 2010.06.11 13:03:20.
