data_PCOD9141713
_publ_section_title
;
Structure prediction by ZEFSAII (Michael W. Deem and Ramdas Pophale) SiO2 
 PCOD9141713
Probable space group: P 2/M
;
_chemical_formula_sum "Si O2"
_cell_formula_units_Z 28
_cell_length_a 13.993588
_cell_length_b 12.027864
_cell_length_c 11.357360
_cell_angle_alpha 90.000000
_cell_angle_beta 77.568734
_cell_angle_gamma 90.000000
_cell_volume 1866.773689
_symmetry_space_group_name_H-M "P 2/M"
_symmetry_group_IT_number 10
_symmetry_cell_setting 'monoclinic'
loop_
_space_group_symop_operation_xyz
x,y,z
-x,y,-z
-x,-y,-z
x,-y,z
loop_
_atom_site_type_symbol
_atom_site_label
_atom_site_fract_x
_atom_site_fract_y
_atom_site_fract_z
Si Si1 0.212992 0.238559 0.537104
Si Si2 0.134403 0.000000 0.577596
Si Si3 0.447713 0.366037 0.836963
Si Si4 0.653505 0.634758 0.891376
Si Si5 0.833160 0.239421 0.730167
Si Si6 0.910530 0.000000 0.691428
Si Si7 0.976654 0.626245 0.366081
Si Si8 0.605361 0.368461 0.410083
O O1 0.195409 0.111919 0.581911
O O2 0.198647 0.242973 0.399357
O O3 0.314231 0.294396 0.546625
O O4 0.124963 0.309604 0.617450
O O5 0.108038 0.000000 0.445013
O O6 0.028893 0.000000 0.670907
O O7 0.450311 0.500000 0.832641
O O8 0.559767 0.333923 0.835263
O O9 0.407993 0.330264 0.721456
O O10 0.380527 0.337966 0.966667
O O11 0.668309 0.500000 0.878462
O O12 0.747919 0.702430 0.826485
O O13 0.933170 0.309123 0.714677
O O14 0.860723 0.112186 0.751787
O O15 0.969725 0.500000 0.326185
O O16 0.000000 0.624381 0.500000
O O17 0.500000 0.360265 0.500000
O O18 0.633612 0.500000 0.405682
#
# Coordination Sequence:
#
# PCOD9141713 Si02
#       8
#     4   2   4   4   4   2   4   4
#     4  10  18  28  44  65  92 124 151 184 228 269
#     4   9  16  30  45  61  89 126 158 184 223 273
#     4   8  16  30  46  66  93 124 151 177 222 276
#     4   9  16  28  48  70  91 117 150 188 225 266
#     4  10  17  26  44  68  92 118 152 190 225 267
#     4   9  16  28  44  64  91 121 156 189 224 270
#     4   9  16  24  37  63  94 116 140 181 229 269
#     4  10  19  30  46  69  96 122 148 181 224 275
#
# _framework density 14.999140000000001
#
# number of rings (size 3 to 8) (size 9 to 14) (size 15 to 20)
#    0.000    2.714    1.429    2.571    0.000    2.857 
#    0.000    0.357    0.000    4.286    0.000    5.000 
#    0.000    0.000    0.000    0.000    0.000    0.000 
#
# Total GULP energy -155921.822467 kJ/mol
# GULP energy per Si atom -5568.636517 kJ/mol
# Density = 1.496500 g / cm^3
# Si number density = 14.999140 Si / 1000 Ang^3
#
#
#
# Elastic Constant Matrix: (Units=GPa)
#
#
# Indices 1 2 3 4 5 6 
#
# 1 85.8866 55.9875 26.0184 0.0000 -17.3539 0.0000
# 2 55.9875 116.1159 27.2475 0.0000 -16.2731 0.0000
# 3 26.0184 27.2475 36.8879 0.0000 -11.9209 0.0000
# 4 0.0000 0.0000 0.0000 5.3492 0.0000 4.0017
# 5 -17.3539 -16.2731 -11.9209 0.0000 28.0243 0.0000
# 6 0.0000 0.0000 0.0000 4.0017 0.0000 14.7848
#
#
#
# Elastic Compliance Matrix: (Units=1/GPa)
#
#
# Indices 1 2 3 4 5 6 
#
# 1 0.019275 -0.006996 -0.006821 0.000000 0.004972 0.000000
# 2 -0.006996 0.013214 -0.004343 0.000000 0.001493 0.000000
# 3 -0.006821 -0.004343 0.038199 0.000000 0.009503 0.000000
# 4 0.000000 0.000000 0.000000 0.234409 0.000000 -0.063446
# 5 0.004972 0.001493 0.009503 0.000000 0.043672 0.000000
# 6 0.000000 0.000000 0.000000 -0.063446 0.000000 0.084810
#
#
# Mechanical properties :
#
#
# Convention : Reuss Voigt Hill
#
# Bulk Modulus (GPa) = 29.09715 50.82192 39.95953
# Shear Modulus (GPa) = 10.38735 18.27413 14.33074
#
# Velocity S-wave (km/s) = 2.63445 3.49427 3.09437
# Velocity P-wave (km/s) = 5.35678 7.08778 6.28219
#
# Compressibility (1/GPa) = 0.03436763
#
# Stress axis : x y z
#
# Youngs Moduli (GPa) = 51.88082 75.67738 26.17847
#
# Poissons Ratio (x) = 0.52948 0.17855
# Poissons Ratio (y) = 0.36298 0.11370
# Poissons Ratio (z) = 0.35386 0.32868
#
# Static dielectric constant tensor:
#      x y z
#    x 1.485730 0.000000 0.005770 
#    y 0.000000 1.497820 0.000000 
#    z 0.005770 0.000000 1.496110 
# 
# From -- ./inp_files/50356.got.cif
#   From: 2010.05.17/outbox.cif.g08.bks.cpg/sg10_26_cif.got.tgz:50356.got - 2010.06.03 11:33:40.
