data_PCOD9141854
_publ_section_title
;
Structure prediction by ZEFSAII (Michael W. Deem and Ramdas Pophale) SiO2 
 PCOD9141854
Probable space group: P 2/M
;
_chemical_formula_sum "Si O2"
_cell_formula_units_Z 32
_cell_length_a 13.000666
_cell_length_b 7.413183
_cell_length_c 29.533336
_cell_angle_alpha 90.000000
_cell_angle_beta 150.368057
_cell_angle_gamma 90.000000
_cell_volume 1407.293253
_symmetry_space_group_name_H-M "P 2/M"
_symmetry_group_IT_number 10
_symmetry_cell_setting 'monoclinic'
loop_
_space_group_symop_operation_xyz
x,y,z
-x,y,-z
-x,-y,-z
x,-y,z
loop_
_atom_site_type_symbol
_atom_site_label
_atom_site_fract_x
_atom_site_fract_y
_atom_site_fract_z
Si Si1 0.705690 0.285100 0.017959
Si Si2 0.077934 0.704619 0.983677
Si Si3 0.953422 0.779810 0.534049
Si Si4 0.688703 0.219953 0.258903
Si Si5 0.057822 0.789356 0.226116
Si Si6 0.745343 0.215727 0.178059
Si Si7 0.504429 0.219424 0.645183
Si Si8 0.635497 0.782559 0.792961
O O1 0.732967 0.500000 0.027091
O O2 0.462413 0.249167 0.931048
O O3 0.878140 0.217635 0.118880
O O4 0.758047 0.211139 0.987551
O O5 0.142880 0.500000 0.019263
O O6 0.862438 0.701925 0.873790
O O7 0.000000 0.795137 0.000000
O O8 0.720223 0.724097 0.458946
O O9 0.000000 0.723414 0.500000
O O10 0.125025 0.723880 0.636306
O O11 0.959405 0.000000 0.535620
O O12 0.714838 0.284469 0.217536
O O13 0.477338 0.273817 0.204006
O O14 0.687273 0.000000 0.257460
O O15 0.944911 0.712101 0.227371
O O16 0.280562 0.714953 0.295119
O O17 0.097205 0.000000 0.250162
O O18 0.767602 0.000000 0.189750
O O19 0.506345 0.266133 0.699168
O O20 0.509588 0.000000 0.645290
O O21 0.654770 0.000000 0.800772
#
# Coordination Sequence:
#
# PCOD9141854 Si02
#       8
#     4   4   4   4   4   4   4   4
#     4  11  22  35  53  75  97 128 173 214 244 289
#     4  10  21  34  46  67 101 133 158 194 251 304
#     4   9  14  24  45  74 105 130 156 200 251 292
#     4   9  17  29  47  75 105 131 165 204 245 294
#     4  10  20  35  52  71 101 136 167 204 250 294
#     4  10  21  35  50  71 102 136 166 204 252 295
#     4   9  16  27  46  73  99 125 160 199 242 289
#     4  10  17  28  49  73  97 126 162 202 238 284
#
# _framework density 22.738686999999999
#
# number of rings (size 3 to 8) (size 9 to 14) (size 15 to 20)
#    0.000    2.250    2.500    1.500    0.000    2.750 
#    0.000    0.625    0.000    3.750    0.000    4.375 
#    0.000    2.000    0.000    0.000    0.000    0.000 
#
# Total GULP energy -178676.644830 kJ/mol
# GULP energy per Si atom -5583.645151 kJ/mol
# Density = 2.268693 g / cm^3
# Si number density = 22.738687 Si / 1000 Ang^3
#
#
#
# Elastic Constant Matrix: (Units=GPa)
#
#
# Indices 1 2 3 4 5 6 
#
# 1 148.2531 6.3865 46.1536 0.0000 26.4924 0.0000
# 2 6.3865 79.3684 -0.8448 0.0000 1.8326 0.0000
# 3 46.1536 -0.8448 112.5337 0.0000 19.1695 0.0000
# 4 0.0000 0.0000 0.0000 42.0111 0.0000 -3.7200
# 5 26.4924 1.8326 19.1695 0.0000 37.2488 0.0000
# 6 0.0000 0.0000 0.0000 -3.7200 0.0000 -4.3012
#
#
#
# Elastic Compliance Matrix: (Units=1/GPa)
#
#
# Indices 1 2 3 4 5 6 
#
# 1 0.008424 -0.000601 -0.002679 0.000000 -0.004583 0.000000
# 2 -0.000601 0.012662 0.000411 0.000000 -0.000407 0.000000
# 3 -0.002679 0.000411 0.010596 0.000000 -0.003568 0.000000
# 4 0.000000 0.000000 0.000000 0.022110 0.000000 -0.019122
# 5 -0.004583 -0.000407 -0.003568 0.000000 0.031962 0.000000
# 6 0.000000 0.000000 0.000000 -0.019122 0.000000 -0.215955
#
#
# Mechanical properties :
#
#
# Convention : Reuss Voigt Hill
#
# Bulk Modulus (GPa) = 38.54424 49.28287 43.91355
# Shear Modulus (GPa) = -43.17187 34.22240 -4.47473
#
# Velocity S-wave (km/s) = -4.36203 3.88368 -1.40434
# Velocity P-wave (km/s) = 2.89517 6.46771 4.08958
#
# Compressibility (1/GPa) = 0.02594421
#
# Stress axis : x y z
#
# Youngs Moduli (GPa) = 118.70775 78.97916 94.37775
#
# Poissons Ratio (x) = 0.04743 0.25281
# Poissons Ratio (y) = 0.07129 -0.03876
# Poissons Ratio (z) = 0.31799 -0.03244
#
# Static dielectric constant tensor:
#      x y z
#    x 1.877740 0.000000 -0.001790 
#    y 0.000000 1.866760 0.000000 
#    z -0.001790 0.000000 1.834580 
# 
# From -- ./inp_files/69967.got.cif
#   From: 2010.05.17/outbox.cif.g08.bks.cpg/sg10_35_cif.got.tgz:69967.got - 2010.06.03 11:33:40.
