data_PCOD9141905
_publ_section_title
;
Structure prediction by ZEFSAII (Michael W. Deem and Ramdas Pophale) SiO2 
 PCOD9141905
Probable space group: P 2/M
;
_chemical_formula_sum "Si O2"
_cell_formula_units_Z 30
_cell_length_a 10.177416
_cell_length_b 17.526651
_cell_length_c 9.433783
_cell_angle_alpha 90.000000
_cell_angle_beta 79.182309
_cell_angle_gamma 90.000000
_cell_volume 1652.856893
_symmetry_space_group_name_H-M "P 2/M"
_symmetry_group_IT_number 10
_symmetry_cell_setting 'monoclinic'
loop_
_space_group_symop_operation_xyz
x,y,z
-x,y,-z
-x,-y,-z
x,-y,z
loop_
_atom_site_type_symbol
_atom_site_label
_atom_site_fract_x
_atom_site_fract_y
_atom_site_fract_z
Si Si1 0.221676 0.264684 0.958612
Si Si2 0.214284 0.413255 0.777997
Si Si3 0.839016 0.084628 0.549871
Si Si4 0.807734 0.192819 0.320923
Si Si5 0.249821 0.331635 0.502168
Si Si6 0.116208 0.232442 0.291272
Si Si7 0.462618 0.412679 0.273873
Si Si8 0.500000 0.315892 0.000000
O O1 0.177835 0.345666 0.895446
O O2 0.197639 0.199536 0.846195
O O3 0.380189 0.269250 0.955323
O O4 0.151625 0.250050 0.122072
O O5 0.172437 0.500000 0.820954
O O6 0.174248 0.387609 0.627239
O O7 0.377068 0.412206 0.740666
O O8 0.784647 0.114836 0.409465
O O9 0.816884 0.153284 0.666141
O O10 0.000000 0.079744 0.500000
O O11 0.790487 0.000000 0.597464
O O12 0.714772 0.258478 0.407094
O O13 0.957595 0.219601 0.333497
O O14 0.166620 0.298619 0.386294
O O15 0.379452 0.371937 0.412524
O O16 0.418968 0.500000 0.274496
O O17 0.435515 0.369219 0.132868
#
# Coordination Sequence:
#
# PCOD9141905 Si02
#       8
#     4   4   4   4   4   4   4   2
#     4  10  19  33  51  72 102 130 167 205 251 289
#     4   9  19  32  47  69  98 127 165 219 265 286
#     4   8  15  30  53  80 106 124 153 201 244 284
#     4   9  19  32  52  74 101 133 162 191 243 296
#     4  10  17  29  47  70  94 125 164 201 242 298
#     4  10  18  32  51  77 100 133 163 192 245 298
#     4  10  18  29  47  69  96 124 161 216 268 294
#     4  10  19  32  46  76  97 120 166 214 257 286
#
# _framework density 18.150390999999999
#
# number of rings (size 3 to 8) (size 9 to 14) (size 15 to 20)
#    0.000    2.533    1.333    2.600    0.000    1.600 
#    0.000    0.667    0.000   25.600    0.000    2.800 
#    0.000    0.000    0.000    0.000    0.000    0.000 
#
# Total GULP energy -167137.273517 kJ/mol
# GULP energy per Si atom -5571.242451 kJ/mol
# Density = 1.810908 g / cm^3
# Si number density = 18.150391 Si / 1000 Ang^3
#
#
#
# Elastic Constant Matrix: (Units=GPa)
#
#
# Indices 1 2 3 4 5 6 
#
# 1 26.2300 12.9437 4.9076 0.0000 8.7033 0.0000
# 2 12.9437 85.4043 36.1999 0.0000 5.5021 0.0000
# 3 4.9076 36.1999 127.0839 0.0000 8.9290 0.0000
# 4 0.0000 0.0000 0.0000 15.6978 0.0000 1.6416
# 5 8.7033 5.5021 8.9290 0.0000 27.3795 0.0000
# 6 0.0000 0.0000 0.0000 1.6416 0.0000 11.5545
#
#
#
# Elastic Compliance Matrix: (Units=1/GPa)
#
#
# Indices 1 2 3 4 5 6 
#
# 1 0.045620 -0.006481 0.001035 0.000000 -0.013537 0.000000
# 2 -0.006481 0.014296 -0.003853 0.000000 0.000444 0.000000
# 3 0.001035 -0.003853 0.009104 0.000000 -0.002524 0.000000
# 4 0.000000 0.000000 0.000000 0.064664 0.000000 -0.009187
# 5 -0.013537 0.000444 -0.002524 0.000000 0.041561 0.000000
# 6 0.000000 0.000000 0.000000 -0.009187 0.000000 0.087852
#
#
# Mechanical properties :
#
#
# Convention : Reuss Voigt Hill
#
# Bulk Modulus (GPa) = 19.83227 38.53561 29.18394
# Shear Modulus (GPa) = 16.75038 23.23749 19.99393
#
# Velocity S-wave (km/s) = 3.04117 3.58197 3.32259
# Velocity P-wave (km/s) = 4.82514 6.19554 5.55278
#
# Compressibility (1/GPa) = 0.05042286
#
# Stress axis : x y z
#
# Youngs Moduli (GPa) = 21.92007 69.95038 109.84531
#
# Poissons Ratio (x) = 0.45334 -0.11374
# Poissons Ratio (y) = 0.14206 0.42324
# Poissons Ratio (z) = -0.02270 0.26953
#
# Static dielectric constant tensor:
#      x y z
#    x 1.654290 0.000000 0.022570 
#    y 0.000000 1.642780 0.000000 
#    z 0.022570 0.000000 1.654060 
# 
# From -- ./inp_files/25680.got.cif
#   From: 2010.05.17/outbox.cif.g08.bks.cpg/sg10_13_cif.got.tgz:25680.got - 2010.06.03 11:33:40.
