data_PCOD9141969
_publ_section_title
;
Structure prediction by ZEFSAII (Michael W. Deem and Ramdas Pophale) SiO2 
 PCOD9141969
Probable space group: P 2/M
;
_chemical_formula_sum "Si O2"
_cell_formula_units_Z 28
_cell_length_a 34.105293
_cell_length_b 8.076840
_cell_length_c 10.417749
_cell_angle_alpha 90.000000
_cell_angle_beta 34.954157
_cell_angle_gamma 90.000000
_cell_volume 1644.113420
_symmetry_space_group_name_H-M "P 2/M"
_symmetry_group_IT_number 10
_symmetry_cell_setting 'monoclinic'
loop_
_space_group_symop_operation_xyz
x,y,z
-x,y,-z
-x,-y,-z
x,-y,z
loop_
_atom_site_type_symbol
_atom_site_label
_atom_site_fract_x
_atom_site_fract_y
_atom_site_fract_z
Si Si1 0.836852 0.184806 0.610603
Si Si2 0.686920 0.700049 0.021153
Si Si3 0.683560 0.694077 0.731041
Si Si4 0.083289 0.500000 0.925117
Si Si5 0.459873 0.195596 0.983192
Si Si6 0.457506 0.299506 0.486862
Si Si7 0.829730 0.817227 0.317433
Si Si8 0.074580 0.500000 0.635491
O O1 0.759355 0.221244 0.862841
O O2 0.833581 0.187717 0.463186
O O3 0.886572 0.334725 0.514737
O O4 0.858642 0.000000 0.590604
O O5 0.693681 0.500000 0.008953
O O6 0.672265 0.742423 0.910853
O O7 0.621324 0.749479 0.280209
O O8 0.701375 0.500000 0.683750
O O9 0.749849 0.788794 0.501379
O O10 0.613686 0.722918 0.843434
O O11 0.124344 0.665227 0.853129
O O12 0.080008 0.500000 0.777322
O O13 0.005467 0.500000 0.181429
O O14 0.506669 0.226368 0.733481
O O15 0.448269 0.000000 0.030100
O O16 0.500000 0.259442 0.000000
O O17 0.500000 0.252923 0.500000
O O18 0.460295 0.500000 0.470164
O O19 0.852273 0.000000 0.215421
#
# Coordination Sequence:
#
# PCOD9141969 Si02
#       8
#     4   4   4   2   4   4   4   2
#     4   9  16  25  39  59  84 121 157 190 243 292
#     4   9  16  28  47  67  92 116 152 211 253 286
#     4  10  17  30  50  67  88 121 162 206 250 294
#     4   9  16  26  38  58  82 121 156 191 243 285
#     4  11  24  37  47  67 101 135 167 208 258 306
#     4  10  19  34  52  73  94 121 164 215 259 296
#     4   9  16  26  40  61  86 114 157 202 236 284
#     4   9  16  26  38  54  88 118 154 198 233 287
#
# _framework density 17.030456000000001
#
# number of rings (size 3 to 8) (size 9 to 14) (size 15 to 20)
#    0.000    2.429    2.857    0.857    0.000    3.143 
#    0.000    2.857    0.000    0.000    0.000    0.000 
#    0.000    0.000    0.000    2.571    0.000   11.429 
#
# Total GULP energy -156093.901420 kJ/mol
# GULP energy per Si atom -5574.782194 kJ/mol
# Density = 1.699169 g / cm^3
# Si number density = 17.030456 Si / 1000 Ang^3
#
#
#
# Elastic Constant Matrix: (Units=GPa)
#
#
# Indices 1 2 3 4 5 6 
#
# 1 45.7484 20.9601 33.2699 0.0000 -11.0327 0.0000
# 2 20.9601 91.8795 44.7650 0.0000 -24.5176 0.0000
# 3 33.2699 44.7650 77.5162 0.0000 -32.7509 0.0000
# 4 0.0000 0.0000 0.0000 9.1553 0.0000 -1.2888
# 5 -11.0327 -24.5176 -32.7509 0.0000 25.5657 0.0000
# 6 0.0000 0.0000 0.0000 -1.2888 0.0000 12.6788
#
#
#
# Elastic Compliance Matrix: (Units=1/GPa)
#
#
# Indices 1 2 3 4 5 6 
#
# 1 0.032756 -0.001650 -0.017007 0.000000 -0.009234 0.000000
# 2 -0.001650 0.015868 -0.005072 0.000000 0.008008 0.000000
# 3 -0.017007 -0.005072 0.039178 0.000000 0.037986 0.000000
# 4 0.000000 0.000000 0.000000 0.110812 0.000000 0.011264
# 5 -0.009234 0.008008 0.037986 0.000000 0.091471 0.000000
# 6 0.000000 0.000000 0.000000 0.011264 0.000000 0.080017
#
#
# Mechanical properties :
#
#
# Convention : Reuss Voigt Hill
#
# Bulk Modulus (GPa) = 24.78738 45.90379 35.34559
# Shear Modulus (GPa) = 11.60064 17.22324 14.41194
#
# Velocity S-wave (km/s) = 2.61275 3.18358 2.91218
# Velocity P-wave (km/s) = 4.86706 6.36600 5.66632
#
# Compressibility (1/GPa) = 0.04034311
#
# Stress axis : x y z
#
# Youngs Moduli (GPa) = 30.52850 63.01824 25.52431
#
# Poissons Ratio (x) = 0.10401 0.43410
# Poissons Ratio (y) = 0.05038 0.12946
# Poissons Ratio (z) = 0.51921 0.31964
#
# Static dielectric constant tensor:
#      x y z
#    x 1.551180 0.000000 -0.016680 
#    y 0.000000 1.607920 0.000000 
#    z -0.016680 0.000000 1.558820 
# 
# From -- ./inp_files/37216.got.cif
#   From: 2010.05.17/outbox.cif.g08.bks.cpg/sg10_19_cif.got.tgz:37216.got - 2010.06.03 11:33:40.
