data_PCOD9141928
_publ_section_title
;
Structure prediction by ZEFSAII (Michael W. Deem and Ramdas Pophale) SiO2 
 PCOD9141928
Probable space group: P 2/M
;
_chemical_formula_sum "Si O2"
_cell_formula_units_Z 28
_cell_length_a 14.939827
_cell_length_b 7.758899
_cell_length_c 19.891053
_cell_angle_alpha 90.000000
_cell_angle_beta 42.015292
_cell_angle_gamma 90.000000
_cell_volume 1543.273983
_symmetry_space_group_name_H-M "P 2/M"
_symmetry_group_IT_number 10
_symmetry_cell_setting 'monoclinic'
loop_
_space_group_symop_operation_xyz
x,y,z
-x,y,-z
-x,-y,-z
x,-y,z
loop_
_atom_site_type_symbol
_atom_site_label
_atom_site_fract_x
_atom_site_fract_y
_atom_site_fract_z
Si Si1 0.217974 0.788643 0.384752
Si Si2 0.784622 0.789216 0.116284
Si Si3 0.604140 0.291446 0.998920
Si Si4 0.016482 0.207270 0.883940
Si Si5 0.482495 0.206652 0.801273
Si Si6 0.095321 0.703125 0.194783
Si Si7 0.990715 0.795002 0.609669
O O1 0.369824 0.726262 0.297732
O O2 0.134470 0.732398 0.365419
O O3 0.127859 0.732557 0.498515
O O4 0.222834 0.000000 0.381708
O O5 0.852133 0.733932 0.148691
O O6 0.637504 0.727647 0.179020
O O7 0.782785 0.000000 0.117342
O O8 0.888058 0.736338 0.999724
O O9 0.606460 0.500000 0.995325
O O10 0.754610 0.224905 0.901006
O O11 0.500000 0.231777 0.000000
O O12 0.556018 0.241344 0.099971
O O13 0.995092 0.259821 0.819565
O O14 0.017009 0.000000 0.885538
O O15 0.486130 0.000000 0.790964
O O16 0.111250 0.500000 0.191252
O O17 0.031351 0.761672 0.300143
O O18 0.992382 0.000000 0.599465
#
# Coordination Sequence:
#
# PCOD9141928 Si02
#       7
#     4   4   4   4   4   4   4
#     4   8  16  30  50  73  93 116 155 198 230 266
#     4   8  15  27  47  71  93 116 150 191 230 275
#     4  10  21  33  42  61  98 132 151 178 226 276
#     4   9  16  30  48  67  92 123 152 184 233 281
#     4  10  17  29  50  73  92 115 152 194 228 270
#     4  11  21  31  45  69  96 123 158 194 223 266
#     4   9  17  32  50  68  93 125 155 189 233 274
#
# _framework density 18.143245
#
# number of rings (size 3 to 8) (size 9 to 14) (size 15 to 20)
#    0.000    2.714    1.429    3.000    0.000    0.857 
#    0.000    4.286    0.000    0.857    0.000    6.000 
#    0.000    0.000    0.000    0.000    0.000    0.000 
#
# Total GULP energy -156125.224362 kJ/mol
# GULP energy per Si atom -5575.900870 kJ/mol
# Density = 1.810195 g / cm^3
# Si number density = 18.143245 Si / 1000 Ang^3
#
#
#
# Elastic Constant Matrix: (Units=GPa)
#
#
# Indices 1 2 3 4 5 6 
#
# 1 145.5547 -4.8391 99.1659 0.0000 -8.4997 0.0000
# 2 -4.8391 18.6723 -1.1377 0.0000 -4.2390 0.0000
# 3 99.1659 -1.1377 138.3343 0.0000 -3.0852 0.0000
# 4 0.0000 0.0000 0.0000 79.8948 0.0000 61.2428
# 5 -8.4997 -4.2390 -3.0852 0.0000 22.0438 0.0000
# 6 0.0000 0.0000 0.0000 61.2428 0.0000 58.7803
#
#
#
# Elastic Compliance Matrix: (Units=1/GPa)
#
#
# Indices 1 2 3 4 5 6 
#
# 1 0.014060 0.004134 -0.009937 0.000000 0.004825 0.000000
# 2 0.004134 0.057283 -0.002218 0.000000 0.012299 0.000000
# 3 -0.009937 -0.002218 0.014284 0.000000 -0.002259 0.000000
# 4 0.000000 0.000000 0.000000 0.062164 0.000000 -0.064768
# 5 0.004825 0.012299 -0.002259 0.000000 0.049274 0.000000
# 6 0.000000 0.000000 0.000000 -0.064768 0.000000 0.084494
#
#
# Mechanical properties :
#
#
# Convention : Reuss Voigt Hill
#
# Bulk Modulus (GPa) = 14.37108 54.32661 34.34885
# Shear Modulus (GPa) = 15.58622 46.10194 30.84408
#
# Velocity S-wave (km/s) = 2.93416 5.04630 4.12762
# Velocity P-wave (km/s) = 4.40649 7.99760 6.45673
#
# Compressibility (1/GPa) = 0.06958421
#
# Stress axis : x y z
#
# Youngs Moduli (GPa) = 71.12594 17.45705 70.00975
#
# Poissons Ratio (x) = -0.07216 0.69569
# Poissons Ratio (y) = -0.29401 0.15527
# Poissons Ratio (z) = 0.70679 0.03872
#
# Static dielectric constant tensor:
#      x y z
#    x 1.644100 0.000000 -0.005900 
#    y 0.000000 1.659010 0.000000 
#    z -0.005900 0.000000 1.632350 
# 
# From -- ./inp_files/54712.got.cif
#   From: 2010.05.17/outbox.cif.g08.bks.cpg/sg10_28_cif.got.tgz:54712.got - 2010.06.03 11:33:40.
