data_PCOD9141302
_publ_section_title
;
Structure prediction by ZEFSAII (Michael W. Deem and Ramdas Pophale) SiO2 
 PCOD9141302
Probable space group: P 2/M
;
_chemical_formula_sum "Si O2"
_cell_formula_units_Z 32
_cell_length_a 7.631502
_cell_length_b 19.651061
_cell_length_c 11.081510
_cell_angle_alpha 90.000000
_cell_angle_beta 56.528241
_cell_angle_gamma 90.000000
_cell_volume 1386.255136
_symmetry_space_group_name_H-M "P 2/M"
_symmetry_group_IT_number 10
_symmetry_cell_setting 'monoclinic'
loop_
_space_group_symop_operation_xyz
x,y,z
-x,y,-z
-x,-y,-z
x,-y,z
loop_
_atom_site_type_symbol
_atom_site_label
_atom_site_fract_x
_atom_site_fract_y
_atom_site_fract_z
Si Si1 0.741405 0.654580 0.093935
Si Si2 0.091499 0.225944 0.651949
Si Si3 0.854834 0.924267 0.398764
Si Si4 0.246133 0.578646 0.660078
Si Si5 0.753443 0.339393 0.570994
Si Si6 0.801715 0.642738 0.808868
Si Si7 0.452985 0.926468 0.718258
Si Si8 0.763973 0.800791 0.137702
O O1 0.701979 0.617683 0.235818
O O2 0.673854 0.733007 0.115818
O O3 0.699552 0.627998 0.976186
O O4 0.000000 0.659158 0.000000
O O5 0.025257 0.148406 0.645234
O O6 0.229231 0.263172 0.494132
O O7 0.223340 0.217115 0.724433
O O8 0.913069 0.281480 0.755543
O O9 0.679099 0.919301 0.570073
O O10 0.718027 0.926174 0.326776
O O11 0.957460 0.000000 0.369374
O O12 0.296841 0.500000 0.651205
O O13 0.323933 0.612606 0.506066
O O14 0.994843 0.589734 0.737016
O O15 0.667354 0.356769 0.736581
O O16 0.000000 0.354442 0.500000
O O17 0.384562 0.864525 0.826076
O O18 0.441073 0.000000 0.782771
O O19 0.000000 0.814751 0.000000
#
# Coordination Sequence:
#
# PCOD9141302 Si02
#       8
#     4   4   4   4   4   4   4   4
#     4   9  14  24  34  52  75 103 131 156 191 235
#     4   9  13  23  39  52  72 103 133 159 199 238
#     4   8  14  24  37  54  77 101 128 166 205 236
#     4   9  15  23  35  52  77 109 138 158 188 238
#     4   8  15  24  35  53  76 103 133 167 198 225
#     4   9  16  24  35  53  80 104 132 167 198 230
#     4   8  15  24  34  55  82 102 125 163 205 237
#     4  10  14  22  38  53  78 107 130 156 193 243
#
# _framework density 23.083773999999998
#
# number of rings (size 3 to 8) (size 9 to 14) (size 15 to 20)
#    0.000    3.500    5.000    0.750    0.000    4.750 
#    0.000    0.000    0.000    3.375    0.000    0.875 
#    0.000   10.000    0.000    0.000    0.000  124.500 
#
# Total GULP energy -178275.800061 kJ/mol
# GULP energy per Si atom -5571.118752 kJ/mol
# Density = 2.303123 g / cm^3
# Si number density = 23.083774 Si / 1000 Ang^3
#
#
#
# Elastic Constant Matrix: (Units=GPa)
#
#
# Indices 1 2 3 4 5 6 
#
# 1 48.5180 1.4772 8.8675 0.0000 14.6676 0.0000
# 2 1.4772 147.0894 37.7955 0.0000 -1.9864 0.0000
# 3 8.8675 37.7955 151.7265 0.0000 18.8519 0.0000
# 4 0.0000 0.0000 0.0000 -21.9417 0.0000 28.5284
# 5 14.6676 -1.9864 18.8519 0.0000 32.1041 0.0000
# 6 0.0000 0.0000 0.0000 28.5284 0.0000 -23.0389
#
#
#
# Elastic Compliance Matrix: (Units=1/GPa)
#
#
# Indices 1 2 3 4 5 6 
#
# 1 0.023937 -0.000407 0.000069 0.000000 -0.011002 0.000000
# 2 -0.000407 0.007350 -0.002035 0.000000 0.001836 0.000000
# 3 0.000069 -0.002035 0.007673 0.000000 -0.004663 0.000000
# 4 0.000000 0.000000 0.000000 0.074715 0.000000 0.092518
# 5 -0.011002 0.001836 -0.004663 0.000000 0.039027 0.000000
# 6 0.000000 0.000000 0.000000 0.092518 0.000000 0.071157
#
#
# Mechanical properties :
#
#
# Convention : Reuss Voigt Hill
#
# Bulk Modulus (GPa) = 29.22719 49.29050 39.25884
# Shear Modulus (GPa) = 20.83242 17.37093 19.10168
#
# Velocity S-wave (km/s) = 3.00737 2.74618 2.87974
# Velocity P-wave (km/s) = 4.97473 5.60844 5.30106
#
# Compressibility (1/GPa) = 0.03421472
#
# Stress axis : x y z
#
# Youngs Moduli (GPa) = 41.77698 136.04592 130.32391
#
# Poissons Ratio (x) = 0.05534 -0.00904
# Poissons Ratio (y) = 0.01699 0.26525
# Poissons Ratio (z) = -0.00290 0.27690
#
# Static dielectric constant tensor:
#      x y z
#    x 1.943250 0.000000 -0.051740 
#    y 0.000000 1.861900 0.000000 
#    z -0.051740 0.000000 2.013750 
# 
# From -- ./inp_files/47973.got.cif
#   From: 2010.05.17/outbox.cif.g08.bks.cpg/sg10_24_cif.got.tgz:47973.got - 2010.06.03 11:33:40.
