data_PCOD9141448
_publ_section_title
;
Structure prediction by ZEFSAII (Michael W. Deem and Ramdas Pophale) SiO2 
 PCOD9141448
Probable space group: P 2/M
;
_chemical_formula_sum "Si O2"
_cell_formula_units_Z 30
_cell_length_a 15.345667
_cell_length_b 15.576014
_cell_length_c 5.278512
_cell_angle_alpha 90.000000
_cell_angle_beta 60.549793
_cell_angle_gamma 90.000000
_cell_volume 1098.660999
_symmetry_space_group_name_H-M "P 2/M"
_symmetry_group_IT_number 10
_symmetry_cell_setting 'monoclinic'
loop_
_space_group_symop_operation_xyz
x,y,z
-x,y,-z
-x,-y,-z
x,-y,z
loop_
_atom_site_type_symbol
_atom_site_label
_atom_site_fract_x
_atom_site_fract_y
_atom_site_fract_z
Si Si1 0.121236 0.399582 0.338542
Si Si2 0.762965 0.903808 0.873059
Si Si3 0.109065 0.103608 0.722627
Si Si4 0.601547 0.264897 0.776277
Si Si5 0.877802 0.707698 0.161467
Si Si6 0.569602 0.500000 0.150663
Si Si7 0.619434 0.323576 0.248448
Si Si8 0.372706 0.906967 0.442785
O O1 0.152938 0.500000 0.295870
O O2 0.150121 0.346885 0.548398
O O3 0.000000 0.402035 0.500000
O O4 0.151943 0.344942 0.047515
O O5 0.867274 0.868462 0.604418
O O6 0.698748 0.905979 0.702216
O O7 0.796005 0.000000 0.895340
O O8 0.686943 0.890490 0.214278
O O9 0.153239 0.190921 0.796296
O O10 0.137999 0.000000 0.697534
O O11 0.000000 0.101345 0.000000
O O12 0.662871 0.308554 0.465167
O O13 0.563864 0.176593 0.703620
O O14 0.500000 0.313687 0.000000
O O15 0.652263 0.259225 0.977905
O O16 0.000000 0.710023 0.000000
O O17 0.500000 0.500000 0.500000
O O18 0.634596 0.415085 0.096410
O O19 0.500000 0.500000 0.000000
O O20 0.500000 0.317501 0.500000
O O21 0.422749 0.000000 0.382109
#
# Coordination Sequence:
#
# PCOD9141448 Si02
#       8
#     4   4   4   4   4   2   4   4
#     4   9  16  27  43  64  95 129 159 199 249 294
#     4   9  19  35  53  73 100 135 175 214 254 308
#     4   9  18  34  55  80 112 143 170 212 270 327
#     4  10  19  31  48  73 105 135 172 219 260 299
#     4   9  17  28  44  69  99 128 160 197 243 304
#     4  10  16  26  44  68 104 142 168 200 261 320
#     4   9  17  28  44  70 104 137 166 209 259 306
#     4  10  20  35  53  72 100 137 177 220 258 303
#
# _framework density 27.305968
#
# number of rings (size 3 to 8) (size 9 to 14) (size 15 to 20)
#    0.000    2.667    0.000    3.200    0.000    2.933 
#    0.000    4.000    0.000   16.000    0.000    0.000 
#   40.000    0.000    0.000    0.000    0.000    0.000 
#
# Total GULP energy -167167.842605 kJ/mol
# GULP energy per Si atom -5572.261420 kJ/mol
# Density = 2.724382 g / cm^3
# Si number density = 27.305968 Si / 1000 Ang^3
#
#
#
# Elastic Constant Matrix: (Units=GPa)
#
#
# Indices 1 2 3 4 5 6 
#
# 1 66.7672 28.6300 34.7352 0.0000 22.1900 0.0000
# 2 28.6300 244.9670 71.6656 0.0000 24.3603 0.0000
# 3 34.7352 71.6656 256.2832 0.0000 40.2620 0.0000
# 4 0.0000 0.0000 0.0000 -123.7064 0.0000 -255.7605
# 5 22.1900 24.3603 40.2620 0.0000 54.5998 0.0000
# 6 0.0000 0.0000 0.0000 -255.7605 0.0000 -360.9509
#
#
#
# Elastic Compliance Matrix: (Units=1/GPa)
#
#
# Indices 1 2 3 4 5 6 
#
# 1 0.018075 -0.001174 -0.001187 0.000000 -0.005947 0.000000
# 2 -0.001174 0.004594 -0.000993 0.000000 -0.000840 0.000000
# 3 -0.001187 -0.000993 0.004745 0.000000 -0.002573 0.000000
# 4 0.000000 0.000000 0.000000 0.017386 0.000000 -0.012319
# 5 -0.005947 -0.000840 -0.002573 0.000000 0.023004 0.000000
# 6 0.000000 0.000000 0.000000 -0.012319 0.000000 0.005958
#
#
# Mechanical properties :
#
#
# Convention : Reuss Voigt Hill
#
# Bulk Modulus (GPa) = 48.29971 93.11990 70.70980
# Shear Modulus (GPa) = 57.22682 -57.14572 0.04055
#
# Velocity S-wave (km/s) = 4.58292 -4.57967 0.12199
# Velocity P-wave (km/s) = 6.76246 2.49238 5.09622
#
# Compressibility (1/GPa) = 0.02070406
#
# Stress axis : x y z
#
# Youngs Moduli (GPa) = 55.32578 217.69780 210.75239
#
# Poissons Ratio (x) = 0.25552 0.25023
# Poissons Ratio (y) = 0.06494 0.20938
# Poissons Ratio (z) = 0.06569 0.21628
#
# Static dielectric constant tensor:
#      x y z
#    x 2.308160 0.000000 0.047780 
#    y 0.000000 2.225500 0.000000 
#    z 0.047780 0.000000 2.171690 
# 
# From -- ./inp_files/13331.got.cif
#   From: 2010.05.17/outbox.cif.g08.bks.cpg/sg10_7_cif.got.tgz:13331.got - 2010.06.03 11:33:40.
