data_PCOD9141184
_publ_section_title
;
Structure prediction by ZEFSAII (Michael W. Deem and Ramdas Pophale) SiO2 
 PCOD9141184
Probable space group: C C
;
_chemical_formula_sum "Si O2"
_cell_formula_units_Z 20
_cell_length_a 7.046553
_cell_length_b 7.051181
_cell_length_c 19.415730
_cell_angle_alpha 90.000000
_cell_angle_beta 124.174033
_cell_angle_gamma 90.000000
_cell_volume 798.130355
_symmetry_space_group_name_H-M "C C"
_symmetry_group_IT_number 9
_symmetry_cell_setting 'monoclinic'
loop_
_space_group_symop_operation_xyz
x,y,z
x,-y,1/2+z
1/2+x,1/2+y,z
1/2+x,1/2-y,1/2+z
loop_
_atom_site_type_symbol
_atom_site_label
_atom_site_fract_x
_atom_site_fract_y
_atom_site_fract_z
Si Si1 0.102140 0.327250 0.610520
Si Si2 0.582074 0.270843 0.634018
Si Si3 0.638461 0.642062 0.372210
Si Si4 0.738351 0.572955 0.761733
Si Si5 0.600370 0.359759 0.482908
O O1 0.104491 0.212391 0.682557
O O2 0.327910 0.280555 0.613885
O O3 0.122252 0.550597 0.629689
O O4 0.901434 0.710931 0.425333
O O5 0.748857 0.377020 0.721119
O O6 0.587937 0.380957 0.562793
O O7 0.361208 0.792593 0.523624
O O8 0.618386 0.485217 0.308260
O O9 0.476470 0.820933 0.324244
O O10 0.072696 0.045035 0.430665
#
# Coordination Sequence:
#
# PCOD9141184 Si02
#       5
#     4   4   4   4   4
#     4  12  28  54  88 120 156 222 276 338 392 504
#     4  12  28  54  88 120 156 222 276 338 392 504
#     4  12  32  48  82 120 172 212 260 352 410 480
#     4  12  30  54  81 123 166 214 278 329 419 472
#     4  12  30  54  81 123 166 214 278 329 419 472
#
# _framework density 25.058565000000002
#
# number of rings (size 3 to 8) (size 9 to 14) (size 15 to 20)
#    0.000    0.000    4.000    2.400    5.600    8.000 
#    0.000    0.000    0.000    0.000    0.000    0.000 
#    0.000    0.000    0.000    0.000    0.000    0.000 
#
# Total GULP energy -56120.133331 kJ/mol
# GULP energy per Si atom -5612.013333 kJ/mol
# Density = 2.500153 g / cm^3
# Si number density = 25.058565 Si / 1000 Ang^3
#
#
#
# Elastic Constant Matrix: (Units=GPa)
#
#
# Indices 1 2 3 4 5 6 
#
# 1 134.1282 58.3176 44.9479 0.0000 -8.7998 0.0000
# 2 58.3176 134.7354 43.7443 0.0000 -3.6589 0.0000
# 3 44.9479 43.7443 113.5719 0.0000 -9.4194 0.0000
# 4 0.0000 0.0000 0.0000 39.5358 0.0000 3.5011
# 5 -8.7998 -3.6589 -9.4194 0.0000 41.9766 0.0000
# 6 0.0000 0.0000 0.0000 3.5011 0.0000 53.5864
#
#
#
# Elastic Compliance Matrix: (Units=1/GPa)
#
#
# Indices 1 2 3 4 5 6 
#
# 1 0.009857 -0.003428 -0.002480 0.000000 0.001211 0.000000
# 2 -0.003428 0.009675 -0.002404 0.000000 -0.000415 0.000000
# 3 -0.002480 -0.002404 0.010854 0.000000 0.001706 0.000000
# 4 0.000000 0.000000 0.000000 0.025441 0.000000 -0.001662
# 5 0.001211 -0.000415 0.001706 0.000000 0.024423 0.000000
# 6 0.000000 0.000000 0.000000 -0.001662 0.000000 0.018770
#
#
# Mechanical properties :
#
#
# Convention : Reuss Voigt Hill
#
# Bulk Modulus (GPa) = 72.66964 75.16169 73.91567
# Shear Modulus (GPa) = 41.58639 42.71481 42.15060
#
# Velocity S-wave (km/s) = 4.07820 4.13316 4.10577
# Velocity P-wave (km/s) = 7.15811 7.26890 7.21371
#
# Compressibility (1/GPa) = 0.01376090
#
# Stress axis : x y z
#
# Youngs Moduli (GPa) = 101.45453 103.35843 92.13159
#
# Poissons Ratio (x) = 0.35433 0.22849
# Poissons Ratio (y) = 0.34780 0.22150
# Poissons Ratio (z) = 0.25161 0.24849
#
# Static dielectric constant tensor:
#      x y z
#    x 1.952400 0.000000 0.021790 
#    y 0.000000 1.958420 0.000000 
#    z 0.021790 0.000000 1.988000 
# 
# From -- ./inp_files/35193.got.cif
#   From: 2010.05.17/outbox.cif.g08.bks.cpg/sg9_18_cif.got.tgz:35193.got - 2010.06.03 20:04:27.
