data_PCOD9141469
_publ_section_title
;
Structure prediction by ZEFSAII (Michael W. Deem and Ramdas Pophale) SiO2 
 PCOD9141469
Probable space group: P 2/M
;
_chemical_formula_sum "Si O2"
_cell_formula_units_Z 28
_cell_length_a 21.228298
_cell_length_b 7.920762
_cell_length_c 26.993055
_cell_angle_alpha 90.000000
_cell_angle_beta 20.649725
_cell_angle_gamma 90.000000
_cell_volume 1600.600163
_symmetry_space_group_name_H-M "P 2/M"
_symmetry_group_IT_number 10
_symmetry_cell_setting 'monoclinic'
loop_
_space_group_symop_operation_xyz
x,y,z
-x,y,-z
-x,-y,-z
x,-y,z
loop_
_atom_site_type_symbol
_atom_site_label
_atom_site_fract_x
_atom_site_fract_y
_atom_site_fract_z
Si Si1 0.196490 0.704448 0.340598
Si Si2 0.129619 0.697493 0.179171
Si Si3 0.118929 0.816428 0.720815
Si Si4 0.295938 0.706418 0.157440
Si Si5 0.971256 0.500000 0.962263
Si Si6 0.440624 0.199799 0.877277
Si Si7 0.206868 0.192608 0.960619
Si Si8 0.710797 0.500000 0.354054
O O1 0.199087 0.500000 0.339274
O O2 0.234582 0.760754 0.256558
O O3 0.356277 0.762600 0.258460
O O4 0.000000 0.761968 0.500000
O O5 0.083994 0.500000 0.215600
O O6 0.176323 0.763239 0.199307
O O7 0.972078 0.787660 0.265408
O O8 0.310059 0.713271 0.013350
O O9 0.239904 0.663944 0.649803
O O10 0.206391 0.000000 0.658920
O O11 0.951880 0.814987 0.881831
O O12 0.294049 0.500000 0.157505
O O13 0.500000 0.760056 0.000000
O O14 0.154728 0.500000 0.793318
O O15 0.000000 0.500000 0.000000
O O16 0.857967 0.333935 0.029841
O O17 0.377323 0.246722 0.868420
O O18 0.406936 0.000000 0.906360
O O19 0.230711 0.000000 0.923917
O O20 0.500000 0.500000 0.500000
#
# Coordination Sequence:
#
# PCOD9141469 Si02
#       8
#     4   4   4   4   2   4   4   2
#     4  10  20  33  49  69  97 135 179 215 257 311
#     4  10  16  27  51  74 101 132 169 221 268 298
#     4   9  17  31  51  80 109 137 176 214 253 307
#     4   9  16  28  46  73 100 127 166 217 266 302
#     4  10  20  34  58  86 106 132 172 210 254 310
#     4  10  19  30  48  73  99 132 173 215 259 304
#     4   8  17  31  50  79 108 133 169 216 258 299
#     4  10  20  36  58  82 110 141 170 204 258 311
#
# _framework density 17.493438000000001
#
# number of rings (size 3 to 8) (size 9 to 14) (size 15 to 20)
#    0.000    2.571    2.143    1.714    4.000    0.857 
#    0.000    2.143    3.143    0.000    0.000    0.000 
#    0.000    0.000    0.000    0.000    0.000    0.000 
#
# Total GULP energy -156044.561190 kJ/mol
# GULP energy per Si atom -5573.020042 kJ/mol
# Density = 1.745362 g / cm^3
# Si number density = 17.493438 Si / 1000 Ang^3
#
#
#
# Elastic Constant Matrix: (Units=GPa)
#
#
# Indices 1 2 3 4 5 6 
#
# 1 162.6023 63.1854 55.0642 0.0000 -18.6457 0.0000
# 2 63.1854 84.6193 26.0167 0.0000 -12.7276 0.0000
# 3 55.0642 26.0167 79.2957 0.0000 -15.4057 0.0000
# 4 0.0000 0.0000 0.0000 3.5082 0.0000 -4.0913
# 5 -18.6457 -12.7276 -15.4057 0.0000 26.7138 0.0000
# 6 0.0000 0.0000 0.0000 -4.0913 0.0000 0.3978
#
#
#
# Elastic Compliance Matrix: (Units=1/GPa)
#
#
# Indices 1 2 3 4 5 6 
#
# 1 0.010298 -0.005953 -0.004902 0.000000 0.001525 0.000000
# 2 -0.005953 0.017028 -0.000770 0.000000 0.003514 0.000000
# 3 -0.004902 -0.000770 0.017491 0.000000 0.006299 0.000000
# 4 0.000000 0.000000 0.000000 -0.025930 0.000000 -0.266653
# 5 0.001525 0.003514 0.006299 0.000000 0.043805 0.000000
# 6 0.000000 0.000000 0.000000 -0.266653 0.000000 -0.228645
#
#
# Mechanical properties :
#
#
# Convention : Reuss Voigt Hill
#
# Bulk Modulus (GPa) = 46.36660 68.33887 57.35273
# Shear Modulus (GPa) = -36.89700 18.27402 -9.31149
#
# Velocity S-wave (km/s) = -4.59758 3.23557 -2.30963
# Velocity P-wave (km/s) = 1.27315 7.28758 5.07385
#
# Compressibility (1/GPa) = 0.02156725
#
# Stress axis : x y z
#
# Youngs Moduli (GPa) = 97.10525 58.72605 57.17112
#
# Poissons Ratio (x) = 0.34961 0.28024
# Poissons Ratio (y) = 0.57809 0.04404
# Poissons Ratio (z) = 0.47598 0.04524
#
# Static dielectric constant tensor:
#      x y z
#    x 1.603040 0.000000 -0.005590 
#    y 0.000000 1.637900 0.000000 
#    z -0.005590 0.000000 1.567460 
# 
# From -- ./inp_files/93538.got.cif
#   From: 2010.05.17/outbox.cif.g08.bks.cpg/sg10_47_cif.got.tgz:93538.got - 2010.06.03 11:33:40.
