data_PCOD9141231
_publ_section_title
;
Structure prediction by ZEFSAII (Michael W. Deem and Ramdas Pophale) SiO2 
 PCOD9141231
Probable space group: C C
;
_chemical_formula_sum "Si O2"
_cell_formula_units_Z 16
_cell_length_a 15.000000
_cell_length_b 9.000000
_cell_length_c 12.000000
_cell_angle_alpha 90.000000
_cell_angle_beta 70.000000
_cell_angle_gamma 90.000000
_cell_volume 1522.302046
_symmetry_space_group_name_H-M "C C"
_symmetry_group_IT_number 9
_symmetry_cell_setting 'monoclinic'
loop_
_space_group_symop_operation_xyz
x,y,z
x,-y,1/2+z
1/2+x,1/2+y,z
1/2+x,1/2-y,1/2+z
loop_
_atom_site_type_symbol
_atom_site_label
_atom_site_fract_x
_atom_site_fract_y
_atom_site_fract_z
Si Si1 0.945690 0.795270 0.410660
Si Si2 0.259142 0.073016 0.504985
Si Si3 0.144589 0.742495 0.208272
Si Si4 0.321527 0.868124 0.280653
Si Si5 0.195637 0.244763 0.146221
Si Si6 0.823679 0.916792 0.927574
Si Si7 0.520165 0.871779 0.075675
Si Si8 0.153153 0.544616 0.851712
O O1 0.859105 0.671260 0.458029
O O2 0.034713 0.782516 0.285276
O O3 0.996055 0.766594 0.506325
O O4 0.900476 0.957127 0.417620
O O5 0.178223 0.195602 0.572648
O O6 0.272473 0.989587 0.381432
O O7 0.229737 0.925854 0.598331
O O8 0.234291 0.811552 0.240424
O O9 0.147008 0.570896 0.248772
O O10 0.353300 0.726896 0.342438
O O11 0.419984 0.917875 0.177434
O O12 0.101483 0.302541 0.120394
O O13 0.172306 0.295782 0.283959
O O14 0.279113 0.348513 0.059378
O O15 0.742446 0.997301 0.888773
O O16 0.564915 0.999314 0.972931
#
# Coordination Sequence:
#
# PCOD9141231 Si02
#       8
#     4   4   4   4   4   4   4   4
#     4  11  22  41  66  93 132 169 224 267 336 388
#     4  11  23  40  63  97 130 169 214 278 329 382
#     4  10  22  41  65  93 128 180 214 271 330 388
#     4  10  22  42  65  93 137 175 224 264 327 396
#     4  10  22  40  67  93 136 175 223 269 323 397
#     4   9  21  39  63  95 121 181 218 271 323 385
#     4  10  22  39  68  97 131 184 213 267 333 394
#     4   9  20  42  65  95 129 173 228 263 323 394
#
# _framework density 10.510398
#
# number of rings (size 3 to 8) (size 9 to 14) (size 15 to 20)
#    0.000    2.000    1.250    3.000    7.000    1.000 
#    0.000    0.000    0.000    1.500    0.000    0.000 
#    0.000    0.000    0.000    0.000    0.000    0.000 
#
# Total GULP energy -89075.419950 kJ/mol
# GULP energy per Si atom -5567.213747 kJ/mol
# Density = 1.048648 g / cm^3
# Si number density = 10.510398 Si / 1000 Ang^3
#
#
#
# Elastic Constant Matrix: (Units=GPa)
#
#
# Indices 1 2 3 4 5 6 
#
# 1 77.3658 22.8651 28.9400 0.0000 -34.1605 0.0000
# 2 22.8651 83.0999 31.2676 0.0000 -12.6692 0.0000
# 3 28.9400 31.2676 126.6564 0.0000 -40.3072 0.0000
# 4 0.0000 0.0000 0.0000 46.7212 0.0000 -9.4194
# 5 -34.1605 -12.6692 -40.3072 0.0000 46.5957 0.0000
# 6 0.0000 0.0000 0.0000 -9.4194 0.0000 36.3206
#
#
#
# Elastic Compliance Matrix: (Units=1/GPa)
#
#
# Indices 1 2 3 4 5 6 
#
# 1 0.020074 -0.003662 0.000944 0.000000 0.014537 0.000000
# 2 -0.003662 0.013973 -0.003116 0.000000 -0.001581 0.000000
# 3 0.000944 -0.003116 0.011590 0.000000 0.009871 0.000000
# 4 0.000000 0.000000 0.000000 0.022584 0.000000 0.005857
# 5 0.014537 -0.001581 0.009871 0.000000 0.040228 0.000000
# 6 0.000000 0.000000 0.000000 0.005857 0.000000 0.029052
#
#
# Mechanical properties :
#
#
# Convention : Reuss Voigt Hill
#
# Bulk Modulus (GPa) = 29.43925 50.36307 39.90116
# Shear Modulus (GPa) = 31.15433 39.53078 35.34256
#
# Velocity S-wave (km/s) = 3.85395 4.34124 4.10483
# Velocity P-wave (km/s) = 5.81714 7.00994 6.44121
#
# Compressibility (1/GPa) = 0.03396826
#
# Stress axis : x y z
#
# Youngs Moduli (GPa) = 49.81625 71.56820 86.27980
#
# Poissons Ratio (x) = 0.26209 -0.08142
# Poissons Ratio (y) = 0.18243 0.26883
# Poissons Ratio (z) = -0.04701 0.22299
#
# Static dielectric constant tensor:
#      x y z
#    x 1.777370 0.000000 0.025630 
#    y 0.000000 1.773100 0.000000 
#    z 0.025630 0.000000 1.832480 
# 
# From -- ./inp_files/17925.got.cif
#   From: 2010.05.17/outbox.ucp.g08.bks.cvg/sg9_9_cif.got.tgz:17925.got - 2010.06.11 13:03:20.
