data_PCOD9141014
_publ_section_title
;
Structure prediction by ZEFSAII (Michael W. Deem and Ramdas Pophale) SiO2 
 PCOD9141014
Probable space group: C C
;
_chemical_formula_sum "Si O2"
_cell_formula_units_Z 28
_cell_length_a 6.868401
_cell_length_b 23.692626
_cell_length_c 7.796406
_cell_angle_alpha 90.000000
_cell_angle_beta 103.615177
_cell_angle_gamma 90.000000
_cell_volume 1233.060203
_symmetry_space_group_name_H-M "C C"
_symmetry_group_IT_number 9
_symmetry_cell_setting 'monoclinic'
loop_
_space_group_symop_operation_xyz
x,y,z
x,-y,1/2+z
1/2+x,1/2+y,z
1/2+x,1/2-y,1/2+z
loop_
_atom_site_type_symbol
_atom_site_label
_atom_site_fract_x
_atom_site_fract_y
_atom_site_fract_z
Si Si1 0.029040 0.685576 0.023610
Si Si2 0.478172 0.503966 0.471812
Si Si3 0.319903 0.696807 0.407546
Si Si4 0.692403 0.384155 0.972958
Si Si5 0.320077 0.077767 0.124841
Si Si6 0.685296 0.008269 0.664211
Si Si7 0.607850 0.859256 0.191209
O O1 0.167229 0.694987 0.217893
O O2 0.889044 0.632173 0.034899
O O3 0.899294 0.740776 0.960129
O O4 0.158108 0.669024 0.882843
O O5 0.600526 0.560134 0.542035
O O6 0.617221 0.449807 0.513028
O O7 0.239837 0.504838 0.468899
O O8 0.417516 0.510144 0.254598
O O9 0.510339 0.657908 0.402924
O O10 0.217294 0.670614 0.555638
O O11 0.790782 0.404417 0.815650
O O12 0.868186 0.354937 0.115976
O O13 0.495880 0.031529 0.146887
O O14 0.652642 0.073969 0.696665
#
# Coordination Sequence:
#
# PCOD9141014 Si02
#       7
#     4   4   4   4   4   4   4
#     4  12  30  51  82 109 151 207 257 324 381 456
#     4  12  25  40  71 111 154 205 243 308 384 464
#     4  12  29  55  75 113 151 202 267 319 385 453
#     4  12  25  49  73 109 156 201 255 317 386 454
#     4  12  27  46  74 114 155 198 259 313 389 465
#     4  12  25  44  70 114 156 198 254 304 390 464
#     4  12  27  49  79 110 157 203 251 323 379 462
#
# _framework density 22.707732
#
# number of rings (size 3 to 8) (size 9 to 14) (size 15 to 20)
#    0.000    0.000    5.714    3.429    8.000    2.286 
#    0.000    0.000    0.000    0.000    0.000    0.000 
#    0.000    0.000    0.000    0.000    0.000    0.000 
#
# Total GULP energy -78323.403681 kJ/mol
# GULP energy per Si atom -5594.528834 kJ/mol
# Density = 2.265605 g / cm^3
# Si number density = 22.707732 Si / 1000 Ang^3
#
#
#
# Elastic Constant Matrix: (Units=GPa)
#
#
# Indices 1 2 3 4 5 6 
#
# 1 116.7805 65.8116 48.6817 0.0000 -19.9000 0.0000
# 2 65.8116 176.1020 62.1744 0.0000 -13.9547 0.0000
# 3 48.6817 62.1744 68.8994 0.0000 -20.2923 0.0000
# 4 0.0000 0.0000 0.0000 19.9491 0.0000 -1.7129
# 5 -19.9000 -13.9547 -20.2923 0.0000 27.8716 0.0000
# 6 0.0000 0.0000 0.0000 -1.7129 0.0000 49.3986
#
#
#
# Elastic Compliance Matrix: (Units=1/GPa)
#
#
# Indices 1 2 3 4 5 6 
#
# 1 0.013066 -0.002521 -0.005831 0.000000 0.003821 0.000000
# 2 -0.002521 0.008881 -0.006942 0.000000 -0.002408 0.000000
# 3 -0.005831 -0.006942 0.028830 0.000000 0.013351 0.000000
# 4 0.000000 0.000000 0.000000 0.050277 0.000000 0.001743
# 5 0.003821 -0.002408 0.013351 0.000000 0.047122 0.000000
# 6 0.000000 0.000000 0.000000 0.001743 0.000000 0.020304
#
#
# Mechanical properties :
#
#
# Convention : Reuss Voigt Hill
#
# Bulk Modulus (GPa) = 49.53280 79.45748 64.49514
# Shear Modulus (GPa) = 24.29560 31.78480 28.04020
#
# Velocity S-wave (km/s) = 3.27452 3.74536 3.51783
# Velocity P-wave (km/s) = 6.01309 7.33287 6.70553
#
# Compressibility (1/GPa) = 0.02018864
#
# Stress axis : x y z
#
# Youngs Moduli (GPa) = 76.53473 112.60259 34.68565
#
# Poissons Ratio (x) = 0.28391 0.20226
# Poissons Ratio (y) = 0.19297 0.24077
# Poissons Ratio (z) = 0.44630 0.78164
#
# Static dielectric constant tensor:
#      x y z
#    x 1.795960 0.000000 -0.028470 
#    y 0.000000 1.521130 0.000000 
#    z -0.028470 0.000000 1.996810 
# 
# From -- ./inp_files/3987.got.cif
#   From: 2010.05.17/outbox.cif.g08.bks.cpg/sg9_2_cif.got.tgz:3987.got - 2010.06.03 20:04:27.
