data_PCOD9141998
_publ_section_title
;
Structure prediction by ZEFSAII (Michael W. Deem and Ramdas Pophale) SiO2 
 PCOD9141998
Probable space group: P 2/M
;
_chemical_formula_sum "Si O2"
_cell_formula_units_Z 24
_cell_length_a 10.811328
_cell_length_b 16.915047
_cell_length_c 15.086902
_cell_angle_alpha 90.000000
_cell_angle_beta 25.702855
_cell_angle_gamma 90.000000
_cell_volume 1196.591003
_symmetry_space_group_name_H-M "P 2/M"
_symmetry_group_IT_number 10
_symmetry_cell_setting 'monoclinic'
loop_
_space_group_symop_operation_xyz
x,y,z
-x,y,-z
-x,-y,-z
x,-y,z
loop_
_atom_site_type_symbol
_atom_site_label
_atom_site_fract_x
_atom_site_fract_y
_atom_site_fract_z
Si Si1 0.239545 0.268830 0.002738
Si Si2 0.393713 0.000000 0.724120
Si Si3 0.824180 0.146472 0.814102
Si Si4 0.693121 0.411051 0.148105
Si Si5 0.620231 0.842594 0.641395
Si Si6 0.930259 0.000000 0.241097
Si Si7 0.619110 0.278549 0.329807
O O1 0.295336 0.362137 0.951506
O O2 0.494917 0.215294 0.797376
O O3 0.173148 0.232755 0.141047
O O4 0.953233 0.259263 0.127967
O O5 0.449092 0.923948 0.748784
O O6 0.650567 0.000000 0.485162
O O7 0.131496 0.000000 0.824292
O O8 0.918884 0.080449 0.824161
O O9 0.042158 0.144147 0.590073
O O10 0.500000 0.128684 0.000000
O O11 0.581417 0.500000 0.212426
O O12 0.546355 0.348156 0.308105
O O13 0.000000 0.417326 0.000000
O O14 0.531894 0.799845 0.606448
O O15 0.500000 0.304401 0.500000
#
# Coordination Sequence:
#
# PCOD9141998 Si02
#       7
#     4   2   4   4   4   2   4
#     4  10  20  34  55  78 105 141 170 215 265 307
#     4   9  18  31  54  80 105 140 171 212 264 317
#     4  11  22  36  53  73 103 145 186 220 256 297
#     4   8  16  30  49  79 113 137 161 201 263 327
#     4  10  20  34  52  78 108 135 177 218 259 312
#     4   9  19  33  52  77 108 138 173 221 263 302
#     4  10  17  30  53  79 110 135 167 212 263 320
#
# _framework density 20.056978999999998
#
# number of rings (size 3 to 8) (size 9 to 14) (size 15 to 20)
#    0.000    2.333    1.667    2.750    2.333    1.667 
#    0.000    2.500    0.000    4.500    0.000    4.667 
#    0.000    0.000    0.000    0.000    0.000    0.000 
#
# Total GULP energy -133702.660144 kJ/mol
# GULP energy per Si atom -5570.944173 kJ/mol
# Density = 2.001133 g / cm^3
# Si number density = 20.056979 Si / 1000 Ang^3
#
#
#
# Elastic Constant Matrix: (Units=GPa)
#
#
# Indices 1 2 3 4 5 6 
#
# 1 13.7503 7.3987 7.2371 0.0000 3.1107 0.0000
# 2 7.3987 138.1723 14.7442 0.0000 -0.4127 0.0000
# 3 7.2371 14.7442 95.5354 0.0000 -6.4643 0.0000
# 4 0.0000 0.0000 0.0000 8.9269 0.0000 2.3252
# 5 3.1107 -0.4127 -6.4643 0.0000 27.8242 0.0000
# 6 0.0000 0.0000 0.0000 2.3252 0.0000 10.2719
#
#
#
# Elastic Compliance Matrix: (Units=1/GPa)
#
#
# Indices 1 2 3 4 5 6 
#
# 1 0.080351 -0.003669 -0.006230 0.000000 -0.010485 0.000000
# 2 -0.003669 0.007527 -0.000862 0.000000 0.000322 0.000000
# 3 -0.006230 -0.000862 0.011296 0.000000 0.003308 0.000000
# 4 0.000000 0.000000 0.000000 0.119039 0.000000 -0.026946
# 5 -0.010485 0.000322 0.003308 0.000000 0.037885 0.000000
# 6 0.000000 0.000000 0.000000 -0.026946 0.000000 0.103452
#
#
# Mechanical properties :
#
#
# Convention : Reuss Voigt Hill
#
# Bulk Modulus (GPa) = 12.87801 34.02420 23.45110
# Shear Modulus (GPa) = 12.28634 23.94315 18.11474
#
# Velocity S-wave (km/s) = 2.47770 3.45883 3.00853
# Velocity P-wave (km/s) = 3.82361 5.74037 4.87708
#
# Compressibility (1/GPa) = 0.07765177
#
# Stress axis : x y z
#
# Youngs Moduli (GPa) = 12.44543 132.85958 88.52595
#
# Poissons Ratio (x) = 0.48747 0.55151
# Poissons Ratio (y) = 0.04566 0.07630
# Poissons Ratio (z) = 0.07753 0.11451
#
# Static dielectric constant tensor:
#      x y z
#    x 1.717790 0.000000 0.017600 
#    y 0.000000 1.703790 0.000000 
#    z 0.017600 0.000000 1.818260 
# 
# From -- ./inp_files/77173.got.cif
#   From: 2010.05.17/outbox.cif.g08.bks.cpg/sg10_39_cif.got.tgz:77173.got - 2010.06.03 11:33:40.
