data_PCOD9141744
_publ_section_title
;
Structure prediction by ZEFSAII (Michael W. Deem and Ramdas Pophale) SiO2 
 PCOD9141744
Probable space group: P 2/M
;
_chemical_formula_sum "Si O2"
_cell_formula_units_Z 28
_cell_length_a 14.491498
_cell_length_b 12.994574
_cell_length_c 16.621183
_cell_angle_alpha 90.000000
_cell_angle_beta 35.461337
_cell_angle_gamma 90.000000
_cell_volume 1815.850737
_symmetry_space_group_name_H-M "P 2/M"
_symmetry_group_IT_number 10
_symmetry_cell_setting 'monoclinic'
loop_
_space_group_symop_operation_xyz
x,y,z
-x,y,-z
-x,-y,-z
x,-y,z
loop_
_atom_site_type_symbol
_atom_site_label
_atom_site_fract_x
_atom_site_fract_y
_atom_site_fract_z
Si Si1 0.670789 0.118452 0.141190
Si Si2 0.674794 0.266880 0.858337
Si Si3 0.472237 0.124780 0.425948
Si Si4 0.664700 0.114397 0.716482
Si Si5 0.840622 0.810016 0.440146
Si Si6 0.992404 0.380580 0.601635
Si Si7 0.834997 0.122096 0.871693
O O1 0.618897 0.160267 0.264898
O O2 0.505795 0.120643 0.207297
O O3 0.716006 0.000000 0.123909
O O4 0.803014 0.159908 0.985907
O O5 0.677388 0.202032 0.773903
O O6 0.814524 0.350036 0.755186
O O7 0.717851 0.184915 0.897097
O O8 0.500000 0.309257 0.000000
O O9 0.500000 0.142458 0.500000
O O10 0.314368 0.179632 0.505244
O O11 0.452327 0.000000 0.428056
O O12 0.796229 0.129698 0.553694
O O13 0.679495 0.000000 0.741770
O O14 0.890382 0.696507 0.434609
O O15 0.989802 0.857304 0.286938
O O16 0.027059 0.500000 0.591857
O O17 0.000000 0.362297 0.500000
O O18 0.801292 0.000000 0.892911
#
# Coordination Sequence:
#
# PCOD9141744 Si02
#       7
#     4   4   4   4   4   4   4
#     4   8  15  26  40  61  93 129 158 185 223 265
#     4  11  20  29  44  67  94 128 167 195 233 286
#     4   9  17  31  51  72  98 131 160 190 233 290
#     4  10  17  27  42  65  97 132 160 189 221 274
#     4  10  19  32  49  69  93 127 166 199 239 285
#     4  10  21  37  51  66  91 125 167 211 252 283
#     4  10  18  26  40  66  99 129 156 195 231 274
#
# _framework density 15.419769000000001
#
# number of rings (size 3 to 8) (size 9 to 14) (size 15 to 20)
#    0.000    2.286    2.857    2.571    0.000    0.857 
#    0.000    2.857    0.000    3.857    0.000    0.000 
#    0.000    4.571    0.000    0.000    0.000    0.000 
#
# Total GULP energy -155931.604877 kJ/mol
# GULP energy per Si atom -5568.985888 kJ/mol
# Density = 1.538467 g / cm^3
# Si number density = 15.419769 Si / 1000 Ang^3
#
#
#
# Elastic Constant Matrix: (Units=GPa)
#
#
# Indices 1 2 3 4 5 6 
#
# 1 48.3926 18.8771 24.2120 0.0000 12.7218 0.0000
# 2 18.8771 54.0260 11.0683 0.0000 0.9298 0.0000
# 3 24.2120 11.0683 116.0209 0.0000 9.0503 0.0000
# 4 0.0000 0.0000 0.0000 10.7190 0.0000 0.9923
# 5 12.7218 0.9298 9.0503 0.0000 24.3529 0.0000
# 6 0.0000 0.0000 0.0000 0.9923 0.0000 10.1038
#
#
#
# Elastic Compliance Matrix: (Units=1/GPa)
#
#
# Indices 1 2 3 4 5 6 
#
# 1 0.030108 -0.009399 -0.004312 0.000000 -0.013767 0.000000
# 2 -0.009399 0.021813 -0.000451 0.000000 0.004245 0.000000
# 3 -0.004312 -0.000451 0.009665 0.000000 -0.001322 0.000000
# 4 0.000000 0.000000 0.000000 0.094149 0.000000 -0.009246
# 5 -0.013767 0.004245 -0.001322 0.000000 0.048584 0.000000
# 6 0.000000 0.000000 0.000000 -0.009246 0.000000 0.099881
#
#
# Mechanical properties :
#
#
# Convention : Reuss Voigt Hill
#
# Bulk Modulus (GPa) = 30.06524 36.30601 33.18562
# Shear Modulus (GPa) = 14.55135 19.98728 17.26932
#
# Velocity S-wave (km/s) = 3.07527 3.60420 3.35019
# Velocity P-wave (km/s) = 5.67009 6.39660 6.04427
#
# Compressibility (1/GPa) = 0.03326101
#
# Stress axis : x y z
#
# Youngs Moduli (GPa) = 33.21423 45.84406 103.46419
#
# Poissons Ratio (x) = 0.43091 0.44619
# Poissons Ratio (y) = 0.31219 0.04661
# Poissons Ratio (z) = 0.14324 0.02065
#
# Static dielectric constant tensor:
#      x y z
#    x 1.502390 0.000000 0.002230 
#    y 0.000000 1.486510 0.000000 
#    z 0.002230 0.000000 1.568930 
# 
# From -- ./inp_files/28845.got.cif
#   From: 2010.05.17/outbox.cif.g08.bks.cpg/sg10_15_cif.got.tgz:28845.got - 2010.06.03 11:33:40.
