data_PCOD9141616
_publ_section_title
;
Structure prediction by ZEFSAII (Michael W. Deem and Ramdas Pophale) SiO2 
 PCOD9141616
Probable space group: P 2/M
;
_chemical_formula_sum "Si O2"
_cell_formula_units_Z 24
_cell_length_a 17.086624
_cell_length_b 7.742680
_cell_length_c 17.077083
_cell_angle_alpha 90.000000
_cell_angle_beta 148.163179
_cell_angle_gamma 90.000000
_cell_volume 1191.750285
_symmetry_space_group_name_H-M "P 2/M"
_symmetry_group_IT_number 10
_symmetry_cell_setting 'monoclinic'
loop_
_space_group_symop_operation_xyz
x,y,z
-x,y,-z
-x,-y,-z
x,-y,z
loop_
_atom_site_type_symbol
_atom_site_label
_atom_site_fract_x
_atom_site_fract_y
_atom_site_fract_z
Si Si1 0.319636 0.804159 0.908135
Si Si2 0.046040 0.288488 0.126167
Si Si3 0.795547 0.291888 0.033716
Si Si4 0.536166 0.711798 0.296181
Si Si5 0.358436 0.305153 0.774781
Si Si6 0.625893 0.288712 0.545955
O O1 0.197956 0.763527 0.870077
O O2 0.282154 0.779426 0.785269
O O3 0.369584 0.000000 0.961124
O O4 0.465330 0.693239 0.053308
O O5 0.044792 0.500000 0.125294
O O6 0.211663 0.233612 0.288527
O O7 0.926977 0.230833 0.089598
O O8 0.000000 0.233934 0.000000
O O9 0.796575 0.500000 0.032950
O O10 0.634329 0.235225 0.864187
O O11 0.538063 0.500000 0.295479
O O12 0.637222 0.771282 0.308870
O O13 0.589792 0.766479 0.426924
O O14 0.302589 0.500000 0.722861
O O15 0.500000 0.233046 0.500000
O O16 0.624535 0.500000 0.544616
#
# Coordination Sequence:
#
# PCOD9141616 Si02
#       6
#     4   4   4   4   4   4
#     4  10  17  25  40  64  90 115 149 187 221 257
#     4   9  16  25  40  63  90 118 146 178 219 266
#     4   9  16  27  42  62  90 120 148 179 219 262
#     4   8  14  23  37  58  85 116 145 175 213 257
#     4   9  15  25  41  62  90 120 148 180 222 263
#     4   9  15  23  37  60  90 117 141 175 219 262
#
# _framework density 20.138445999999998
#
# number of rings (size 3 to 8) (size 9 to 14) (size 15 to 20)
#    0.000    3.000    0.000    5.000    0.000    4.000 
#    0.000    0.000    0.000    1.500    0.000   12.833 
#    0.000   22.667    0.000    0.000    0.000    0.000 
#
# Total GULP energy -133760.963326 kJ/mol
# GULP energy per Si atom -5573.373472 kJ/mol
# Density = 2.009261 g / cm^3
# Si number density = 20.138446 Si / 1000 Ang^3
#
#
#
# Elastic Constant Matrix: (Units=GPa)
#
#
# Indices 1 2 3 4 5 6 
#
# 1 247.3498 10.1062 99.0484 0.0000 -26.0650 0.0000
# 2 10.1062 38.1548 5.8533 0.0000 -0.7943 0.0000
# 3 99.0484 5.8533 98.9617 0.0000 -15.6337 0.0000
# 4 0.0000 0.0000 0.0000 -14.5239 0.0000 0.1103
# 5 -26.0650 -0.7943 -15.6337 0.0000 31.1875 0.0000
# 6 0.0000 0.0000 0.0000 0.1103 0.0000 -27.5474
#
#
#
# Elastic Compliance Matrix: (Units=1/GPa)
#
#
# Indices 1 2 3 4 5 6 
#
# 1 0.006947 -0.000789 -0.006508 0.000000 0.002524 0.000000
# 2 -0.000789 0.026539 -0.000844 0.000000 -0.000407 0.000000
# 3 -0.006508 -0.000844 0.017165 0.000000 0.003144 0.000000
# 4 0.000000 0.000000 0.000000 -0.068854 0.000000 -0.000276
# 5 0.002524 -0.000407 0.003144 0.000000 0.035739 0.000000
# 6 0.000000 0.000000 0.000000 -0.000276 0.000000 -0.036302
#
#
# Mechanical properties :
#
#
# Convention : Reuss Voigt Hill
#
# Bulk Modulus (GPa) = 29.09596 68.27580 48.68588
# Shear Modulus (GPa) = 557.27073 15.78711 286.52892
#
# Velocity S-wave (km/s) = 16.65294 2.80291 11.94104
# Velocity P-wave (km/s) = 19.60204 6.66723 14.64056
#
# Compressibility (1/GPa) = 0.03436903
#
# Stress axis : x y z
#
# Youngs Moduli (GPa) = 143.94755 37.68027 58.25827
#
# Poissons Ratio (x) = 0.02974 0.37913
# Poissons Ratio (y) = 0.11360 0.04918
# Poissons Ratio (z) = 0.93677 0.03181
#
# Static dielectric constant tensor:
#      x y z
#    x 1.745490 0.000000 -0.021420 
#    y 0.000000 1.707720 0.000000 
#    z -0.021420 0.000000 1.672630 
# 
# From -- ./inp_files/35647.got.cif
#   From: 2010.05.17/outbox.cif.g08.bks.cpg/sg10_18_cif.got.tgz:35647.got - 2010.06.03 11:33:40.
