data_PCOD9141804
_publ_section_title
;
Structure prediction by ZEFSAII (Michael W. Deem and Ramdas Pophale) SiO2 
 PCOD9141804
Probable space group: P 2/M
;
_chemical_formula_sum "Si O2"
_cell_formula_units_Z 30
_cell_length_a 13.538914
_cell_length_b 19.353849
_cell_length_c 8.248151
_cell_angle_alpha 90.000000
_cell_angle_beta 121.679845
_cell_angle_gamma 90.000000
_cell_volume 1839.226645
_symmetry_space_group_name_H-M "P 2/M"
_symmetry_group_IT_number 10
_symmetry_cell_setting 'monoclinic'
loop_
_space_group_symop_operation_xyz
x,y,z
-x,y,-z
-x,-y,-z
x,-y,z
loop_
_atom_site_type_symbol
_atom_site_label
_atom_site_fract_x
_atom_site_fract_y
_atom_site_fract_z
Si Si1 0.871643 0.417783 0.557125
Si Si2 0.798022 0.924771 0.064854
Si Si3 0.195948 0.196490 0.347013
Si Si4 0.000000 0.884067 0.000000
Si Si5 0.362541 0.078329 0.369675
Si Si6 0.129835 0.199394 0.651149
Si Si7 0.142637 0.662691 0.137044
Si Si8 0.130890 0.645867 0.771793
O O1 0.870182 0.500000 0.548449
O O2 0.828005 0.389305 0.691524
O O3 0.814601 0.386102 0.344776
O O4 0.004202 0.389577 0.669936
O O5 0.809558 0.860199 0.193384
O O6 0.905238 0.922428 0.028727
O O7 0.799466 0.000000 0.148024
O O8 0.684231 0.918693 0.855007
O O9 0.294642 0.139683 0.400394
O O10 0.189921 0.214136 0.530854
O O11 0.198887 0.264576 0.238198
O O12 0.075302 0.161199 0.188654
O O13 0.500000 0.086593 0.500000
O O14 0.332793 0.000000 0.402906
O O15 0.118930 0.271898 0.735476
O O16 0.000000 0.174735 0.500000
O O17 0.183411 0.637188 0.995727
O O18 0.000000 0.670802 0.000000
#
# Coordination Sequence:
#
# PCOD9141804 Si02
#       8
#     4   4   4   2   4   4   4   4
#     4  10  19  28  41  64  96 138 182 208 238 294
#     4  10  21  32  47  71  99 128 167 211 253 307
#     4  11  19  31  52  72  98 133 171 210 255 310
#     4  10  17  30  48  68  95 128 166 202 253 302
#     4   9  20  39  57  71  93 130 176 221 264 307
#     4  12  19  31  46  72 106 138 167 205 257 309
#     4  10  18  29  46  67  98 136 172 209 251 299
#     4  10  17  28  44  59  93 137 176 204 239 292
#
# _framework density 16.311202999999999
#
# number of rings (size 3 to 8) (size 9 to 14) (size 15 to 20)
#    0.000    1.733    4.667    3.400    0.000    4.267 
#    0.000    0.667    0.000    2.400    0.000    0.000 
#    0.000    0.533    0.000    4.000    0.000    1.333 
#
# Total GULP energy -167075.534992 kJ/mol
# GULP energy per Si atom -5569.184500 kJ/mol
# Density = 1.627408 g / cm^3
# Si number density = 16.311203 Si / 1000 Ang^3
#
#
#
# Elastic Constant Matrix: (Units=GPa)
#
#
# Indices 1 2 3 4 5 6 
#
# 1 32.8064 25.5548 42.3105 0.0000 -10.8206 0.0000
# 2 25.5548 117.2043 50.6731 0.0000 -8.7149 0.0000
# 3 42.3105 50.6731 92.1482 0.0000 -23.0528 0.0000
# 4 0.0000 0.0000 0.0000 17.1722 0.0000 -5.7266
# 5 -10.8206 -8.7149 -23.0528 0.0000 32.3444 0.0000
# 6 0.0000 0.0000 0.0000 -5.7266 0.0000 12.3253
#
#
#
# Elastic Compliance Matrix: (Units=1/GPa)
#
#
# Indices 1 2 3 4 5 6 
#
# 1 0.075095 -0.001966 -0.033160 0.000000 0.000959 0.000000
# 2 -0.001966 0.011319 -0.005749 0.000000 -0.001705 0.000000
# 3 -0.033160 -0.005749 0.031734 0.000000 0.009976 0.000000
# 4 0.000000 0.000000 0.000000 0.068911 0.000000 0.032018
# 5 0.000959 -0.001705 0.009976 0.000000 0.037889 0.000000
# 6 0.000000 0.000000 0.000000 0.032018 0.000000 0.096010
#
#
# Mechanical properties :
#
#
# Convention : Reuss Voigt Hill
#
# Bulk Modulus (GPa) = 27.47155 53.24842 40.35999
# Shear Modulus (GPa) = 12.05284 20.60976 16.33130
#
# Velocity S-wave (km/s) = 2.72128 3.55848 3.16766
# Velocity P-wave (km/s) = 5.17228 7.04272 6.17869
#
# Compressibility (1/GPa) = 0.03640129
#
# Stress axis : x y z
#
# Youngs Moduli (GPa) = 13.31640 88.34464 31.51157
#
# Poissons Ratio (x) = 0.17366 1.04491
# Poissons Ratio (y) = 0.02618 0.18115
# Poissons Ratio (z) = 0.44157 0.50785
#
# Static dielectric constant tensor:
#      x y z
#    x 1.558200 0.000000 -0.050200 
#    y 0.000000 1.562370 0.000000 
#    z -0.050200 0.000000 1.562120 
# 
# From -- ./inp_files/30000.got.cif
#   From: 2010.05.17/outbox.cif.g08.bks.cpg/sg10_15_cif.got.tgz:30000.got - 2010.06.03 11:33:40.
