data_PCOD9141494
_publ_section_title
;
Structure prediction by ZEFSAII (Michael W. Deem and Ramdas Pophale) SiO2 
 PCOD9141494
Probable space group: P 2/M
;
_chemical_formula_sum "Si O2"
_cell_formula_units_Z 26
_cell_length_a 12.286675
_cell_length_b 8.255695
_cell_length_c 16.904358
_cell_angle_alpha 90.000000
_cell_angle_beta 119.865380
_cell_angle_gamma 90.000000
_cell_volume 1486.979073
_symmetry_space_group_name_H-M "P 2/M"
_symmetry_group_IT_number 10
_symmetry_cell_setting 'monoclinic'
loop_
_space_group_symop_operation_xyz
x,y,z
-x,y,-z
-x,-y,-z
x,-y,z
loop_
_atom_site_type_symbol
_atom_site_label
_atom_site_fract_x
_atom_site_fract_y
_atom_site_fract_z
Si Si1 0.130535 0.175312 0.997296
Si Si2 0.089632 0.310493 0.649122
Si Si3 0.978548 0.183157 0.217400
Si Si4 0.169096 0.190584 0.511604
Si Si5 0.454862 0.179837 0.574604
Si Si6 0.148099 0.500000 0.260038
Si Si7 0.429987 0.500000 0.389977
Si Si8 0.849080 0.500000 0.926826
O O1 0.093463 0.193013 0.892061
O O2 0.192509 0.000000 0.031705
O O3 0.200293 0.334379 0.053018
O O4 0.000000 0.169486 0.000000
O O5 0.114713 0.500000 0.669154
O O6 0.165959 0.242398 0.602172
O O7 0.106544 0.213261 0.736418
O O8 0.943194 0.285971 0.571391
O O9 0.074012 0.334688 0.252635
O O10 0.033767 0.000000 0.242065
O O11 0.306427 0.214950 0.525305
O O12 0.138283 0.000000 0.494244
O O13 0.500000 0.169458 0.500000
O O14 0.527757 0.333492 0.636446
O O15 0.475994 0.000000 0.617479
O O16 0.282390 0.500000 0.349250
O O17 0.167563 0.500000 0.172582
O O18 0.500000 0.500000 0.500000
O O19 0.000000 0.500000 0.000000
#
# Coordination Sequence:
#
# PCOD9141494 Si02
#       8
#     4   4   4   4   4   2   2   2
#     4   9  16  28  46  70 101 138 164 198 253 311
#     4  11  22  31  49  76 103 135 175 214 266 321
#     4  11  21  32  49  75 108 139 175 209 251 319
#     4  10  20  36  52  69  99 136 178 222 268 308
#     4   9  20  36  54  71  90 129 177 219 258 294
#     4  12  22  34  49  78 102 148 178 213 266 303
#     4  10  24  36  49  68 104 134 181 226 251 295
#     4  10  16  30  50  68 105 134 170 206 252 325
#
# _framework density 17.485116000000001
#
# number of rings (size 3 to 8) (size 9 to 14) (size 15 to 20)
#    0.000    1.846    3.846    2.769    6.462    0.615 
#    0.000    0.000    0.000    0.000    0.000    0.000 
#    0.000    2.462    0.000    6.923    0.000    0.154 
#
# Total GULP energy -144878.461806 kJ/mol
# GULP energy per Si atom -5572.248531 kJ/mol
# Density = 1.744532 g / cm^3
# Si number density = 17.485116 Si / 1000 Ang^3
#
#
#
# Elastic Constant Matrix: (Units=GPa)
#
#
# Indices 1 2 3 4 5 6 
#
# 1 74.7998 20.7587 19.2132 0.0000 -16.0306 0.0000
# 2 20.7587 148.8287 9.9929 0.0000 3.8660 0.0000
# 3 19.2132 9.9929 62.5728 0.0000 -30.3725 0.0000
# 4 0.0000 0.0000 0.0000 20.4071 0.0000 -7.8462
# 5 -16.0306 3.8660 -30.3725 0.0000 24.5069 0.0000
# 6 0.0000 0.0000 0.0000 -7.8462 0.0000 21.3563
#
#
#
# Elastic Compliance Matrix: (Units=1/GPa)
#
#
# Indices 1 2 3 4 5 6 
#
# 1 0.016590 -0.002817 0.002106 0.000000 0.013906 0.000000
# 2 -0.002817 0.007649 -0.004610 0.000000 -0.008762 0.000000
# 3 0.002106 -0.004610 0.042900 0.000000 0.055273 0.000000
# 4 0.000000 0.000000 0.000000 0.057063 0.000000 0.020965
# 5 0.013906 -0.008762 0.055273 0.000000 0.119785 0.000000
# 6 0.000000 0.000000 0.000000 0.020965 0.000000 0.054527
#
#
# Mechanical properties :
#
#
# Convention : Reuss Voigt Hill
#
# Bulk Modulus (GPa) = 17.69988 42.90343 30.30165
# Shear Modulus (GPa) = 15.24441 29.00316 22.12378
#
# Velocity S-wave (km/s) = 2.95591 4.07717 3.56095
# Velocity P-wave (km/s) = 4.66848 6.83775 5.85447
#
# Compressibility (1/GPa) = 0.05649756
#
# Stress axis : x y z
#
# Youngs Moduli (GPa) = 60.27709 130.73390 23.30993
#
# Poissons Ratio (x) = 0.36822 -0.04908
# Poissons Ratio (y) = 0.16978 0.10746
# Poissons Ratio (z) = -0.12692 0.60267
#
# Static dielectric constant tensor:
#      x y z
#    x 1.581950 0.000000 -0.032900 
#    y 0.000000 1.702890 0.000000 
#    z -0.032900 0.000000 1.580170 
# 
# From -- ./inp_files/63594.got.cif
#   From: 2010.05.17/outbox.cif.g08.bks.cpg/sg10_32_cif.got.tgz:63594.got - 2010.06.03 11:33:40.
