data_PCOD9141833
_publ_section_title
;
Structure prediction by ZEFSAII (Michael W. Deem and Ramdas Pophale) SiO2 
 PCOD9141833
Probable space group: P 2/M
;
_chemical_formula_sum "Si O2"
_cell_formula_units_Z 32
_cell_length_a 13.084165
_cell_length_b 25.218985
_cell_length_c 5.370588
_cell_angle_alpha 90.000000
_cell_angle_beta 79.117214
_cell_angle_gamma 90.000000
_cell_volume 1740.258592
_symmetry_space_group_name_H-M "P 2/M"
_symmetry_group_IT_number 10
_symmetry_cell_setting 'monoclinic'
loop_
_space_group_symop_operation_xyz
x,y,z
-x,y,-z
-x,-y,-z
x,-y,z
loop_
_atom_site_type_symbol
_atom_site_label
_atom_site_fract_x
_atom_site_fract_y
_atom_site_fract_z
Si Si1 0.703649 0.720038 0.843343
Si Si2 0.950138 0.291641 0.772182
Si Si3 0.271211 0.562494 0.668766
Si Si4 0.379407 0.601798 0.125447
Si Si5 0.619797 0.227850 0.388034
Si Si6 0.379428 0.894891 0.766834
Si Si7 0.383716 0.937807 0.266997
Si Si8 0.961300 0.411442 0.268574
O O1 0.826768 0.712666 0.819829
O O2 0.649842 0.663312 0.824882
O O3 0.680464 0.756322 0.612107
O O4 0.658980 0.742455 0.123204
O O5 0.000000 0.268059 0.500000
O O6 0.982929 0.353833 0.757323
O O7 0.000000 0.268568 0.000000
O O8 0.248552 0.500000 0.686296
O O9 0.346529 0.574005 0.399524
O O10 0.162755 0.593159 0.674077
O O11 0.316837 0.580176 0.913841
O O12 0.500000 0.595416 0.000000
O O13 0.500000 0.241522 0.500000
O O14 0.624383 0.165765 0.315772
O O15 0.333497 0.928312 0.559422
O O16 0.499512 0.914100 0.749765
O O17 0.332915 0.907063 0.059281
O O18 0.390469 0.000000 0.208152
O O19 0.000000 0.438781 0.500000
O O20 0.000000 0.438385 0.000000
#
# Coordination Sequence:
#
# PCOD9141833 Si02
#       8
#     4   4   4   4   4   4   4   4
#     4  12  25  39  60  86 107 148 198 235 285 340
#     4  10  19  37  61  81 106 134 173 231 289 343
#     4  12  26  43  66  92 115 142 179 223 284 358
#     4  12  25  44  63  84 118 151 190 230 269 323
#     4  12  23  37  54  79 120 158 202 243 277 319
#     4  10  18  29  45  68 105 151 198 253 278 311
#     4  10  17  28  47  72 103 151 219 251 270 324
#     4  10  20  37  61  87 113 139 164 215 281 340
#
# _framework density 18.388069999999999
#
# number of rings (size 3 to 8) (size 9 to 14) (size 15 to 20)
#    0.000    1.000    1.250    9.750    1.750    2.000 
#    0.000    0.000    0.000    0.000    0.000    0.000 
#    0.000    0.000    0.000    0.000    0.000  257.500 
#
# Total GULP energy -178653.048380 kJ/mol
# GULP energy per Si atom -5582.907762 kJ/mol
# Density = 1.834622 g / cm^3
# Si number density = 18.388070 Si / 1000 Ang^3
#
#
#
# Elastic Constant Matrix: (Units=GPa)
#
#
# Indices 1 2 3 4 5 6 
#
# 1 78.1491 34.4264 26.9274 0.0000 7.8526 0.0000
# 2 34.4264 71.2040 34.0286 0.0000 -0.1528 0.0000
# 3 26.9274 34.0286 180.3189 0.0000 13.5716 0.0000
# 4 0.0000 0.0000 0.0000 24.0003 0.0000 13.6391
# 5 7.8526 -0.1528 13.5716 0.0000 28.4446 0.0000
# 6 0.0000 0.0000 0.0000 13.6391 0.0000 -6.6856
#
#
#
# Elastic Compliance Matrix: (Units=1/GPa)
#
#
# Indices 1 2 3 4 5 6 
#
# 1 0.016945 -0.007859 -0.000718 0.000000 -0.004378 0.000000
# 2 -0.007859 0.019146 -0.002708 0.000000 0.003564 0.000000
# 3 -0.000718 -0.002708 0.006379 0.000000 -0.002860 0.000000
# 4 0.000000 0.000000 0.000000 0.019296 0.000000 0.039365
# 5 -0.004378 0.003564 -0.002860 0.000000 0.037748 0.000000
# 6 0.000000 0.000000 0.000000 0.039365 0.000000 -0.069269
#
#
# Mechanical properties :
#
#
# Convention : Reuss Voigt Hill
#
# Bulk Modulus (GPa) = 50.24950 57.82628 54.03789
# Shear Modulus (GPa) = 84.10622 24.77117 54.43870
#
# Velocity S-wave (km/s) = 6.77044 3.67431 5.44699
# Velocity P-wave (km/s) = 9.40771 7.03681 8.30728
#
# Compressibility (1/GPa) = 0.01990069
#
# Stress axis : x y z
#
# Youngs Moduli (GPa) = 59.01280 52.23106 156.76033
#
# Poissons Ratio (x) = 0.41050 0.11253
# Poissons Ratio (y) = 0.46380 0.42446
# Poissons Ratio (z) = 0.04236 0.14143
#
# Static dielectric constant tensor:
#      x y z
#    x 1.673690 0.000000 -0.068140 
#    y 0.000000 1.627600 0.000000 
#    z -0.068140 0.000000 1.706390 
# 
# From -- ./inp_files/8036.got.cif
#   From: 2010.05.17/outbox.cif.g08.bks.cpg/sg10_5_cif.got.tgz:8036.got - 2010.06.03 11:33:40.
