data_PCOD9141533
_publ_section_title
;
Structure prediction by ZEFSAII (Michael W. Deem and Ramdas Pophale) SiO2 
 PCOD9141533
Probable space group: P 2/M
;
_chemical_formula_sum "Si O2"
_cell_formula_units_Z 11
_cell_length_a 17.791857
_cell_length_b 5.278269
_cell_length_c 10.745166
_cell_angle_alpha 90.000000
_cell_angle_beta 154.948228
_cell_angle_gamma 90.000000
_cell_volume 427.282154
_symmetry_space_group_name_H-M "P 2/M"
_symmetry_group_IT_number 10
_symmetry_cell_setting 'monoclinic'
loop_
_space_group_symop_operation_xyz
x,y,z
-x,y,-z
-x,-y,-z
x,-y,z
loop_
_atom_site_type_symbol
_atom_site_label
_atom_site_fract_x
_atom_site_fract_y
_atom_site_fract_z
Si Si1 0.638303 0.000000 0.595555
Si Si2 0.000000 0.000000 0.500000
Si Si3 0.747919 0.500000 0.121885
Si Si4 0.792886 0.500000 0.924117
Si Si5 0.361684 0.000000 0.680625
Si Si6 0.207114 0.500000 0.545460
O O1 0.500000 0.000000 0.500000
O O2 0.755803 0.750731 0.791657
O O3 0.559865 0.000000 0.339795
O O4 0.849616 0.771395 0.274433
O O5 0.670239 0.500000 0.145272
O O6 0.670252 0.500000 0.865467
O O7 0.999997 0.500000 0.724751
O O8 0.244188 0.249273 0.524229
O O9 0.500000 0.000000 0.000000
#
# Coordination Sequence:
#
# PCOD9141533 Si02
#       6
#     2   1   2   2   2   2
#     4  12  30  51  75 105 152 202 245 299 379 445
#     4  10  16  34  56 102 162 166 232 262 372 426
#     4  11  22  36  70 116 150 180 235 294 375 424
#     4  12  25  45  80 112 150 187 251 312 369 432
#     4  12  30  51  75 105 152 202 245 299 379 445
#     4  12  25  45  80 112 150 187 251 312 369 432
#
# _framework density 25.744112999999999
#
# number of rings (size 3 to 8) (size 9 to 14) (size 15 to 20)
#    0.000    0.364    3.636    5.455    5.091    4.364 
#    0.000    0.000    0.000    0.000    0.000    0.000 
#    0.000    0.000    0.000    0.000    0.000    0.000 
#
# Total GULP energy -61335.102196 kJ/mol
# GULP energy per Si atom -5575.918381 kJ/mol
# Density = 2.568552 g / cm^3
# Si number density = 25.744113 Si / 1000 Ang^3
#
#
#
# Elastic Constant Matrix: (Units=GPa)
#
#
# Indices 1 2 3 4 5 6 
#
# 1 149.3126 47.4662 47.6662 0.0000 -38.7599 0.0000
# 2 47.4662 300.9926 46.1923 0.0000 -1.4333 0.0000
# 3 47.6662 46.1923 92.2290 0.0000 -24.2931 0.0000
# 4 0.0000 0.0000 0.0000 4.8776 0.0000 12.9743
# 5 -38.7599 -1.4333 -24.2931 0.0000 49.2562 0.0000
# 6 0.0000 0.0000 0.0000 12.9743 0.0000 -6.9099
#
#
#
# Elastic Compliance Matrix: (Units=1/GPa)
#
#
# Indices 1 2 3 4 5 6 
#
# 1 0.009492 -0.001040 -0.002787 0.000000 0.006064 0.000000
# 2 -0.001040 0.003748 -0.001754 0.000000 -0.001575 0.000000
# 3 -0.002787 -0.001754 0.014448 0.000000 0.004881 0.000000
# 4 0.000000 0.000000 0.000000 0.034201 0.000000 0.064218
# 5 0.006064 -0.001575 0.004881 0.000000 0.027436 0.000000
# 6 0.000000 0.000000 0.000000 0.064218 0.000000 -0.024142
#
#
# Mechanical properties :
#
#
# Convention : Reuss Voigt Hill
#
# Bulk Modulus (GPa) = 60.51921 91.68705 76.10313
# Shear Modulus (GPa) = 61.08407 36.19209 48.63808
#
# Velocity S-wave (km/s) = 4.87636 3.75352 4.35131
# Velocity P-wave (km/s) = 7.43399 7.38087 7.40748
#
# Compressibility (1/GPa) = 0.01652368
#
# Stress axis : x y z
#
# Youngs Moduli (GPa) = 105.35019 266.79990 69.21609
#
# Poissons Ratio (x) = 0.27754 0.19293
# Poissons Ratio (y) = 0.10959 0.12143
# Poissons Ratio (z) = 0.29365 0.46807
#
# Static dielectric constant tensor:
#      x y z
#    x 2.089330 0.000000 -0.009040 
#    y 0.000000 1.967970 0.000000 
#    z -0.009040 0.000000 2.081180 
# 
# From -- ./inp_files/26429.got.cif
#   From: 2010.05.17/outbox.cif.g08.bks.cpg/sg10_14_cif.got.tgz:26429.got - 2010.06.03 11:33:40.
