data_PCOD9141818
_publ_section_title
;
Structure prediction by ZEFSAII (Michael W. Deem and Ramdas Pophale) SiO2 
 PCOD9141818
Probable space group: P 2/M
;
_chemical_formula_sum "Si O2"
_cell_formula_units_Z 32
_cell_length_a 22.708099
_cell_length_b 13.920834
_cell_length_c 22.518542
_cell_angle_alpha 90.000000
_cell_angle_beta 17.963261
_cell_angle_gamma 90.000000
_cell_volume 2195.384866
_symmetry_space_group_name_H-M "P 2/M"
_symmetry_group_IT_number 10
_symmetry_cell_setting 'monoclinic'
loop_
_space_group_symop_operation_xyz
x,y,z
-x,y,-z
-x,-y,-z
x,-y,z
loop_
_atom_site_type_symbol
_atom_site_label
_atom_site_fract_x
_atom_site_fract_y
_atom_site_fract_z
Si Si1 0.702224 0.704081 0.630906
Si Si2 0.107640 0.887981 0.731964
Si Si3 0.478479 0.385565 0.951358
Si Si4 0.614723 0.888737 0.646643
Si Si5 0.521538 0.114433 0.548626
Si Si6 0.107669 0.612021 0.231933
Si Si7 0.614690 0.611262 0.146676
Si Si8 0.297801 0.204083 0.869069
O O1 0.658236 0.814256 0.657107
O O2 0.923139 0.677842 0.413007
O O3 0.621925 0.672408 0.771699
O O4 0.579906 0.643026 0.699871
O O5 0.220986 0.877219 0.561187
O O6 0.265188 0.867390 0.631421
O O7 0.049695 0.000000 0.793137
O O8 0.923114 0.822156 0.913033
O O9 0.514128 0.500000 0.908348
O O10 0.265209 0.367386 0.131399
O O11 0.500000 0.364024 0.000000
O O12 0.420123 0.856972 0.800100
O O13 0.605710 0.000000 0.672603
O O14 0.500000 0.135968 0.500000
O O15 0.378101 0.172411 0.728276
O O16 0.485882 0.000000 0.591647
O O17 0.049730 0.500000 0.293099
O O18 0.221020 0.622782 0.061153
O O19 0.605675 0.500000 0.172638
O O20 0.658209 0.685742 0.157134
#
# Coordination Sequence:
#
# PCOD9141818 Si02
#       8
#     4   4   4   4   4   4   4   4
#     4  10  17  28  46  63  86 117 142 168 211 256
#     4   9  16  27  44  65  87 110 138 171 211 257
#     4   9  18  30  43  64  90 111 139 178 212 248
#     4   9  18  29  42  65  91 111 138 176 210 248
#     4   9  18  30  43  64  90 111 139 178 212 248
#     4   9  16  27  44  65  87 110 138 171 211 257
#     4   9  18  29  42  65  91 111 138 176 210 248
#     4  10  17  28  46  63  86 117 142 168 211 256
#
# _framework density 14.576032
#
# number of rings (size 3 to 8) (size 9 to 14) (size 15 to 20)
#    0.000    2.750    0.000    4.500    0.000    1.000 
#    0.000    3.750    0.000    0.750    0.000    1.750 
#    0.000    0.000    0.000    0.000    0.000    0.000 
#
# Total GULP energy -178341.757293 kJ/mol
# GULP energy per Si atom -5573.179915 kJ/mol
# Density = 1.454286 g / cm^3
# Si number density = 14.576032 Si / 1000 Ang^3
#
#
#
# Elastic Constant Matrix: (Units=GPa)
#
#
# Indices 1 2 3 4 5 6 
#
# 1 78.5452 48.9694 33.9201 0.0000 9.2522 0.0000
# 2 48.9694 96.6365 43.2440 0.0000 3.4460 0.0000
# 3 33.9201 43.2440 61.4227 0.0000 -6.7270 0.0000
# 4 0.0000 0.0000 0.0000 16.2392 0.0000 1.5546
# 5 9.2522 3.4460 -6.7270 0.0000 8.6561 0.0000
# 6 0.0000 0.0000 0.0000 1.5546 0.0000 23.1980
#
#
#
# Elastic Compliance Matrix: (Units=1/GPa)
#
#
# Indices 1 2 3 4 5 6 
#
# 1 0.027614 -0.005591 -0.015632 0.000000 -0.039438 0.000000
# 2 -0.005591 0.018452 -0.010988 0.000000 -0.009909 0.000000
# 3 -0.015632 -0.010988 0.038211 0.000000 0.050779 0.000000
# 4 0.000000 0.000000 0.000000 0.061977 0.000000 -0.004153
# 5 -0.039438 -0.009909 0.050779 0.000000 0.201087 0.000000
# 6 0.000000 0.000000 0.000000 -0.004153 0.000000 0.043386
#
#
# Mechanical properties :
#
#
# Convention : Reuss Voigt Hill
#
# Bulk Modulus (GPa) = 50.37060 54.31903 52.34482
# Shear Modulus (GPa) = 10.82795 16.98338 13.90566
#
# Velocity S-wave (km/s) = 2.72850 3.41714 3.09205
# Velocity P-wave (km/s) = 6.67521 7.27434 6.98121
#
# Compressibility (1/GPa) = 0.01985285
#
# Stress axis : x y z
#
# Youngs Moduli (GPa) = 36.21357 54.19484 26.17059
#
# Poissons Ratio (x) = 0.30303 0.40910
# Poissons Ratio (y) = 0.20249 0.28757
# Poissons Ratio (z) = 0.56610 0.59551
#
# Static dielectric constant tensor:
#      x y z
#    x 1.466710 0.000000 -0.004280 
#    y 0.000000 1.475980 0.000000 
#    z -0.004280 0.000000 1.474660 
# 
# From -- ./inp_files/13306.got.cif
#   From: 2010.05.17/outbox.cif.g08.bks.cpg/sg10_7_cif.got.tgz:13306.got - 2010.06.03 11:33:40.
