data_PCOD9141491
_publ_section_title
;
Structure prediction by ZEFSAII (Michael W. Deem and Ramdas Pophale) SiO2 
 PCOD9141491
Probable space group: P 2/M
;
_chemical_formula_sum "Si O2"
_cell_formula_units_Z 30
_cell_length_a 15.212799
_cell_length_b 7.388225
_cell_length_c 11.527210
_cell_angle_alpha 90.000000
_cell_angle_beta 109.694591
_cell_angle_gamma 90.000000
_cell_volume 1219.817501
_symmetry_space_group_name_H-M "P 2/M"
_symmetry_group_IT_number 10
_symmetry_cell_setting 'monoclinic'
loop_
_space_group_symop_operation_xyz
x,y,z
-x,y,-z
-x,-y,-z
x,-y,z
loop_
_atom_site_type_symbol
_atom_site_label
_atom_site_fract_x
_atom_site_fract_y
_atom_site_fract_z
Si Si1 0.000000 0.750059 0.000000
Si Si2 0.933661 0.222490 0.722832
Si Si3 0.289865 0.222808 0.636800
Si Si4 0.631053 0.708222 0.827502
Si Si5 0.183257 0.720478 0.961664
Si Si6 0.716431 0.217398 0.618485
Si Si7 0.108284 0.789619 0.671264
Si Si8 0.451526 0.795431 0.866110
O O1 0.027696 0.689831 0.142033
O O2 0.104666 0.809704 0.008857
O O3 0.825815 0.267093 0.664506
O O4 0.003724 0.277786 0.650628
O O5 0.942243 0.000000 0.739683
O O6 0.322634 0.276231 0.523372
O O7 0.184324 0.284535 0.616092
O O8 0.360395 0.286971 0.767291
O O9 0.289550 0.000000 0.639382
O O10 0.615577 0.500000 0.850916
O O11 0.714873 0.775028 0.947837
O O12 0.666621 0.717218 0.711796
O O13 0.533243 0.802568 0.807106
O O14 0.175348 0.500000 0.971235
O O15 0.159858 0.773164 0.819706
O O16 0.712495 0.000000 0.621326
O O17 0.096898 0.000000 0.635102
O O18 0.424738 0.000000 0.889051
O O19 0.500000 0.710291 0.000000
#
# Coordination Sequence:
#
# PCOD9141491 Si02
#       8
#     2   4   4   4   4   4   4   4
#     4  10  16  30  48  74 107 144 181 216 263 320
#     4   9  17  28  49  82 113 143 181 224 269 316
#     4   9  19  36  58  82 109 141 185 229 271 326
#     4  11  23  38  55  82 114 146 183 226 275 325
#     4  10  20  32  50  77 108 142 179 221 270 322
#     4  10  20  36  56  80 112 151 185 220 267 324
#     4   9  18  33  54  81 110 143 181 229 274 320
#     4  10  21  39  63  87 108 139 181 227 278 329
#
# _framework density 24.593843
#
# number of rings (size 3 to 8) (size 9 to 14) (size 15 to 20)
#    0.000    2.267    1.333    1.600    0.000    4.000 
#    0.000    7.333    0.000    0.000    0.000    2.800 
#    0.000    0.000    0.000    0.000    0.000    0.000 
#
# Total GULP energy -167391.690800 kJ/mol
# GULP energy per Si atom -5579.723027 kJ/mol
# Density = 2.453787 g / cm^3
# Si number density = 24.593843 Si / 1000 Ang^3
#
#
#
# Elastic Constant Matrix: (Units=GPa)
#
#
# Indices 1 2 3 4 5 6 
#
# 1 118.4008 4.5288 24.0739 0.0000 -12.6108 0.0000
# 2 4.5288 100.2396 -1.2172 0.0000 6.6608 0.0000
# 3 24.0739 -1.2172 90.1113 0.0000 -3.2289 0.0000
# 4 0.0000 0.0000 0.0000 2.0678 0.0000 -5.4452
# 5 -12.6108 6.6608 -3.2289 0.0000 38.4597 0.0000
# 6 0.0000 0.0000 0.0000 -5.4452 0.0000 -104.4898
#
#
#
# Elastic Compliance Matrix: (Units=1/GPa)
#
#
# Indices 1 2 3 4 5 6 
#
# 1 0.009269 -0.000644 -0.002379 0.000000 0.002951 0.000000
# 2 -0.000644 0.010137 0.000239 0.000000 -0.001947 0.000000
# 3 -0.002379 0.000239 0.011742 0.000000 0.000164 0.000000
# 4 0.000000 0.000000 0.000000 0.425254 0.000000 -0.022161
# 5 0.002951 -0.001947 0.000164 0.000000 0.027320 0.000000
# 6 0.000000 0.000000 0.000000 -0.022161 0.000000 -0.008415
#
#
# Mechanical properties :
#
#
# Convention : Reuss Voigt Hill
#
# Bulk Modulus (GPa) = 39.09195 40.39141 39.74168
# Shear Modulus (GPa) = 10.21658 5.96529 8.09094
#
# Velocity S-wave (km/s) = 2.04038 1.55910 1.81575
# Velocity P-wave (km/s) = 4.63469 4.43848 4.53765
#
# Compressibility (1/GPa) = 0.02558072
#
# Stress axis : x y z
#
# Youngs Moduli (GPa) = 107.89188 98.64419 85.16363
#
# Poissons Ratio (x) = 0.06350 0.20261
# Poissons Ratio (y) = 0.06945 -0.02037
# Poissons Ratio (z) = 0.25669 -0.02359
#
# Static dielectric constant tensor:
#      x y z
#    x 1.923060 0.000000 0.006650 
#    y 0.000000 2.080710 0.000000 
#    z 0.006650 0.000000 1.922520 
# 
# From -- ./inp_files/49993.got.cif
#   From: 2010.05.17/outbox.cif.g08.bks.cpg/sg10_25_cif.got.tgz:49993.got - 2010.06.03 11:33:40.
