data_PCOD9141291
_publ_section_title
;
Structure prediction by ZEFSAII (Michael W. Deem and Ramdas Pophale) SiO2 
 PCOD9141291
Probable space group: C C
;
_chemical_formula_sum "Si O2"
_cell_formula_units_Z 14
_cell_length_a 27.000000
_cell_length_b 12.000000
_cell_length_c 12.000000
_cell_angle_alpha 90.000000
_cell_angle_beta 160.000000
_cell_angle_gamma 90.000000
_cell_volume 1329.774317
_symmetry_space_group_name_H-M "C C"
_symmetry_group_IT_number 9
_symmetry_cell_setting 'monoclinic'
loop_
_space_group_symop_operation_xyz
x,y,z
x,-y,1/2+z
1/2+x,1/2+y,z
1/2+x,1/2-y,1/2+z
loop_
_atom_site_type_symbol
_atom_site_label
_atom_site_fract_x
_atom_site_fract_y
_atom_site_fract_z
Si Si1 0.636960 0.950914 0.022810
Si Si2 0.098747 0.676353 0.218505
Si Si3 0.890276 0.494674 0.679408
Si Si4 0.902464 0.897011 0.765724
Si Si5 0.708182 0.189582 0.056005
Si Si6 0.603196 0.386546 0.661814
Si Si7 0.838283 0.751592 0.060573
O O1 0.776264 0.922850 0.402197
O O2 0.647427 0.073352 0.984525
O O3 0.630747 0.851229 0.916715
O O4 0.483268 0.963695 0.764047
O O5 0.244789 0.680390 0.453750
O O6 0.004306 0.569652 0.985602
O O7 0.007146 0.785811 0.982612
O O8 0.740492 0.565873 0.380775
O O9 0.860186 0.370428 0.659698
O O10 0.817075 0.867493 0.698099
O O11 0.010357 0.003718 0.002015
O O12 0.758211 0.253772 0.273252
O O13 0.642694 0.294061 0.842250
O O14 0.488010 0.313642 0.349551
#
# Coordination Sequence:
#
# PCOD9141291 Si02
#       7
#     4   4   4   4   4   4   4
#     4  12  26  52  82 109 166 210 255 337 399 459
#     4  12  26  52  76 118 154 209 263 317 399 472
#     4  12  26  49  76 114 157 202 262 323 385 469
#     4  12  26  52  78 112 158 208 263 321 398 470
#     4  12  26  49  79 109 158 207 253 328 396 464
#     4  12  26  49  78 111 154 205 268 316 386 475
#     4  12  26  51  77 113 159 201 260 326 393 467
#
# _framework density 10.528102000000001
#
# number of rings (size 3 to 8) (size 9 to 14) (size 15 to 20)
#    0.000    0.000    5.714    4.286    0.000    3.429 
#    5.143    0.000    0.000    0.000    0.000    0.000 
#    0.000    0.000    0.000    0.000    0.000    0.000 
#
# Total GULP energy -77968.430481 kJ/mol
# GULP energy per Si atom -5569.173606 kJ/mol
# Density = 1.050414 g / cm^3
# Si number density = 10.528102 Si / 1000 Ang^3
#
#
#
# Elastic Constant Matrix: (Units=GPa)
#
#
# Indices 1 2 3 4 5 6 
#
# 1 122.9536 24.1170 61.5648 0.0000 9.4064 0.0000
# 2 24.1170 143.2167 56.0485 0.0000 -1.4751 0.0000
# 3 61.5648 56.0485 100.3983 0.0000 18.9798 0.0000
# 4 0.0000 0.0000 0.0000 56.2462 0.0000 2.3558
# 5 9.4064 -1.4751 18.9798 0.0000 35.6667 0.0000
# 6 0.0000 0.0000 0.0000 2.3558 0.0000 38.2455
#
#
#
# Elastic Compliance Matrix: (Units=1/GPa)
#
#
# Indices 1 2 3 4 5 6 
#
# 1 0.011919 0.001231 -0.008240 0.000000 0.001293 0.000000
# 2 0.001231 0.009439 -0.006712 0.000000 0.003638 0.000000
# 3 -0.008240 -0.006712 0.020461 0.000000 -0.008992 0.000000
# 4 0.000000 0.000000 0.000000 0.017825 0.000000 -0.001098
# 5 0.001293 0.003638 -0.008992 0.000000 0.032632 0.000000
# 6 0.000000 0.000000 0.000000 -0.001098 0.000000 0.026214
#
#
# Mechanical properties :
#
#
# Convention : Reuss Voigt Hill
#
# Bulk Modulus (GPa) = 69.56137 72.22548 70.89342
# Shear Modulus (GPa) = 33.17288 41.02089 37.09689
#
# Velocity S-wave (km/s) = 3.97349 4.41859 4.20194
# Velocity P-wave (km/s) = 7.35930 7.77223 7.56858
#
# Compressibility (1/GPa) = 0.01437580
#
# Stress axis : x y z
#
# Youngs Moduli (GPa) = 83.90065 105.93814 48.87452
#
# Poissons Ratio (x) = -0.13042 0.40274
# Poissons Ratio (y) = -0.10329 0.32806
# Poissons Ratio (z) = 0.69137 0.71109
#
# Static dielectric constant tensor:
#      x y z
#    x 1.770050 0.000000 0.017030 
#    y 0.000000 1.801690 0.000000 
#    z 0.017030 0.000000 1.840220 
# 
# From -- ./inp_files/14225.got.cif
#   From: 2010.05.17/outbox.ucp.g08.bks.cvg/sg9_8_cif.got.tgz:14225.got - 2010.06.11 13:03:20.
