data_PCOD9141712
_publ_section_title
;
Structure prediction by ZEFSAII (Michael W. Deem and Ramdas Pophale) SiO2 
 PCOD9141712
Probable space group: P 2/M
;
_chemical_formula_sum "Si O2"
_cell_formula_units_Z 32
_cell_length_a 17.499094
_cell_length_b 7.500989
_cell_length_c 17.694022
_cell_angle_alpha 90.000000
_cell_angle_beta 49.718347
_cell_angle_gamma 90.000000
_cell_volume 1771.798248
_symmetry_space_group_name_H-M "P 2/M"
_symmetry_group_IT_number 10
_symmetry_cell_setting 'monoclinic'
loop_
_space_group_symop_operation_xyz
x,y,z
-x,y,-z
-x,-y,-z
x,-y,z
loop_
_atom_site_type_symbol
_atom_site_label
_atom_site_fract_x
_atom_site_fract_y
_atom_site_fract_z
Si Si1 0.415537 0.208717 0.996039
Si Si2 0.565146 0.199709 0.182347
Si Si3 0.183600 0.716819 0.543573
Si Si4 0.662215 0.715774 0.686584
Si Si5 0.758204 0.715325 0.783441
Si Si6 0.346851 0.718225 0.552962
Si Si7 0.559907 0.710079 0.353633
Si Si8 0.980558 0.281882 0.599809
O O1 0.307839 0.222182 0.104236
O O2 0.442750 0.000000 0.968959
O O3 0.500000 0.283934 0.000000
O O4 0.412841 0.287800 0.913179
O O5 0.444739 0.203724 0.262524
O O6 0.596015 0.267931 0.245030
O O7 0.605350 0.000000 0.152878
O O8 0.179358 0.500000 0.548993
O O9 0.254120 0.763960 0.427649
O O10 0.244765 0.778121 0.578076
O O11 0.072004 0.776853 0.594641
O O12 0.651369 0.500000 0.690873
O O13 0.698582 0.768550 0.746101
O O14 0.759471 0.500000 0.784734
O O15 0.872493 0.775553 0.699840
O O16 0.343532 0.500000 0.553029
O O17 0.446075 0.775492 0.442233
O O18 0.368547 0.777249 0.624888
O O19 0.552255 0.500000 0.371461
O O20 0.979824 0.500000 0.599004
O O21 0.000000 0.227962 0.500000
#
# Coordination Sequence:
#
# PCOD9141712 Si02
#       8
#     4   4   4   4   4   4   4   4
#     4  10  21  35  46  59  86 123 153 181 224 272
#     4  11  21  31  44  63  87 119 154 183 222 267
#     4   9  14  23  42  66  93 124 150 170 209 266
#     4  10  17  26  44  66  90 120 151 181 213 254
#     4  10  19  29  45  70  92 115 152 191 220 247
#     4   8  14  24  42  67  91 119 147 175 215 267
#     4   9  16  28  45  65  90 115 148 185 217 261
#     4   9  15  24  40  68  99 119 141 180 221 257
#
# _framework density 18.060748
#
# number of rings (size 3 to 8) (size 9 to 14) (size 15 to 20)
#    0.000    2.500    3.750    1.125    0.000    1.250 
#    0.000    1.250    0.000    1.125    0.000    0.875 
#    0.000    7.000    0.000    0.000    0.000    0.000 
#
# Total GULP energy -178365.959953 kJ/mol
# GULP energy per Si atom -5573.936249 kJ/mol
# Density = 1.801964 g / cm^3
# Si number density = 18.060748 Si / 1000 Ang^3
#
#
#
# Elastic Constant Matrix: (Units=GPa)
#
#
# Indices 1 2 3 4 5 6 
#
# 1 129.6254 2.5564 59.7150 0.0000 21.8444 0.0000
# 2 2.5564 41.7102 -1.2697 0.0000 4.0327 0.0000
# 3 59.7150 -1.2697 109.2329 0.0000 17.1214 0.0000
# 4 0.0000 0.0000 0.0000 19.0862 0.0000 0.9988
# 5 21.8444 4.0327 17.1214 0.0000 31.7178 0.0000
# 6 0.0000 0.0000 0.0000 0.9988 0.0000 -5.7667
#
#
#
# Elastic Compliance Matrix: (Units=1/GPa)
#
#
# Indices 1 2 3 4 5 6 
#
# 1 0.010921 -0.000380 -0.005248 0.000000 -0.004641 0.000000
# 2 -0.000380 0.024357 0.001022 0.000000 -0.003386 0.000000
# 3 -0.005248 0.001022 0.012551 0.000000 -0.003291 0.000000
# 4 0.000000 0.000000 0.000000 0.051923 0.000000 0.008993
# 5 -0.004641 -0.003386 -0.003291 0.000000 0.036931 0.000000
# 6 0.000000 0.000000 0.000000 0.008993 0.000000 -0.171852
#
#
# Mechanical properties :
#
#
# Convention : Reuss Voigt Hill
#
# Bulk Modulus (GPa) = 25.89516 44.73021 35.31268
# Shear Modulus (GPa) = -382.17264 23.64525 -179.26370
#
# Velocity S-wave (km/s) = -14.56240 3.62222 -9.97354
# Velocity P-wave (km/s) = 16.38238 6.50494 10.63174
#
# Compressibility (1/GPa) = 0.03861726
#
# Stress axis : x y z
#
# Youngs Moduli (GPa) = 91.56258 41.05635 79.67382
#
# Poissons Ratio (x) = 0.01562 0.41809
# Poissons Ratio (y) = 0.03483 -0.08142
# Poissons Ratio (z) = 0.48048 -0.04196
#
# Static dielectric constant tensor:
#      x y z
#    x 1.637300 0.000000 0.031650 
#    y 0.000000 1.697470 0.000000 
#    z 0.031650 0.000000 1.610790 
# 
# From -- ./inp_files/78515.got.cif
#   From: 2010.05.17/outbox.cif.g08.bks.cpg/sg10_40_cif.got.tgz:78515.got - 2010.06.03 11:33:40.
