data_PCOD9141017
_publ_section_title
;
Structure prediction by ZEFSAII (Michael W. Deem and Ramdas Pophale) SiO2 
 PCOD9141017
Probable space group: C C
;
_chemical_formula_sum "Si O2"
_cell_formula_units_Z 16
_cell_length_a 5.222490
_cell_length_b 18.349896
_cell_length_c 7.348800
_cell_angle_alpha 90.000000
_cell_angle_beta 56.438089
_cell_angle_gamma 90.000000
_cell_volume 586.844812
_symmetry_space_group_name_H-M "C C"
_symmetry_group_IT_number 9
_symmetry_cell_setting 'monoclinic'
loop_
_space_group_symop_operation_xyz
x,y,z
x,-y,1/2+z
1/2+x,1/2+y,z
1/2+x,1/2-y,1/2+z
loop_
_atom_site_type_symbol
_atom_site_label
_atom_site_fract_x
_atom_site_fract_y
_atom_site_fract_z
Si Si1 0.089920 0.923551 0.256710
Si Si2 0.318417 0.422557 0.977840
Si Si3 0.107687 0.229827 0.907360
Si Si4 0.677663 0.723211 0.250256
O O1 0.457150 0.926271 0.071215
O O2 0.035467 0.855597 0.409140
O O3 0.873450 0.908519 0.169267
O O4 0.982794 0.001041 0.374118
O O5 0.502149 0.355475 0.818953
O O6 0.438339 0.239777 0.662560
O O7 0.916873 0.274775 0.825242
O O8 0.410438 0.772990 0.475616
#
# Coordination Sequence:
#
# PCOD9141017 Si02
#       4
#     4   4   4   4
#     4  12  26  46  70 102 141 186 235 289 350 419
#     4  12  26  46  70 102 141 186 235 289 350 419
#     4  12  25  44  70 102 139 184 232 287 349 417
#     4  12  25  44  70 102 139 184 232 287 349 417
#
# _framework density 27.264447000000001
#
# number of rings (size 3 to 8) (size 9 to 14) (size 15 to 20)
#    0.000    0.000    0.000   12.000    0.000    4.000 
#    0.000    0.000    0.000    0.000    0.000    0.000 
#    0.000    0.000    0.000    0.000    0.000    0.000 
#
# Total GULP energy -44761.449371 kJ/mol
# GULP energy per Si atom -5595.181171 kJ/mol
# Density = 2.720239 g / cm^3
# Si number density = 27.264447 Si / 1000 Ang^3
#
#
#
# Elastic Constant Matrix: (Units=GPa)
#
#
# Indices 1 2 3 4 5 6 
#
# 1 184.4252 -5.3211 80.8769 0.0000 -0.6988 0.0000
# 2 -5.3211 193.2114 63.7982 0.0000 11.7434 0.0000
# 3 80.8769 63.7982 220.9517 0.0000 44.4241 0.0000
# 4 0.0000 0.0000 0.0000 63.0925 0.0000 3.1675
# 5 -0.6988 11.7434 44.4241 0.0000 98.1275 0.0000
# 6 0.0000 0.0000 0.0000 3.1675 0.0000 46.0400
#
#
#
# Elastic Compliance Matrix: (Units=1/GPa)
#
#
# Indices 1 2 3 4 5 6 
#
# 1 0.006811 0.001125 -0.003081 0.000000 0.001309 0.000000
# 2 0.001125 0.005908 -0.002175 0.000000 0.000286 0.000000
# 3 -0.003081 -0.002175 0.006858 0.000000 -0.002866 0.000000
# 4 0.000000 0.000000 0.000000 0.015905 0.000000 -0.001094
# 5 0.001309 0.000286 -0.002866 0.000000 0.011464 0.000000
# 6 0.000000 0.000000 0.000000 -0.001094 0.000000 0.021796
#
#
# Mechanical properties :
#
#
# Convention : Reuss Voigt Hill
#
# Bulk Modulus (GPa) = 88.38038 97.47737 92.92888
# Shear Modulus (GPa) = 61.90141 72.06760 66.98450
#
# Velocity S-wave (km/s) = 4.77005 5.14686 4.96203
# Velocity P-wave (km/s) = 7.92617 8.43507 8.18458
#
# Compressibility (1/GPa) = 0.01131473
#
# Stress axis : x y z
#
# Youngs Moduli (GPa) = 146.82430 169.27519 145.81389
#
# Poissons Ratio (x) = -0.19050 0.44927
# Poissons Ratio (y) = -0.16524 0.31717
# Poissons Ratio (z) = 0.45238 0.36820
#
# Static dielectric constant tensor:
#      x y z
#    x 2.256540 0.000000 0.025950 
#    y 0.000000 2.041940 0.000000 
#    z 0.025950 0.000000 2.117400 
# 
# From -- ./inp_files/3653.got.cif
#   From: 2010.05.17/outbox.cif.g08.bks.cpg/sg9_2_cif.got.tgz:3653.got - 2010.06.03 20:04:27.
