data_PCOD9141503
_publ_section_title
;
Structure prediction by ZEFSAII (Michael W. Deem and Ramdas Pophale) SiO2 
 PCOD9141503
Probable space group: P 2/M
;
_chemical_formula_sum "Si O2"
_cell_formula_units_Z 22
_cell_length_a 14.282090
_cell_length_b 8.171684
_cell_length_c 10.373015
_cell_angle_alpha 90.000000
_cell_angle_beta 104.381155
_cell_angle_gamma 90.000000
_cell_volume 1172.686433
_symmetry_space_group_name_H-M "P 2/M"
_symmetry_group_IT_number 10
_symmetry_cell_setting 'monoclinic'
loop_
_space_group_symop_operation_xyz
x,y,z
-x,y,-z
-x,-y,-z
x,-y,z
loop_
_atom_site_type_symbol
_atom_site_label
_atom_site_fract_x
_atom_site_fract_y
_atom_site_fract_z
Si Si1 0.383047 0.000000 0.954600
Si Si2 0.736710 0.689199 0.534695
Si Si3 0.944251 0.000000 0.341871
Si Si4 0.415818 0.678401 0.077939
Si Si5 0.033610 0.677703 0.361598
Si Si6 0.570233 0.803253 0.643756
Si Si7 0.278151 0.000000 0.652891
O O1 0.351509 0.833502 0.014438
O O2 0.500000 0.000000 0.000000
O O3 0.349750 0.000000 0.796964
O O4 0.718404 0.500000 0.486829
O O5 0.851244 0.703471 0.598436
O O6 0.673611 0.729892 0.638657
O O7 0.709004 0.834665 0.426177
O O8 0.831294 0.000000 0.332026
O O9 0.000000 0.000000 0.500000
O O10 0.978905 0.166121 0.286547
O O11 0.368301 0.500000 0.066675
O O12 0.459662 0.722463 0.232223
O O13 0.500000 0.668819 0.000000
O O14 0.011612 0.500000 0.295884
O O15 0.000000 0.668807 0.500000
O O16 0.500000 0.765239 0.500000
O O17 0.573774 0.000000 0.659075
#
# Coordination Sequence:
#
# PCOD9141503 Si02
#       7
#     2   4   2   4   4   4   2
#     4  10  24  39  56  78 114 157 205 249 274 336
#     4  11  22  34  55  88 124 155 189 239 299 357
#     4  10  16  30  52  79 120 154 182 237 294 361
#     4  10  22  41  61  78 106 155 201 238 289 347
#     4   9  16  29  49  79 119 153 181 224 293 360
#     4  11  24  38  60  87 119 154 197 253 303 345
#     4  12  22  35  56  88 123 157 201 240 300 350
#
# _framework density 18.760342999999999
#
# number of rings (size 3 to 8) (size 9 to 14) (size 15 to 20)
#    0.000    1.636    5.455    0.545    5.091    2.182 
#    0.000    0.000    0.000    0.000    0.000    2.545 
#    0.000    4.364    0.000    0.000    0.000    0.000 
#
# Total GULP energy -122645.768566 kJ/mol
# GULP energy per Si atom -5574.807662 kJ/mol
# Density = 1.871764 g / cm^3
# Si number density = 18.760343 Si / 1000 Ang^3
#
#
#
# Elastic Constant Matrix: (Units=GPa)
#
#
# Indices 1 2 3 4 5 6 
#
# 1 84.4946 9.5454 31.0169 0.0000 -12.1111 0.0000
# 2 9.5454 190.2996 47.2384 0.0000 -1.9785 0.0000
# 3 31.0169 47.2384 84.9368 0.0000 -12.1591 0.0000
# 4 0.0000 0.0000 0.0000 40.8814 0.0000 -39.5286
# 5 -12.1111 -1.9785 -12.1591 0.0000 14.9312 0.0000
# 6 0.0000 0.0000 0.0000 -39.5286 0.0000 51.0635
#
#
#
# Elastic Compliance Matrix: (Units=1/GPa)
#
#
# Indices 1 2 3 4 5 6 
#
# 1 0.014586 0.000442 -0.004381 0.000000 0.008322 0.000000
# 2 0.000442 0.006175 -0.003880 0.000000 -0.001982 0.000000
# 3 -0.004381 -0.003880 0.016921 0.000000 0.009712 0.000000
# 4 0.000000 0.000000 0.000000 0.097257 0.000000 0.075287
# 5 0.008322 -0.001982 0.009712 0.000000 0.081370 0.000000
# 6 0.000000 0.000000 0.000000 0.075287 0.000000 0.077864
#
#
# Mechanical properties :
#
#
# Convention : Reuss Voigt Hill
#
# Bulk Modulus (GPa) = 45.36019 59.48136 52.42077
# Shear Modulus (GPa) = 15.76492 39.50391 27.63441
#
# Velocity S-wave (km/s) = 2.90199 4.59378 3.84216
# Velocity P-wave (km/s) = 5.95483 7.74028 6.90550
#
# Compressibility (1/GPa) = 0.02204576
#
# Stress axis : x y z
#
# Youngs Moduli (GPa) = 68.55765 161.93985 59.09665
#
# Poissons Ratio (x) = -0.07165 0.25892
# Poissons Ratio (y) = -0.03033 0.22928
# Poissons Ratio (z) = 0.30037 0.62828
#
# Static dielectric constant tensor:
#      x y z
#    x 1.644420 0.000000 -0.033420 
#    y 0.000000 1.767640 0.000000 
#    z -0.033420 0.000000 1.539160 
# 
# From -- ./inp_files/27370.got.cif
#   From: 2010.05.17/outbox.cif.g08.bks.cpg/sg10_14_cif.got.tgz:27370.got - 2010.06.03 11:33:40.
