data_PCOD9141658
_publ_section_title
;
Structure prediction by ZEFSAII (Michael W. Deem and Ramdas Pophale) SiO2 
 PCOD9141658
Probable space group: P 2/M
;
_chemical_formula_sum "Si O2"
_cell_formula_units_Z 32
_cell_length_a 16.946610
_cell_length_b 8.679442
_cell_length_c 15.480245
_cell_angle_alpha 90.000000
_cell_angle_beta 88.603959
_cell_angle_gamma 90.000000
_cell_volume 2276.268779
_symmetry_space_group_name_H-M "P 2/M"
_symmetry_group_IT_number 10
_symmetry_cell_setting 'monoclinic'
loop_
_space_group_symop_operation_xyz
x,y,z
-x,y,-z
-x,-y,-z
x,-y,z
loop_
_atom_site_type_symbol
_atom_site_label
_atom_site_fract_x
_atom_site_fract_y
_atom_site_fract_z
Si Si1 0.105222 0.815657 0.063706
Si Si2 0.049164 0.684156 0.878904
Si Si3 0.341710 0.682019 0.709303
Si Si4 0.424568 0.816706 0.060891
Si Si5 0.204387 0.183110 0.819433
Si Si6 0.470255 0.184716 0.595456
Si Si7 0.491036 0.318068 0.231740
Si Si8 0.739600 0.316574 0.998130
O O1 0.193798 0.752085 0.068023
O O2 0.039023 0.749691 0.130191
O O3 0.104004 0.000000 0.063871
O O4 0.078063 0.753213 0.970208
O O5 0.047455 0.500000 0.883897
O O6 0.117757 0.741334 0.813330
O O7 0.327714 0.500000 0.701972
O O8 0.264383 0.768118 0.742829
O O9 0.383979 0.748448 0.622588
O O10 0.413372 0.703741 0.777152
O O11 0.446453 0.769441 0.157681
O O12 0.346825 0.730764 0.030394
O O13 0.412060 0.000000 0.054709
O O14 0.500000 0.775361 0.000000
O O15 0.196649 0.000000 0.825819
O O16 0.242270 0.246465 0.907751
O O17 0.500000 0.228712 0.500000
O O18 0.523902 0.253116 0.671519
O O19 0.468662 0.000000 0.601996
O O20 0.475235 0.500000 0.228150
O O21 0.748367 0.500000 0.002936
#
# Coordination Sequence:
#
# PCOD9141658 Si02
#       8
#     4   4   4   4   4   4   4   4
#     4  10  17  28  41  56  75  99 136 175 214 253
#     4  10  17  26  40  56  77 102 134 171 214 255
#     4   9  18  29  43  61  84 109 138 172 210 253
#     4  11  22  33  45  60  82 113 149 186 221 255
#     4  11  19  28  41  59  82 109 142 177 215 255
#     4   9  17  30  48  67  86 111 142 176 215 260
#     4   9  19  31  45  62  84 111 143 180 216 255
#     4  11  21  31  43  57  79 108 144 181 218 255
#
# _framework density 14.058094000000001
#
# number of rings (size 3 to 8) (size 9 to 14) (size 15 to 20)
#    0.750    1.250    0.000    8.625    0.000    4.000 
#    0.000    0.000    0.000    0.000    0.000    0.000 
#    0.000    0.000    0.000    1.125    0.000   20.750 
#
# Total GULP energy -178186.950366 kJ/mol
# GULP energy per Si atom -5568.342199 kJ/mol
# Density = 1.402610 g / cm^3
# Si number density = 14.058094 Si / 1000 Ang^3
#
#
#
# Elastic Constant Matrix: (Units=GPa)
#
#
# Indices 1 2 3 4 5 6 
#
# 1 74.0082 41.6055 34.3787 0.0000 -25.2552 0.0000
# 2 41.6055 110.8817 25.2578 0.0000 -16.7939 0.0000
# 3 34.3787 25.2578 69.7903 0.0000 -16.2494 0.0000
# 4 0.0000 0.0000 0.0000 14.5991 0.0000 -3.8318
# 5 -25.2552 -16.7939 -16.2494 0.0000 20.7970 0.0000
# 6 0.0000 0.0000 0.0000 -3.8318 0.0000 23.8857
#
#
#
# Elastic Compliance Matrix: (Units=1/GPa)
#
#
# Indices 1 2 3 4 5 6 
#
# 1 0.027682 -0.005288 -0.005977 0.000000 0.024676 0.000000
# 2 -0.005288 0.011565 -0.001102 0.000000 0.002057 0.000000
# 3 -0.005977 -0.001102 0.019282 0.000000 0.006918 0.000000
# 4 0.000000 0.000000 0.000000 0.071508 0.000000 0.011472
# 5 0.024676 0.002057 0.006918 0.000000 0.085115 0.000000
# 6 0.000000 0.000000 0.000000 0.011472 0.000000 0.043706
#
#
# Mechanical properties :
#
#
# Convention : Reuss Voigt Hill
#
# Bulk Modulus (GPa) = 29.58948 50.79600 40.19274
# Shear Modulus (GPa) = 16.95727 22.08556 19.52142
#
# Velocity S-wave (km/s) = 3.47685 3.96791 3.73047
# Velocity P-wave (km/s) = 6.10014 7.56332 6.87079
#
# Compressibility (1/GPa) = 0.03379580
#
# Stress axis : x y z
#
# Youngs Moduli (GPa) = 36.12476 86.46540 51.86072
#
# Poissons Ratio (x) = 0.45724 0.30997
# Poissons Ratio (y) = 0.19103 0.05714
# Poissons Ratio (z) = 0.21592 0.09527
#
# Static dielectric constant tensor:
#      x y z
#    x 1.486910 0.000000 -0.035160 
#    y 0.000000 1.466200 0.000000 
#    z -0.035160 0.000000 1.459360 
# 
# From -- ./inp_files/77393.got.cif
#   From: 2010.05.17/outbox.cif.g08.bks.cpg/sg10_39_cif.got.tgz:77393.got - 2010.06.03 11:33:40.
