data_PCOD9141025
_publ_section_title
;
Structure prediction by ZEFSAII (Michael W. Deem and Ramdas Pophale) SiO2 
 PCOD9141025
Probable space group: C C
;
_chemical_formula_sum "Si O2"
_cell_formula_units_Z 28
_cell_length_a 5.143739
_cell_length_b 22.996708
_cell_length_c 10.551903
_cell_angle_alpha 90.000000
_cell_angle_beta 109.857149
_cell_angle_gamma 90.000000
_cell_volume 1173.961292
_symmetry_space_group_name_H-M "C C"
_symmetry_group_IT_number 9
_symmetry_cell_setting 'monoclinic'
loop_
_space_group_symop_operation_xyz
x,y,z
x,-y,1/2+z
1/2+x,1/2+y,z
1/2+x,1/2-y,1/2+z
loop_
_atom_site_type_symbol
_atom_site_label
_atom_site_fract_x
_atom_site_fract_y
_atom_site_fract_z
Si Si1 0.165100 0.768235 0.860360
Si Si2 0.499304 0.389160 0.746322
Si Si3 0.562224 0.052418 0.348059
Si Si4 0.809912 0.110277 0.635691
Si Si5 0.020303 0.332162 0.522448
Si Si6 0.904613 0.421320 0.297650
Si Si7 0.717840 0.759908 0.094412
O O1 0.079350 0.743373 0.710022
O O2 0.074496 0.834836 0.849612
O O3 0.038087 0.725740 0.941624
O O4 0.490250 0.763067 0.946078
O O5 0.779132 0.419495 0.749112
O O6 0.309111 0.361541 0.605870
O O7 0.309073 0.433861 0.792237
O O8 0.632478 0.083683 0.491729
O O9 0.512191 0.984322 0.355811
O O10 0.627714 0.103500 0.733599
O O11 0.873252 0.178542 0.622245
O O12 0.099498 0.076446 0.687929
O O13 0.868123 0.379718 0.413335
O O14 0.879427 0.301656 0.619338
#
# Coordination Sequence:
#
# PCOD9141025 Si02
#       7
#     4   4   4   4   4   4   4
#     4  12  25  46  73 115 152 200 251 320 386 462
#     4  12  27  49  77 112 153 205 254 314 386 454
#     4  12  28  51  78 109 152 205 258 317 373 459
#     4  12  27  51  77 113 148 203 255 314 384 459
#     4  12  29  46  77 113 155 199 251 321 388 461
#     4  12  30  50  78 110 155 198 257 317 380 450
#     4  12  26  47  76 112 159 196 254 317 395 455
#
# _framework density 23.850871999999999
#
# number of rings (size 3 to 8) (size 9 to 14) (size 15 to 20)
#    0.000    0.000    4.286    4.286   10.000    0.000 
#    0.000    0.000    0.000    0.000    0.000    0.000 
#    0.000    0.000    0.000    0.000    0.000    0.000 
#
# Total GULP energy -78393.282650 kJ/mol
# GULP energy per Si atom -5599.520189 kJ/mol
# Density = 2.379659 g / cm^3
# Si number density = 23.850872 Si / 1000 Ang^3
#
#
#
# Elastic Constant Matrix: (Units=GPa)
#
#
# Indices 1 2 3 4 5 6 
#
# 1 73.7916 20.8961 9.3121 0.0000 13.9282 0.0000
# 2 20.8961 120.6501 0.8332 0.0000 5.2262 0.0000
# 3 9.3121 0.8332 67.8843 0.0000 15.3725 0.0000
# 4 0.0000 0.0000 0.0000 30.2313 0.0000 5.9359
# 5 13.9282 5.2262 15.3725 0.0000 34.4408 0.0000
# 6 0.0000 0.0000 0.0000 5.9359 0.0000 40.5889
#
#
#
# Elastic Compliance Matrix: (Units=1/GPa)
#
#
# Indices 1 2 3 4 5 6 
#
# 1 0.015377 -0.002420 -0.000839 0.000000 -0.005477 0.000000
# 2 -0.002420 0.008727 0.000337 0.000000 -0.000496 0.000000
# 3 -0.000839 0.000337 0.016438 0.000000 -0.007049 0.000000
# 4 0.000000 0.000000 0.000000 0.034056 0.000000 -0.004981
# 5 -0.005477 -0.000496 -0.007049 0.000000 0.034472 0.000000
# 6 0.000000 0.000000 0.000000 -0.004981 0.000000 0.025366
#
#
# Mechanical properties :
#
#
# Convention : Reuss Voigt Hill
#
# Bulk Modulus (GPa) = 28.82112 36.04541 32.43326
# Shear Modulus (GPa) = 32.92824 36.47118 34.69971
#
# Velocity S-wave (km/s) = 3.71966 3.91466 3.81840
# Velocity P-wave (km/s) = 5.52792 5.96476 5.75049
#
# Compressibility (1/GPa) = 0.03469678
#
# Stress axis : x y z
#
# Youngs Moduli (GPa) = 65.03374 114.59026 60.83408
#
# Poissons Ratio (x) = 0.27732 0.05107
# Poissons Ratio (y) = 0.15739 -0.02051
# Poissons Ratio (z) = 0.05459 -0.03864
#
# Static dielectric constant tensor:
#      x y z
#    x 1.926960 0.000000 -0.021550 
#    y 0.000000 1.864220 0.000000 
#    z -0.021550 0.000000 1.887600 
# 
# From -- ./inp_files/4003.got.cif
#   From: 2010.05.17/outbox.cif.g08.bks.cpg/sg9_3_cif.got.tgz:4003.got - 2010.06.03 20:04:27.
