data_PCOD9141484
_publ_section_title
;
Structure prediction by ZEFSAII (Michael W. Deem and Ramdas Pophale) SiO2 
 PCOD9141484
Probable space group: P 2/M
;
_chemical_formula_sum "Si O2"
_cell_formula_units_Z 24
_cell_length_a 18.343270
_cell_length_b 14.686169
_cell_length_c 10.268422
_cell_angle_alpha 90.000000
_cell_angle_beta 158.260526
_cell_angle_gamma 90.000000
_cell_volume 1024.576724
_symmetry_space_group_name_H-M "P 2/M"
_symmetry_group_IT_number 10
_symmetry_cell_setting 'monoclinic'
loop_
_space_group_symop_operation_xyz
x,y,z
-x,y,-z
-x,-y,-z
x,-y,z
loop_
_atom_site_type_symbol
_atom_site_label
_atom_site_fract_x
_atom_site_fract_y
_atom_site_fract_z
Si Si1 0.365714 0.500000 0.907507
Si Si2 0.191270 0.000000 0.914087
Si Si3 0.784058 0.500000 0.063658
Si Si4 0.760331 0.204588 0.621591
Si Si5 0.243081 0.291020 0.655242
Si Si6 0.196166 0.000000 0.235604
Si Si7 0.758587 0.186728 0.097204
Si Si8 0.223409 0.313752 0.100772
O O1 0.376429 0.500000 0.085172
O O2 0.282307 0.397063 0.749866
O O3 0.500000 0.500000 0.000000
O O4 0.304960 0.910781 0.059179
O O5 0.000000 0.000000 0.500000
O O6 0.151239 0.000000 0.003697
O O7 0.765410 0.415401 0.934924
O O8 0.000000 0.500000 0.500000
O O9 0.691795 0.252329 0.375136
O O10 0.708211 0.098963 0.569373
O O11 0.702325 0.275240 0.639374
O O12 0.000000 0.202132 0.000000
O O13 0.309115 0.220877 0.875968
O O14 0.006765 0.289308 0.268842
O O15 0.000000 0.000000 0.000000
O O16 0.696040 0.257225 0.885479
O O17 0.000000 0.186876 0.500000
#
# Coordination Sequence:
#
# PCOD9141484 Si02
#       8
#     2   2   2   4   4   2   4   4
#     4  12  24  37  55  79 107 139 179 232 281 318
#     4  10  18  24  40  70 110 143 177 218 253 315
#     4  12  18  33  57  77 103 137 178 223 265 324
#     4   9  19  28  46  73 111 142 172 215 265 325
#     4  10  19  33  49  74 104 138 178 216 267 322
#     4  10  18  28  38  66 112 151 169 205 280 322
#     4   9  16  25  44  69 102 135 176 210 249 303
#     4  10  16  29  50  77  99 139 176 213 257 316
#
# _framework density 23.424306999999999
#
# number of rings (size 3 to 8) (size 9 to 14) (size 15 to 20)
#    0.000    2.000    5.000    0.500    7.000    0.667 
#    0.000    2.500    0.000    2.000    0.000    2.333 
#    0.000    2.667    0.000    0.000    0.000    0.000 
#
# Total GULP energy -133777.773363 kJ/mol
# GULP energy per Si atom -5574.073890 kJ/mol
# Density = 2.337099 g / cm^3
# Si number density = 23.424307 Si / 1000 Ang^3
#
#
#
# Elastic Constant Matrix: (Units=GPa)
#
#
# Indices 1 2 3 4 5 6 
#
# 1 235.1411 105.9820 43.1524 0.0000 -49.0450 0.0000
# 2 105.9820 243.6754 49.1140 0.0000 -60.5503 0.0000
# 3 43.1524 49.1140 58.5514 0.0000 -16.7496 0.0000
# 4 0.0000 0.0000 0.0000 5.3200 0.0000 -21.1970
# 5 -49.0450 -60.5503 -16.7496 0.0000 53.7332 0.0000
# 6 0.0000 0.0000 0.0000 -21.1970 0.0000 41.3242
#
#
#
# Elastic Compliance Matrix: (Units=1/GPa)
#
#
# Indices 1 2 3 4 5 6 
#
# 1 0.005948 -0.001312 -0.002364 0.000000 0.003214 0.000000
# 2 -0.001312 0.006607 -0.003061 0.000000 0.005293 0.000000
# 3 -0.002364 -0.003061 0.021722 0.000000 0.001164 0.000000
# 4 0.000000 0.000000 0.000000 -0.180085 0.000000 -0.092374
# 5 0.003214 0.005293 0.001164 0.000000 0.027872 0.000000
# 6 0.000000 0.000000 0.000000 -0.092374 0.000000 -0.023184
#
#
# Mechanical properties :
#
#
# Convention : Reuss Voigt Hill
#
# Bulk Modulus (GPa) = 48.06899 103.76276 75.91587
# Shear Modulus (GPa) = -41.42067 42.68343 0.63138
#
# Velocity S-wave (km/s) = -4.20965 4.27334 0.51974
# Velocity P-wave (km/s) = 1.75005 8.29107 5.73058
#
# Compressibility (1/GPa) = 0.02080343
#
# Stress axis : x y z
#
# Youngs Moduli (GPa) = 168.11552 151.36307 46.03704
#
# Poissons Ratio (x) = 0.19859 0.10883
# Poissons Ratio (y) = 0.22057 0.14090
# Poissons Ratio (z) = 0.39742 0.46326
#
# Static dielectric constant tensor:
#      x y z
#    x 1.736500 0.000000 0.190150 
#    y 0.000000 1.694000 0.000000 
#    z 0.190150 0.000000 1.801240 
# 
# From -- ./inp_files/29751.got.cif
#   From: 2010.05.17/outbox.cif.g08.bks.cpg/sg10_15_cif.got.tgz:29751.got - 2010.06.03 11:33:40.
