data_PCOD9141865
_publ_section_title
;
Structure prediction by ZEFSAII (Michael W. Deem and Ramdas Pophale) SiO2 
 PCOD9141865
Probable space group: P 2/M
;
_chemical_formula_sum "Si O2"
_cell_formula_units_Z 16
_cell_length_a 13.364842
_cell_length_b 11.015816
_cell_length_c 9.822992
_cell_angle_alpha 90.000000
_cell_angle_beta 146.447646
_cell_angle_gamma 90.000000
_cell_volume 799.305404
_symmetry_space_group_name_H-M "P 2/M"
_symmetry_group_IT_number 10
_symmetry_cell_setting 'monoclinic'
loop_
_space_group_symop_operation_xyz
x,y,z
-x,y,-z
-x,-y,-z
x,-y,z
loop_
_atom_site_type_symbol
_atom_site_label
_atom_site_fract_x
_atom_site_fract_y
_atom_site_fract_z
Si Si1 0.114887 0.642548 0.764679
Si Si2 0.501534 0.247573 0.841535
Si Si3 0.817615 0.365149 0.658795
Si Si4 0.669751 0.867868 0.592275
O O1 0.162749 0.500000 0.804161
O O2 0.000000 0.676975 0.500000
O O3 0.986262 0.653708 0.749755
O O4 0.297596 0.719143 0.978429
O O5 0.361538 0.354154 0.639883
O O6 0.416916 0.139005 0.657361
O O7 0.500000 0.228400 0.000000
O O8 0.822306 0.500000 0.725137
O O9 0.791896 0.252968 0.732800
O O10 0.500000 0.853242 0.500000
O O11 0.754294 0.000000 0.712370
#
# Coordination Sequence:
#
# PCOD9141865 Si02
#       4
#     4   4   4   4
#     4  10  17  28  49  81 115 142 172 213 264 322
#     4  10  19  32  55  81 110 139 176 217 267 311
#     4   9  19  32  53  81 107 137 176 218 263 312
#     4   9  20  39  58  75 104 145 182 219 269 322
#
# _framework density 20.017379999999999
#
# number of rings (size 3 to 8) (size 9 to 14) (size 15 to 20)
#    1.500    1.000    2.500    0.750    0.000    2.000 
#    0.000    2.500    0.000    9.000    0.000    0.000 
#    0.000    0.000    0.000    0.000    0.000    0.000 
#
# Total GULP energy -89097.837840 kJ/mol
# GULP energy per Si atom -5568.614865 kJ/mol
# Density = 1.997182 g / cm^3
# Si number density = 20.017380 Si / 1000 Ang^3
#
#
#
# Elastic Constant Matrix: (Units=GPa)
#
#
# Indices 1 2 3 4 5 6 
#
# 1 52.2273 60.1477 11.8549 0.0000 15.2471 0.0000
# 2 60.1477 128.0759 8.5556 0.0000 10.2971 0.0000
# 3 11.8549 8.5556 71.2458 0.0000 6.6090 0.0000
# 4 0.0000 0.0000 0.0000 -47.5037 0.0000 -29.6496
# 5 15.2471 10.2971 6.6090 0.0000 36.6212 0.0000
# 6 0.0000 0.0000 0.0000 -29.6496 0.0000 -5.3774
#
#
#
# Elastic Compliance Matrix: (Units=1/GPa)
#
#
# Indices 1 2 3 4 5 6 
#
# 1 0.048982 -0.021628 -0.004297 0.000000 -0.013537 0.000000
# 2 -0.021628 0.017579 0.001130 0.000000 0.003858 0.000000
# 3 -0.004297 0.001130 0.014725 0.000000 -0.001186 0.000000
# 4 0.000000 0.000000 0.000000 0.008622 0.000000 -0.047542
# 5 -0.013537 0.003858 -0.001186 0.000000 0.032072 0.000000
# 6 0.000000 0.000000 0.000000 -0.047542 0.000000 0.076170
#
#
# Mechanical properties :
#
#
# Convention : Reuss Voigt Hill
#
# Bulk Modulus (GPa) = 31.54989 45.85170 38.70080
# Shear Modulus (GPa) = 19.35681 8.14743 13.75212
#
# Velocity S-wave (km/s) = 3.11304 2.01966 2.62393
# Velocity P-wave (km/s) = 5.35880 5.32864 5.34374
#
# Compressibility (1/GPa) = 0.03169583
#
# Stress axis : x y z
#
# Youngs Moduli (GPa) = 20.41560 56.88536 67.91028
#
# Poissons Ratio (x) = 1.23031 0.29184
# Poissons Ratio (y) = 0.44155 -0.07673
# Poissons Ratio (z) = 0.08773 -0.06427
#
# Static dielectric constant tensor:
#      x y z
#    x 1.680900 0.000000 -0.020550 
#    y 0.000000 1.714460 0.000000 
#    z -0.020550 0.000000 1.709510 
# 
# From -- ./inp_files/21634.got.cif
#   From: 2010.05.17/outbox.cif.g08.bks.cpg/sg10_11_cif.got.tgz:21634.got - 2010.06.03 11:33:40.
