data_PCOD9141136
_publ_section_title
;
Structure prediction by ZEFSAII (Michael W. Deem and Ramdas Pophale) SiO2 
 PCOD9141136
Probable space group: C C
;
_chemical_formula_sum "Si O2"
_cell_formula_units_Z 20
_cell_length_a 7.505854
_cell_length_b 9.100250
_cell_length_c 11.346246
_cell_angle_alpha 90.000000
_cell_angle_beta 83.866247
_cell_angle_gamma 90.000000
_cell_volume 770.570228
_symmetry_space_group_name_H-M "C C"
_symmetry_group_IT_number 9
_symmetry_cell_setting 'monoclinic'
loop_
_space_group_symop_operation_xyz
x,y,z
x,-y,1/2+z
1/2+x,1/2+y,z
1/2+x,1/2-y,1/2+z
loop_
_atom_site_type_symbol
_atom_site_label
_atom_site_fract_x
_atom_site_fract_y
_atom_site_fract_z
Si Si1 0.578780 0.546975 0.950650
Si Si2 0.455198 0.935852 0.538563
Si Si3 0.541342 0.757527 0.761669
Si Si4 0.937065 0.245609 0.164427
Si Si5 0.171386 0.748536 0.874820
O O1 0.546104 0.593073 0.816502
O O2 0.566037 0.373247 0.953420
O O3 0.779783 0.593550 0.973173
O O4 0.466197 0.626755 0.059741
O O5 0.476745 0.819284 0.642354
O O6 0.625359 0.905555 0.440868
O O7 0.433078 0.094016 0.602542
O O8 0.751528 0.793707 0.743572
O O9 0.375619 0.807167 0.856215
O O10 0.094096 0.254671 0.249017
#
# Coordination Sequence:
#
# PCOD9141136 Si02
#       5
#     4   4   4   4   4
#     4  12  27  51  81 117 164 208 268 331 394 479
#     4  12  27  51  81 117 164 208 268 331 394 479
#     4  12  26  52  84 110 162 210 266 326 398 468
#     4  12  29  53  80 118 161 213 268 330 400 475
#     4  12  29  53  80 118 161 213 268 330 400 475
#
# _framework density 25.954808
#
# number of rings (size 3 to 8) (size 9 to 14) (size 15 to 20)
#    0.000    0.000    4.000    4.800    5.600    4.800 
#    7.200    0.000    0.000    0.000    0.000    0.000 
#    0.000    0.000    0.000    0.000    0.000    0.000 
#
# Total GULP energy -55835.516554 kJ/mol
# GULP energy per Si atom -5583.551655 kJ/mol
# Density = 2.589573 g / cm^3
# Si number density = 25.954808 Si / 1000 Ang^3
#
#
#
# Elastic Constant Matrix: (Units=GPa)
#
#
# Indices 1 2 3 4 5 6 
#
# 1 116.9336 27.1509 41.9620 0.0000 -19.4529 0.0000
# 2 27.1509 93.1979 51.6447 0.0000 0.4467 0.0000
# 3 41.9620 51.6447 113.4227 0.0000 1.7943 0.0000
# 4 0.0000 0.0000 0.0000 42.5367 0.0000 6.0285
# 5 -19.4529 0.4467 1.7943 0.0000 54.0959 0.0000
# 6 0.0000 0.0000 0.0000 6.0285 0.0000 22.6905
#
#
#
# Elastic Compliance Matrix: (Units=1/GPa)
#
#
# Indices 1 2 3 4 5 6 
#
# 1 0.010750 -0.001220 -0.003485 0.000000 0.003991 0.000000
# 2 -0.001220 0.014490 -0.006141 0.000000 -0.000355 0.000000
# 3 -0.003485 -0.006141 0.012928 0.000000 -0.001631 0.000000
# 4 0.000000 0.000000 0.000000 0.024429 0.000000 -0.006490
# 5 0.003991 -0.000355 -0.001631 0.000000 0.019978 0.000000
# 6 0.000000 0.000000 0.000000 -0.006490 0.000000 0.045796
#
#
# Mechanical properties :
#
#
# Convention : Reuss Voigt Hill
#
# Bulk Modulus (GPa) = 60.69212 62.78548 61.73880
# Shear Modulus (GPa) = 32.14359 37.38438 34.76399
#
# Velocity S-wave (km/s) = 3.52297 3.79933 3.66376
# Velocity P-wave (km/s) = 6.32321 6.59465 6.46035
#
# Compressibility (1/GPa) = 0.01647660
#
# Stress axis : x y z
#
# Youngs Moduli (GPa) = 93.02740 69.01442 77.35377
#
# Poissons Ratio (x) = 0.08418 0.26955
# Poissons Ratio (y) = 0.11347 0.47501
# Poissons Ratio (z) = 0.32417 0.42380
#
# Static dielectric constant tensor:
#      x y z
#    x 2.106730 0.000000 0.000350 
#    y 0.000000 2.016170 0.000000 
#    z 0.000350 0.000000 2.023800 
# 
# From -- ./inp_files/13974.got.cif
#   From: 2010.05.17/outbox.cif.g08.bks.cpg/sg9_7_cif.got.tgz:13974.got - 2010.06.03 20:04:27.
