data_PCOD9141741
_publ_section_title
;
Structure prediction by ZEFSAII (Michael W. Deem and Ramdas Pophale) SiO2 
 PCOD9141741
Probable space group: P 2/M
;
_chemical_formula_sum "Si O2"
_cell_formula_units_Z 32
_cell_length_a 22.581917
_cell_length_b 8.684478
_cell_length_c 33.695469
_cell_angle_alpha 90.000000
_cell_angle_beta 161.954150
_cell_angle_gamma 90.000000
_cell_volume 2047.041045
_symmetry_space_group_name_H-M "P 2/M"
_symmetry_group_IT_number 10
_symmetry_cell_setting 'monoclinic'
loop_
_space_group_symop_operation_xyz
x,y,z
-x,y,-z
-x,-y,-z
x,-y,z
loop_
_atom_site_type_symbol
_atom_site_label
_atom_site_fract_x
_atom_site_fract_y
_atom_site_fract_z
Si Si1 0.011231 0.316681 0.749623
Si Si2 0.541546 0.316367 0.190742
Si Si3 0.371432 0.815795 0.472534
Si Si4 0.277404 0.183238 0.851323
Si Si5 0.852589 0.177537 0.443239
Si Si6 0.829984 0.683416 0.301928
Si Si7 0.130191 0.816448 0.911014
Si Si8 0.251855 0.684207 0.309737
O O1 0.995959 0.500000 0.743971
O O2 0.148270 0.270111 0.801125
O O3 0.096652 0.248818 0.845113
O O4 0.799638 0.245084 0.609046
O O5 0.515158 0.500000 0.175264
O O6 0.664661 0.260391 0.306843
O O7 0.669252 0.280765 0.232929
O O8 0.339215 0.233152 0.058290
O O9 0.308987 0.750741 0.389526
O O10 0.583886 0.749614 0.614464
O O11 0.375398 0.000000 0.474022
O O12 0.218938 0.232280 0.769919
O O13 0.253496 0.000000 0.841347
O O14 0.500000 0.221061 0.000000
O O15 0.000000 0.179094 0.500000
O O16 0.967267 0.262303 0.551091
O O17 0.814198 0.000000 0.428964
O O18 0.830528 0.500000 0.296393
O O19 0.963418 0.744374 0.832230
O O20 0.109606 0.000000 0.896847
O O21 0.258403 0.500000 0.314739
#
# Coordination Sequence:
#
# PCOD9141741 Si02
#       8
#     4   4   4   4   4   4   4   4
#     4  11  21  33  47  64  88 120 157 193 229 269
#     4  10  19  31  47  68  93 120 151 187 229 275
#     4  10  17  28  44  62  85 114 149 186 224 266
#     4  11  23  36  49  66  90 121 157 195 232 269
#     4   9  17  30  48  68  89 115 148 186 228 273
#     4  10  20  33  49  67  89 119 154 192 231 271
#     4  11  20  30  44  65  93 123 154 187 227 273
#     4  10  17  27  42  62  87 116 149 183 223 268
#
# _framework density 15.632320999999999
#
# number of rings (size 3 to 8) (size 9 to 14) (size 15 to 20)
#    0.000    1.750    0.000    9.000    0.000    6.000 
#    0.000    0.000    0.000    0.000    0.000    0.000 
#    0.000    1.000    0.000   10.000    0.000    6.000 
#
# Total GULP energy -178544.997767 kJ/mol
# GULP energy per Si atom -5579.531180 kJ/mol
# Density = 1.559674 g / cm^3
# Si number density = 15.632321 Si / 1000 Ang^3
#
#
#
# Elastic Constant Matrix: (Units=GPa)
#
#
# Indices 1 2 3 4 5 6 
#
# 1 45.1077 34.2994 45.8637 0.0000 13.3438 0.0000
# 2 34.2994 132.2276 56.3202 0.0000 18.2078 0.0000
# 3 45.8637 56.3202 114.9826 0.0000 13.6691 0.0000
# 4 0.0000 0.0000 0.0000 27.7128 0.0000 2.8189
# 5 13.3438 18.2078 13.6691 0.0000 25.5507 0.0000
# 6 0.0000 0.0000 0.0000 2.8189 0.0000 22.1070
#
#
#
# Elastic Compliance Matrix: (Units=1/GPa)
#
#
# Indices 1 2 3 4 5 6 
#
# 1 0.042447 -0.003443 -0.013777 0.000000 -0.012344 0.000000
# 2 -0.003443 0.010370 -0.003248 0.000000 -0.003854 0.000000
# 3 -0.013777 -0.003248 0.015648 0.000000 0.001138 0.000000
# 4 0.000000 0.000000 0.000000 0.036559 0.000000 -0.004662
# 5 -0.012344 -0.003854 0.001138 0.000000 0.047722 0.000000
# 6 0.000000 0.000000 0.000000 -0.004662 0.000000 0.045829
#
#
# Mechanical properties :
#
#
# Convention : Reuss Voigt Hill
#
# Bulk Modulus (GPa) = 36.32552 62.80940 49.56746
# Shear Modulus (GPa) = 20.10570 25.46307 22.78438
#
# Velocity S-wave (km/s) = 3.59020 4.04031 3.82189
# Velocity P-wave (km/s) = 6.36191 7.87603 7.15911
#
# Compressibility (1/GPa) = 0.02752886
#
# Stress axis : x y z
#
# Youngs Moduli (GPa) = 23.55903 96.43327 63.90622
#
# Poissons Ratio (x) = 0.33198 0.88045
# Poissons Ratio (y) = 0.08110 0.20757
# Poissons Ratio (z) = 0.32458 0.31321
#
# Static dielectric constant tensor:
#      x y z
#    x 1.517320 0.000000 0.030820 
#    y 0.000000 1.522740 0.000000 
#    z 0.030820 0.000000 1.537890 
# 
# From -- ./inp_files/95677.got.cif
#   From: 2010.05.17/outbox.cif.g08.bks.cpg/sg10_48_cif.got.tgz:95677.got - 2010.06.03 11:33:40.
