data_PCOD9141063
_publ_section_title
;
Structure prediction by ZEFSAII (Michael W. Deem and Ramdas Pophale) SiO2 
 PCOD9141063
Probable space group: C C
;
_chemical_formula_sum "Si O2"
_cell_formula_units_Z 24
_cell_length_a 11.579044
_cell_length_b 8.379421
_cell_length_c 10.482941
_cell_angle_alpha 90.000000
_cell_angle_beta 67.640242
_cell_angle_gamma 90.000000
_cell_volume 940.641196
_symmetry_space_group_name_H-M "C C"
_symmetry_group_IT_number 9
_symmetry_cell_setting 'monoclinic'
loop_
_space_group_symop_operation_xyz
x,y,z
x,-y,1/2+z
1/2+x,1/2+y,z
1/2+x,1/2-y,1/2+z
loop_
_atom_site_type_symbol
_atom_site_label
_atom_site_fract_x
_atom_site_fract_y
_atom_site_fract_z
Si Si1 0.095450 0.650851 0.175070
Si Si2 0.519827 0.905353 0.413411
Si Si3 0.448169 0.412417 0.571739
Si Si4 0.864937 0.122602 0.833582
Si Si5 0.319849 0.101820 0.609327
Si Si6 0.658382 0.611238 0.366313
O O1 0.095331 0.513163 0.281368
O O2 0.213994 0.766925 0.124400
O O3 0.985979 0.767034 0.267773
O O4 0.058881 0.591830 0.048139
O O5 0.543819 0.722073 0.362268
O O6 0.379869 0.980659 0.480065
O O7 0.878923 0.005429 0.217424
O O8 0.376304 0.450012 0.469217
O O9 0.435306 0.221446 0.594389
O O10 0.585583 0.491642 0.494161
O O11 0.752287 0.244324 0.860780
O O12 0.246715 0.994812 0.741033
#
# Coordination Sequence:
#
# PCOD9141063 Si02
#       6
#     4   4   4   4   4   4
#     4  12  26  51  80 116 164 210 269 334 405 484
#     4  12  27  49  81 118 158 215 267 335 407 474
#     4  12  27  49  81 118 158 215 267 335 407 474
#     4  12  26  51  80 116 164 210 269 334 405 484
#     4  12  25  49  80 116 162 209 271 335 399 483
#     4  12  25  49  80 116 162 209 271 335 399 483
#
# _framework density 25.514510999999999
#
# number of rings (size 3 to 8) (size 9 to 14) (size 15 to 20)
#    0.000    0.000    6.667    2.000    0.000    1.333 
#    0.000    6.667    0.000    0.000    0.000    0.000 
#    0.000    0.000    0.000    0.000    0.000    0.000 
#
# Total GULP energy -66985.444835 kJ/mol
# GULP energy per Si atom -5582.120403 kJ/mol
# Density = 2.545644 g / cm^3
# Si number density = 25.514511 Si / 1000 Ang^3
#
#
#
# Elastic Constant Matrix: (Units=GPa)
#
#
# Indices 1 2 3 4 5 6 
#
# 1 65.7455 12.3462 23.8352 0.0000 3.8764 0.0000
# 2 12.3462 127.2407 42.5228 0.0000 -0.3216 0.0000
# 3 23.8352 42.5228 145.3215 0.0000 7.3431 0.0000
# 4 0.0000 0.0000 0.0000 68.6076 0.0000 -20.3981
# 5 3.8764 -0.3216 7.3431 0.0000 70.3727 0.0000
# 6 0.0000 0.0000 0.0000 -20.3981 0.0000 48.4214
#
#
#
# Elastic Compliance Matrix: (Units=1/GPa)
#
#
# Indices 1 2 3 4 5 6 
#
# 1 0.016267 -0.000775 -0.002409 0.000000 -0.000648 0.000000
# 2 -0.000775 0.008755 -0.002452 0.000000 0.000339 0.000000
# 3 -0.002409 -0.002452 0.008030 0.000000 -0.000716 0.000000
# 4 0.000000 0.000000 0.000000 0.016663 0.000000 0.007019
# 5 -0.000648 0.000339 -0.000716 0.000000 0.014322 0.000000
# 6 0.000000 0.000000 0.000000 0.007019 0.000000 0.023609
#
#
# Mechanical properties :
#
#
# Convention : Reuss Voigt Hill
#
# Bulk Modulus (GPa) = 45.91169 55.07959 50.49564
# Shear Modulus (GPa) = 47.09157 54.78723 50.93940
#
# Velocity S-wave (km/s) = 4.30080 4.63892 4.47305
# Velocity P-wave (km/s) = 6.53421 7.09417 6.81994
#
# Compressibility (1/GPa) = 0.02178095
#
# Stress axis : x y z
#
# Youngs Moduli (GPa) = 61.47369 114.22688 124.53436
#
# Poissons Ratio (x) = 0.08854 0.29994
# Poissons Ratio (y) = 0.04765 0.30531
# Poissons Ratio (z) = 0.14806 0.28004
#
# Static dielectric constant tensor:
#      x y z
#    x 2.305750 0.000000 -0.023960 
#    y 0.000000 2.015690 0.000000 
#    z -0.023960 0.000000 2.069980 
# 
# From -- ./inp_files/25640.got.cif
#   From: 2010.05.17/outbox.cif.g08.bks.cpg/sg9_13_cif.got.tgz:25640.got - 2010.06.03 20:04:27.
