data_PCOD9141635
_publ_section_title
;
Structure prediction by ZEFSAII (Michael W. Deem and Ramdas Pophale) SiO2 
 PCOD9141635
Probable space group: P 2/M
;
_chemical_formula_sum "Si O2"
_cell_formula_units_Z 32
_cell_length_a 18.326807
_cell_length_b 7.565242
_cell_length_c 24.590633
_cell_angle_alpha 90.000000
_cell_angle_beta 149.256978
_cell_angle_gamma 90.000000
_cell_volume 1742.851334
_symmetry_space_group_name_H-M "P 2/M"
_symmetry_group_IT_number 10
_symmetry_cell_setting 'monoclinic'
loop_
_space_group_symop_operation_xyz
x,y,z
-x,y,-z
-x,-y,-z
x,-y,z
loop_
_atom_site_type_symbol
_atom_site_label
_atom_site_fract_x
_atom_site_fract_y
_atom_site_fract_z
Si Si1 0.120617 0.791695 0.455240
Si Si2 0.602893 0.292268 0.785321
Si Si3 0.071490 0.213852 0.989051
Si Si4 0.232501 0.216411 0.411023
Si Si5 0.884985 0.713512 0.381137
Si Si6 0.652191 0.296839 0.307895
Si Si7 0.160942 0.783445 0.246111
Si Si8 0.446197 0.795543 0.370238
O O1 0.154550 0.727587 0.416415
O O2 0.228766 0.704996 0.567835
O O3 0.958619 0.765027 0.371899
O O4 0.152429 0.000000 0.477830
O O5 0.570998 0.500000 0.757870
O O6 0.489300 0.217390 0.755918
O O7 0.582482 0.210503 0.712620
O O8 0.765004 0.271395 0.908025
O O9 0.972212 0.273768 0.875806
O O10 0.071313 0.000000 0.989489
O O11 0.000000 0.272532 0.000000
O O12 0.159885 0.270089 0.308212
O O13 0.397102 0.279016 0.517720
O O14 0.234318 0.000000 0.412924
O O15 0.880998 0.500000 0.380131
O O16 0.733184 0.779056 0.306817
O O17 0.000000 0.774305 0.500000
O O18 0.617494 0.500000 0.272080
O O19 0.308955 0.720874 0.313348
O O20 0.161497 0.000000 0.244596
O O21 0.454039 0.000000 0.392678
#
# Coordination Sequence:
#
# PCOD9141635 Si02
#       8
#     4   4   4   4   4   4   4   4
#     4  10  17  25  42  69  96 117 145 185 227 267
#     4  11  21  31  47  69  94 122 153 191 237 272
#     4  10  19  33  51  69  88 117 159 198 230 271
#     4   9  17  27  44  71  96 121 152 189 227 268
#     4   8  15  28  43  59  86 123 155 177 213 274
#     4   9  18  31  44  61  89 125 156 180 218 276
#     4   9  17  30  48  67  90 121 158 193 226 269
#     4  10  17  30  49  68  91 121 159 190 220 269
#
# _framework density 18.360717999999999
#
# number of rings (size 3 to 8) (size 9 to 14) (size 15 to 20)
#    0.000    2.500    2.500    1.875    0.000    4.500 
#    0.000    0.000    0.000    5.250    0.000    0.875 
#    0.000    7.000    0.000    0.000    0.000    0.000 
#
# Total GULP energy -178401.569050 kJ/mol
# GULP energy per Si atom -5575.049033 kJ/mol
# Density = 1.831893 g / cm^3
# Si number density = 18.360718 Si / 1000 Ang^3
#
#
#
# Elastic Constant Matrix: (Units=GPa)
#
#
# Indices 1 2 3 4 5 6 
#
# 1 112.8360 -9.2565 64.2427 0.0000 23.4308 0.0000
# 2 -9.2565 42.1359 -9.1361 0.0000 0.6592 0.0000
# 3 64.2427 -9.1361 90.1212 0.0000 -3.3397 0.0000
# 4 0.0000 0.0000 0.0000 60.9825 0.0000 34.6605
# 5 23.4308 0.6592 -3.3397 0.0000 25.5349 0.0000
# 6 0.0000 0.0000 0.0000 34.6605 0.0000 51.5690
#
#
#
# Elastic Compliance Matrix: (Units=1/GPa)
#
#
# Indices 1 2 3 4 5 6 
#
# 1 0.024634 0.001835 -0.018303 0.000000 -0.025045 0.000000
# 2 0.001835 0.024405 0.001085 0.000000 -0.002172 0.000000
# 3 -0.018303 0.001085 0.024996 0.000000 0.020035 0.000000
# 4 0.000000 0.000000 0.000000 0.026535 0.000000 -0.017834
# 5 -0.025045 -0.002172 0.020035 0.000000 0.064820 0.000000
# 6 0.000000 0.000000 0.000000 -0.017834 0.000000 0.031378
#
#
# Mechanical properties :
#
#
# Convention : Reuss Voigt Hill
#
# Bulk Modulus (GPa) = 23.11016 37.42148 30.26582
# Shear Modulus (GPa) = 20.66493 40.90016 30.78254
#
# Velocity S-wave (km/s) = 3.35848 4.72486 4.09900
# Velocity P-wave (km/s) = 5.25864 7.08457 6.23877
#
# Compressibility (1/GPa) = 0.04327102
#
# Stress axis : x y z
#
# Youngs Moduli (GPa) = 40.59395 40.97490 40.00709
#
# Poissons Ratio (x) = -0.07519 0.73223
# Poissons Ratio (y) = -0.07449 -0.04343
# Poissons Ratio (z) = 0.74297 -0.04448
#
# Static dielectric constant tensor:
#      x y z
#    x 1.672980 0.000000 0.025510 
#    y 0.000000 1.709360 0.000000 
#    z 0.025510 0.000000 1.592060 
# 
# From -- ./inp_files/56412.got.cif
#   From: 2010.05.17/outbox.cif.g08.bks.cpg/sg10_29_cif.got.tgz:56412.got - 2010.06.03 11:33:40.
