data_PCOD9141386
_publ_section_title
;
Structure prediction by ZEFSAII (Michael W. Deem and Ramdas Pophale) SiO2 
 PCOD9141386
Probable space group: P 2/M
;
_chemical_formula_sum "Si O2"
_cell_formula_units_Z 18
_cell_length_a 13.470113
_cell_length_b 8.406960
_cell_length_c 17.639899
_cell_angle_alpha 90.000000
_cell_angle_beta 159.684425
_cell_angle_gamma 90.000000
_cell_volume 693.544385
_symmetry_space_group_name_H-M "P 2/M"
_symmetry_group_IT_number 10
_symmetry_cell_setting 'monoclinic'
loop_
_space_group_symop_operation_xyz
x,y,z
-x,y,-z
-x,-y,-z
x,-y,z
loop_
_atom_site_type_symbol
_atom_site_label
_atom_site_fract_x
_atom_site_fract_y
_atom_site_fract_z
Si Si1 0.401886 0.821439 0.516822
Si Si2 0.759350 0.500000 0.261355
Si Si3 0.230038 0.170428 0.072490
Si Si4 0.789514 0.500000 0.546588
Si Si5 0.659028 0.170672 0.243748
Si Si6 0.848403 0.500000 0.971786
O O1 0.500000 0.810379 0.500000
O O2 0.667124 0.819284 0.766927
O O3 0.231186 0.664803 0.421669
O O4 0.273117 0.000000 0.437019
O O5 0.590564 0.335318 0.152628
O O6 0.000000 0.500000 0.500000
O O7 0.939018 0.500000 0.313254
O O8 0.507423 0.171785 0.216906
O O9 0.073578 0.331553 0.937565
O O10 0.086592 0.000000 0.958194
O O11 0.495147 0.500000 0.285579
O O12 0.000000 0.168753 0.500000
O O13 0.577682 0.000000 0.149499
O O14 0.000000 0.500000 0.000000
#
# Coordination Sequence:
#
# PCOD9141386 Si02
#       6
#     4   2   4   2   4   2
#     4   9  16  26  40  55  73 102 134 159 188 226
#     4  10  16  23  37  54  75 103 128 146 178 230
#     4   9  17  28  40  57  81 104 129 160 189 223
#     4  10  19  28  38  56  82 106 131 162 188 220
#     4   9  15  23  37  55  75 101 126 146 179 229
#     4  10  18  27  39  52  71 105 142 168 190 216
#
# _framework density 25.953638000000002
#
# number of rings (size 3 to 8) (size 9 to 14) (size 15 to 20)
#    0.000    2.667    0.000    6.333    0.000    3.111 
#    0.000    0.000    0.000    0.000    0.000    0.000 
#    0.000    0.000    0.000  400.000    0.000 1862.222 
#
# Total GULP energy -100615.670579 kJ/mol
# GULP energy per Si atom -5589.759477 kJ/mol
# Density = 2.589457 g / cm^3
# Si number density = 25.953638 Si / 1000 Ang^3
#
#
#
# Elastic Constant Matrix: (Units=GPa)
#
#
# Indices 1 2 3 4 5 6 
#
# 1 126.8342 91.9464 39.9047 0.0000 5.7586 0.0000
# 2 91.9464 368.5349 15.7920 0.0000 13.9506 0.0000
# 3 39.9047 15.7920 72.3332 0.0000 -21.8456 0.0000
# 4 0.0000 0.0000 0.0000 -17.7162 0.0000 18.1768
# 5 5.7586 13.9506 -21.8456 0.0000 44.9939 0.0000
# 6 0.0000 0.0000 0.0000 18.1768 0.0000 41.7335
#
#
#
# Elastic Compliance Matrix: (Units=1/GPa)
#
#
# Indices 1 2 3 4 5 6 
#
# 1 0.012354 -0.002587 -0.007600 0.000000 -0.004469 0.000000
# 2 -0.002587 0.003351 0.000565 0.000000 -0.000434 0.000000
# 3 -0.007600 0.000565 0.021252 0.000000 0.011116 0.000000
# 4 0.000000 0.000000 0.000000 -0.039012 0.000000 0.016992
# 5 -0.004469 -0.000434 0.011116 0.000000 0.028329 0.000000
# 6 0.000000 0.000000 0.000000 0.016992 0.000000 0.016561
#
#
# Mechanical properties :
#
#
# Convention : Reuss Voigt Hill
#
# Bulk Modulus (GPa) = 56.46180 95.88760 76.17470
# Shear Modulus (GPa) = 73.54669 41.80618 57.67644
#
# Velocity S-wave (km/s) = 5.32909 4.01783 4.71923
# Velocity P-wave (km/s) = 7.72449 7.65179 7.68823
#
# Compressibility (1/GPa) = 0.01771109
#
# Stress axis : x y z
#
# Youngs Moduli (GPa) = 80.94458 298.40072 47.05523
#
# Poissons Ratio (x) = 0.77208 0.35763
# Poissons Ratio (y) = 0.20944 -0.02658
# Poissons Ratio (z) = 0.61520 -0.16853
#
# Static dielectric constant tensor:
#      x y z
#    x 1.938970 0.000000 -0.023210 
#    y 0.000000 2.128200 0.000000 
#    z -0.023210 0.000000 1.963410 
# 
# From -- ./inp_files/40833.got.cif
#   From: 2010.05.17/outbox.cif.g08.bks.cpg/sg10_21_cif.got.tgz:40833.got - 2010.06.03 11:33:40.
