data_PCOD9141034
_publ_section_title
;
Structure prediction by ZEFSAII (Michael W. Deem and Ramdas Pophale) SiO2 
 PCOD9141034
Probable space group: C C
;
_chemical_formula_sum "Si O2"
_cell_formula_units_Z 32
_cell_length_a 14.659818
_cell_length_b 10.902445
_cell_length_c 9.526797
_cell_angle_alpha 90.000000
_cell_angle_beta 63.110966
_cell_angle_gamma 90.000000
_cell_volume 1358.025169
_symmetry_space_group_name_H-M "C C"
_symmetry_group_IT_number 9
_symmetry_cell_setting 'monoclinic'
loop_
_space_group_symop_operation_xyz
x,y,z
x,-y,1/2+z
1/2+x,1/2+y,z
1/2+x,1/2-y,1/2+z
loop_
_atom_site_type_symbol
_atom_site_label
_atom_site_fract_x
_atom_site_fract_y
_atom_site_fract_z
Si Si1 0.939010 0.166970 0.654550
Si Si2 0.671031 0.926786 0.970806
Si Si3 0.084235 0.674943 0.922579
Si Si4 0.454805 0.901833 0.273969
Si Si5 0.798596 0.757638 0.698669
Si Si6 0.877545 0.985049 0.468860
Si Si7 0.785386 0.447877 0.976152
Si Si8 0.246835 0.844949 0.725363
O O1 0.838370 0.253589 0.709567
O O2 0.041135 0.250123 0.585174
O O3 0.941585 0.084436 0.511259
O O4 0.926207 0.077501 0.796946
O O5 0.702702 0.814301 0.848849
O O6 0.651905 0.056362 0.906236
O O7 0.561686 0.908450 0.119264
O O8 0.770167 0.951566 0.998456
O O9 0.983125 0.638717 0.909876
O O10 0.149191 0.760583 0.775783
O O11 0.375859 0.814382 0.248013
O O12 0.399961 0.032149 0.335204
O O13 0.852837 0.875078 0.592695
O O14 0.774110 0.665169 0.588963
O O15 0.764245 0.569616 0.080269
O O16 0.723341 0.429834 0.877283
#
# Coordination Sequence:
#
# PCOD9141034 Si02
#       8
#     4   4   4   4   4   4   4   4
#     4  12  25  48  73 111 149 192 247 313 376 446
#     4  12  25  48  76 112 144 203 255 304 381 460
#     4  12  26  45  76 105 145 198 249 310 374 458
#     4  12  26  43  77 111 148 196 255 306 372 453
#     4  12  25  47  74 111 154 197 251 316 373 450
#     4  12  25  47  77 103 155 196 244 315 381 442
#     4  12  25  47  74 108 150 199 246 316 376 438
#     4  12  25  47  73 103 151 193 249 310 381 443
#
# _framework density 23.563628999999999
#
# number of rings (size 3 to 8) (size 9 to 14) (size 15 to 20)
#    0.000    0.000    6.250    3.750    1.750    1.000 
#    4.500    0.000    0.000    0.000    0.000    0.000 
#    0.000    0.000    0.000    0.000    0.000    0.000 
#
# Total GULP energy -89530.471922 kJ/mol
# GULP energy per Si atom -5595.654495 kJ/mol
# Density = 2.351000 g / cm^3
# Si number density = 23.563629 Si / 1000 Ang^3
#
#
#
# Elastic Constant Matrix: (Units=GPa)
#
#
# Indices 1 2 3 4 5 6 
#
# 1 45.2534 20.5880 27.1104 0.0000 0.9972 0.0000
# 2 20.5880 104.6105 54.4759 0.0000 -10.0383 0.0000
# 3 27.1104 54.4759 106.3562 0.0000 -1.1459 0.0000
# 4 0.0000 0.0000 0.0000 54.1124 0.0000 -11.9908
# 5 0.9972 -10.0383 -1.1459 0.0000 40.3111 0.0000
# 6 0.0000 0.0000 0.0000 -11.9908 0.0000 39.5694
#
#
#
# Elastic Compliance Matrix: (Units=1/GPa)
#
#
# Indices 1 2 3 4 5 6 
#
# 1 0.026565 -0.002498 -0.005508 0.000000 -0.001436 0.000000
# 2 -0.002498 0.013659 -0.006324 0.000000 0.003283 0.000000
# 3 -0.005508 -0.006324 0.014034 0.000000 -0.001040 0.000000
# 4 0.000000 0.000000 0.000000 0.019810 0.000000 0.006003
# 5 -0.001436 0.003283 -0.001040 0.000000 0.025631 0.000000
# 6 0.000000 0.000000 0.000000 0.006003 0.000000 0.027091
#
#
# Mechanical properties :
#
#
# Convention : Reuss Voigt Hill
#
# Bulk Modulus (GPa) = 39.06324 51.17430 45.11877
# Shear Modulus (GPa) = 30.49082 37.06830 33.77956
#
# Velocity S-wave (km/s) = 3.60109 3.97055 3.79033
# Velocity P-wave (km/s) = 5.82274 6.54103 6.19231
#
# Compressibility (1/GPa) = 0.02559951
#
# Stress axis : x y z
#
# Youngs Moduli (GPa) = 37.64303 73.21028 71.25379
#
# Poissons Ratio (x) = 0.18287 0.39244
# Poissons Ratio (y) = 0.09403 0.45062
# Poissons Ratio (z) = 0.20732 0.46300
#
# Static dielectric constant tensor:
#      x y z
#    x 1.869270 0.000000 -0.018080 
#    y 0.000000 1.952930 0.000000 
#    z -0.018080 0.000000 1.945810 
# 
# From -- ./inp_files/9122.got.cif
#   From: 2010.05.17/outbox.cif.g08.bks.cpg/sg9_5_cif.got.tgz:9122.got - 2010.06.03 20:04:27.
