data_PCOD9141805
_publ_section_title
;
Structure prediction by ZEFSAII (Michael W. Deem and Ramdas Pophale) SiO2 
 PCOD9141805
Probable space group: P 2/M
;
_chemical_formula_sum "Si O2"
_cell_formula_units_Z 32
_cell_length_a 15.561088
_cell_length_b 8.538469
_cell_length_c 14.462932
_cell_angle_alpha 90.000000
_cell_angle_beta 90.566534
_cell_angle_gamma 90.000000
_cell_volume 1921.564993
_symmetry_space_group_name_H-M "P 2/M"
_symmetry_group_IT_number 10
_symmetry_cell_setting 'monoclinic'
loop_
_space_group_symop_operation_xyz
x,y,z
-x,y,-z
-x,-y,-z
x,-y,z
loop_
_atom_site_type_symbol
_atom_site_label
_atom_site_fract_x
_atom_site_fract_y
_atom_site_fract_z
Si Si1 0.328870 0.188462 0.677838
Si Si2 0.476697 0.686546 0.813350
Si Si3 0.751197 0.686898 0.884025
Si Si4 0.096251 0.688055 0.984330
Si Si5 0.349121 0.691190 0.284516
Si Si6 0.204488 0.820092 0.826862
Si Si7 0.631533 0.178511 0.031940
Si Si8 0.601353 0.689770 0.510016
O O1 0.404866 0.267598 0.737459
O O2 0.240022 0.235986 0.728084
O O3 0.344280 0.239629 0.573371
O O4 0.335349 0.000000 0.686883
O O5 0.478482 0.500000 0.824338
O O6 0.565950 0.740153 0.770638
O O7 0.448785 0.760579 0.910153
O O8 0.760645 0.500000 0.879459
O O9 0.730367 0.743843 0.780276
O O10 0.834690 0.749756 0.939163
O O11 0.668453 0.721970 0.947706
O O12 0.094727 0.500000 0.992801
O O13 0.133356 0.727949 0.883592
O O14 0.000000 0.747450 0.000000
O O15 0.348586 0.500000 0.286128
O O16 0.360767 0.740495 0.390439
O O17 0.289574 0.817527 0.892996
O O18 0.176497 0.000000 0.818195
O O19 0.618713 0.000000 0.002437
O O20 0.500000 0.733724 0.500000
O O21 0.604221 0.500000 0.504475
#
# Coordination Sequence:
#
# PCOD9141805 Si02
#       8
#     4   4   4   4   4   4   4   4
#     4  10  19  30  44  66  93 119 152 194 233 264
#     4  10  17  28  44  61  83 117 158 192 221 258
#     4   9  17  31  47  62  86 120 149 177 220 272
#     4   9  17  29  48  74  96 112 138 178 222 269
#     4   9  18  30  44  62  84 115 157 192 219 260
#     4   8  16  29  44  64  91 119 146 176 214 267
#     4   9  17  29  42  61  89 117 150 188 222 259
#     4  10  18  31  47  64  86 117 159 201 228 258
#
# _framework density 16.653092999999998
#
# number of rings (size 3 to 8) (size 9 to 14) (size 15 to 20)
#    0.000    2.750    1.250    1.875    0.000    4.500 
#    0.000    4.375    0.000    0.000    0.000    0.875 
#    0.000    7.000    0.000    0.000    0.000    0.000 
#
# Total GULP energy -178260.978366 kJ/mol
# GULP energy per Si atom -5570.655574 kJ/mol
# Density = 1.661519 g / cm^3
# Si number density = 16.653093 Si / 1000 Ang^3
#
#
#
# Elastic Constant Matrix: (Units=GPa)
#
#
# Indices 1 2 3 4 5 6 
#
# 1 76.0958 11.8836 59.2835 0.0000 -12.3397 0.0000
# 2 11.8836 9.8255 5.2512 0.0000 -2.3005 0.0000
# 3 59.2835 5.2512 124.7065 0.0000 -4.7786 0.0000
# 4 0.0000 0.0000 0.0000 -0.9108 0.0000 20.9902
# 5 -12.3397 -2.3005 -4.7786 0.0000 17.3191 0.0000
# 6 0.0000 0.0000 0.0000 20.9902 0.0000 -34.1112
#
#
#
# Elastic Compliance Matrix: (Units=1/GPa)
#
#
# Indices 1 2 3 4 5 6 
#
# 1 0.028665 -0.025006 -0.012046 0.000000 0.013779 0.000000
# 2 -0.025006 0.128797 0.006505 0.000000 0.001086 0.000000
# 3 -0.012046 0.006505 0.013316 0.000000 -0.004044 0.000000
# 4 0.000000 0.000000 0.000000 0.083296 0.000000 0.051256
# 5 0.013779 0.001086 -0.004044 0.000000 0.066585 0.000000
# 6 0.000000 0.000000 0.000000 0.051256 0.000000 0.002224
#
#
# Mechanical properties :
#
#
# Convention : Reuss Voigt Hill
#
# Bulk Modulus (GPa) = 9.11694 40.38494 24.75094
# Shear Modulus (GPa) = 11.88951 5.40671 8.64811
#
# Velocity S-wave (km/s) = 2.67489 1.80381 2.28131
# Velocity P-wave (km/s) = 3.87641 5.35179 4.67270
#
# Compressibility (1/GPa) = 0.10968596
#
# Stress axis : x y z
#
# Youngs Moduli (GPa) = 34.88516 7.76417 75.09494
#
# Poissons Ratio (x) = 0.19415 0.90461
# Poissons Ratio (y) = 0.87233 -0.48853
# Poissons Ratio (z) = 0.42023 -0.05051
#
# Static dielectric constant tensor:
#      x y z
#    x 1.571000 0.000000 0.015920 
#    y 0.000000 1.567810 0.000000 
#    z 0.015920 0.000000 1.590230 
# 
# From -- ./inp_files/66124.got.cif
#   From: 2010.05.17/outbox.cif.g08.bks.cpg/sg10_34_cif.got.tgz:66124.got - 2010.06.03 11:33:40.
