data_PCOD9141883
_publ_section_title
;
Structure prediction by ZEFSAII (Michael W. Deem and Ramdas Pophale) SiO2 
 PCOD9141883
Probable space group: P 2/M
;
_chemical_formula_sum "Si O2"
_cell_formula_units_Z 20
_cell_length_a 7.337776
_cell_length_b 11.416807
_cell_length_c 13.180581
_cell_angle_alpha 90.000000
_cell_angle_beta 125.749272
_cell_angle_gamma 90.000000
_cell_volume 896.139771
_symmetry_space_group_name_H-M "P 2/M"
_symmetry_group_IT_number 10
_symmetry_cell_setting 'monoclinic'
loop_
_space_group_symop_operation_xyz
x,y,z
-x,y,-z
-x,-y,-z
x,-y,z
loop_
_atom_site_type_symbol
_atom_site_label
_atom_site_fract_x
_atom_site_fract_y
_atom_site_fract_z
Si Si1 0.626631 0.701039 0.856597
Si Si2 0.933249 0.642455 0.137180
Si Si3 0.430743 0.864040 0.633400
Si Si4 0.698254 0.500000 0.300091
Si Si5 0.194110 0.247166 0.380695
Si Si6 0.766763 0.500000 0.552172
O O1 0.514843 0.814547 0.768391
O O2 0.427247 0.608783 0.787963
O O3 0.832422 0.658628 0.849895
O O4 0.739168 0.695667 0.003181
O O5 0.901196 0.500000 0.140641
O O6 0.965541 0.727692 0.245614
O O7 0.647878 0.838384 0.632468
O O8 0.230319 0.794537 0.508678
O O9 0.375673 0.000000 0.619198
O O10 0.657390 0.500000 0.406941
O O11 0.964450 0.500000 0.376397
O O12 0.281777 0.380791 0.406356
#
# Coordination Sequence:
#
# PCOD9141883 Si02
#       6
#     4   4   4   2   4   2
#     4  10  18  32  52  75 110 140 164 213 264 313
#     4  10  17  28  52  83 109 130 166 205 286 329
#     4  10  21  34  54  76 102 141 182 218 262 299
#     4  11  20  33  51  76 111 143 170 213 258 318
#     4  10  19  32  50  76 108 127 168 220 263 309
#     4  11  22  31  50  82 106 139 178 208 263 324
#
# _framework density 22.317948999999999
#
# number of rings (size 3 to 8) (size 9 to 14) (size 15 to 20)
#    0.000    1.800    5.000    1.800    0.000    1.600 
#    0.000   11.000    0.000    3.600    0.000    0.000 
#    0.000   27.200    0.000    0.000    0.000    0.000 
#
# Total GULP energy -111517.456390 kJ/mol
# GULP energy per Si atom -5575.872819 kJ/mol
# Density = 2.226715 g / cm^3
# Si number density = 22.317949 Si / 1000 Ang^3
#
#
#
# Elastic Constant Matrix: (Units=GPa)
#
#
# Indices 1 2 3 4 5 6 
#
# 1 60.5787 0.3130 16.0669 0.0000 19.8101 0.0000
# 2 0.3130 132.0563 72.5782 0.0000 2.0372 0.0000
# 3 16.0669 72.5782 262.5250 0.0000 12.7954 0.0000
# 4 0.0000 0.0000 0.0000 31.6717 0.0000 -1.2934
# 5 19.8101 2.0372 12.7954 0.0000 19.0833 0.0000
# 6 0.0000 0.0000 0.0000 -1.2934 0.0000 14.5029
#
#
#
# Elastic Compliance Matrix: (Units=1/GPa)
#
#
# Indices 1 2 3 4 5 6 
#
# 1 0.025048 0.000578 -0.000437 0.000000 -0.025770 0.000000
# 2 0.000578 0.008952 -0.002517 0.000000 0.000132 0.000000
# 3 -0.000437 -0.002517 0.004648 0.000000 -0.002395 0.000000
# 4 0.000000 0.000000 0.000000 0.031689 0.000000 0.002826
# 5 -0.025770 0.000132 -0.002395 0.000000 0.080746 0.000000
# 6 0.000000 0.000000 0.000000 0.002826 0.000000 0.069204
#
#
# Mechanical properties :
#
#
# Convention : Reuss Voigt Hill
#
# Bulk Modulus (GPa) = 29.50050 70.34179 49.92115
# Shear Modulus (GPa) = 21.15625 37.46503 29.31064
#
# Velocity S-wave (km/s) = 3.08222 4.10163 3.62791
# Velocity P-wave (km/s) = 5.09055 7.34967 6.32184
#
# Compressibility (1/GPa) = 0.03389773
#
# Stress axis : x y z
#
# Youngs Moduli (GPa) = 39.92400 111.70241 215.12753
#
# Poissons Ratio (x) = -0.06459 0.09396
# Poissons Ratio (y) = -0.02309 0.54143
# Poissons Ratio (z) = 0.01744 0.28113
#
# Static dielectric constant tensor:
#      x y z
#    x 1.893280 0.000000 -0.041940 
#    y 0.000000 1.761030 0.000000 
#    z -0.041940 0.000000 1.938510 
# 
# From -- ./inp_files/60574.got.cif
#   From: 2010.05.17/outbox.cif.g08.bks.cpg/sg10_31_cif.got.tgz:60574.got - 2010.06.03 11:33:40.
