data_PCOD9141143
_publ_section_title
;
Structure prediction by ZEFSAII (Michael W. Deem and Ramdas Pophale) SiO2 
 PCOD9141143
Probable space group: C C
;
_chemical_formula_sum "Si O2"
_cell_formula_units_Z 16
_cell_length_a 12.758362
_cell_length_b 7.220822
_cell_length_c 9.156726
_cell_angle_alpha 90.000000
_cell_angle_beta 135.483829
_cell_angle_gamma 90.000000
_cell_volume 591.436708
_symmetry_space_group_name_H-M "C C"
_symmetry_group_IT_number 9
_symmetry_cell_setting 'monoclinic'
loop_
_space_group_symop_operation_xyz
x,y,z
x,-y,1/2+z
1/2+x,1/2+y,z
1/2+x,1/2-y,1/2+z
loop_
_atom_site_type_symbol
_atom_site_label
_atom_site_fract_x
_atom_site_fract_y
_atom_site_fract_z
Si Si1 0.736760 0.833438 0.824360
Si Si2 0.560900 0.898972 0.348199
Si Si3 0.281525 0.026163 0.230572
Si Si4 0.482404 0.630159 0.020538
O O1 0.655176 0.865715 0.587838
O O2 0.771764 0.616660 0.858079
O O3 0.629178 0.920482 0.838345
O O4 0.887593 0.953870 0.975855
O O5 0.566407 0.734855 0.235994
O O6 0.389999 0.919980 0.227914
O O7 0.368248 0.216659 0.346898
O O8 0.109051 0.071851 0.031610
#
# Coordination Sequence:
#
# PCOD9141143 Si02
#       4
#     4   4   4   4
#     4  12  28  54  85 116 164 218 271 340 416 479
#     4  12  26  56  78 121 163 214 275 337 404 496
#     4  12  27  51  81 118 164 214 269 340 403 485
#     4  12  27  53  80 121 163 212 275 335 401 496
#
# _framework density 27.052765999999998
#
# number of rings (size 3 to 8) (size 9 to 14) (size 15 to 20)
#    0.000    0.000    5.000    3.000    0.000    4.000 
#    4.500    0.000    0.000    0.000    0.000    0.000 
#    0.000    0.000    0.000    0.000    0.000    0.000 
#
# Total GULP energy -44931.053254 kJ/mol
# GULP energy per Si atom -5616.381657 kJ/mol
# Density = 2.699119 g / cm^3
# Si number density = 27.052766 Si / 1000 Ang^3
#
#
#
# Elastic Constant Matrix: (Units=GPa)
#
#
# Indices 1 2 3 4 5 6 
#
# 1 162.3989 33.0821 28.5212 0.0000 56.3222 0.0000
# 2 33.0821 148.0164 7.8767 0.0000 28.5958 0.0000
# 3 28.5212 7.8767 70.8839 0.0000 9.6864 0.0000
# 4 0.0000 0.0000 0.0000 53.0360 0.0000 -0.1693
# 5 56.3222 28.5958 9.6864 0.0000 57.8321 0.0000
# 6 0.0000 0.0000 0.0000 -0.1693 0.0000 58.2525
#
#
#
# Elastic Compliance Matrix: (Units=1/GPa)
#
#
# Indices 1 2 3 4 5 6 
#
# 1 0.009790 -0.000321 -0.002684 0.000000 -0.008926 0.000000
# 2 -0.000321 0.007488 -0.000245 0.000000 -0.003349 0.000000
# 3 -0.002684 -0.000245 0.015189 0.000000 0.000191 0.000000
# 4 0.000000 0.000000 0.000000 0.018855 0.000000 0.000055
# 5 -0.008926 -0.003349 0.000191 0.000000 0.027609 0.000000
# 6 0.000000 0.000000 0.000000 0.000055 0.000000 0.017167
#
#
# Mechanical properties :
#
#
# Convention : Reuss Voigt Hill
#
# Bulk Modulus (GPa) = 38.51083 57.80658 48.15871
# Shear Modulus (GPa) = 44.94273 54.61207 49.77740
#
# Velocity S-wave (km/s) = 4.08033 4.49790 4.29419
# Velocity P-wave (km/s) = 6.03863 6.95624 6.51361
#
# Compressibility (1/GPa) = 0.02596672
#
# Stress axis : x y z
#
# Youngs Moduli (GPa) = 102.14317 133.55151 65.83890
#
# Poissons Ratio (x) = 0.04284 0.17670
# Poissons Ratio (y) = 0.03277 0.01615
# Poissons Ratio (z) = 0.27413 0.03277
#
# Static dielectric constant tensor:
#      x y z
#    x 2.031070 0.000000 -0.029250 
#    y 0.000000 2.078880 0.000000 
#    z -0.029250 0.000000 2.087360 
# 
# From -- ./inp_files/11188.got.cif
#   From: 2010.05.17/outbox.cif.g08.bks.cpg/sg9_6_cif.got.tgz:11188.got - 2010.06.03 20:04:27.
