data_PCOD9141276
_publ_section_title
;
Structure prediction by ZEFSAII (Michael W. Deem and Ramdas Pophale) SiO2 
 PCOD9141276
Probable space group: C C
;
_chemical_formula_sum "Si O2"
_cell_formula_units_Z 16
_cell_length_a 18.000000
_cell_length_b 6.000000
_cell_length_c 15.000000
_cell_angle_alpha 90.000000
_cell_angle_beta 60.000000
_cell_angle_gamma 90.000000
_cell_volume 1402.961154
_symmetry_space_group_name_H-M "C C"
_symmetry_group_IT_number 9
_symmetry_cell_setting 'monoclinic'
loop_
_space_group_symop_operation_xyz
x,y,z
x,-y,1/2+z
1/2+x,1/2+y,z
1/2+x,1/2-y,1/2+z
loop_
_atom_site_type_symbol
_atom_site_label
_atom_site_fract_x
_atom_site_fract_y
_atom_site_fract_z
Si Si1 0.880600 0.580880 0.782130
Si Si2 0.763555 0.308895 0.185673
Si Si3 0.417980 0.492460 0.527234
Si Si4 0.142184 0.648296 0.523682
Si Si5 0.585874 0.355510 0.370312
Si Si6 0.037333 0.878549 0.739652
Si Si7 0.521366 0.241174 0.114607
Si Si8 0.308320 0.144261 0.000235
O O1 0.805463 0.621023 0.755514
O O2 0.940391 0.790674 0.777667
O O3 0.946451 0.423413 0.691014
O O4 0.841889 0.492216 0.898279
O O5 0.664604 0.246004 0.266681
O O6 0.769234 0.500079 0.105374
O O7 0.830703 0.121890 0.113056
O O8 0.482355 0.312371 0.441438
O O9 0.477635 0.594688 0.569335
O O10 0.384638 0.704309 0.492522
O O11 0.118216 0.803209 0.452490
O O12 0.094737 0.720529 0.643471
O O13 0.102047 0.402943 0.529844
O O14 0.240417 0.690680 0.491699
O O15 0.572014 0.587344 0.320164
O O16 0.046256 0.117159 0.686191
#
# Coordination Sequence:
#
# PCOD9141276 Si02
#       8
#     4   4   4   4   4   4   4   4
#     4  11  23  44  72 103 145 192 237 304 374 438
#     4  12  26  48  72 106 148 190 251 307 360 445
#     4  12  26  47  73 106 147 194 249 303 370 443
#     4  11  25  45  68 107 148 187 250 305 365 442
#     4  12  25  47  74 101 148 200 242 306 369 440
#     4  11  23  45  69 103 144 190 246 300 370 443
#     4  11  24  44  75 102 145 192 247 307 365 442
#     4  12  26  44  69 108 149 189 248 306 367 447
#
# _framework density 11.404450000000001
#
# number of rings (size 3 to 8) (size 9 to 14) (size 15 to 20)
#    0.000    0.500    7.500    0.750    3.500    0.000 
#    2.250    2.500    0.000    0.000    0.000    0.000 
#    0.000    0.000    0.000    0.000    0.000    0.000 
#
# Total GULP energy -89183.489258 kJ/mol
# GULP energy per Si atom -5573.968079 kJ/mol
# Density = 1.137849 g / cm^3
# Si number density = 11.404450 Si / 1000 Ang^3
#
#
#
# Elastic Constant Matrix: (Units=GPa)
#
#
# Indices 1 2 3 4 5 6 
#
# 1 91.6685 22.0994 31.5055 0.0003 5.6241 0.0007
# 2 22.0994 54.7660 15.7909 0.0011 -0.2270 0.0013
# 3 31.5055 15.7909 122.9235 0.0000 0.7622 0.0002
# 4 0.0003 0.0011 0.0000 17.6112 -0.0002 -0.2301
# 5 5.6241 -0.2270 0.7622 -0.0002 42.2560 0.0003
# 6 0.0007 0.0013 0.0002 -0.2301 0.0003 37.7329
#
#
#
# Elastic Compliance Matrix: (Units=1/GPa)
#
#
# Indices 1 2 3 4 5 6 
#
# 1 0.013040 -0.004474 -0.002757 0.000000 -0.001710 0.000000
# 2 -0.004474 0.020498 -0.001491 -0.000001 0.000733 -0.000001
# 3 -0.002757 -0.001491 0.009032 0.000000 0.000196 0.000000
# 4 0.000000 -0.000001 0.000000 0.056786 0.000000 0.000346
# 5 -0.001710 0.000733 0.000196 0.000000 0.023893 0.000000
# 6 0.000000 -0.000001 0.000000 0.000346 0.000000 0.026504
#
#
# Mechanical properties :
#
#
# Convention : Reuss Voigt Hill
#
# Bulk Modulus (GPa) = 39.79946 45.34993 42.57469
# Shear Modulus (GPa) = 28.47822 32.85084 30.66453
#
# Velocity S-wave (km/s) = 3.53733 3.79920 3.67060
# Velocity P-wave (km/s) = 5.84556 6.25867 6.05564
#
# Compressibility (1/GPa) = 0.02512597
#
# Stress axis : x y z
#
# Youngs Moduli (GPa) = 76.68786 48.78558 110.71706
#
# Poissons Ratio (x) = 0.21827 0.30522
# Poissons Ratio (y) = 0.34311 0.16508
# Poissons Ratio (z) = 0.21141 0.07274
#
# Static dielectric constant tensor:
#      x y z
#    x 1.830660 0.000000 -0.027510 
#    y 0.000000 1.898330 0.000000 
#    z -0.027510 0.000000 1.943550 
# 
# From -- ./inp_files/26406.got.cif
#   From: 2010.05.17/outbox.ucp.g08.bks.cvg/sg9_14_cif.got.tgz:26406.got - 2010.06.11 13:03:20.
