data_PCOD9141891
_publ_section_title
;
Structure prediction by ZEFSAII (Michael W. Deem and Ramdas Pophale) SiO2 
 PCOD9141891
Probable space group: P 2/M
;
_chemical_formula_sum "Si O2"
_cell_formula_units_Z 28
_cell_length_a 26.209883
_cell_length_b 12.395787
_cell_length_c 5.573080
_cell_angle_alpha 90.000000
_cell_angle_beta 50.364636
_cell_angle_gamma 90.000000
_cell_volume 1394.417031
_symmetry_space_group_name_H-M "P 2/M"
_symmetry_group_IT_number 10
_symmetry_cell_setting 'monoclinic'
loop_
_space_group_symop_operation_xyz
x,y,z
-x,y,-z
-x,-y,-z
x,-y,z
loop_
_atom_site_type_symbol
_atom_site_label
_atom_site_fract_x
_atom_site_fract_y
_atom_site_fract_z
Si Si1 0.479043 0.667585 0.812873
Si Si2 0.973695 0.624780 0.328914
Si Si3 0.220445 0.732882 0.588934
Si Si4 0.286902 0.500000 0.889644
Si Si5 0.570613 0.117870 0.538156
Si Si6 0.176046 0.686758 0.222128
Si Si7 0.634771 0.818851 0.845682
Si Si8 0.710217 0.500000 0.618999
O O1 0.500000 0.616369 0.500000
O O2 0.519353 0.783120 0.691934
O O3 0.500000 0.616369 0.000000
O O4 0.402639 0.702793 0.042097
O O5 0.997394 0.500000 0.257818
O O6 0.894374 0.628098 0.566842
O O7 0.000000 0.673371 0.500000
O O8 0.000000 0.673375 0.000000
O O9 0.182494 0.749996 0.453312
O O10 0.287470 0.800965 0.387636
O O11 0.242915 0.606030 0.521609
O O12 0.182569 0.750077 0.952162
O O13 0.238016 0.603140 0.036302
O O14 0.326763 0.500000 0.016701
O O15 0.326764 0.500000 0.523418
O O16 0.612120 0.128573 0.661145
O O17 0.537997 0.000000 0.635995
O O18 0.612126 0.128580 0.166114
#
# Coordination Sequence:
#
# PCOD9141891 Si02
#       8
#     4   4   4   2   4   4   4   2
#     4   8  16  27  42  62  86 114 139 178 219 257
#     4  10  19  28  41  62  87 115 151 193 232 269
#     4  10  19  29  45  62  85 118 155 196 231 260
#     4   8  14  24  38  55  74 101 142 182 214 254
#     4  10  19  31  48  68  92 121 149 180 221 274
#     4  10  17  29  42  58  83 116 152 186 231 260
#     4  10  19  30  43  67  92 114 152 190 221 267
#     4   8  16  26  40  57  76 107 146 188 222 250
#
# _framework density 20.080078
#
# number of rings (size 3 to 8) (size 9 to 14) (size 15 to 20)
#    0.000    2.571    0.714    2.143    0.000    5.143 
#    0.000    0.000    0.000    0.000    0.000    9.000 
#    0.000    0.000    0.000    0.000    0.000  180.000 
#
# Total GULP energy -156040.912275 kJ/mol
# GULP energy per Si atom -5572.889724 kJ/mol
# Density = 2.003437 g / cm^3
# Si number density = 20.080078 Si / 1000 Ang^3
#
#
#
# Elastic Constant Matrix: (Units=GPa)
#
#
# Indices 1 2 3 4 5 6 
#
# 1 125.9888 12.2879 61.3701 0.0000 56.6152 0.0000
# 2 12.2879 52.4212 12.1080 0.0000 2.0741 0.0000
# 3 61.3701 12.1080 117.5689 0.0000 54.4466 0.0000
# 4 0.0000 0.0000 0.0000 5.0739 0.0000 -3.5842
# 5 56.6152 2.0741 54.4466 0.0000 58.9325 0.0000
# 6 0.0000 0.0000 0.0000 -3.5842 0.0000 4.8038
#
#
#
# Elastic Compliance Matrix: (Units=1/GPa)
#
#
# Indices 1 2 3 4 5 6 
#
# 1 0.014532 -0.002552 -0.001572 0.000000 -0.012419 0.000000
# 2 -0.002552 0.020132 -0.002706 0.000000 0.004244 0.000000
# 3 -0.001572 -0.002706 0.015488 0.000000 -0.012704 0.000000
# 4 0.000000 0.000000 0.000000 0.416724 0.000000 0.310925
# 5 -0.012419 0.004244 -0.012704 0.000000 0.040487 0.000000
# 6 0.000000 0.000000 0.000000 0.310925 0.000000 0.440154
#
#
# Mechanical properties :
#
#
# Convention : Reuss Voigt Hill
#
# Bulk Modulus (GPa) = 27.40323 51.94567 39.67445
# Shear Modulus (GPa) = 5.13694 27.77624 16.45659
#
# Velocity S-wave (km/s) = 1.60118 3.72327 2.86588
# Velocity P-wave (km/s) = 4.13461 6.66402 5.54545
#
# Compressibility (1/GPa) = 0.03649205
#
# Stress axis : x y z
#
# Youngs Moduli (GPa) = 68.81149 49.67288 64.56600
#
# Poissons Ratio (x) = 0.12677 0.10147
# Poissons Ratio (y) = 0.17562 0.17474
# Poissons Ratio (z) = 0.10814 0.13443
#
# Static dielectric constant tensor:
#      x y z
#    x 1.756940 0.000000 0.079210 
#    y 0.000000 1.718800 0.000000 
#    z 0.079210 0.000000 1.751030 
# 
# From -- ./inp_files/11331.got.cif
#   From: 2010.05.17/outbox.cif.g08.bks.cpg/sg10_6_cif.got.tgz:11331.got - 2010.06.03 11:33:40.
