data_PCOD9141527
_publ_section_title
;
Structure prediction by ZEFSAII (Michael W. Deem and Ramdas Pophale) SiO2 
 PCOD9141527
Probable space group: P 2/M
;
_chemical_formula_sum "Si O2"
_cell_formula_units_Z 16
_cell_length_a 24.983742
_cell_length_b 7.740460
_cell_length_c 10.744824
_cell_angle_alpha 90.000000
_cell_angle_beta 158.402290
_cell_angle_gamma 90.000000
_cell_volume 764.846888
_symmetry_space_group_name_H-M "P 2/M"
_symmetry_group_IT_number 10
_symmetry_cell_setting 'monoclinic'
loop_
_space_group_symop_operation_xyz
x,y,z
-x,y,-z
-x,-y,-z
x,-y,z
loop_
_atom_site_type_symbol
_atom_site_label
_atom_site_fract_x
_atom_site_fract_y
_atom_site_fract_z
Si Si1 0.395756 0.500000 0.157287
Si Si2 0.858199 0.293807 0.040763
Si Si3 0.195904 0.195785 0.807872
Si Si4 0.387029 0.500000 0.867354
Si Si5 0.863947 0.698411 0.779185
O O1 0.500000 0.500000 0.500000
O O2 0.295963 0.331748 0.955202
O O3 0.461994 0.500000 0.162811
O O4 0.836568 0.500000 0.006874
O O5 0.780652 0.210574 0.992155
O O6 0.029101 0.250539 0.424398
O O7 0.819983 0.230989 0.819076
O O8 0.218228 0.000000 0.815878
O O9 0.276618 0.662113 0.609490
O O10 0.500000 0.500000 0.000000
O O11 0.915293 0.500000 0.922298
O O12 0.000000 0.779262 0.000000
#
# Coordination Sequence:
#
# PCOD9141527 Si02
#       5
#     2   4   4   2   4
#     4  12  26  40  65  86 117 170 212 243 301 364
#     4  10  16  32  63  91 119 156 194 244 315 368
#     4  11  22  37  59  93 126 154 201 260 305 357
#     4  10  21  35  59  93 118 156 210 249 300 372
#     4   8  16  29  55  85 117 153 198 243 301 362
#
# _framework density 20.919221
#
# number of rings (size 3 to 8) (size 9 to 14) (size 15 to 20)
#    0.750    1.250    2.500    3.750    3.500    0.500 
#    0.000    0.000    0.000   14.250    0.000    0.000 
#    0.000    0.000    0.000    0.000    0.000    0.000 
#
# Total GULP energy -89205.350660 kJ/mol
# GULP energy per Si atom -5575.334416 kJ/mol
# Density = 2.087161 g / cm^3
# Si number density = 20.919221 Si / 1000 Ang^3
#
#
#
# Elastic Constant Matrix: (Units=GPa)
#
#
# Indices 1 2 3 4 5 6 
#
# 1 129.0321 8.5699 32.6144 0.0000 -16.9802 0.0000
# 2 8.5699 89.6605 15.7998 0.0000 10.0911 0.0000
# 3 32.6144 15.7998 53.5160 0.0000 -10.0176 0.0000
# 4 0.0000 0.0000 0.0000 -24.2429 0.0000 -27.4965
# 5 -16.9802 10.0911 -10.0176 0.0000 38.3424 0.0000
# 6 0.0000 0.0000 0.0000 -27.4965 0.0000 -42.7197
#
#
#
# Elastic Compliance Matrix: (Units=1/GPa)
#
#
# Indices 1 2 3 4 5 6 
#
# 1 0.009451 -0.000333 -0.005111 0.000000 0.002938 0.000000
# 2 -0.000333 0.012461 -0.004329 0.000000 -0.004558 0.000000
# 3 -0.005111 -0.004329 0.024045 0.000000 0.005158 0.000000
# 4 0.000000 0.000000 0.000000 -0.152793 0.000000 0.098345
# 5 0.002938 -0.004558 0.005158 0.000000 0.029929 0.000000
# 6 0.000000 0.000000 0.000000 0.098345 0.000000 -0.086708
#
#
# Mechanical properties :
#
#
# Convention : Reuss Voigt Hill
#
# Bulk Modulus (GPa) = 37.86584 42.90852 40.38718
# Shear Modulus (GPa) = -36.96437 8.62427 -14.17005
#
# Velocity S-wave (km/s) = -4.20814 2.03263 -2.60546
# Velocity P-wave (km/s) = 2.33900 5.10538 3.20889
#
# Compressibility (1/GPa) = 0.02640903
#
# Stress axis : x y z
#
# Youngs Moduli (GPa) = 105.81281 80.25108 41.58950
#
# Poissons Ratio (x) = 0.02674 0.21257
# Poissons Ratio (y) = 0.03526 0.18004
# Poissons Ratio (z) = 0.54084 0.34741
#
# Static dielectric constant tensor:
#      x y z
#    x 1.820550 0.000000 -0.031480 
#    y 0.000000 1.763800 0.000000 
#    z -0.031480 0.000000 1.769490 
# 
# From -- ./inp_files/57207.got.cif
#   From: 2010.05.17/outbox.cif.g08.bks.cpg/sg10_29_cif.got.tgz:57207.got - 2010.06.03 11:33:40.
