data_PCOD9141234
_publ_section_title
;
Structure prediction by ZEFSAII (Michael W. Deem and Ramdas Pophale) SiO2 
 PCOD9141234
Probable space group: C C
;
_chemical_formula_sum "Si O2"
_cell_formula_units_Z 16
_cell_length_a 9.000000
_cell_length_b 21.000000
_cell_length_c 18.000000
_cell_angle_alpha 90.000000
_cell_angle_beta 30.000000
_cell_angle_gamma 90.000000
_cell_volume 1701.000000
_symmetry_space_group_name_H-M "C C"
_symmetry_group_IT_number 9
_symmetry_cell_setting 'monoclinic'
loop_
_space_group_symop_operation_xyz
x,y,z
x,-y,1/2+z
1/2+x,1/2+y,z
1/2+x,1/2-y,1/2+z
loop_
_atom_site_type_symbol
_atom_site_label
_atom_site_fract_x
_atom_site_fract_y
_atom_site_fract_z
Si Si1 0.408120 0.474609 0.635720
Si Si2 0.992607 0.607748 0.561766
Si Si3 0.038672 0.133877 0.969450
Si Si4 0.893457 0.757784 0.043744
Si Si5 0.216715 0.399716 0.131578
Si Si6 0.530747 0.015483 0.941557
Si Si7 0.810829 0.764141 0.899322
Si Si8 0.324376 0.360987 0.394235
O O1 0.369859 0.412463 0.600232
O O2 0.369636 0.538465 0.601818
O O3 0.211128 0.487645 0.793498
O O4 0.726499 0.465032 0.534911
O O5 0.661752 0.635720 0.717468
O O6 0.144656 0.592475 0.575432
O O7 0.985714 0.543067 0.517812
O O8 0.176549 0.665636 0.446575
O O9 0.383955 0.109862 0.810466
O O10 0.086680 0.207013 0.973766
O O11 0.870793 0.131609 0.962967
O O12 0.910327 0.834251 0.055284
O O13 0.600609 0.740287 0.220157
O O14 0.862963 0.755728 0.966362
O O15 0.146426 0.705087 0.954467
O O16 0.666632 0.077377 0.924513
#
# Coordination Sequence:
#
# PCOD9141234 Si02
#       8
#     4   4   4   4   4   4   4   4
#     4  12  23  43  65  94 129 172 216 268 323 386
#     4  10  23  43  64  95 131 169 216 265 326 387
#     4  10  22  42  65  93 130 170 214 264 326 383
#     4  10  23  42  69  96 131 173 219 268 331 385
#     4   9  21  44  64  90 131 170 208 266 322 384
#     4  12  25  40  66  96 128 171 216 269 324 386
#     4  10  23  43  68  95 131 177 217 271 324 390
#     4  11  24  43  65  95 133 170 214 273 322 391
#
# _framework density 9.4062319999999993
#
# number of rings (size 3 to 8) (size 9 to 14) (size 15 to 20)
#    0.000    1.500    2.500    2.250    5.250    2.000 
#    6.750    0.000    0.000    0.000    0.000    0.000 
#    0.000    0.000    0.000    0.000    0.000    0.000 
#
# Total GULP energy -89234.242716 kJ/mol
# GULP energy per Si atom -5577.140170 kJ/mol
# Density = 0.938482 g / cm^3
# Si number density = 9.406232 Si / 1000 Ang^3
#
#
#
# Elastic Constant Matrix: (Units=GPa)
#
#
# Indices 1 2 3 4 5 6 
#
# 1 106.4303 43.0896 28.6462 -0.0045 0.4810 -0.0120
# 2 43.0896 104.0677 5.7654 -0.0112 3.9093 -0.0013
# 3 28.6462 5.7654 62.9841 -0.0312 11.2728 0.0408
# 4 -0.0045 -0.0112 -0.0312 36.8128 0.0062 -0.7608
# 5 0.4810 3.9093 11.2728 0.0062 30.6815 0.0000
# 6 -0.0120 -0.0013 0.0408 -0.7608 0.0000 34.9718
#
#
#
# Elastic Compliance Matrix: (Units=1/GPa)
#
#
# Indices 1 2 3 4 5 6 
#
# 1 0.013086 -0.005188 -0.005949 -0.000005 0.002642 0.000011
# 2 -0.005188 0.011742 0.001646 0.000005 -0.002020 -0.000003
# 3 -0.005949 0.001646 0.019752 0.000017 -0.007374 -0.000025
# 4 -0.000005 0.000005 0.000017 0.027177 -0.000012 0.000591
# 5 0.002642 -0.002020 -0.007374 -0.000012 0.035518 0.000009
# 6 0.000011 -0.000003 -0.000025 0.000591 0.000009 0.028607
#
#
# Mechanical properties :
#
#
# Convention : Reuss Voigt Hill
#
# Bulk Modulus (GPa) = 39.06686 47.60939 43.33812
# Shear Modulus (GPa) = 30.60051 33.55861 32.07956
#
# Velocity S-wave (km/s) = 4.03750 4.22815 4.13392
# Velocity P-wave (km/s) = 6.52279 7.01417 6.77294
#
# Compressibility (1/GPa) = 0.02559714
#
# Stress axis : x y z
#
# Youngs Moduli (GPa) = 76.42029 85.16579 50.62780
#
# Poissons Ratio (x) = 0.44182 0.30121
# Poissons Ratio (y) = 0.39645 -0.08334
# Poissons Ratio (z) = 0.45466 -0.14019
#
# Static dielectric constant tensor:
#      x y z
#    x 1.638770 0.000000 0.000460 
#    y 0.000000 1.630630 -0.000010 
#    z 0.000460 -0.000010 1.633120 
# 
# From -- ./inp_files/11030.got.cif
#   From: 2010.05.17/outbox.ucp.g08.bks.cvg/sg9_6_cif.got.tgz:11030.got - 2010.06.11 13:03:20.
