data_PCOD9141588
_publ_section_title
;
Structure prediction by ZEFSAII (Michael W. Deem and Ramdas Pophale) SiO2 
 PCOD9141588
Probable space group: P 2/M
;
_chemical_formula_sum "Si O2"
_cell_formula_units_Z 32
_cell_length_a 14.102483
_cell_length_b 8.296029
_cell_length_c 27.716777
_cell_angle_alpha 90.000000
_cell_angle_beta 139.625463
_cell_angle_gamma 90.000000
_cell_volume 2100.569462
_symmetry_space_group_name_H-M "P 2/M"
_symmetry_group_IT_number 10
_symmetry_cell_setting 'monoclinic'
loop_
_space_group_symop_operation_xyz
x,y,z
-x,y,-z
-x,-y,-z
x,-y,z
loop_
_atom_site_type_symbol
_atom_site_label
_atom_site_fract_x
_atom_site_fract_y
_atom_site_fract_z
Si Si1 0.076851 0.808410 0.457952
Si Si2 0.228851 0.688088 0.076191
Si Si3 0.019889 0.186959 0.078018
Si Si4 0.233435 0.692095 0.232763
Si Si5 0.462257 0.303388 0.238656
Si Si6 0.365275 0.805153 0.383069
Si Si7 0.305579 0.803558 0.468193
Si Si8 0.787035 0.308159 0.390153
O O1 0.172231 0.748616 0.449769
O O2 0.168658 0.773627 0.542233
O O3 0.919249 0.728521 0.404833
O O4 0.055922 0.000000 0.445637
O O5 0.242020 0.500000 0.069674
O O6 0.118478 0.709606 0.079001
O O7 0.380852 0.749853 0.157957
O O8 0.147377 0.774997 0.000572
O O9 0.083348 0.230924 0.154737
O O10 0.048135 0.000000 0.078852
O O11 0.221226 0.500000 0.224238
O O12 0.362649 0.746285 0.245844
O O13 0.278835 0.739322 0.303978
O O14 0.460072 0.500000 0.236869
O O15 0.628981 0.251983 0.310364
O O16 0.302381 0.754962 0.410910
O O17 0.536328 0.754388 0.449148
O O18 0.362553 0.000000 0.380248
O O19 0.304927 0.000000 0.468638
O O20 0.780584 0.500000 0.395942
#
# Coordination Sequence:
#
# PCOD9141588 Si02
#       8
#     4   4   4   4   4   4   4   4
#     4  10  18  29  42  59  80 106 135 167 203 241
#     4   9  15  26  40  55  77 106 134 166 202 237
#     4  10  17  25  37  56  79 107 138 165 192 236
#     4  10  18  28  40  58  82 109 136 169 204 236
#     4   8  16  27  40  56  79 108 137 164 199 237
#     4   9  16  29  45  61  78 104 137 169 201 241
#     4   8  16  29  45  60  80 106 134 166 206 245
#     4  10  18  29  42  59  80 106 137 170 200 235
#
# _framework density 15.233965
#
# number of rings (size 3 to 8) (size 9 to 14) (size 15 to 20)
#    0.000    2.750    0.000    6.375    0.000    0.000 
#    0.000   10.000    0.000    0.000    0.000    0.000 
#    0.000    1.000    0.000   11.500    0.000    3.750 
#
# Total GULP energy -178217.200449 kJ/mol
# GULP energy per Si atom -5569.287514 kJ/mol
# Density = 1.519929 g / cm^3
# Si number density = 15.233965 Si / 1000 Ang^3
#
#
#
# Elastic Constant Matrix: (Units=GPa)
#
#
# Indices 1 2 3 4 5 6 
#
# 1 62.9058 -0.9153 37.8159 0.0000 -0.0189 0.0000
# 2 -0.9153 18.2928 7.8057 0.0000 -1.4081 0.0000
# 3 37.8159 7.8057 137.1300 0.0000 1.1099 0.0000
# 4 0.0000 0.0000 0.0000 20.7427 0.0000 -3.6327
# 5 -0.0189 -1.4081 1.1099 0.0000 19.2235 0.0000
# 6 0.0000 0.0000 0.0000 -3.6327 0.0000 13.0861
#
#
#
# Elastic Compliance Matrix: (Units=1/GPa)
#
#
# Indices 1 2 3 4 5 6 
#
# 1 0.019256 0.003358 -0.005506 0.000000 0.000583 0.000000
# 2 0.003358 0.056969 -0.004204 0.000000 0.004419 0.000000
# 3 -0.005506 -0.004204 0.009057 0.000000 -0.000836 0.000000
# 4 0.000000 0.000000 0.000000 0.050673 0.000000 0.014067
# 5 0.000583 0.004419 -0.000836 0.000000 0.052392 0.000000
# 6 0.000000 0.000000 0.000000 0.014067 0.000000 0.080322
#
#
# Mechanical properties :
#
#
# Convention : Reuss Voigt Hill
#
# Bulk Modulus (GPa) = 13.77867 34.19346 23.98607
# Shear Modulus (GPa) = 16.36309 22.18530 19.27419
#
# Velocity S-wave (km/s) = 3.28093 3.82030 3.56084
# Velocity P-wave (km/s) = 4.83911 6.47718 5.71712
#
# Compressibility (1/GPa) = 0.07257595
#
# Stress axis : x y z
#
# Youngs Moduli (GPa) = 51.93265 17.55350 110.41432
#
# Poissons Ratio (x) = -0.05894 0.60793
# Poissons Ratio (y) = -0.17438 0.46423
# Poissons Ratio (z) = 0.28594 0.07380
#
# Static dielectric constant tensor:
#      x y z
#    x 1.489900 0.000000 0.008890 
#    y 0.000000 1.524510 0.000000 
#    z 0.008890 0.000000 1.539040 
# 
# From -- ./inp_files/72040.got.cif
#   From: 2010.05.17/outbox.cif.g08.bks.cpg/sg10_37_cif.got.tgz:72040.got - 2010.06.03 11:33:40.
