data_PCOD9141167
_publ_section_title
;
Structure prediction by ZEFSAII (Michael W. Deem and Ramdas Pophale) SiO2 
 PCOD9141167
Probable space group: C C
;
_chemical_formula_sum "Si O2"
_cell_formula_units_Z 20
_cell_length_a 10.713498
_cell_length_b 9.296447
_cell_length_c 8.715849
_cell_angle_alpha 90.000000
_cell_angle_beta 128.527997
_cell_angle_gamma 90.000000
_cell_volume 679.099595
_symmetry_space_group_name_H-M "C C"
_symmetry_group_IT_number 9
_symmetry_cell_setting 'monoclinic'
loop_
_space_group_symop_operation_xyz
x,y,z
x,-y,1/2+z
1/2+x,1/2+y,z
1/2+x,1/2-y,1/2+z
loop_
_atom_site_type_symbol
_atom_site_label
_atom_site_fract_x
_atom_site_fract_y
_atom_site_fract_z
Si Si1 0.267760 0.845236 0.768450
Si Si2 0.534175 0.963480 0.333063
Si Si3 0.828473 0.199683 0.092398
Si Si4 0.619109 0.402579 0.325824
Si Si5 0.813098 0.854503 0.891426
O O1 0.165160 0.853383 0.532789
O O2 0.431153 0.925976 0.851715
O O3 0.156201 0.935706 0.799299
O O4 0.308607 0.696880 0.889543
O O5 0.649969 0.849443 0.503135
O O6 0.409906 0.855661 0.159869
O O7 0.657471 0.057677 0.327476
O O8 0.899929 0.113817 0.295597
O O9 0.752649 0.309620 0.335412
O O10 0.445319 0.365898 0.126452
#
# Coordination Sequence:
#
# PCOD9141167 Si02
#       5
#     4   4   4   4   4
#     4  12  27  54  83 126 173 224 284 348 426 509
#     4  12  28  50  88 124 172 224 287 350 427 506
#     4  12  28  51  85 124 167 227 282 355 416 512
#     4  12  27  51  82 123 173 222 285 348 422 514
#     4  12  28  52  84 121 173 227 284 353 423 503
#
# _framework density 29.450761
#
# number of rings (size 3 to 8) (size 9 to 14) (size 15 to 20)
#    0.000    0.000    4.000    3.600    5.600    4.800 
#    0.000    0.000    0.000    0.000    0.000    0.000 
#    0.000    0.000    0.000    0.000    0.000    0.000 
#
# Total GULP energy -55847.264801 kJ/mol
# GULP energy per Si atom -5584.726480 kJ/mol
# Density = 2.938373 g / cm^3
# Si number density = 29.450761 Si / 1000 Ang^3
#
#
#
# Elastic Constant Matrix: (Units=GPa)
#
#
# Indices 1 2 3 4 5 6 
#
# 1 212.2710 65.6890 90.5908 0.0000 -10.8201 0.0000
# 2 65.6890 82.1010 27.4908 0.0000 -21.6959 0.0000
# 3 90.5908 27.4908 198.8928 0.0000 -45.4920 0.0000
# 4 0.0000 0.0000 0.0000 42.5148 0.0000 7.6050
# 5 -10.8201 -21.6959 -45.4920 0.0000 50.5732 0.0000
# 6 0.0000 0.0000 0.0000 7.6050 0.0000 82.5325
#
#
#
# Elastic Compliance Matrix: (Units=1/GPa)
#
#
# Indices 1 2 3 4 5 6 
#
# 1 0.008081 -0.006359 -0.003815 0.000000 -0.004431 0.000000
# 2 -0.006359 0.018818 0.002305 0.000000 0.008786 0.000000
# 3 -0.003815 0.002305 0.008167 0.000000 0.007519 0.000000
# 4 0.000000 0.000000 0.000000 0.023915 0.000000 -0.002204
# 5 -0.004431 0.008786 0.007519 0.000000 0.029358 0.000000
# 6 0.000000 0.000000 0.000000 -0.002204 0.000000 0.012319
#
#
# Mechanical properties :
#
#
# Convention : Reuss Voigt Hill
#
# Bulk Modulus (GPa) = 51.74131 95.64511 73.69321
# Shear Modulus (GPa) = 40.70317 55.75706 48.23012
#
# Velocity S-wave (km/s) = 3.72166 4.35585 4.05118
# Velocity P-wave (km/s) = 6.00621 7.60557 6.85271
#
# Compressibility (1/GPa) = 0.01932692
#
# Stress axis : x y z
#
# Youngs Moduli (GPa) = 123.74219 53.14031 122.44688
#
# Poissons Ratio (x) = 0.33793 0.46718
# Poissons Ratio (y) = 0.78691 -0.28224
# Poissons Ratio (z) = 0.47213 -0.12249
#
# Static dielectric constant tensor:
#      x y z
#    x 2.248510 0.000000 -0.064780 
#    y 0.000000 2.291170 0.000000 
#    z -0.064780 0.000000 2.562520 
# 
# From -- ./inp_files/6910.got.cif
#   From: 2010.05.17/outbox.cif.g08.bks.cpg/sg9_4_cif.got.tgz:6910.got - 2010.06.03 20:04:27.
