data_PCOD9141059
_publ_section_title
;
Structure prediction by ZEFSAII (Michael W. Deem and Ramdas Pophale) SiO2 
 PCOD9141059
Probable space group: C C
;
_chemical_formula_sum "Si O2"
_cell_formula_units_Z 28
_cell_length_a 22.125812
_cell_length_b 5.000522
_cell_length_c 14.921149
_cell_angle_alpha 90.000000
_cell_angle_beta 136.187931
_cell_angle_gamma 90.000000
_cell_volume 1142.899765
_symmetry_space_group_name_H-M "C C"
_symmetry_group_IT_number 9
_symmetry_cell_setting 'monoclinic'
loop_
_space_group_symop_operation_xyz
x,y,z
x,-y,1/2+z
1/2+x,1/2+y,z
1/2+x,1/2-y,1/2+z
loop_
_atom_site_type_symbol
_atom_site_label
_atom_site_fract_x
_atom_site_fract_y
_atom_site_fract_z
Si Si1 0.725670 0.921817 0.803990
Si Si2 0.561776 0.324189 0.060206
Si Si3 0.506001 0.187152 0.610723
Si Si4 0.015226 0.369917 0.321580
Si Si5 0.198430 0.580160 0.479833
Si Si6 0.317980 0.926628 0.153884
Si Si7 0.821949 0.564722 0.363591
O O1 0.661436 0.771312 0.667146
O O2 0.685933 0.954836 0.859756
O O3 0.802607 0.705751 0.896444
O O4 0.748193 0.210247 0.790768
O O5 0.552544 0.612871 0.092937
O O6 0.519641 0.111210 0.085152
O O7 0.522010 0.306958 0.918633
O O8 0.528796 0.253382 0.737520
O O9 0.403192 0.222670 0.490285
O O10 0.101726 0.559276 0.420082
O O11 0.913977 0.466197 0.212051
O O12 0.245659 0.859625 0.547068
O O13 0.269810 0.356705 0.586034
O O14 0.336660 0.975650 0.278183
#
# Coordination Sequence:
#
# PCOD9141059 Si02
#       7
#     4   4   4   4   4   4   4
#     4  12  25  49  76 109 158 198 256 326 382 461
#     4  12  27  48  76 112 153 201 256 314 387 462
#     4  12  27  48  76 112 153 201 256 314 387 462
#     4  12  28  52  84 114 162 206 258 328 394 464
#     4  12  28  49  78 116 155 205 263 318 391 465
#     4  12  28  49  78 116 155 205 263 318 391 465
#     4  12  25  49  76 109 158 198 256 326 382 461
#
# _framework density 24.499086999999999
#
# number of rings (size 3 to 8) (size 9 to 14) (size 15 to 20)
#    0.000    0.000    2.857    6.857    4.000    4.571 
#    0.000    0.000    0.000    0.000    0.000    0.000 
#    0.000    0.000    0.000    0.000    0.000    0.000 
#
# Total GULP energy -78335.274118 kJ/mol
# GULP energy per Si atom -5595.376723 kJ/mol
# Density = 2.444333 g / cm^3
# Si number density = 24.499087 Si / 1000 Ang^3
#
#
#
# Elastic Constant Matrix: (Units=GPa)
#
#
# Indices 1 2 3 4 5 6 
#
# 1 118.8177 12.9530 20.5515 -0.0001 8.5689 -0.0001
# 2 12.9530 72.2963 -14.2704 -0.0002 13.1044 -0.0003
# 3 20.5515 -14.2704 111.9294 -0.0002 -17.4467 0.0000
# 4 -0.0001 -0.0002 -0.0002 25.5484 -0.0001 -1.9923
# 5 8.5689 13.1044 -17.4467 -0.0001 52.5175 -0.0003
# 6 -0.0001 -0.0003 0.0000 -1.9923 -0.0003 35.8669
#
#
#
# Elastic Compliance Matrix: (Units=1/GPa)
#
#
# Indices 1 2 3 4 5 6 
#
# 1 0.009109 -0.001739 -0.002171 0.000000 -0.001773 0.000000
# 2 -0.001739 0.015016 0.001787 0.000000 -0.002870 0.000000
# 3 -0.002171 0.001787 0.010068 0.000000 0.003253 0.000000
# 4 0.000000 0.000000 0.000000 0.039312 0.000000 0.002184
# 5 -0.001773 -0.002870 0.003253 0.000000 0.021127 0.000000
# 6 0.000000 0.000000 0.000000 0.002184 0.000000 0.028002
#
#
# Mechanical properties :
#
#
# Convention : Reuss Voigt Hill
#
# Bulk Modulus (GPa) = 33.39277 37.94573 35.66925
# Shear Modulus (GPa) = 36.53286 41.70717 39.12002
#
# Velocity S-wave (km/s) = 3.86579 4.13049 4.00033
# Velocity P-wave (km/s) = 5.79530 6.18629 5.99398
#
# Compressibility (1/GPa) = 0.02994660
#
# Stress axis : x y z
#
# Youngs Moduli (GPa) = 109.77913 66.59408 99.32866
#
# Poissons Ratio (x) = 0.11581 0.21561
# Poissons Ratio (y) = 0.19091 -0.17745
# Poissons Ratio (z) = 0.23830 -0.11897
#
# Static dielectric constant tensor:
#      x y z
#    x 2.024780 0.000000 0.081470 
#    y 0.000000 1.954020 0.000000 
#    z 0.081470 0.000000 2.020930 
# 
# From -- ./inp_files/27114.got.cif
#   From: 2010.05.17/outbox.cif.g08.bks.cpg/sg9_14_cif.got.tgz:27114.got - 2010.06.03 20:04:27.
