data_PCOD9141880
_publ_section_title
;
Structure prediction by ZEFSAII (Michael W. Deem and Ramdas Pophale) SiO2 
 PCOD9141880
Probable space group: P 2/M
;
_chemical_formula_sum "Si O2"
_cell_formula_units_Z 26
_cell_length_a 5.425948
_cell_length_b 22.677308
_cell_length_c 11.399462
_cell_angle_alpha 90.000000
_cell_angle_beta 115.175624
_cell_angle_gamma 90.000000
_cell_volume 1269.415961
_symmetry_space_group_name_H-M "P 2/M"
_symmetry_group_IT_number 10
_symmetry_cell_setting 'monoclinic'
loop_
_space_group_symop_operation_xyz
x,y,z
-x,y,-z
-x,-y,-z
x,-y,z
loop_
_atom_site_type_symbol
_atom_site_label
_atom_site_fract_x
_atom_site_fract_y
_atom_site_fract_z
Si Si1 0.606241 0.430605 0.362413
Si Si2 0.798466 0.938613 0.116727
Si Si3 0.000000 0.163399 0.000000
Si Si4 0.912997 0.617112 0.657342
Si Si5 0.577197 0.813704 0.729458
Si Si6 0.002944 0.246735 0.641644
Si Si7 0.283394 0.932680 0.623977
O O1 0.592021 0.500000 0.384604
O O2 0.306188 0.403588 0.291661
O O3 0.752674 0.398207 0.502723
O O4 0.807846 0.418908 0.295581
O O5 0.781892 0.935364 0.251679
O O6 0.917687 0.880527 0.087241
O O7 0.948879 0.000000 0.117639
O O8 0.500000 0.941714 0.000000
O O9 0.755210 0.194596 0.884490
O O10 0.987410 0.685463 0.678554
O O11 0.289354 0.786560 0.713476
O O12 0.503539 0.879848 0.665933
O O13 0.751795 0.783998 0.659429
O O14 0.000000 0.247975 0.500000
O O15 0.000000 0.918467 0.500000
O O16 0.368995 0.000000 0.606188
#
# Coordination Sequence:
#
# PCOD9141880 Si02
#       7
#     4   4   2   4   4   4   4
#     4  10  17  28  51  84 121 171 206 236 294 353
#     4  10  20  38  67  94 120 155 197 246 324 412
#     4  12  25  42  64  88 122 148 215 272 324 370
#     4  10  18  31  49  76 121 166 207 239 285 353
#     4  12  27  42  67  90 117 166 211 271 320 387
#     4  12  25  42  62  89 125 168 217 249 303 377
#     4  10  22  44  69  98 131 158 198 269 341 400
#
# _framework density 20.481857999999999
#
# number of rings (size 3 to 8) (size 9 to 14) (size 15 to 20)
#    0.000    1.231    3.077    5.308    2.154    1.846 
#    0.000    0.769    0.000   10.615    0.000    0.000 
#    0.000    0.000    0.000   80.308    0.000    0.000 
#
# Total GULP energy -144946.758001 kJ/mol
# GULP energy per Si atom -5574.875308 kJ/mol
# Density = 2.043524 g / cm^3
# Si number density = 20.481858 Si / 1000 Ang^3
#
#
#
# Elastic Constant Matrix: (Units=GPa)
#
#
# Indices 1 2 3 4 5 6 
#
# 1 142.2029 51.0629 9.4337 0.0000 -0.6913 0.0000
# 2 51.0629 115.8108 0.0022 0.0000 4.9118 0.0000
# 3 9.4337 0.0022 67.8902 0.0000 3.7857 0.0000
# 4 0.0000 0.0000 0.0000 -3.5438 0.0000 -7.4107
# 5 -0.6913 4.9118 3.7857 0.0000 28.9379 0.0000
# 6 0.0000 0.0000 0.0000 -7.4107 0.0000 41.5916
#
#
#
# Elastic Compliance Matrix: (Units=1/GPa)
#
#
# Indices 1 2 3 4 5 6 
#
# 1 0.008476 -0.003780 -0.001234 0.000000 0.001005 0.000000
# 2 -0.003780 0.010384 0.000633 0.000000 -0.001936 0.000000
# 3 -0.001234 0.000633 0.015018 0.000000 -0.002102 0.000000
# 4 0.000000 0.000000 0.000000 -0.205581 0.000000 -0.036630
# 5 0.001005 -0.001936 -0.002102 0.000000 0.035184 0.000000
# 6 0.000000 0.000000 0.000000 -0.036630 0.000000 0.017517
#
#
# Mechanical properties :
#
#
# Convention : Reuss Voigt Hill
#
# Bulk Modulus (GPa) = 39.81479 49.65571 44.73525
# Shear Modulus (GPa) = -49.08301 31.09080 -8.99610
#
# Velocity S-wave (km/s) = -4.90063 3.90034 -2.09804
# Velocity P-wave (km/s) = 3.54123 6.67682 4.00247
#
# Compressibility (1/GPa) = 0.02511629
#
# Stress axis : x y z
#
# Youngs Moduli (GPa) = 117.97651 96.30662 66.58553
#
# Poissons Ratio (x) = 0.36403 0.08215
# Poissons Ratio (y) = 0.44595 -0.04214
# Poissons Ratio (z) = 0.14556 -0.06095
#
# Static dielectric constant tensor:
#      x y z
#    x 1.874510 0.000000 0.040240 
#    y 0.000000 1.797500 0.000000 
#    z 0.040240 0.000000 1.823420 
# 
# From -- ./inp_files/39788.got.cif
#   From: 2010.05.17/outbox.cif.g08.bks.cpg/sg10_20_cif.got.tgz:39788.got - 2010.06.03 11:33:40.
