data_PCOD9141549
_publ_section_title
;
Structure prediction by ZEFSAII (Michael W. Deem and Ramdas Pophale) SiO2 
 PCOD9141549
Probable space group: P 2/M
;
_chemical_formula_sum "Si O2"
_cell_formula_units_Z 28
_cell_length_a 22.071892
_cell_length_b 7.805363
_cell_length_c 18.569699
_cell_angle_alpha 90.000000
_cell_angle_beta 152.304937
_cell_angle_gamma 90.000000
_cell_volume 1486.865383
_symmetry_space_group_name_H-M "P 2/M"
_symmetry_group_IT_number 10
_symmetry_cell_setting 'monoclinic'
loop_
_space_group_symop_operation_xyz
x,y,z
-x,y,-z
-x,-y,-z
x,-y,z
loop_
_atom_site_type_symbol
_atom_site_label
_atom_site_fract_x
_atom_site_fract_y
_atom_site_fract_z
Si Si1 0.572320 0.795509 0.258694
Si Si2 0.291572 0.196845 0.142217
Si Si3 0.650241 0.207094 0.645849
Si Si4 0.414943 0.300736 0.571413
Si Si5 0.877674 0.801576 0.329956
Si Si6 0.359596 0.299863 0.825188
Si Si7 0.271297 0.789178 0.964350
O O1 0.632819 0.745589 0.399291
O O2 0.641422 0.719844 0.261697
O O3 0.573147 0.000000 0.252893
O O4 0.419928 0.738324 0.100878
O O5 0.272073 0.271019 0.201902
O O6 0.449446 0.198247 0.297447
O O7 0.246927 0.000000 0.097775
O O8 0.241107 0.271731 0.013815
O O9 0.500000 0.263950 0.500000
O O10 0.679199 0.262475 0.594951
O O11 0.652557 0.000000 0.650404
O O12 0.449401 0.500000 0.606077
O O13 0.755657 0.794672 0.255417
O O14 0.826966 0.728913 0.200728
O O15 0.000000 0.720854 0.500000
O O16 0.911930 0.000000 0.350752
O O17 0.350128 0.500000 0.834682
O O18 0.500000 0.234427 0.000000
O O19 0.271707 0.000000 0.965641
#
# Coordination Sequence:
#
# PCOD9141549 Si02
#       7
#     4   4   4   4   4   4   4
#     4  10  18  30  48  65  87 121 160 196 234 279
#     4   8  14  24  37  53  77 115 157 191 225 274
#     4   8  13  22  34  49  75 113 154 186 221 274
#     4  10  17  23  34  56  87 115 145 187 235 280
#     4  10  20  34  52  73  97 128 166 203 240 286
#     4  11  22  34  50  73  99 124 158 202 247 292
#     4   8  14  26  44  65  87 116 155 198 237 272
#
# _framework density 18.831564
#
# number of rings (size 3 to 8) (size 9 to 14) (size 15 to 20)
#    0.000    2.714    1.429    3.857    0.000    3.429 
#    0.000    0.000    0.000    0.000    0.000    0.000 
#    0.000    1.143    0.000   13.429    0.000    5.000 
#
# Total GULP energy -155904.727233 kJ/mol
# GULP energy per Si atom -5568.025973 kJ/mol
# Density = 1.878870 g / cm^3
# Si number density = 18.831564 Si / 1000 Ang^3
#
#
#
# Elastic Constant Matrix: (Units=GPa)
#
#
# Indices 1 2 3 4 5 6 
#
# 1 86.7284 -8.9795 58.8460 0.0000 -51.3872 0.0000
# 2 -8.9795 38.2035 1.8131 0.0000 0.7195 0.0000
# 3 58.8460 1.8131 92.5207 0.0000 -39.3867 0.0000
# 4 0.0000 0.0000 0.0000 5.0667 0.0000 -3.3315
# 5 -51.3872 0.7195 -39.3867 0.0000 41.2505 0.0000
# 6 0.0000 0.0000 0.0000 -3.3315 0.0000 1.9100
#
#
#
# Elastic Compliance Matrix: (Units=1/GPa)
#
#
# Indices 1 2 3 4 5 6 
#
# 1 0.052462 0.011750 -0.009879 0.000000 0.055717 0.000000
# 2 0.011750 0.028894 -0.003408 0.000000 0.010880 0.000000
# 3 -0.009879 -0.003408 0.020125 0.000000 0.006969 0.000000
# 4 0.000000 0.000000 0.000000 -1.343561 0.000000 -2.343518
# 5 0.055717 0.010880 0.006969 0.000000 0.100114 0.000000
# 6 0.000000 0.000000 0.000000 -2.343518 0.000000 -3.564136
#
#
# Mechanical properties :
#
#
# Convention : Reuss Voigt Hill
#
# Bulk Modulus (GPa) = 10.16179 35.64575 22.90377
# Shear Modulus (GPa) = -1.07061 20.69698 9.81318
#
# Velocity S-wave (km/s) = -0.75482 3.31880 2.28524
# Velocity P-wave (km/s) = 2.15597 5.80136 4.37630
#
# Compressibility (1/GPa) = 0.09840783
#
# Stress axis : x y z
#
# Youngs Moduli (GPa) = 19.06129 34.60886 49.68909
#
# Poissons Ratio (x) = -0.40667 0.49088
# Poissons Ratio (y) = -0.22398 0.16936
# Poissons Ratio (z) = 0.18831 0.11796
#
# Static dielectric constant tensor:
#      x y z
#    x 1.681860 0.000000 -0.076530 
#    y 0.000000 1.674250 0.000000 
#    z -0.076530 0.000000 1.674650 
# 
# From -- ./inp_files/79216.got.cif
#   From: 2010.05.17/outbox.cif.g08.bks.cpg/sg10_40_cif.got.tgz:79216.got - 2010.06.03 11:33:40.
