data_PCOD9141945
_publ_section_title
;
Structure prediction by ZEFSAII (Michael W. Deem and Ramdas Pophale) SiO2 
 PCOD9141945
Probable space group: P 2/M
;
_chemical_formula_sum "Si O2"
_cell_formula_units_Z 22
_cell_length_a 9.775353
_cell_length_b 7.796663
_cell_length_c 33.870330
_cell_angle_alpha 90.000000
_cell_angle_beta 151.160847
_cell_angle_gamma 90.000000
_cell_volume 1245.159740
_symmetry_space_group_name_H-M "P 2/M"
_symmetry_group_IT_number 10
_symmetry_cell_setting 'monoclinic'
loop_
_space_group_symop_operation_xyz
x,y,z
-x,y,-z
-x,-y,-z
x,-y,z
loop_
_atom_site_type_symbol
_atom_site_label
_atom_site_fract_x
_atom_site_fract_y
_atom_site_fract_z
Si Si1 0.702049 0.500000 0.447904
Si Si2 0.903704 0.500000 0.746860
Si Si3 0.354557 0.500000 0.920569
Si Si4 0.093754 0.195271 0.738449
Si Si5 0.294968 0.190747 0.024581
Si Si6 0.504685 0.199299 0.455019
Si Si7 0.692113 0.295407 0.881352
O O1 0.431654 0.500000 0.348932
O O2 0.666630 0.333497 0.467590
O O3 0.000000 0.500000 0.500000
O O4 0.025916 0.500000 0.822624
O O5 0.036212 0.334532 0.757966
O O6 0.500000 0.500000 0.000000
O O7 0.491807 0.331270 0.936630
O O8 0.381562 0.244238 0.788226
O O9 0.820305 0.203733 0.641659
O O10 0.118464 0.000000 0.759744
O O11 0.971691 0.231502 0.929842
O O12 0.372532 0.000000 0.032513
O O13 0.297296 0.211333 0.072528
O O14 0.500000 0.246982 0.500000
O O15 0.604332 0.000000 0.476541
O O16 0.713734 0.500000 0.891073
#
# Coordination Sequence:
#
# PCOD9141945 Si02
#       7
#     2   2   2   4   4   4   4
#     4  10  21  37  59  84 110 142 190 230 273 333
#     4  10  20  36  53  74 102 138 185 226 262 312
#     4  12  24  38  51  69 104 145 185 224 262 307
#     4  10  17  29  53  81 107 135 172 219 264 318
#     4  11  20  33  52  74 102 132 169 215 264 310
#     4   9  19  35  56  84 115 144 176 223 283 335
#     4  11  17  30  52  80 106 130 161 216 268 307
#
# _framework density 17.668416000000001
#
# number of rings (size 3 to 8) (size 9 to 14) (size 15 to 20)
#    0.000    1.636    4.545    3.000    0.000    0.727 
#    0.000    1.818    0.000    0.000    0.000    0.000 
#    0.000    0.000    0.000    0.000    0.000    0.000 
#
# Total GULP energy -122541.890124 kJ/mol
# GULP energy per Si atom -5570.085915 kJ/mol
# Density = 1.762820 g / cm^3
# Si number density = 17.668416 Si / 1000 Ang^3
#
#
#
# Elastic Constant Matrix: (Units=GPa)
#
#
# Indices 1 2 3 4 5 6 
#
# 1 51.0512 34.4378 53.3723 0.0000 5.0878 0.0000
# 2 34.4378 143.0544 43.1279 0.0000 9.3532 0.0000
# 3 53.3723 43.1279 98.4443 0.0000 3.9163 0.0002
# 4 0.0000 0.0000 0.0000 31.4065 0.0000 33.0792
# 5 5.0878 9.3532 3.9163 0.0000 30.1182 0.0000
# 6 0.0000 0.0000 0.0002 33.0792 0.0000 105.1026
#
#
#
# Elastic Compliance Matrix: (Units=1/GPa)
#
#
# Indices 1 2 3 4 5 6 
#
# 1 0.047724 -0.004022 -0.023965 0.000000 -0.003697 0.000000
# 2 -0.004022 0.008521 -0.001482 0.000000 -0.001774 0.000000
# 3 -0.023965 -0.001482 0.023744 0.000000 0.001421 0.000000
# 4 0.000000 0.000000 0.000000 0.047629 0.000000 -0.014991
# 5 -0.003697 -0.001774 0.001421 0.000000 0.034193 0.000000
# 6 0.000000 0.000000 0.000000 -0.014991 0.000000 0.014233
#
#
# Mechanical properties :
#
#
# Convention : Reuss Voigt Hill
#
# Bulk Modulus (GPa) = 47.50343 61.60288 54.55315
# Shear Modulus (GPa) = 20.66117 44.09958 32.38038
#
# Velocity S-wave (km/s) = 3.42334 5.00137 4.28561
# Velocity P-wave (km/s) = 6.52457 8.26398 7.44525
#
# Compressibility (1/GPa) = 0.02105111
#
# Stress axis : x y z
#
# Youngs Moduli (GPa) = 20.95363 117.35171 42.11676
#
# Poissons Ratio (x) = 0.47201 1.00933
# Poissons Ratio (y) = 0.08428 0.06241
# Poissons Ratio (z) = 0.50215 0.17391
#
# Static dielectric constant tensor:
#      x y z
#    x 1.594640 0.000000 -0.004430 
#    y 0.000000 1.557380 0.000000 
#    z -0.004430 0.000000 1.683610 
# 
# From -- ./inp_files/94587.got.cif
#   From: 2010.05.17/outbox.cif.g08.bks.cpg/sg10_48_cif.got.tgz:94587.got - 2010.06.03 11:33:40.
