data_PCOD9141329
_publ_section_title
;
Structure prediction by ZEFSAII (Michael W. Deem and Ramdas Pophale) SiO2 
 PCOD9141329
Probable space group: P 2/M
;
_chemical_formula_sum "Si O2"
_cell_formula_units_Z 24
_cell_length_a 13.546829
_cell_length_b 22.563042
_cell_length_c 5.326740
_cell_angle_alpha 90.000000
_cell_angle_beta 101.508848
_cell_angle_gamma 90.000000
_cell_volume 1595.423028
_symmetry_space_group_name_H-M "P 2/M"
_symmetry_group_IT_number 10
_symmetry_cell_setting 'monoclinic'
loop_
_space_group_symop_operation_xyz
x,y,z
-x,y,-z
-x,-y,-z
x,-y,z
loop_
_atom_site_type_symbol
_atom_site_label
_atom_site_fract_x
_atom_site_fract_y
_atom_site_fract_z
Si Si1 0.391542 0.570111 0.209448
Si Si2 0.710969 0.070454 0.022431
Si Si3 0.379207 0.620718 0.704106
Si Si4 0.433194 0.751927 0.715404
Si Si5 0.384208 0.879073 0.530370
Si Si6 0.942402 0.072076 0.221688
O O1 0.406331 0.500000 0.240304
O O2 0.337046 0.597236 0.421806
O O3 0.502030 0.601141 0.250055
O O4 0.338252 0.587028 0.924495
O O5 0.678306 0.102757 0.748527
O O6 0.708111 0.000000 0.971261
O O7 0.643147 0.084196 0.233234
O O8 0.825090 0.088128 0.151461
O O9 0.374256 0.691066 0.732500
O O10 0.500000 0.739882 0.500000
O O11 0.372423 0.810779 0.611774
O O12 0.500000 0.763754 0.000000
O O13 0.500000 0.886396 0.500000
O O14 0.000000 0.092700 0.500000
O O15 0.945282 0.000000 0.226503
O O16 0.000000 0.091444 0.000000
#
# Coordination Sequence:
#
# PCOD9141329 Si02
#       6
#     4   4   4   4   4   4
#     4  10  16  22  33  53  74  90 117 166 234 272
#     4  11  22  36  51  69  91 112 139 180 230 276
#     4  10  15  24  35  49  66  97 125 166 215 260
#     4  11  18  31  43  53  73 102 150 186 211 244
#     4  11  23  34  47  65  86 121 156 188 215 253
#     4   9  17  31  52  74  91 107 128 161 215 282
#
# _framework density 15.043030999999999
#
# number of rings (size 3 to 8) (size 9 to 14) (size 15 to 20)
#    0.000    1.667    3.333    6.500    0.000    4.667 
#    0.000    0.000    0.000    0.000    0.000    0.000 
#    0.000    0.000    0.000    0.000    0.000    0.000 
#
# Total GULP energy -133662.745360 kJ/mol
# GULP energy per Si atom -5569.281057 kJ/mol
# Density = 1.500879 g / cm^3
# Si number density = 15.043031 Si / 1000 Ang^3
#
#
#
# Elastic Constant Matrix: (Units=GPa)
#
#
# Indices 1 2 3 4 5 6 
#
# 1 34.7005 26.5309 25.1570 0.0000 4.1340 0.0000
# 2 26.5309 89.7849 44.5785 0.0000 10.6619 0.0000
# 3 25.1570 44.5785 158.5439 0.0000 3.8133 0.0000
# 4 0.0000 0.0000 0.0000 29.0368 0.0000 -0.7049
# 5 4.1340 10.6619 3.8133 0.0000 18.1615 0.0000
# 6 0.0000 0.0000 0.0000 -0.7049 0.0000 -1.6976
#
#
#
# Elastic Compliance Matrix: (Units=1/GPa)
#
#
# Indices 1 2 3 4 5 6 
#
# 1 0.038858 -0.009469 -0.003442 0.000000 -0.002563 0.000000
# 2 -0.009469 0.016165 -0.002881 0.000000 -0.006730 0.000000
# 3 -0.003442 -0.002881 0.007643 0.000000 0.000870 0.000000
# 4 0.000000 0.000000 0.000000 0.034095 0.000000 -0.014158
# 5 -0.002563 -0.006730 0.000870 0.000000 0.059413 0.000000
# 6 0.000000 0.000000 0.000000 -0.014158 0.000000 -0.583202
#
#
# Mechanical properties :
#
#
# Convention : Reuss Voigt Hill
#
# Bulk Modulus (GPa) = 32.17218 52.84022 42.50620
# Shear Modulus (GPa) = -12.98423 21.55102 4.28340
#
# Velocity S-wave (km/s) = -2.94111 3.78911 1.68926
# Velocity P-wave (km/s) = 3.14638 7.37194 5.66768
#
# Compressibility (1/GPa) = 0.03108275
#
# Stress axis : x y z
#
# Youngs Moduli (GPa) = 25.73449 61.86070 130.84512
#
# Poissons Ratio (x) = 0.58577 0.45033
# Poissons Ratio (y) = 0.24368 0.37695
# Poissons Ratio (z) = 0.08857 0.17821
#
# Static dielectric constant tensor:
#      x y z
#    x 1.479130 0.000000 -0.013110 
#    y 0.000000 1.510310 0.000000 
#    z -0.013110 0.000000 1.622000 
# 
# From -- ./inp_files/7424.got.cif
#   From: 2010.05.17/outbox.cif.g08.bks.cpg/sg10_4_cif.got.tgz:7424.got - 2010.06.03 11:33:40.
