data_PCOD9141045
_publ_section_title
;
Structure prediction by ZEFSAII (Michael W. Deem and Ramdas Pophale) SiO2 
 PCOD9141045
Probable space group: C C
;
_chemical_formula_sum "Si O2"
_cell_formula_units_Z 20
_cell_length_a 4.843805
_cell_length_b 23.419969
_cell_length_c 7.219205
_cell_angle_alpha 90.000000
_cell_angle_beta 114.209002
_cell_angle_gamma 90.000000
_cell_volume 746.936536
_symmetry_space_group_name_H-M "C C"
_symmetry_group_IT_number 9
_symmetry_cell_setting 'monoclinic'
loop_
_space_group_symop_operation_xyz
x,y,z
x,-y,1/2+z
1/2+x,1/2+y,z
1/2+x,1/2-y,1/2+z
loop_
_atom_site_type_symbol
_atom_site_label
_atom_site_fract_x
_atom_site_fract_y
_atom_site_fract_z
Si Si1 0.904060 0.446275 0.853720
Si Si2 0.942893 0.119920 0.616014
Si Si3 0.768815 0.700938 0.986057
Si Si4 0.983059 0.024538 0.928926
Si Si5 0.921592 0.189947 0.270707
O O1 0.718673 0.473551 0.968231
O O2 0.637793 0.437504 0.630219
O O3 0.158009 0.494961 0.868255
O O4 0.100245 0.392136 0.960337
O O5 0.126685 0.208282 0.152168
O O6 0.035039 0.165870 0.795393
O O7 0.999853 0.061724 0.747907
O O8 0.841551 0.757443 0.886233
O O9 0.562636 0.644632 0.453578
O O10 0.096774 0.670491 0.097114
#
# Coordination Sequence:
#
# PCOD9141045 Si02
#       5
#     4   4   4   4   4
#     4  12  25  48  74 110 153 205 266 322 384 470
#     4  12  28  48  84 108 164 212 260 328 404 458
#     4  12  28  51  81 118 159 206 265 329 399 478
#     4  12  25  48  74 110 153 205 266 322 384 470
#     4  12  28  51  81 118 159 206 265 329 399 478
#
# _framework density 26.776039000000001
#
# number of rings (size 3 to 8) (size 9 to 14) (size 15 to 20)
#    0.000    0.000    6.000    2.400    0.000    9.600 
#    0.000    0.000    0.000    0.000    0.000    0.000 
#    0.000    0.000    0.000    0.000    0.000    0.000 
#
# Total GULP energy -55916.444300 kJ/mol
# GULP energy per Si atom -5591.644430 kJ/mol
# Density = 2.671510 g / cm^3
# Si number density = 26.776039 Si / 1000 Ang^3
#
#
#
# Elastic Constant Matrix: (Units=GPa)
#
#
# Indices 1 2 3 4 5 6 
#
# 1 184.6335 30.6285 74.0151 0.0000 -17.2252 0.0000
# 2 30.6285 94.3156 37.9711 0.0000 3.5836 0.0000
# 3 74.0151 37.9711 204.8705 0.0000 -15.9530 0.0000
# 4 0.0000 0.0000 0.0000 61.3094 0.0000 0.5575
# 5 -17.2252 3.5836 -15.9530 0.0000 42.5432 0.0000
# 6 0.0000 0.0000 0.0000 0.5575 0.0000 19.5158
#
#
#
# Elastic Compliance Matrix: (Units=1/GPa)
#
#
# Indices 1 2 3 4 5 6 
#
# 1 0.006638 -0.001441 -0.001970 0.000000 0.002070 0.000000
# 2 -0.001441 0.011908 -0.001864 0.000000 -0.002286 0.000000
# 3 -0.001970 -0.001864 0.006066 0.000000 0.001634 0.000000
# 4 0.000000 0.000000 0.000000 0.016315 0.000000 -0.000466
# 5 0.002070 -0.002286 0.001634 0.000000 0.025149 0.000000
# 6 0.000000 0.000000 0.000000 -0.000466 0.000000 0.051254
#
#
# Mechanical properties :
#
#
# Convention : Reuss Voigt Hill
#
# Bulk Modulus (GPa) = 71.11960 85.44991 78.28476
# Shear Modulus (GPa) = 37.71661 47.42068 42.56865
#
# Velocity S-wave (km/s) = 3.75720 4.21290 3.99156
# Velocity P-wave (km/s) = 6.74097 7.45968 7.10941
#
# Compressibility (1/GPa) = 0.01406082
#
# Stress axis : x y z
#
# Youngs Moduli (GPa) = 150.64689 83.97581 164.86510
#
# Poissons Ratio (x) = 0.12103 0.32475
# Poissons Ratio (y) = 0.21713 0.30737
# Poissons Ratio (z) = 0.29675 0.15656
#
# Static dielectric constant tensor:
#      x y z
#    x 2.094010 0.000000 -0.015380 
#    y 0.000000 2.247320 0.000000 
#    z -0.015380 0.000000 2.148760 
# 
# From -- ./inp_files/3922.got.cif
#   From: 2010.05.17/outbox.cif.g08.bks.cpg/sg9_2_cif.got.tgz:3922.got - 2010.06.03 20:04:27.
