data_PCOD9141324
_publ_section_title
;
Structure prediction by ZEFSAII (Michael W. Deem and Ramdas Pophale) SiO2 
 PCOD9141324
Probable space group: P 2/M
;
_chemical_formula_sum "Si O2"
_cell_formula_units_Z 28
_cell_length_a 8.377665
_cell_length_b 11.878283
_cell_length_c 15.744589
_cell_angle_alpha 90.000000
_cell_angle_beta 119.589478
_cell_angle_gamma 90.000000
_cell_volume 1362.449262
_symmetry_space_group_name_H-M "P 2/M"
_symmetry_group_IT_number 10
_symmetry_cell_setting 'monoclinic'
loop_
_space_group_symop_operation_xyz
x,y,z
-x,y,-z
-x,-y,-z
x,-y,z
loop_
_atom_site_type_symbol
_atom_site_label
_atom_site_fract_x
_atom_site_fract_y
_atom_site_fract_z
Si Si1 0.758067 0.867095 0.741693
Si Si2 0.394682 0.632168 0.063506
Si Si3 0.599847 0.863684 0.438878
Si Si4 0.030486 0.132598 0.386612
Si Si5 0.286841 0.235671 0.782572
Si Si6 0.910808 0.239497 0.100934
Si Si7 0.554955 0.000000 0.115363
Si Si8 0.176931 0.000000 0.990405
O O1 0.545247 0.833410 0.672662
O O2 0.864149 0.862069 0.677722
O O3 0.873276 0.786233 0.834097
O O4 0.770738 0.000000 0.765509
O O5 0.380146 0.500000 0.074800
O O6 0.528674 0.690786 0.167054
O O7 0.500000 0.650778 0.000000
O O8 0.194021 0.686616 0.996529
O O9 0.500000 0.827023 0.500000
O O10 0.813067 0.833110 0.504806
O O11 0.600244 0.000000 0.439282
O O12 0.852623 0.211360 0.330625
O O13 0.981142 0.000000 0.386713
O O14 0.160938 0.282683 0.826871
O O15 0.348524 0.110867 0.826948
O O16 0.831692 0.113797 0.065373
O O17 0.500000 0.000000 0.000000
O O18 0.350290 0.000000 0.096746
O O19 0.000000 0.000000 0.000000
#
# Coordination Sequence:
#
# PCOD9141324 Si02
#       8
#     4   4   4   4   4   4   2   2
#     4   8  12  17  31  48  71 101 129 151 186 235
#     4   9  17  26  37  56  78 100 135 177 205 226
#     4   7  10  16  23  42  75 102 117 148 189 226
#     4   8  12  16  27  51  78  97 120 155 194 230
#     4  10  15  22  41  59  75 102 135 163 195 240
#     4  10  16  26  39  56  77 105 133 163 197 235
#     4  12  16  26  42  59  77 105 135 162 198 239
#     4  12  22  28  38  61  89 107 129 166 202 239
#
# _framework density 20.551224000000001
#
# number of rings (size 3 to 8) (size 9 to 14) (size 15 to 20)
#    0.000    2.857    4.286    2.143    0.000    0.000 
#    0.000    0.000    0.000    0.429    0.000    1.000 
#    0.000   10.286    0.000    0.000    0.000    1.429 
#
# Total GULP energy -156004.209354 kJ/mol
# GULP energy per Si atom -5571.578905 kJ/mol
# Density = 2.050445 g / cm^3
# Si number density = 20.551224 Si / 1000 Ang^3
#
#
#
# Elastic Constant Matrix: (Units=GPa)
#
#
# Indices 1 2 3 4 5 6 
#
# 1 52.6841 11.8395 54.7391 0.0000 14.3802 0.0000
# 2 11.8395 66.0572 58.0189 0.0000 17.9217 0.0000
# 3 54.7391 58.0189 190.2905 0.0000 55.3610 0.0000
# 4 0.0000 0.0000 0.0000 6.7036 0.0000 4.8419
# 5 14.3802 17.9217 55.3610 0.0000 51.4676 0.0000
# 6 0.0000 0.0000 0.0000 4.8419 0.0000 -3.2648
#
#
#
# Elastic Compliance Matrix: (Units=1/GPa)
#
#
# Indices 1 2 3 4 5 6 
#
# 1 0.027478 0.002731 -0.009063 0.000000 0.001120 0.000000
# 2 0.002731 0.020960 -0.007031 0.000000 -0.000498 0.000000
# 3 -0.009063 -0.007031 0.012454 0.000000 -0.008416 0.000000
# 4 0.000000 0.000000 0.000000 0.072023 0.000000 0.106815
# 5 0.001120 -0.000498 -0.008416 0.000000 0.028343 0.000000
# 6 0.000000 0.000000 0.000000 0.106815 0.000000 -0.147885
#
#
# Mechanical properties :
#
#
# Convention : Reuss Voigt Hill
#
# Bulk Modulus (GPa) = 29.26843 62.02520 45.64682
# Shear Modulus (GPa) = 97.11013 23.27690 60.19351
#
# Velocity S-wave (km/s) = 6.88152 3.36911 5.41785
# Velocity P-wave (km/s) = 8.79847 6.73653 7.83562
#
# Compressibility (1/GPa) = 0.03416650
#
# Stress axis : x y z
#
# Youngs Moduli (GPa) = 36.39274 47.71057 80.29265
#
# Poissons Ratio (x) = -0.13032 0.72769
# Poissons Ratio (y) = -0.09940 0.56456
# Poissons Ratio (z) = 0.32983 0.33546
#
# Static dielectric constant tensor:
#      x y z
#    x 1.874290 0.000000 0.015490 
#    y 0.000000 1.672320 0.000000 
#    z 0.015490 0.000000 1.814010 
# 
# From -- ./inp_files/82525.got.cif
#   From: 2010.05.17/outbox.cif.g08.bks.cpg/sg10_42_cif.got.tgz:82525.got - 2010.06.03 11:33:40.
