data_PCOD9141183
_publ_section_title
;
Structure prediction by ZEFSAII (Michael W. Deem and Ramdas Pophale) SiO2 
 PCOD9141183
Probable space group: C C
;
_chemical_formula_sum "Si O2"
_cell_formula_units_Z 16
_cell_length_a 10.158111
_cell_length_b 10.251178
_cell_length_c 6.094218
_cell_angle_alpha 90.000000
_cell_angle_beta 62.213551
_cell_angle_gamma 90.000000
_cell_volume 561.431077
_symmetry_space_group_name_H-M "C C"
_symmetry_group_IT_number 9
_symmetry_cell_setting 'monoclinic'
loop_
_space_group_symop_operation_xyz
x,y,z
x,-y,1/2+z
1/2+x,1/2+y,z
1/2+x,1/2-y,1/2+z
loop_
_atom_site_type_symbol
_atom_site_label
_atom_site_fract_x
_atom_site_fract_y
_atom_site_fract_z
Si Si1 0.501090 0.175650 0.748310
Si Si2 0.748663 0.842309 0.330304
Si Si3 0.521342 0.474959 0.757573
Si Si4 0.435355 0.887559 0.822183
O O1 0.675802 0.143527 0.645842
O O2 0.453205 0.182367 0.537908
O O3 0.418229 0.041097 0.884120
O O4 0.593655 0.135833 0.081415
O O5 0.805953 0.695245 0.311854
O O6 0.875095 0.937237 0.323017
O O7 0.986774 0.823726 0.840296
O O8 0.586603 0.474451 0.448411
#
# Coordination Sequence:
#
# PCOD9141183 Si02
#       4
#     4   4   4   4
#     4  12  28  53  84 121 173 221 296 354 434 517
#     4  12  28  55  81 122 171 232 282 362 432 516
#     4  12  28  53  90 122 170 229 286 354 433 509
#     4  12  28  53  83 121 170 226 288 356 437 512
#
# _framework density 28.498602000000002
#
# number of rings (size 3 to 8) (size 9 to 14) (size 15 to 20)
#    0.000    0.000    5.000    3.000    3.500    2.000 
#    9.000    0.000    0.000    0.000    0.000    0.000 
#    0.000    0.000    0.000    0.000    0.000    0.000 
#
# Total GULP energy -44661.878472 kJ/mol
# GULP energy per Si atom -5582.734809 kJ/mol
# Density = 2.843374 g / cm^3
# Si number density = 28.498602 Si / 1000 Ang^3
#
#
#
# Elastic Constant Matrix: (Units=GPa)
#
#
# Indices 1 2 3 4 5 6 
#
# 1 128.7386 69.7404 12.8547 0.0000 14.2287 0.0000
# 2 69.7404 264.0889 44.4026 0.0000 14.0261 0.0000
# 3 12.8547 44.4026 102.8883 0.0000 18.3452 0.0000
# 4 0.0000 0.0000 0.0000 58.6094 0.0000 7.9484
# 5 14.2287 14.0261 18.3452 0.0000 32.5679 0.0000
# 6 0.0000 0.0000 0.0000 7.9484 0.0000 68.1959
#
#
#
# Elastic Compliance Matrix: (Units=1/GPa)
#
#
# Indices 1 2 3 4 5 6 
#
# 1 0.009377 -0.002375 0.000446 0.000000 -0.003325 0.000000
# 2 -0.002375 0.004706 -0.001732 0.000000 -0.000014 0.000000
# 3 0.000446 -0.001732 0.011464 0.000000 -0.005907 0.000000
# 4 0.000000 0.000000 0.000000 0.017336 0.000000 -0.002021
# 5 -0.003325 -0.000014 -0.005907 0.000000 0.035491 0.000000
# 6 0.000000 0.000000 0.000000 -0.002021 0.000000 0.014899
#
#
# Mechanical properties :
#
#
# Convention : Reuss Voigt Hill
#
# Bulk Modulus (GPa) = 54.86536 83.30127 69.08331
# Shear Modulus (GPa) = 46.87410 56.45584 51.66497
#
# Velocity S-wave (km/s) = 4.06000 4.45568 4.26243
# Velocity P-wave (km/s) = 6.42432 7.46754 6.96549
#
# Compressibility (1/GPa) = 0.01822644
#
# Stress axis : x y z
#
# Youngs Moduli (GPa) = 106.64289 212.51347 87.22952
#
# Poissons Ratio (x) = 0.50466 -0.03892
# Poissons Ratio (y) = 0.25324 0.15105
# Poissons Ratio (z) = -0.04758 0.36799
#
# Static dielectric constant tensor:
#      x y z
#    x 2.137200 0.000000 -0.041180 
#    y 0.000000 2.166380 0.000000 
#    z -0.041180 0.000000 2.503250 
# 
# From -- ./inp_files/1470.got.cif
#   From: 2010.05.17/outbox.cif.g08.bks.cpg/sg9_1_cif.got.tgz:1470.got - 2010.06.03 20:04:27.
