data_PCOD9141707
_publ_section_title
;
Structure prediction by ZEFSAII (Michael W. Deem and Ramdas Pophale) SiO2 
 PCOD9141707
Probable space group: P 2/M
;
_chemical_formula_sum "Si O2"
_cell_formula_units_Z 24
_cell_length_a 9.256982
_cell_length_b 8.413192
_cell_length_c 21.501686
_cell_angle_alpha 90.000000
_cell_angle_beta 130.685177
_cell_angle_gamma 90.000000
_cell_volume 1269.829809
_symmetry_space_group_name_H-M "P 2/M"
_symmetry_group_IT_number 10
_symmetry_cell_setting 'monoclinic'
loop_
_space_group_symop_operation_xyz
x,y,z
-x,y,-z
-x,-y,-z
x,-y,z
loop_
_atom_site_type_symbol
_atom_site_label
_atom_site_fract_x
_atom_site_fract_y
_atom_site_fract_z
Si Si1 0.719754 0.185931 0.412268
Si Si2 0.958898 0.810032 0.918047
Si Si3 0.712505 0.307371 0.080285
Si Si4 0.054525 0.312916 0.419185
Si Si5 0.778021 0.306319 0.239930
Si Si6 0.554264 0.689787 0.757977
O O1 0.872676 0.283330 0.413589
O O2 0.517714 0.233962 0.326802
O O3 0.770243 0.228080 0.497452
O O4 0.754296 0.000000 0.412056
O O5 0.764228 0.737712 0.837064
O O6 0.133226 0.760433 0.923481
O O7 0.939703 0.000000 0.913443
O O8 0.000000 0.754799 0.000000
O O9 0.722608 0.500000 0.081647
O O10 0.755709 0.254444 0.162913
O O11 0.500000 0.261400 0.000000
O O12 0.094191 0.500000 0.427244
O O13 0.971353 0.255819 0.329730
O O14 0.779157 0.500000 0.240732
O O15 0.596142 0.257542 0.230638
O O16 0.541107 0.500000 0.748595
#
# Coordination Sequence:
#
# PCOD9141707 Si02
#       6
#     4   4   4   4   4   4
#     4  10  17  26  43  72 107 138 172 216 264 307
#     4  11  24  39  54  77 109 140 171 211 260 312
#     4  10  20  36  58  81 104 134 175 218 259 308
#     4   9  15  26  44  69 103 141 180 217 255 303
#     4   8  16  30  51  79 106 133 173 223 263 300
#     4  10  19  34  56  79 104 138 178 217 260 309
#
# _framework density 18.900171
#
# number of rings (size 3 to 8) (size 9 to 14) (size 15 to 20)
#    0.000    2.333    0.000    6.000    0.000    3.000 
#    0.000    5.000    0.000    1.000    0.000    7.000 
#    0.000    0.000    0.000    0.000    0.000    0.000 
#
# Total GULP energy -133856.514537 kJ/mol
# GULP energy per Si atom -5577.354772 kJ/mol
# Density = 1.885715 g / cm^3
# Si number density = 18.900171 Si / 1000 Ang^3
#
#
#
# Elastic Constant Matrix: (Units=GPa)
#
#
# Indices 1 2 3 4 5 6 
#
# 1 66.5448 12.1946 61.1184 0.0000 -1.7530 0.0000
# 2 12.1946 30.2007 27.9880 0.0000 1.8922 0.0000
# 3 61.1184 27.9880 206.4162 0.0000 -3.0320 0.0000
# 4 0.0000 0.0000 0.0000 35.8288 0.0000 23.6593
# 5 -1.7530 1.8922 -3.0320 0.0000 25.1579 0.0000
# 6 0.0000 0.0000 0.0000 23.6593 0.0000 44.3832
#
#
#
# Elastic Compliance Matrix: (Units=1/GPa)
#
#
# Indices 1 2 3 4 5 6 
#
# 1 0.020915 -0.003183 -0.005747 0.000000 0.001004 0.000000
# 2 -0.003183 0.038660 -0.004353 0.000000 -0.003654 0.000000
# 3 -0.005747 -0.004353 0.007148 0.000000 0.000788 0.000000
# 4 0.000000 0.000000 0.000000 0.043072 0.000000 -0.022960
# 5 0.001004 -0.003654 0.000788 0.000000 0.040189 0.000000
# 6 0.000000 0.000000 0.000000 -0.022960 0.000000 0.034771
#
#
# Mechanical properties :
#
#
# Convention : Reuss Voigt Hill
#
# Bulk Modulus (GPa) = 24.90142 56.19598 40.54870
# Shear Modulus (GPa) = 22.25132 34.53135 28.39134
#
# Velocity S-wave (km/s) = 3.43491 4.27903 3.87999
# Velocity P-wave (km/s) = 5.37916 7.36281 6.44773
#
# Compressibility (1/GPa) = 0.04015835
#
# Stress axis : x y z
#
# Youngs Moduli (GPa) = 47.81241 25.86640 139.90066
#
# Poissons Ratio (x) = 0.08232 0.80394
# Poissons Ratio (y) = 0.15217 0.60902
# Poissons Ratio (z) = 0.27476 0.11260
#
# Static dielectric constant tensor:
#      x y z
#    x 1.624890 0.000000 -0.012980 
#    y 0.000000 1.638780 0.000000 
#    z -0.012980 0.000000 1.707690 
# 
# From -- ./inp_files/81788.got.cif
#   From: 2010.05.17/outbox.cif.g08.bks.cpg/sg10_41_cif.got.tgz:81788.got - 2010.06.03 11:33:40.
