data_PCOD9141308
_publ_section_title
;
Structure prediction by ZEFSAII (Michael W. Deem and Ramdas Pophale) SiO2 
 PCOD9141308
Probable space group: P 2/M
;
_chemical_formula_sum "Si O2"
_cell_formula_units_Z 28
_cell_length_a 10.651059
_cell_length_b 16.756242
_cell_length_c 19.930993
_cell_angle_alpha 90.000000
_cell_angle_beta 21.530764
_cell_angle_gamma 90.000000
_cell_volume 1305.465196
_symmetry_space_group_name_H-M "P 2/M"
_symmetry_group_IT_number 10
_symmetry_cell_setting 'monoclinic'
loop_
_space_group_symop_operation_xyz
x,y,z
-x,y,-z
-x,-y,-z
x,-y,z
loop_
_atom_site_type_symbol
_atom_site_label
_atom_site_fract_x
_atom_site_fract_y
_atom_site_fract_z
Si Si1 0.201032 0.084347 0.092145
Si Si2 0.264503 0.091499 0.289157
Si Si3 0.909609 0.744944 0.817654
Si Si4 0.620115 0.786599 0.207378
Si Si5 0.306618 0.413257 0.023391
Si Si6 0.807305 0.225884 0.462012
Si Si7 0.741761 0.645018 0.682986
O O1 0.012917 0.167357 0.193705
O O2 0.007884 0.000000 0.193766
O O3 0.500000 0.082095 0.000000
O O4 0.395143 0.087716 0.925162
O O5 0.367167 0.146154 0.301669
O O6 0.996093 0.140751 0.377009
O O7 0.162720 0.000000 0.352896
O O8 0.922188 0.666583 0.857548
O O9 0.147841 0.740055 0.634140
O O10 0.500000 0.748602 0.000000
O O11 0.544085 0.780355 0.323690
O O12 0.537187 0.700091 0.216223
O O13 0.000000 0.809450 0.000000
O O14 0.133674 0.500000 0.102577
O O15 0.500000 0.415053 0.000000
O O16 0.562084 0.402838 0.832812
O O17 0.025464 0.288212 0.397406
O O18 0.000000 0.605155 0.500000
#
# Coordination Sequence:
#
# PCOD9141308 Si02
#       7
#     4   4   4   4   4   4   4
#     4   9  15  24  45  76 100 123 161 209 259 298
#     4  10  18  30  50  75 100 132 173 217 263 314
#     4  10  14  26  48  74 106 132 155 209 261 308
#     4  10  22  35  48  68 101 140 177 216 261 309
#     4  10  18  28  49  84 116 135 157 208 284 329
#     4  10  17  30  50  75  96 129 173 214 256 309
#     4   9  17  32  53  76 100 131 174 217 249 304
#
# _framework density 21.448293
#
# number of rings (size 3 to 8) (size 9 to 14) (size 15 to 20)
#    0.000    2.286    5.714    2.143    0.000    1.714 
#    0.000    0.000    0.000    3.857    0.000    3.000 
#    0.000    0.000    0.000    0.000    0.000    0.000 
#
# Total GULP energy -155986.630990 kJ/mol
# GULP energy per Si atom -5570.951107 kJ/mol
# Density = 2.139948 g / cm^3
# Si number density = 21.448293 Si / 1000 Ang^3
#
#
#
# Elastic Constant Matrix: (Units=GPa)
#
#
# Indices 1 2 3 4 5 6 
#
# 1 60.7257 22.5751 39.4671 0.0000 17.6105 0.0000
# 2 22.5751 155.9928 32.9836 0.0000 18.6400 0.0000
# 3 39.4671 32.9836 108.0795 0.0000 38.3125 0.0000
# 4 0.0000 0.0000 0.0000 1.6335 0.0000 -5.3568
# 5 17.6105 18.6400 38.3125 0.0000 43.7660 0.0000
# 6 0.0000 0.0000 0.0000 -5.3568 0.0000 -3.3878
#
#
#
# Elastic Compliance Matrix: (Units=1/GPa)
#
#
# Indices 1 2 3 4 5 6 
#
# 1 0.022110 -0.001486 -0.006802 0.000000 -0.002310 0.000000
# 2 -0.001486 0.007028 -0.001092 0.000000 -0.001440 0.000000
# 3 -0.006802 -0.001092 0.015854 0.000000 -0.010677 0.000000
# 4 0.000000 0.000000 0.000000 0.098974 0.000000 -0.156499
# 5 -0.002310 -0.001440 -0.010677 0.000000 0.033738 0.000000
# 6 0.000000 0.000000 0.000000 -0.156499 0.000000 -0.047722
#
#
# Mechanical properties :
#
#
# Convention : Reuss Voigt Hill
#
# Bulk Modulus (GPa) = 38.11854 57.20552 47.66203
# Shear Modulus (GPa) = 31.74888 23.72048 27.73468
#
# Velocity S-wave (km/s) = 3.85158 3.32917 3.59986
# Velocity P-wave (km/s) = 6.13110 6.44260 6.28878
#
# Compressibility (1/GPa) = 0.02623395
#
# Stress axis : x y z
#
# Youngs Moduli (GPa) = 45.22791 142.27797 63.07451
#
# Poissons Ratio (x) = 0.21137 0.42902
# Poissons Ratio (y) = 0.06719 0.06889
# Poissons Ratio (z) = 0.30763 0.15539
#
# Static dielectric constant tensor:
#      x y z
#    x 1.857490 0.000000 0.034930 
#    y 0.000000 1.796690 0.000000 
#    z 0.034930 0.000000 1.801130 
# 
# From -- ./inp_files/56108.got.cif
#   From: 2010.05.17/outbox.cif.g08.bks.cpg/sg10_29_cif.got.tgz:56108.got - 2010.06.03 11:33:40.
