data_PCOD9141785
_publ_section_title
;
Structure prediction by ZEFSAII (Michael W. Deem and Ramdas Pophale) SiO2 
 PCOD9141785
Probable space group: P 2/M
;
_chemical_formula_sum "Si O2"
_cell_formula_units_Z 28
_cell_length_a 15.121262
_cell_length_b 7.898275
_cell_length_c 14.192642
_cell_angle_alpha 90.000000
_cell_angle_beta 104.970746
_cell_angle_gamma 90.000000
_cell_volume 1637.520215
_symmetry_space_group_name_H-M "P 2/M"
_symmetry_group_IT_number 10
_symmetry_cell_setting 'monoclinic'
loop_
_space_group_symop_operation_xyz
x,y,z
-x,y,-z
-x,-y,-z
x,-y,z
loop_
_atom_site_type_symbol
_atom_site_label
_atom_site_fract_x
_atom_site_fract_y
_atom_site_fract_z
Si Si1 0.389064 0.198515 0.090308
Si Si2 0.097923 0.706188 0.914364
Si Si3 0.422492 0.203994 0.770390
Si Si4 0.284318 0.700429 0.878410
Si Si5 0.893651 0.292895 0.864415
Si Si6 0.703989 0.694841 0.749955
Si Si7 0.482495 0.800129 0.391635
O O1 0.493705 0.252375 0.136634
O O2 0.328015 0.296031 0.149726
O O3 0.383788 0.000000 0.114159
O O4 0.350534 0.221784 0.975979
O O5 0.096356 0.500000 0.913313
O O6 0.181525 0.762804 0.871849
O O7 0.994963 0.760826 0.860438
O O8 0.115770 0.756991 0.028066
O O9 0.328090 0.264439 0.789135
O O10 0.454427 0.267948 0.676445
O O11 0.419230 0.000000 0.766844
O O12 0.284507 0.500000 0.894119
O O13 0.890656 0.500000 0.862378
O O14 0.806794 0.233140 0.780301
O O15 0.706909 0.500000 0.720384
O O16 0.622878 0.780774 0.669328
O O17 0.500000 0.726824 0.500000
O O18 0.502899 0.000000 0.401766
#
# Coordination Sequence:
#
# PCOD9141785 Si02
#       7
#     4   4   4   4   4   4   4
#     4  10  19  30  42  58  88 127 157 179 211 262
#     4   8  14  24  39  60  88 122 154 180 211 256
#     4   9  19  32  44  60  84 116 148 177 217 269
#     4  11  19  27  42  65  89 117 153 188 218 251
#     4   8  13  24  41  61  88 120 151 181 216 258
#     4  10  17  27  47  72  92 113 147 190 228 258
#     4   9  19  36  53  67  87 117 147 176 221 280
#
# _framework density 17.099024
#
# number of rings (size 3 to 8) (size 9 to 14) (size 15 to 20)
#    0.000    2.714    1.429    3.429    0.000    4.857 
#    0.000    0.000    0.000    4.286    0.000    1.000 
#    0.000    8.000    0.000    0.000    0.000    0.000 
#
# Total GULP energy -155989.021816 kJ/mol
# GULP energy per Si atom -5571.036493 kJ/mol
# Density = 1.706011 g / cm^3
# Si number density = 17.099024 Si / 1000 Ang^3
#
#
#
# Elastic Constant Matrix: (Units=GPa)
#
#
# Indices 1 2 3 4 5 6 
#
# 1 153.0422 2.0157 58.4735 0.0000 -12.2978 0.0000
# 2 2.0157 18.2237 -1.6587 0.0000 -4.0903 0.0000
# 3 58.4735 -1.6587 78.9377 0.0000 -2.6397 0.0000
# 4 0.0000 0.0000 0.0000 10.9228 0.0000 -1.0390
# 5 -12.2978 -4.0903 -2.6397 0.0000 10.9329 0.0000
# 6 0.0000 0.0000 0.0000 -1.0390 0.0000 28.3932
#
#
#
# Elastic Compliance Matrix: (Units=1/GPa)
#
#
# Indices 1 2 3 4 5 6 
#
# 1 0.010017 0.000428 -0.007086 0.000000 0.009716 0.000000
# 2 0.000428 0.060245 0.001733 0.000000 0.023439 0.000000
# 3 -0.007086 0.001733 0.017853 0.000000 -0.003012 0.000000
# 4 0.000000 0.000000 0.000000 0.091871 0.000000 0.003362
# 5 0.009716 0.023439 -0.003012 0.000000 0.110438 0.000000
# 6 0.000000 0.000000 0.000000 0.003362 0.000000 0.035343
#
#
# Mechanical properties :
#
#
# Convention : Reuss Voigt Hill
#
# Bulk Modulus (GPa) = 12.77730 40.87383 26.82556
# Shear Modulus (GPa) = 13.82343 22.80801 18.31572
#
# Velocity S-wave (km/s) = 2.84638 3.65619 3.27640
# Velocity P-wave (km/s) = 4.27683 6.46372 5.48047
#
# Compressibility (1/GPa) = 0.07826381
#
# Stress axis : x y z
#
# Youngs Moduli (GPa) = 99.83401 16.59891 56.01347
#
# Poissons Ratio (x) = -0.00710 0.39691
# Poissons Ratio (y) = -0.04273 -0.09705
# Poissons Ratio (z) = 0.70742 -0.02876
#
# Static dielectric constant tensor:
#      x y z
#    x 1.624230 0.000000 -0.001460 
#    y 0.000000 1.625060 0.000000 
#    z -0.001460 0.000000 1.558090 
# 
# From -- ./inp_files/65729.got.cif
#   From: 2010.05.17/outbox.cif.g08.bks.cpg/sg10_33_cif.got.tgz:65729.got - 2010.06.03 11:33:40.
