data_PCOD9141060
_publ_section_title
;
Structure prediction by ZEFSAII (Michael W. Deem and Ramdas Pophale) SiO2 
 PCOD9141060
Probable space group: C C
;
_chemical_formula_sum "Si O2"
_cell_formula_units_Z 32
_cell_length_a 14.886607
_cell_length_b 11.456441
_cell_length_c 8.156456
_cell_angle_alpha 90.000000
_cell_angle_beta 74.184169
_cell_angle_gamma 90.000000
_cell_volume 1338.401591
_symmetry_space_group_name_H-M "C C"
_symmetry_group_IT_number 9
_symmetry_cell_setting 'monoclinic'
loop_
_space_group_symop_operation_xyz
x,y,z
x,-y,1/2+z
1/2+x,1/2+y,z
1/2+x,1/2-y,1/2+z
loop_
_atom_site_type_symbol
_atom_site_label
_atom_site_fract_x
_atom_site_fract_y
_atom_site_fract_z
Si Si1 0.250000 0.671120 0.055620
Si Si2 0.416281 0.126181 0.987297
Si Si3 0.594499 0.741261 0.843781
Si Si4 0.902736 0.641963 0.388867
Si Si5 0.572601 0.314429 0.829662
Si Si6 0.815508 0.966445 0.228881
Si Si7 0.739606 0.766110 0.058720
Si Si8 0.531055 0.538896 0.676252
O O1 0.145838 0.698509 0.163604
O O2 0.299288 0.596898 0.176491
O O3 0.310488 0.787143 0.989799
O O4 0.249835 0.583251 0.902922
O O5 0.409794 0.143359 0.187344
O O6 0.319550 0.177299 0.965696
O O7 0.503086 0.203710 0.878430
O O8 0.414984 0.990288 0.943535
O O9 0.491334 0.789160 0.915064
O O10 0.584110 0.607254 0.794884
O O11 0.661526 0.773974 0.959064
O O12 0.679032 0.278098 0.744384
O O13 0.548502 0.402117 0.691404
O O14 0.559149 0.394052 0.997121
O O15 0.794210 0.881767 0.085905
O O16 0.919656 0.946157 0.241716
#
# Coordination Sequence:
#
# PCOD9141060 Si02
#       8
#     4   4   4   4   4   4   4   4
#     4  12  27  48  82 111 158 196 265 318 385 456
#     4  12  30  53  77 112 160 205 254 318 394 466
#     4  12  28  48  77 116 152 204 258 312 391 453
#     4  12  30  53  77 112 160 205 254 318 394 466
#     4  12  27  48  82 111 158 196 265 318 385 456
#     4  12  25  49  78 111 153 201 253 321 382 453
#     4  12  28  48  77 116 152 204 258 312 391 453
#     4  12  25  49  78 111 153 201 253 321 382 453
#
# _framework density 23.909116000000001
#
# number of rings (size 3 to 8) (size 9 to 14) (size 15 to 20)
#    0.000    0.000    5.000    3.000   10.500    0.000 
#    0.000    0.000    0.000    0.000    0.000    0.000 
#    0.000    0.000    0.000    0.000    0.000    0.000 
#
# Total GULP energy -89619.336412 kJ/mol
# GULP energy per Si atom -5601.208526 kJ/mol
# Density = 2.385470 g / cm^3
# Si number density = 23.909116 Si / 1000 Ang^3
#
#
#
# Elastic Constant Matrix: (Units=GPa)
#
#
# Indices 1 2 3 4 5 6 
#
# 1 82.1987 6.7794 -1.6089 0.0000 0.1750 0.0000
# 2 6.7794 138.1382 22.3776 0.0000 -12.5124 0.0000
# 3 -1.6089 22.3776 56.5734 0.0000 2.4369 0.0000
# 4 0.0000 0.0000 0.0000 41.4285 0.0000 10.2087
# 5 0.1750 -12.5124 2.4369 0.0000 40.6163 0.0000
# 6 0.0000 0.0000 0.0000 10.2087 0.0000 38.5411
#
#
#
# Elastic Compliance Matrix: (Units=1/GPa)
#
#
# Indices 1 2 3 4 5 6 
#
# 1 0.012240 -0.000735 0.000653 0.000000 -0.000318 0.000000
# 2 -0.000735 0.008057 -0.003323 0.000000 0.002685 0.000000
# 3 0.000653 -0.003323 0.019103 0.000000 -0.002173 0.000000
# 4 0.000000 0.000000 0.000000 0.025823 0.000000 -0.006840
# 5 -0.000318 0.002685 -0.002173 0.000000 0.025579 0.000000
# 6 0.000000 0.000000 0.000000 -0.006840 0.000000 0.027758
#
#
# Mechanical properties :
#
#
# Convention : Reuss Voigt Hill
#
# Bulk Modulus (GPa) = 30.68678 36.88961 33.78819
# Shear Modulus (GPa) = 36.70133 40.74131 38.72132
#
# Velocity S-wave (km/s) = 3.92220 4.13244 4.02869
# Velocity P-wave (km/s) = 5.77704 6.18320 5.98357
#
# Compressibility (1/GPa) = 0.03258733
#
# Stress axis : x y z
#
# Youngs Moduli (GPa) = 81.70116 124.11961 52.34816
#
# Poissons Ratio (x) = 0.09126 -0.03416
# Poissons Ratio (y) = 0.06007 0.17397
# Poissons Ratio (z) = -0.05332 0.41250
#
# Static dielectric constant tensor:
#      x y z
#    x 1.861280 0.000000 0.053370 
#    y 0.000000 1.920350 0.000000 
#    z 0.053370 0.000000 2.021120 
# 
# From -- ./inp_files/9250.got.cif
#   From: 2010.05.17/outbox.cif.g08.bks.cpg/sg9_5_cif.got.tgz:9250.got - 2010.06.03 20:04:27.
