data_PCOD9141694
_publ_section_title
;
Structure prediction by ZEFSAII (Michael W. Deem and Ramdas Pophale) SiO2 
 PCOD9141694
Probable space group: P 2/M
;
_chemical_formula_sum "Si O2"
_cell_formula_units_Z 24
_cell_length_a 25.145191
_cell_length_b 8.486355
_cell_length_c 18.882829
_cell_angle_alpha 90.000000
_cell_angle_beta 19.297441
_cell_angle_gamma 90.000000
_cell_volume 1331.613464
_symmetry_space_group_name_H-M "P 2/M"
_symmetry_group_IT_number 10
_symmetry_cell_setting 'monoclinic'
loop_
_space_group_symop_operation_xyz
x,y,z
-x,y,-z
-x,-y,-z
x,-y,z
loop_
_atom_site_type_symbol
_atom_site_label
_atom_site_fract_x
_atom_site_fract_y
_atom_site_fract_z
Si Si1 0.242746 0.689769 0.169860
Si Si2 0.752485 0.686647 0.328171
Si Si3 0.420145 0.691780 0.319906
Si Si4 0.904309 0.689096 0.354275
Si Si5 0.929833 0.187939 0.480975
Si Si6 0.058644 0.814227 0.029154
O O1 0.237496 0.500000 0.176368
O O2 0.208090 0.749201 0.292701
O O3 0.096926 0.753196 0.305292
O O4 0.412779 0.743266 0.924139
O O5 0.739679 0.500000 0.332718
O O6 0.611995 0.740935 0.558228
O O7 0.912896 0.722290 0.173066
O O8 0.783410 0.769879 0.214415
O O9 0.420005 0.500000 0.320788
O O10 0.266772 0.739588 0.465220
O O11 0.913871 0.500000 0.339160
O O12 0.913836 0.745954 0.422381
O O13 0.043398 0.760769 0.129303
O O14 0.927065 0.000000 0.483990
O O15 0.029911 0.000000 0.059117
#
# Coordination Sequence:
#
# PCOD9141694 Si02
#       6
#     4   4   4   4   4   4
#     4  10  19  36  57  75  95 130 170 205 244 296
#     4   9  15  27  45  68  98 134 167 200 239 290
#     4   8  17  31  52  78 101 125 167 212 245 284
#     4  10  19  34  53  75 100 132 167 206 249 294
#     4  11  22  36  51  74 102 131 165 205 247 298
#     4  10  17  26  42  70 102 132 163 202 244 290
#
# _framework density 18.023249
#
# number of rings (size 3 to 8) (size 9 to 14) (size 15 to 20)
#    0.000    2.333    0.000    7.500    0.000    0.667 
#    0.000   13.333    0.000    1.000    0.000    7.000 
#    0.000    0.000    0.000    0.000    0.000    0.000 
#
# Total GULP energy -133789.267898 kJ/mol
# GULP energy per Si atom -5574.552829 kJ/mol
# Density = 1.798223 g / cm^3
# Si number density = 18.023249 Si / 1000 Ang^3
#
#
#
# Elastic Constant Matrix: (Units=GPa)
#
#
# Indices 1 2 3 4 5 6 
#
# 1 31.3170 12.8383 99.8651 0.0000 14.1442 0.0000
# 2 12.8383 59.2547 29.4062 0.0000 6.9658 0.0000
# 3 99.8651 29.4062 132.5678 0.0000 64.0409 0.0000
# 4 0.0000 0.0000 0.0000 -3.8412 0.0000 5.7370
# 5 14.1442 6.9658 64.0409 0.0000 17.1109 0.0000
# 6 0.0000 0.0000 0.0000 5.7370 0.0000 86.1272
#
#
#
# Elastic Compliance Matrix: (Units=1/GPa)
#
#
# Indices 1 2 3 4 5 6 
#
# 1 0.025711 -0.003885 0.011143 0.000000 -0.061377 0.000000
# 2 -0.003885 0.018279 -0.001133 0.000000 0.000011 0.000000
# 3 0.011143 -0.001133 -0.004489 0.000000 0.008051 0.000000
# 4 0.000000 0.000000 0.000000 -0.236777 0.000000 0.015772
# 5 -0.061377 0.000011 0.008051 0.000000 0.079039 0.000000
# 6 0.000000 0.000000 0.000000 0.015772 0.000000 0.010560
#
#
# Mechanical properties :
#
#
# Convention : Reuss Voigt Hill
#
# Bulk Modulus (GPa) = 19.32336 56.37318 37.84827
# Shear Modulus (GPa) = -48.69713 25.28137 -11.70788
#
# Velocity S-wave (km/s) = -5.20363 3.74934 -2.55149
# Velocity P-wave (km/s) = 5.03577 7.07738 3.51641
#
# Compressibility (1/GPa) = 0.05175083
#
# Stress axis : x y z
#
# Youngs Moduli (GPa) = 38.89314 54.70725 -222.76211
#
# Poissons Ratio (x) = 0.21256 2.48226
# Poissons Ratio (y) = 0.15112 -0.25239
# Poissons Ratio (z) = -0.43339 0.06198
#
# Static dielectric constant tensor:
#      x y z
#    x 1.599900 0.000000 0.030590 
#    y 0.000000 1.602120 0.000000 
#    z 0.030590 0.000000 1.664740 
# 
# From -- ./inp_files/80422.got.cif
#   From: 2010.05.17/outbox.cif.g08.bks.cpg/sg10_41_cif.got.tgz:80422.got - 2010.06.03 11:33:40.
