data_PCOD9141583
_publ_section_title
;
Structure prediction by ZEFSAII (Michael W. Deem and Ramdas Pophale) SiO2 
 PCOD9141583
Probable space group: P 2/M
;
_chemical_formula_sum "Si O2"
_cell_formula_units_Z 28
_cell_length_a 22.120336
_cell_length_b 8.652262
_cell_length_c 11.659045
_cell_angle_alpha 90.000000
_cell_angle_beta 130.308299
_cell_angle_gamma 90.000000
_cell_volume 1701.636203
_symmetry_space_group_name_H-M "P 2/M"
_symmetry_group_IT_number 10
_symmetry_cell_setting 'monoclinic'
loop_
_space_group_symop_operation_xyz
x,y,z
-x,y,-z
-x,-y,-z
x,-y,z
loop_
_atom_site_type_symbol
_atom_site_label
_atom_site_fract_x
_atom_site_fract_y
_atom_site_fract_z
Si Si1 0.459628 0.185774 0.118759
Si Si2 0.907654 0.684563 0.000001
Si Si3 0.423537 0.813549 0.333657
Si Si4 0.771186 0.686309 0.528941
Si Si5 0.734753 0.686064 0.747267
Si Si6 0.616709 0.685554 0.198958
Si Si7 0.067814 0.183318 0.225970
O O1 0.433731 0.234168 0.213933
O O2 0.546185 0.251401 0.193048
O O3 0.462937 0.000000 0.117463
O O4 0.401144 0.247067 0.948343
O O5 0.914884 0.500000 0.017657
O O6 0.980176 0.763068 0.156093
O O7 0.816710 0.730238 0.912450
O O8 0.918721 0.733750 0.880516
O O9 0.500000 0.760845 0.500000
O O10 0.343003 0.753872 0.290931
O O11 0.422471 0.000000 0.335194
O O12 0.780666 0.500000 0.540883
O O13 0.743651 0.732359 0.624183
O O14 0.701633 0.728037 0.355804
O O15 0.856209 0.762686 0.608735
O O16 0.730222 0.500000 0.743164
O O17 0.611047 0.500000 0.188261
O O18 0.068419 0.000000 0.211006
#
# Coordination Sequence:
#
# PCOD9141583 Si02
#       7
#     4   4   4   4   4   4   4
#     4  10  20  33  48  67  93 122 151 188 234 273
#     4   9  16  28  42  59  90 125 153 185 228 272
#     4  10  21  34  47  66  93 124 154 185 225 271
#     4   9  18  31  45  66  95 123 151 187 233 274
#     4   9  18  30  46  67  90 121 156 188 224 266
#     4  10  19  32  51  70  89 118 156 193 227 270
#     4  10  17  24  40  66  91 119 154 187 223 270
#
# _framework density 16.454751000000002
#
# number of rings (size 3 to 8) (size 9 to 14) (size 15 to 20)
#    0.000    2.429    0.000    6.000    0.000    5.429 
#    0.000    0.000    0.000    0.000    0.000    1.000 
#    0.000    8.000    0.000    0.000    0.000    0.000 
#
# Total GULP energy -156058.899777 kJ/mol
# GULP energy per Si atom -5573.532135 kJ/mol
# Density = 1.641730 g / cm^3
# Si number density = 16.454751 Si / 1000 Ang^3
#
#
#
# Elastic Constant Matrix: (Units=GPa)
#
#
# Indices 1 2 3 4 5 6 
#
# 1 87.7656 18.0786 65.8586 0.0000 22.8381 0.0000
# 2 18.0786 22.7284 31.4795 0.0000 8.2945 0.0000
# 3 65.8586 31.4795 130.4984 0.0000 36.0601 0.0000
# 4 0.0000 0.0000 0.0000 8.0273 0.0000 1.8940
# 5 22.8381 8.2945 36.0601 0.0000 29.1695 0.0000
# 6 0.0000 0.0000 0.0000 1.8940 0.0000 22.7582
#
#
#
# Elastic Compliance Matrix: (Units=1/GPa)
#
#
# Indices 1 2 3 4 5 6 
#
# 1 0.018846 -0.002853 -0.007548 0.000000 -0.004613 0.000000
# 2 -0.002853 0.066542 -0.015189 0.000000 0.002089 0.000000
# 3 -0.007548 -0.015189 0.018697 0.000000 -0.012884 0.000000
# 4 0.000000 0.000000 0.000000 0.127070 0.000000 -0.010575
# 5 -0.004613 0.002089 -0.012884 0.000000 0.053228 0.000000
# 6 0.000000 0.000000 0.000000 -0.010575 0.000000 0.044820
#
#
# Mechanical properties :
#
#
# Convention : Reuss Voigt Hill
#
# Bulk Modulus (GPa) = 18.90199 52.42509 35.66354
# Shear Modulus (GPa) = 12.56222 20.36271 16.46246
#
# Velocity S-wave (km/s) = 2.76604 3.52162 3.16645
# Velocity P-wave (km/s) = 4.65977 6.96169 5.92362
#
# Compressibility (1/GPa) = 0.05290449
#
# Stress axis : x y z
#
# Youngs Moduli (GPa) = 53.06129 15.02806 53.48551
#
# Poissons Ratio (x) = 0.04287 0.40372
# Poissons Ratio (y) = 0.15136 0.81241
# Poissons Ratio (z) = 0.40052 0.22827
#
# Static dielectric constant tensor:
#      x y z
#    x 1.543310 0.000000 0.028380 
#    y 0.000000 1.554230 0.000000 
#    z 0.028380 0.000000 1.581650 
# 
# From -- ./inp_files/54959.got.cif
#   From: 2010.05.17/outbox.cif.g08.bks.cpg/sg10_28_cif.got.tgz:54959.got - 2010.06.03 11:33:40.
