data_PCOD9141571
_publ_section_title
;
Structure prediction by ZEFSAII (Michael W. Deem and Ramdas Pophale) SiO2 
 PCOD9141571
Probable space group: P 2/M
;
_chemical_formula_sum "Si O2"
_cell_formula_units_Z 32
_cell_length_a 21.599266
_cell_length_b 8.785978
_cell_length_c 28.423908
_cell_angle_alpha 90.000000
_cell_angle_beta 21.107676
_cell_angle_gamma 90.000000
_cell_volume 1942.505684
_symmetry_space_group_name_H-M "P 2/M"
_symmetry_group_IT_number 10
_symmetry_cell_setting 'monoclinic'
loop_
_space_group_symop_operation_xyz
x,y,z
-x,y,-z
-x,-y,-z
x,-y,z
loop_
_atom_site_type_symbol
_atom_site_label
_atom_site_fract_x
_atom_site_fract_y
_atom_site_fract_z
Si Si1 0.868136 0.682087 0.024512
Si Si2 0.248409 0.682227 0.787042
Si Si3 0.559255 0.680859 0.069274
Si Si4 0.767429 0.819049 0.999073
Si Si5 0.660499 0.179064 0.849700
Si Si6 0.870857 0.816629 0.785906
Si Si7 0.438719 0.180557 0.490542
Si Si8 0.922070 0.318709 0.282904
O O1 0.857985 0.500000 0.023523
O O2 0.783469 0.713464 0.135218
O O3 0.782536 0.769368 0.042271
O O4 0.070381 0.721206 0.886530
O O5 0.273522 0.500000 0.764219
O O6 0.408287 0.770077 0.652393
O O7 0.572879 0.500000 0.061144
O O8 0.388199 0.730648 0.162682
O O9 0.600820 0.750677 0.090691
O O10 0.713491 0.750094 0.928222
O O11 0.935115 0.750519 0.853692
O O12 0.768726 0.000000 0.992878
O O13 0.825754 0.223718 0.763895
O O14 0.670647 0.000000 0.831346
O O15 0.500000 0.196767 0.000000
O O16 0.035342 0.748244 0.695461
O O17 0.869755 0.000000 0.790187
O O18 0.500000 0.216212 0.500000
O O19 0.265071 0.268653 0.601138
O O20 0.406783 0.000000 0.510059
O O21 0.940065 0.500000 0.270620
#
# Coordination Sequence:
#
# PCOD9141571 Si02
#       8
#     4   4   4   4   4   4   4   4
#     4   9  18  34  53  72  94 119 151 189 231 277
#     4   9  19  35  54  73  93 120 152 189 231 276
#     4  10  17  24  37  58  85 117 153 190 225 267
#     4  11  20  30  45  66  94 125 157 192 233 277
#     4   8  14  24  37  54  80 115 149 183 225 270
#     4   9  16  27  41  57  83 117 151 187 228 273
#     4  11  23  36  50  70  96 124 155 192 231 273
#     4  11  21  32  47  66  91 123 159 196 233 276
#
# _framework density 16.473569000000001
#
# number of rings (size 3 to 8) (size 9 to 14) (size 15 to 20)
#    0.000    2.250    0.000    7.875    0.000    6.750 
#    0.000    1.250    0.000    0.000    0.000    0.000 
#    0.000    1.000    0.000   10.500    0.000    5.875 
#
# Total GULP energy -178393.065298 kJ/mol
# GULP energy per Si atom -5574.783291 kJ/mol
# Density = 1.643607 g / cm^3
# Si number density = 16.473569 Si / 1000 Ang^3
#
#
#
# Elastic Constant Matrix: (Units=GPa)
#
#
# Indices 1 2 3 4 5 6 
#
# 1 144.4363 69.3323 18.8009 0.0000 -20.9057 0.0000
# 2 69.3323 92.7095 18.6953 0.0000 -12.0010 0.0000
# 3 18.8009 18.6953 25.4679 0.0000 -4.9999 0.0000
# 4 0.0000 0.0000 0.0000 22.5995 0.0000 -3.0037
# 5 -20.9057 -12.0010 -4.9999 0.0000 14.6543 0.0000
# 6 0.0000 0.0000 0.0000 -3.0037 0.0000 29.7720
#
#
#
# Elastic Compliance Matrix: (Units=1/GPa)
#
#
# Indices 1 2 3 4 5 6 
#
# 1 0.012280 -0.007484 -0.001432 0.000000 0.010901 0.000000
# 2 -0.007484 0.018091 -0.007441 0.000000 0.001600 0.000000
# 3 -0.001432 -0.007441 0.047359 0.000000 0.008022 0.000000
# 4 0.000000 0.000000 0.000000 0.044850 0.000000 0.004525
# 5 0.010901 0.001600 0.008022 0.000000 0.087839 0.000000
# 6 0.000000 0.000000 0.000000 0.004525 0.000000 0.034045
#
#
# Mechanical properties :
#
#
# Convention : Reuss Voigt Hill
#
# Bulk Modulus (GPa) = 22.21382 52.91898 37.56640
# Shear Modulus (GPa) = 17.11260 23.79083 20.45171
#
# Velocity S-wave (km/s) = 3.22652 3.80436 3.52730
# Velocity P-wave (km/s) = 5.23397 7.17571 6.28034
#
# Compressibility (1/GPa) = 0.04501702
#
# Stress axis : x y z
#
# Youngs Moduli (GPa) = 81.43331 55.27703 21.11525
#
# Poissons Ratio (x) = 0.41368 0.03023
# Poissons Ratio (y) = 0.60942 0.15712
# Poissons Ratio (z) = 0.11658 0.41132
#
# Static dielectric constant tensor:
#      x y z
#    x 1.606770 0.000000 -0.025480 
#    y 0.000000 1.548960 0.000000 
#    z -0.025480 0.000000 1.540390 
# 
# From -- ./inp_files/93626.got.cif
#   From: 2010.05.17/outbox.cif.g08.bks.cpg/sg10_47_cif.got.tgz:93626.got - 2010.06.03 11:33:40.
