data_PCOD9141387
_publ_section_title
;
Structure prediction by ZEFSAII (Michael W. Deem and Ramdas Pophale) SiO2 
 PCOD9141387
Probable space group: P 2/M
;
_chemical_formula_sum "Si O2"
_cell_formula_units_Z 28
_cell_length_a 29.131178
_cell_length_b 7.527495
_cell_length_c 14.341912
_cell_angle_alpha 90.000000
_cell_angle_beta 30.270878
_cell_angle_gamma 90.000000
_cell_volume 1585.340492
_symmetry_space_group_name_H-M "P 2/M"
_symmetry_group_IT_number 10
_symmetry_cell_setting 'monoclinic'
loop_
_space_group_symop_operation_xyz
x,y,z
-x,y,-z
-x,-y,-z
x,-y,z
loop_
_atom_site_type_symbol
_atom_site_label
_atom_site_fract_x
_atom_site_fract_y
_atom_site_fract_z
Si Si1 0.711806 0.287992 0.705117
Si Si2 0.101255 0.787446 0.927937
Si Si3 0.567254 0.283974 0.094849
Si Si4 0.102562 0.786727 0.713908
Si Si5 0.612828 0.716746 0.693382
Si Si6 0.290014 0.288350 0.664466
Si Si7 0.466037 0.717545 0.458978
O O1 0.699890 0.500000 0.726556
O O2 0.817282 0.257444 0.497826
O O3 0.654940 0.218568 0.715760
O O4 0.663726 0.223308 0.884144
O O5 0.122625 0.721565 0.784732
O O6 0.182967 0.746996 0.854850
O O7 0.096689 0.000000 0.930027
O O8 0.999575 0.724278 0.131301
O O9 0.567405 0.500000 0.100060
O O10 0.489791 0.235370 0.154713
O O11 0.531330 0.225015 0.258866
O O12 0.099983 0.000000 0.723023
O O13 0.614800 0.500000 0.692714
O O14 0.674202 0.777647 0.498709
O O15 0.300182 0.500000 0.644825
O O16 0.363070 0.225494 0.612642
O O17 0.500000 0.777896 0.500000
O O18 0.467178 0.500000 0.458254
#
# Coordination Sequence:
#
# PCOD9141387 Si02
#       7
#     4   4   4   4   4   4   4
#     4  10  16  23  38  59  80 106 137 167 195 224
#     4   9  17  29  41  54  77 111 142 165 197 240
#     4   8  14  22  35  56  81 108 135 159 191 240
#     4   9  18  29  39  53  79 113 141 164 197 240
#     4   8  13  21  33  54  81 105 129 158 190 225
#     4   9  15  24  41  63  82 103 135 169 198 231
#     4   8  14  25  41  63  88 108 128 161 204 244
#
# _framework density 17.661821
#
# number of rings (size 3 to 8) (size 9 to 14) (size 15 to 20)
#    0.000    3.286    1.429    3.000    0.000    2.286 
#    0.000    1.429    0.000    5.571    0.000    1.000 
#    0.000    8.000    0.000    0.000    0.000    0.000 
#
# Total GULP energy -155910.352425 kJ/mol
# GULP energy per Si atom -5568.226872 kJ/mol
# Density = 1.762162 g / cm^3
# Si number density = 17.661821 Si / 1000 Ang^3
#
#
#
# Elastic Constant Matrix: (Units=GPa)
#
#
# Indices 1 2 3 4 5 6 
#
# 1 114.1457 6.1042 76.6005 0.0000 -12.4722 0.0000
# 2 6.1042 40.6573 -0.1192 0.0000 2.1826 0.0000
# 3 76.6005 -0.1192 144.4999 0.0000 -18.8883 0.0000
# 4 0.0000 0.0000 0.0000 21.7200 0.0000 -9.5597
# 5 -12.4722 2.1826 -18.8883 0.0000 15.7275 0.0000
# 6 0.0000 0.0000 0.0000 -9.5597 0.0000 6.9700
#
#
#
# Elastic Compliance Matrix: (Units=1/GPa)
#
#
# Indices 1 2 3 4 5 6 
#
# 1 0.013887 -0.002263 -0.006978 0.000000 0.002946 0.000000
# 2 -0.002263 0.025181 0.000628 0.000000 -0.004536 0.000000
# 3 -0.006978 0.000628 0.011726 0.000000 0.008462 0.000000
# 4 0.000000 0.000000 0.000000 0.116163 0.000000 0.159322
# 5 0.002946 -0.004536 0.008462 0.000000 0.076711 0.000000
# 6 0.000000 0.000000 0.000000 0.159322 0.000000 0.361987
#
#
# Mechanical properties :
#
#
# Convention : Reuss Voigt Hill
#
# Bulk Modulus (GPa) = 29.79203 51.60821 40.70012
# Shear Modulus (GPa) = 7.88555 23.33134 15.60844
#
# Velocity S-wave (km/s) = 2.11529 3.63850 2.97600
# Velocity P-wave (km/s) = 4.78232 6.85093 5.90787
#
# Compressibility (1/GPa) = 0.03356602
#
# Stress axis : x y z
#
# Youngs Moduli (GPa) = 72.01219 39.71252 85.27890
#
# Poissons Ratio (x) = 0.08989 0.59509
# Poissons Ratio (y) = 0.16300 -0.05354
# Poissons Ratio (z) = 0.50251 -0.02493
#
# Static dielectric constant tensor:
#      x y z
#    x 1.588760 0.000000 -0.021700 
#    y 0.000000 1.672530 0.000000 
#    z -0.021700 0.000000 1.647190 
# 
# From -- ./inp_files/50339.got.cif
#   From: 2010.05.17/outbox.cif.g08.bks.cpg/sg10_26_cif.got.tgz:50339.got - 2010.06.03 11:33:40.
