data_PCOD9141918
_publ_section_title
;
Structure prediction by ZEFSAII (Michael W. Deem and Ramdas Pophale) SiO2 
 PCOD9141918
Probable space group: P 2/M
;
_chemical_formula_sum "Si O2"
_cell_formula_units_Z 28
_cell_length_a 18.082758
_cell_length_b 7.425212
_cell_length_c 10.791071
_cell_angle_alpha 90.000000
_cell_angle_beta 109.538626
_cell_angle_gamma 90.000000
_cell_volume 1365.465840
_symmetry_space_group_name_H-M "P 2/M"
_symmetry_group_IT_number 10
_symmetry_cell_setting 'monoclinic'
loop_
_space_group_symop_operation_xyz
x,y,z
-x,y,-z
-x,-y,-z
x,-y,z
loop_
_atom_site_type_symbol
_atom_site_label
_atom_site_fract_x
_atom_site_fract_y
_atom_site_fract_z
Si Si1 0.078445 0.716401 0.890156
Si Si2 0.503975 0.219108 0.145629
Si Si3 0.664055 0.220710 0.850060
Si Si4 0.096637 0.282575 0.182843
Si Si5 0.762971 0.211861 0.141629
Si Si6 0.325790 0.779101 0.665324
Si Si7 0.265428 0.789624 0.368284
O O1 0.076555 0.500000 0.893492
O O2 0.144730 0.767785 0.830030
O O3 0.989063 0.776816 0.817973
O O4 0.102823 0.778069 0.042474
O O5 0.425344 0.273731 0.172825
O O6 0.585227 0.274941 0.253728
O O7 0.504208 0.000000 0.143928
O O8 0.500000 0.277103 0.000000
O O9 0.697049 0.285484 0.737089
O O10 0.667177 0.000000 0.850991
O O11 0.717627 0.283801 0.995098
O O12 0.097073 0.500000 0.182283
O O13 0.171752 0.223173 0.301403
O O14 0.729253 0.282331 0.251875
O O15 0.745042 0.000000 0.133068
O O16 0.296202 0.714891 0.515274
O O17 0.323809 0.000000 0.662551
O O18 0.286865 0.000000 0.381206
#
# Coordination Sequence:
#
# PCOD9141918 Si02
#       7
#     4   4   4   4   4   4   4
#     4   9  18  32  51  74  95 119 159 203 237 279
#     4   9  14  24  42  66  97 130 160 192 235 279
#     4   9  16  25  43  69  96 124 159 197 229 275
#     4   9  18  33  51  71  96 125 157 195 240 288
#     4  10  17  29  48  73  98 124 159 196 236 283
#     4   9  18  29  44  68 102 134 156 191 242 285
#     4  10  19  31  46  72 103 126 156 199 241 279
#
# _framework density 20.505824
#
# number of rings (size 3 to 8) (size 9 to 14) (size 15 to 20)
#    0.000    2.714    2.857    0.857    0.000    1.143 
#    0.000    5.714    0.000    4.286    0.000    6.000 
#    0.000    0.000    0.000    0.000    0.000    0.000 
#
# Total GULP energy -156277.127071 kJ/mol
# GULP energy per Si atom -5581.325967 kJ/mol
# Density = 2.045915 g / cm^3
# Si number density = 20.505824 Si / 1000 Ang^3
#
#
#
# Elastic Constant Matrix: (Units=GPa)
#
#
# Indices 1 2 3 4 5 6 
#
# 1 173.0640 -6.1669 105.2487 0.0000 -4.6046 0.0000
# 2 -6.1669 62.6092 7.9993 0.0000 -6.6374 0.0000
# 3 105.2487 7.9993 180.2398 0.0000 -0.5561 0.0000
# 4 0.0000 0.0000 0.0000 -1.0000 0.0000 9.5030
# 5 -4.6046 -6.6374 -0.5561 0.0000 28.2294 0.0000
# 6 0.0000 0.0000 0.0000 9.5030 0.0000 41.9316
#
#
#
# Elastic Compliance Matrix: (Units=1/GPa)
#
#
# Indices 1 2 3 4 5 6 
#
# 1 0.009204 0.001795 -0.005449 0.000000 0.001816 0.000000
# 2 0.001795 0.016823 -0.001782 0.000000 0.004213 0.000000
# 3 -0.005449 -0.001782 0.008805 0.000000 -0.001134 0.000000
# 4 0.000000 0.000000 0.000000 -0.317092 0.000000 0.071863
# 5 0.001816 0.004213 -0.001134 0.000000 0.036689 0.000000
# 6 0.000000 0.000000 0.000000 0.071863 0.000000 0.007562
#
#
# Mechanical properties :
#
#
# Convention : Reuss Voigt Hill
#
# Bulk Modulus (GPa) = 41.73264 70.00835 55.87050
# Shear Modulus (GPa) = -22.81542 34.42099 5.80279
#
# Velocity S-wave (km/s) = -3.33923 4.10151 1.68403
# Velocity P-wave (km/s) = 2.35128 7.52627 5.57554
#
# Compressibility (1/GPa) = 0.02396206
#
# Stress axis : x y z
#
# Youngs Moduli (GPa) = 108.64692 59.44146 113.56599
#
# Poissons Ratio (x) = -0.10671 0.61879
# Poissons Ratio (y) = -0.19505 0.20237
# Poissons Ratio (z) = 0.59199 0.10592
#
# Static dielectric constant tensor:
#      x y z
#    x 1.713690 0.000000 -0.006710 
#    y 0.000000 1.792500 0.000000 
#    z -0.006710 0.000000 1.697250 
# 
# From -- ./inp_files/28341.got.cif
#   From: 2010.05.17/outbox.cif.g08.bks.cpg/sg10_15_cif.got.tgz:28341.got - 2010.06.03 11:33:40.
