data_PCOD9141933
_publ_section_title
;
Structure prediction by ZEFSAII (Michael W. Deem and Ramdas Pophale) SiO2 
 PCOD9141933
Probable space group: P 2/M
;
_chemical_formula_sum "Si O2"
_cell_formula_units_Z 24
_cell_length_a 17.056909
_cell_length_b 7.507384
_cell_length_c 7.561252
_cell_angle_alpha 90.000000
_cell_angle_beta 77.557237
_cell_angle_gamma 90.000000
_cell_volume 945.496974
_symmetry_space_group_name_H-M "P 2/M"
_symmetry_group_IT_number 10
_symmetry_cell_setting 'monoclinic'
loop_
_space_group_symop_operation_xyz
x,y,z
-x,y,-z
-x,-y,-z
x,-y,z
loop_
_atom_site_type_symbol
_atom_site_label
_atom_site_fract_x
_atom_site_fract_y
_atom_site_fract_z
Si Si1 0.142121 0.701193 0.744960
Si Si2 0.684081 0.793104 0.261710
Si Si3 0.187658 0.791814 0.327493
Si Si4 0.567862 0.216923 0.603393
Si Si5 0.640336 0.218563 0.912560
Si Si6 0.022022 0.715381 0.288303
O O1 0.137230 0.500000 0.813998
O O2 0.220274 0.782900 0.796068
O O3 0.163259 0.700092 0.523810
O O4 0.052287 0.779685 0.795390
O O5 0.649969 0.727201 0.463977
O O6 0.662409 0.000000 0.273452
O O7 0.639562 0.715292 0.113247
O O8 0.271587 0.732713 0.205092
O O9 0.114046 0.771604 0.225224
O O10 0.196468 0.000000 0.368991
O O11 0.500000 0.276249 0.500000
O O12 0.574602 0.277216 0.801990
O O13 0.561438 0.000000 0.617522
O O14 0.637790 0.000000 0.919396
O O15 0.019893 0.500000 0.282927
O O16 0.000000 0.772223 0.500000
#
# Coordination Sequence:
#
# PCOD9141933 Si02
#       6
#     4   4   4   4   4   4
#     4  10  19  32  50  73 104 139 178 219 257 305
#     4  10  19  33  54  77 106 139 170 213 259 303
#     4  10  17  29  50  75 105 138 175 217 259 306
#     4   9  17  31  53  81 109 134 164 208 262 313
#     4   9  18  31  49  79 110 134 170 213 254 308
#     4   8  16  29  45  70 102 136 177 220 257 300
#
# _framework density 25.383478
#
# number of rings (size 3 to 8) (size 9 to 14) (size 15 to 20)
#    0.000    2.667    1.667    2.000    0.000    4.333 
#    0.000    5.833    0.000    5.500    0.000    1.167 
#    0.000    0.000    0.000    0.000    0.000    0.000 
#
# Total GULP energy -134008.609936 kJ/mol
# GULP energy per Si atom -5583.692081 kJ/mol
# Density = 2.532570 g / cm^3
# Si number density = 25.383478 Si / 1000 Ang^3
#
#
#
# Elastic Constant Matrix: (Units=GPa)
#
#
# Indices 1 2 3 4 5 6 
#
# 1 93.8163 -8.6023 24.9055 0.0000 35.1082 0.0000
# 2 -8.6023 62.2112 -1.9165 0.0000 -2.2717 0.0000
# 3 24.9055 -1.9165 99.7169 0.0000 29.4569 0.0000
# 4 0.0000 0.0000 0.0000 -28.9516 0.0000 -18.1013
# 5 35.1082 -2.2717 29.4569 0.0000 40.7049 0.0000
# 6 0.0000 0.0000 0.0000 -18.1013 0.0000 15.8754
#
#
#
# Elastic Compliance Matrix: (Units=1/GPa)
#
#
# Indices 1 2 3 4 5 6 
#
# 1 0.015918 0.001704 0.000108 0.000000 -0.013712 0.000000
# 2 0.001704 0.016290 0.000068 0.000000 -0.000609 0.000000
# 3 0.000108 0.000068 0.012756 0.000000 -0.009320 0.000000
# 4 0.000000 0.000000 0.000000 -0.020165 0.000000 -0.022992
# 5 -0.013712 -0.000609 -0.009320 0.000000 0.043105 0.000000
# 6 0.000000 0.000000 0.000000 -0.022992 0.000000 0.036774
#
#
# Mechanical properties :
#
#
# Convention : Reuss Voigt Hill
#
# Bulk Modulus (GPa) = 20.52468 31.61308 26.06888
# Shear Modulus (GPa) = 42.67626 21.61625 32.14625
#
# Velocity S-wave (km/s) = 4.10477 2.92136 3.56255
# Velocity P-wave (km/s) = 5.52891 4.88471 5.21676
#
# Compressibility (1/GPa) = 0.04872183
#
# Stress axis : x y z
#
# Youngs Moduli (GPa) = 62.82100 61.38852 78.39408
#
# Poissons Ratio (x) = -0.10459 -0.00844
# Poissons Ratio (y) = -0.10703 -0.00529
# Poissons Ratio (z) = -0.00677 -0.00415
#
# Static dielectric constant tensor:
#      x y z
#    x 2.038230 0.000000 -0.001470 
#    y 0.000000 1.968010 0.000000 
#    z -0.001470 0.000000 2.015750 
# 
# From -- ./inp_files/31225.got.cif
#   From: 2010.05.17/outbox.cif.g08.bks.cpg/sg10_16_cif.got.tgz:31225.got - 2010.06.03 11:33:40.
