data_PCOD9141378
_publ_section_title
;
Structure prediction by ZEFSAII (Michael W. Deem and Ramdas Pophale) SiO2 
 PCOD9141378
Probable space group: P 2/M
;
_chemical_formula_sum "Si O2"
_cell_formula_units_Z 26
_cell_length_a 11.933535
_cell_length_b 24.680744
_cell_length_c 5.475328
_cell_angle_alpha 90.000000
_cell_angle_beta 76.737625
_cell_angle_gamma 90.000000
_cell_volume 1569.630717
_symmetry_space_group_name_H-M "P 2/M"
_symmetry_group_IT_number 10
_symmetry_cell_setting 'monoclinic'
loop_
_space_group_symop_operation_xyz
x,y,z
-x,y,-z
-x,-y,-z
x,-y,z
loop_
_atom_site_type_symbol
_atom_site_label
_atom_site_fract_x
_atom_site_fract_y
_atom_site_fract_z
Si Si1 0.619571 0.763698 0.190214
Si Si2 0.621724 0.108394 0.189137
Si Si3 0.428719 0.500000 0.285641
Si Si4 0.861986 0.564215 0.069004
Si Si5 0.358968 0.280148 0.320516
Si Si6 0.638691 0.935836 0.680654
Si Si7 0.743034 0.600267 0.628481
O O1 0.596555 0.827718 0.201720
O O2 0.682160 0.747246 0.407963
O O3 0.497108 0.731677 0.251446
O O4 0.682160 0.747246 0.909876
O O5 0.498453 0.077745 0.250773
O O6 0.682866 0.090679 0.408148
O O7 0.682866 0.090678 0.908984
O O8 0.500000 0.500000 0.500000
O O9 0.350836 0.553079 0.324582
O O10 0.500000 0.500000 0.000000
O O11 0.828517 0.500000 0.085738
O O12 0.814615 0.591336 0.341803
O O13 0.814617 0.591336 0.843574
O O14 0.000000 0.566680 0.000000
O O15 0.321206 0.342188 0.339399
O O16 0.654670 0.000000 0.672662
#
# Coordination Sequence:
#
# PCOD9141378 Si02
#       7
#     4   4   2   4   4   4   4
#     4  10  19  32  42  63  82 132 163 190 229 263
#     4  10  16  25  38  48  76 106 153 192 232 277
#     4  12  26  36  53  74 111 138 158 180 230 298
#     4  11  22  41  62  79  96 119 153 202 247 299
#     4  10  20  30  47  61  92 112 156 189 224 271
#     4  10  16  22  33  53  72  99 137 201 264 275
#     4  12  23  39  54  80 100 127 160 193 243 296
#
# _framework density 16.564406999999999
#
# number of rings (size 3 to 8) (size 9 to 14) (size 15 to 20)
#    0.000    1.385    1.538    9.231    4.308    1.231 
#    0.000    0.000    0.000    0.000    0.000    0.000 
#    0.000    0.000    0.000    0.000    0.000    0.000 
#
# Total GULP energy -144920.473505 kJ/mol
# GULP energy per Si atom -5573.864366 kJ/mol
# Density = 1.652671 g / cm^3
# Si number density = 16.564407 Si / 1000 Ang^3
#
#
#
# Elastic Constant Matrix: (Units=GPa)
#
#
# Indices 1 2 3 4 5 6 
#
# 1 41.6855 34.3990 40.0076 0.0000 12.1499 0.0000
# 2 34.3990 137.7462 58.0249 0.0000 8.1897 0.0000
# 3 40.0076 58.0249 184.5128 0.0000 37.3599 0.0000
# 4 0.0000 0.0000 0.0000 26.6198 0.0000 9.1664
# 5 12.1499 8.1897 37.3599 0.0000 27.1026 0.0000
# 6 0.0000 0.0000 0.0000 9.1664 0.0000 0.1760
#
#
#
# Elastic Compliance Matrix: (Units=1/GPa)
#
#
# Indices 1 2 3 4 5 6 
#
# 1 0.035854 -0.006804 -0.003879 0.000000 -0.008670 0.000000
# 2 -0.006804 0.009705 -0.002220 0.000000 0.003178 0.000000
# 3 -0.003879 -0.002220 0.008976 0.000000 -0.009964 0.000000
# 4 0.000000 0.000000 0.000000 -0.002219 0.000000 0.115538
# 5 -0.008670 0.003178 -0.009964 0.000000 0.053558 0.000000
# 6 0.000000 0.000000 0.000000 0.115538 0.000000 -0.335532
#
#
# Mechanical properties :
#
#
# Convention : Reuss Voigt Hill
#
# Bulk Modulus (GPa) = 34.80823 69.86750 52.33786
# Shear Modulus (GPa) = -25.73683 26.21390 0.23853
#
# Velocity S-wave (km/s) = -3.94603 3.98244 0.37989
# Velocity P-wave (km/s) = 0.54584 7.96349 5.64425
#
# Compressibility (1/GPa) = 0.02872884
#
# Stress axis : x y z
#
# Youngs Moduli (GPa) = 27.89104 103.03711 111.40343
#
# Poissons Ratio (x) = 0.70109 0.43211
# Poissons Ratio (y) = 0.18978 0.24734
# Poissons Ratio (z) = 0.10818 0.22876
#
# Static dielectric constant tensor:
#      x y z
#    x 1.525400 0.000000 0.046680 
#    y 0.000000 1.561560 0.000000 
#    z 0.046680 0.000000 1.660070 
# 
# From -- ./inp_files/7523.got.cif
#   From: 2010.05.17/outbox.cif.g08.bks.cpg/sg10_4_cif.got.tgz:7523.got - 2010.06.03 11:33:40.
