data_PCOD9141541
_publ_section_title
;
Structure prediction by ZEFSAII (Michael W. Deem and Ramdas Pophale) SiO2 
 PCOD9141541
Probable space group: P 2/M
;
_chemical_formula_sum "Si O2"
_cell_formula_units_Z 28
_cell_length_a 19.410180
_cell_length_b 9.312894
_cell_length_c 18.387467
_cell_angle_alpha 90.000000
_cell_angle_beta 148.568099
_cell_angle_gamma 90.000000
_cell_volume 1733.316112
_symmetry_space_group_name_H-M "P 2/M"
_symmetry_group_IT_number 10
_symmetry_cell_setting 'monoclinic'
loop_
_space_group_symop_operation_xyz
x,y,z
-x,y,-z
-x,-y,-z
x,-y,z
loop_
_atom_site_type_symbol
_atom_site_label
_atom_site_fract_x
_atom_site_fract_y
_atom_site_fract_z
Si Si1 0.172617 0.828906 0.017972
Si Si2 0.768129 0.831759 0.086340
Si Si3 0.349501 0.670690 0.885848
Si Si4 0.854829 0.171129 0.401785
Si Si5 0.085150 0.829933 0.379441
Si Si6 0.157140 0.834784 0.162013
Si Si7 0.105598 0.329115 0.254168
O O1 0.226856 0.801500 0.147715
O O2 0.134314 0.000000 0.981936
O O3 0.258979 0.805894 0.023699
O O4 0.043463 0.731172 0.891465
O O5 0.687658 0.735804 0.069360
O O6 0.925936 0.806423 0.239225
O O7 0.744914 0.000000 0.081256
O O8 0.330489 0.500000 0.869426
O O9 0.252413 0.742848 0.740074
O O10 0.500000 0.702195 0.000000
O O11 0.857063 0.204769 0.489497
O O12 0.000000 0.201287 0.500000
O O13 0.832607 0.000000 0.373353
O O14 0.144392 0.739307 0.366476
O O15 0.102791 0.000000 0.381106
O O16 0.181838 0.733111 0.252615
O O17 0.183473 0.000000 0.205973
O O18 0.000000 0.826478 0.000000
O O19 0.108323 0.500000 0.258244
#
# Coordination Sequence:
#
# PCOD9141541 Si02
#       7
#     4   4   4   4   4   4   4
#     4   8  15  26  39  55  79 114 153 192 232 275
#     4   9  16  30  49  67  88 118 159 202 238 278
#     4  11  24  37  48  69 102 133 159 193 241 293
#     4  10  19  35  56  75  92 118 162 209 244 282
#     4   9  17  30  47  66  90 117 151 196 241 281
#     4   8  13  23  36  50  76 116 153 183 226 275
#     4  10  17  22  33  57  88 118 150 185 224 274
#
# _framework density 16.154007
#
# number of rings (size 3 to 8) (size 9 to 14) (size 15 to 20)
#    0.000    2.714    1.429    3.429    0.000    6.857 
#    0.000    0.000    0.000    0.000    0.000    0.000 
#    0.000    1.143    0.000   12.857    0.000    8.857 
#
# Total GULP energy -155919.003961 kJ/mol
# GULP energy per Si atom -5568.535856 kJ/mol
# Density = 1.611724 g / cm^3
# Si number density = 16.154007 Si / 1000 Ang^3
#
#
#
# Elastic Constant Matrix: (Units=GPa)
#
#
# Indices 1 2 3 4 5 6 
#
# 1 134.4511 79.3792 65.6315 0.0000 -42.3169 0.0000
# 2 79.3792 79.1793 49.9313 0.0000 -21.2352 0.0000
# 3 65.6315 49.9313 51.9825 0.0000 -17.1262 0.0000
# 4 0.0000 0.0000 0.0000 10.2428 0.0000 1.9000
# 5 -42.3169 -21.2352 -17.1262 0.0000 25.9965 0.0000
# 6 0.0000 0.0000 0.0000 1.9000 0.0000 2.1888
#
#
#
# Elastic Compliance Matrix: (Units=1/GPa)
#
#
# Indices 1 2 3 4 5 6 
#
# 1 0.038207 -0.014566 -0.022578 0.000000 0.035420 0.000000
# 2 -0.014566 0.038783 -0.020738 0.000000 -0.005692 0.000000
# 3 -0.022578 -0.020738 0.063827 0.000000 -0.011643 0.000000
# 4 0.000000 0.000000 0.000000 0.116366 0.000000 -0.101012
# 5 0.035420 -0.005692 -0.011643 0.000000 0.083804 0.000000
# 6 0.000000 0.000000 0.000000 -0.101012 0.000000 0.544557
#
#
# Mechanical properties :
#
#
# Convention : Reuss Voigt Hill
#
# Bulk Modulus (GPa) = 39.91415 72.83299 56.37357
# Shear Modulus (GPa) = 4.95218 12.39701 8.67460
#
# Velocity S-wave (km/s) = 1.75279 2.77325 2.31983
# Velocity P-wave (km/s) = 5.37201 7.44574 6.49221
#
# Compressibility (1/GPa) = 0.02505377
#
# Stress axis : x y z
#
# Youngs Moduli (GPa) = 26.17352 25.78448 15.66745
#
# Poissons Ratio (x) = 0.37557 0.35374
# Poissons Ratio (y) = 0.38124 0.32491
# Poissons Ratio (z) = 0.59094 0.53471
#
# Static dielectric constant tensor:
#      x y z
#    x 1.582350 0.000000 -0.038700 
#    y 0.000000 1.529270 0.000000 
#    z -0.038700 0.000000 1.523710 
# 
# From -- ./inp_files/38037.got.cif
#   From: 2010.05.17/outbox.cif.g08.bks.cpg/sg10_20_cif.got.tgz:38037.got - 2010.06.03 11:33:40.
