data_PCOD9141986
_publ_section_title
;
Structure prediction by ZEFSAII (Michael W. Deem and Ramdas Pophale) SiO2 
 PCOD9141986
Probable space group: P 2/M
;
_chemical_formula_sum "Si O2"
_cell_formula_units_Z 24
_cell_length_a 11.733581
_cell_length_b 7.550715
_cell_length_c 13.293937
_cell_angle_alpha 90.000000
_cell_angle_beta 130.810714
_cell_angle_gamma 90.000000
_cell_volume 891.446329
_symmetry_space_group_name_H-M "P 2/M"
_symmetry_group_IT_number 10
_symmetry_cell_setting 'monoclinic'
loop_
_space_group_symop_operation_xyz
x,y,z
-x,y,-z
-x,-y,-z
x,-y,z
loop_
_atom_site_type_symbol
_atom_site_label
_atom_site_fract_x
_atom_site_fract_y
_atom_site_fract_z
Si Si1 0.436429 0.784629 0.355624
Si Si2 0.855559 0.697611 0.332371
Si Si3 0.018075 0.796531 0.226547
Si Si4 0.243880 0.789161 0.511891
Si Si5 0.218339 0.216036 0.067423
Si Si6 0.521566 0.199775 0.130056
O O1 0.500000 0.726669 0.500000
O O2 0.583526 0.732695 0.374052
O O3 0.280505 0.726755 0.213128
O O4 0.425506 0.000000 0.353776
O O5 0.913888 0.500000 0.352737
O O6 0.908029 0.800134 0.262086
O O7 0.863967 0.757461 0.454961
O O8 0.674361 0.694093 0.224797
O O9 0.166294 0.716862 0.365412
O O10 0.053437 0.000000 0.219321
O O11 0.928696 0.720569 0.078673
O O12 0.248775 0.000000 0.500430
O O13 0.363615 0.262113 0.083677
O O14 0.205410 0.000000 0.061995
O O15 0.550365 0.000000 0.188617
O O16 0.500000 0.181747 0.000000
#
# Coordination Sequence:
#
# PCOD9141986 Si02
#       6
#     4   4   4   4   4   4
#     4   9  17  31  54  81 103 127 166 218 269 309
#     4  12  23  32  48  77 112 142 173 213 259 303
#     4  10  20  34  52  75 104 142 181 209 244 308
#     4  10  20  35  54  75 102 140 181 213 250 308
#     4   9  16  29  51  75 101 133 169 210 255 302
#     4  10  17  30  52  73 100 139 180 212 248 303
#
# _framework density 26.922540000000001
#
# number of rings (size 3 to 8) (size 9 to 14) (size 15 to 20)
#    0.000    2.000    3.333    2.000    0.000    3.000 
#    0.000    0.833    0.000    5.500    0.000    0.000 
#    0.000    2.667    0.000    0.000    0.000    0.000 
#
# Total GULP energy -133922.814169 kJ/mol
# GULP energy per Si atom -5580.117257 kJ/mol
# Density = 2.686126 g / cm^3
# Si number density = 26.922540 Si / 1000 Ang^3
#
#
#
# Elastic Constant Matrix: (Units=GPa)
#
#
# Indices 1 2 3 4 5 6 
#
# 1 75.2150 -5.3812 28.3407 0.0000 -5.8953 0.0000
# 2 -5.3812 63.0534 0.3001 0.0000 5.3091 0.0000
# 3 28.3407 0.3001 264.9884 0.0000 -4.8011 0.0000
# 4 0.0000 0.0000 0.0000 -8.5699 0.0000 11.1855
# 5 -5.8953 5.3091 -4.8011 0.0000 52.5210 0.0000
# 6 0.0000 0.0000 0.0000 11.1855 0.0000 -22.0364
#
#
#
# Elastic Compliance Matrix: (Units=1/GPa)
#
#
# Indices 1 2 3 4 5 6 
#
# 1 0.014035 0.001093 -0.001478 0.000000 0.001330 0.000000
# 2 0.001093 0.016081 -0.000163 0.000000 -0.001518 0.000000
# 3 -0.001478 -0.000163 0.003936 0.000000 0.000210 0.000000
# 4 0.000000 0.000000 0.000000 -0.345759 0.000000 -0.175504
# 5 0.001330 -0.001518 0.000210 0.000000 0.019362 0.000000
# 6 0.000000 0.000000 0.000000 -0.175504 0.000000 -0.134464
#
#
# Mechanical properties :
#
#
# Convention : Reuss Voigt Hill
#
# Bulk Modulus (GPa) = 30.34350 49.97512 40.15931
# Shear Modulus (GPa) = -12.05609 29.71609 8.83000
#
# Velocity S-wave (km/s) = -2.11844 3.32590 1.81298
# Velocity P-wave (km/s) = 2.30465 5.77509 4.39676
#
# Compressibility (1/GPa) = 0.03295599
#
# Stress axis : x y z
#
# Youngs Moduli (GPa) = 71.25254 62.18363 254.07576
#
# Poissons Ratio (x) = -0.06796 0.37556
# Poissons Ratio (y) = -0.07787 0.04131
# Poissons Ratio (z) = 0.10532 0.01011
#
# Static dielectric constant tensor:
#      x y z
#    x 2.180090 0.000000 -0.031430 
#    y 0.000000 2.051770 0.000000 
#    z -0.031430 0.000000 2.243550 
# 
# From -- ./inp_files/66695.got.cif
#   From: 2010.05.17/outbox.cif.g08.bks.cpg/sg10_34_cif.got.tgz:66695.got - 2010.06.03 11:33:40.
