data_PCOD9141786
_publ_section_title
;
Structure prediction by ZEFSAII (Michael W. Deem and Ramdas Pophale) SiO2 
 PCOD9141786
Probable space group: P 2/M
;
_chemical_formula_sum "Si O2"
_cell_formula_units_Z 28
_cell_length_a 11.947586
_cell_length_b 13.096701
_cell_length_c 11.930920
_cell_angle_alpha 90.000000
_cell_angle_beta 71.436245
_cell_angle_gamma 90.000000
_cell_volume 1769.744624
_symmetry_space_group_name_H-M "P 2/M"
_symmetry_group_IT_number 10
_symmetry_cell_setting 'monoclinic'
loop_
_space_group_symop_operation_xyz
x,y,z
-x,y,-z
-x,-y,-z
x,-y,z
loop_
_atom_site_type_symbol
_atom_site_label
_atom_site_fract_x
_atom_site_fract_y
_atom_site_fract_z
Si Si1 0.390790 0.773307 0.253865
Si Si2 0.222897 0.881413 0.153861
Si Si3 0.630782 0.114073 0.510898
Si Si4 0.391312 0.116366 0.886989
Si Si5 0.964523 0.117545 0.141633
Si Si6 0.267870 0.219643 0.721940
Si Si7 0.531262 0.379057 0.357927
O O1 0.273618 0.794389 0.219747
O O2 0.381550 0.853728 0.357958
O O3 0.498121 0.808496 0.139846
O O4 0.433344 0.671909 0.306472
O O5 0.084393 0.871459 0.173953
O O6 0.244885 0.000000 0.184931
O O7 0.293433 0.870711 0.013850
O O8 0.500000 0.119450 0.500000
O O9 0.713039 0.186527 0.411870
O O10 0.675753 0.000000 0.485928
O O11 0.334172 0.140983 0.784710
O O12 0.433644 0.000000 0.878362
O O13 0.867725 0.202498 0.202978
O O14 0.919284 0.000000 0.172690
O O15 0.000000 0.125369 0.000000
O O16 0.343838 0.323484 0.709424
O O17 0.500000 0.359350 0.500000
O O18 0.537196 0.500000 0.340559
#
# Coordination Sequence:
#
# PCOD9141786 Si02
#       7
#     4   4   4   4   4   4   4
#     4  11  19  31  47  75 105 134 164 207 269 313
#     4  10  20  31  46  74 111 148 175 196 234 301
#     4  11  18  26  44  74 106 132 157 201 254 313
#     4  10  17  27  47  74 104 137 170 204 240 301
#     4  10  19  32  50  75 107 146 182 205 229 288
#     4  11  18  31  51  76  99 133 176 214 254 293
#     4  10  20  37  58  79  98 123 173 227 274 314
#
# _framework density 15.821491999999999
#
# number of rings (size 3 to 8) (size 9 to 14) (size 15 to 20)
#    0.000    1.571    5.714    3.000    0.000    1.143 
#    0.000    0.714    0.000   10.714    0.000    2.000 
#    0.000    0.000    0.000    0.000    0.000    0.000 
#
# Total GULP energy -155948.955428 kJ/mol
# GULP energy per Si atom -5569.605551 kJ/mol
# Density = 1.578548 g / cm^3
# Si number density = 15.821492 Si / 1000 Ang^3
#
#
#
# Elastic Constant Matrix: (Units=GPa)
#
#
# Indices 1 2 3 4 5 6 
#
# 1 84.1279 37.8329 24.9949 0.0000 -2.5226 0.0000
# 2 37.8329 94.9583 23.8652 0.0000 -0.4642 0.0000
# 3 24.9949 23.8652 55.7685 0.0000 -0.2610 0.0000
# 4 0.0000 0.0000 0.0000 16.9309 0.0000 0.3693
# 5 -2.5226 -0.4642 -0.2610 0.0000 18.8081 0.0000
# 6 0.0000 0.0000 0.0000 0.3693 0.0000 12.9088
#
#
#
# Elastic Compliance Matrix: (Units=1/GPa)
#
#
# Indices 1 2 3 4 5 6 
#
# 1 0.015636 -0.004999 -0.004860 0.000000 0.001906 0.000000
# 2 -0.004999 0.013399 -0.003495 0.000000 -0.000388 0.000000
# 3 -0.004860 -0.003495 0.021603 0.000000 -0.000438 0.000000
# 4 0.000000 0.000000 0.000000 0.059100 0.000000 -0.001691
# 5 0.001906 -0.000388 -0.000438 0.000000 0.053409 0.000000
# 6 0.000000 0.000000 0.000000 -0.001691 0.000000 0.077515
#
#
# Mechanical properties :
#
#
# Convention : Reuss Voigt Hill
#
# Bulk Modulus (GPa) = 41.78823 45.36007 43.57415
# Shear Modulus (GPa) = 18.15896 19.60701 18.88298
#
# Velocity S-wave (km/s) = 3.39151 3.52414 3.45846
# Velocity P-wave (km/s) = 6.46576 6.72990 6.59915
#
# Compressibility (1/GPa) = 0.02393018
#
# Stress axis : x y z
#
# Youngs Moduli (GPa) = 63.95631 74.63182 46.28984
#
# Poissons Ratio (x) = 0.37307 0.22495
# Poissons Ratio (y) = 0.31971 0.16180
# Poissons Ratio (z) = 0.31081 0.26086
#
# Static dielectric constant tensor:
#      x y z
#    x 1.569420 0.000000 0.001090 
#    y 0.000000 1.523920 0.000000 
#    z 0.001090 0.000000 1.537090 
# 
# From -- ./inp_files/47162.got.cif
#   From: 2010.05.17/outbox.cif.g08.bks.cpg/sg10_24_cif.got.tgz:47162.got - 2010.06.03 11:33:40.
