data_PCOD9141940
_publ_section_title
;
Structure prediction by ZEFSAII (Michael W. Deem and Ramdas Pophale) SiO2 
 PCOD9141940
Probable space group: P 2/M
;
_chemical_formula_sum "Si O2"
_cell_formula_units_Z 32
_cell_length_a 29.264241
_cell_length_b 8.517835
_cell_length_c 20.735624
_cell_angle_alpha 90.000000
_cell_angle_beta 20.897281
_cell_angle_gamma 90.000000
_cell_volume 1843.652192
_symmetry_space_group_name_H-M "P 2/M"
_symmetry_group_IT_number 10
_symmetry_cell_setting 'monoclinic'
loop_
_space_group_symop_operation_xyz
x,y,z
-x,y,-z
-x,-y,-z
x,-y,z
loop_
_atom_site_type_symbol
_atom_site_label
_atom_site_fract_x
_atom_site_fract_y
_atom_site_fract_z
Si Si1 0.913685 0.687417 0.240688
Si Si2 0.407580 0.190044 0.826397
Si Si3 0.084233 0.191009 0.483365
Si Si4 0.303485 0.812683 0.567665
Si Si5 0.956374 0.188288 0.322452
Si Si6 0.793299 0.689308 0.170478
Si Si7 0.243756 0.311651 0.925398
Si Si8 0.807021 0.191163 0.791836
O O1 0.915508 0.500000 0.240180
O O2 0.806000 0.743734 0.333762
O O3 0.894283 0.749411 0.338752
O O4 0.056695 0.737859 0.029987
O O5 0.554145 0.242134 0.639278
O O6 0.346645 0.247051 0.839682
O O7 0.405601 0.000000 0.828872
O O8 0.314501 0.245087 0.006898
O O9 0.177757 0.243463 0.302465
O O10 0.106403 0.242433 0.527406
O O11 0.939569 0.235107 0.652869
O O12 0.087290 0.000000 0.479324
O O13 0.275012 0.764169 0.678577
O O14 0.299507 0.000000 0.567553
O O15 0.955849 0.000000 0.321702
O O16 0.103748 0.245371 0.128035
O O17 0.789223 0.500000 0.182329
O O18 0.734349 0.730959 0.178495
O O19 0.238944 0.500000 0.935485
O O20 0.803926 0.000000 0.795522
#
# Coordination Sequence:
#
# PCOD9141940 Si02
#       8
#     4   4   4   4   4   4   4   4
#     4  10  21  37  55  74  98 131 168 207 251 300
#     4  10  20  34  51  72 104 137 167 206 248 293
#     4   8  13  22  46  78 102 128 162 198 243 291
#     4  11  23  35  51  76  99 128 169 212 256 296
#     4  10  17  29  52  80 105 128 161 210 256 290
#     4   9  20  37  54  72  96 128 165 208 252 299
#     4  10  20  33  50  74 103 136 170 199 244 303
#     4   8  13  25  45  73 104 132 162 197 239 291
#
# _framework density 17.356853999999998
#
# number of rings (size 3 to 8) (size 9 to 14) (size 15 to 20)
#    0.000    2.500    1.250    3.375    0.000    6.000 
#    0.000    2.500    0.000    3.000    0.000    5.250 
#    0.000    0.000    0.000    0.000    0.000    0.000 
#
# Total GULP energy -178430.433539 kJ/mol
# GULP energy per Si atom -5575.951048 kJ/mol
# Density = 1.731735 g / cm^3
# Si number density = 17.356854 Si / 1000 Ang^3
#
#
#
# Elastic Constant Matrix: (Units=GPa)
#
#
# Indices 1 2 3 4 5 6 
#
# 1 33.7004 5.4142 37.0354 0.0000 33.1851 0.0000
# 2 5.4142 13.5477 13.5356 0.0000 6.6510 0.0000
# 3 37.0354 13.5356 92.2262 0.0000 24.9339 0.0000
# 4 0.0000 0.0000 0.0000 -39.9244 0.0000 -35.8407
# 5 33.1851 6.6510 24.9339 0.0000 24.7010 0.0000
# 6 0.0000 0.0000 0.0000 -35.8407 0.0000 0.0611
#
#
#
# Elastic Compliance Matrix: (Units=1/GPa)
#
#
# Indices 1 2 3 4 5 6 
#
# 1 -0.080443 -0.028222 0.007115 0.000000 0.108491 0.000000
# 2 -0.028222 0.080492 -0.006700 0.000000 0.023005 0.000000
# 3 0.007115 -0.006700 0.015219 0.000000 -0.023117 0.000000
# 4 0.000000 0.000000 0.000000 -0.000047 0.000000 -0.027848
# 5 0.108491 0.023005 -0.023117 0.000000 -0.088130 0.000000
# 6 0.000000 0.000000 0.000000 -0.027848 0.000000 0.031021
#
#
# Mechanical properties :
#
#
# Convention : Reuss Voigt Hill
#
# Bulk Modulus (GPa) = -24.78493 27.93830 1.57669
# Shear Modulus (GPa) = 18086.04364 2.53346 9044.28855
#
# Velocity S-wave (km/s) = 102.18971 1.20946 72.26410
# Velocity P-wave (km/s) = 117.93786 4.25226 83.44885
#
# Compressibility (1/GPa) = -0.04034711
#
# Stress axis : x y z
#
# Youngs Moduli (GPa) = -12.43113 12.42367 65.70765
#
# Poissons Ratio (x) = 0.35062 -0.46748
# Poissons Ratio (y) = -0.35083 0.44023
# Poissons Ratio (z) = 0.08844 0.08324
#
# Static dielectric constant tensor:
#      x y z
#    x 1.588610 0.000000 0.025310 
#    y 0.000000 1.592350 0.000000 
#    z 0.025310 0.000000 1.587940 
# 
# From -- ./inp_files/87181.got.cif
#   From: 2010.05.17/outbox.cif.g08.bks.cpg/sg10_44_cif.got.tgz:87181.got - 2010.06.03 11:33:40.
