data_PCOD9141093
_publ_section_title
;
Structure prediction by ZEFSAII (Michael W. Deem and Ramdas Pophale) SiO2 
 PCOD9141093
Probable space group: C C
;
_chemical_formula_sum "Si O2"
_cell_formula_units_Z 24
_cell_length_a 5.755374
_cell_length_b 17.159264
_cell_length_c 9.523746
_cell_angle_alpha 90.000000
_cell_angle_beta 87.513328
_cell_angle_gamma 90.000000
_cell_volume 939.660262
_symmetry_space_group_name_H-M "C C"
_symmetry_group_IT_number 9
_symmetry_cell_setting 'monoclinic'
loop_
_space_group_symop_operation_xyz
x,y,z
x,-y,1/2+z
1/2+x,1/2+y,z
1/2+x,1/2-y,1/2+z
loop_
_atom_site_type_symbol
_atom_site_label
_atom_site_fract_x
_atom_site_fract_y
_atom_site_fract_z
Si Si1 0.482650 0.124640 0.168050
Si Si2 0.369139 0.525138 0.314613
Si Si3 0.472221 0.179682 0.637705
Si Si4 0.686837 0.525662 0.569247
Si Si5 0.588268 0.748125 0.846909
Si Si6 0.738082 0.871680 0.395280
O O1 0.401773 0.195735 0.269536
O O2 0.698557 0.089658 0.255123
O O3 0.317654 0.054704 0.116077
O O4 0.585851 0.162148 0.023916
O O5 0.586330 0.537460 0.414267
O O6 0.467379 0.478629 0.178840
O O7 0.217486 0.464117 0.407285
O O8 0.336106 0.101757 0.596331
O O9 0.605370 0.212991 0.499183
O O10 0.296563 0.235380 0.731271
O O11 0.649506 0.153097 0.749082
O O12 0.496025 0.662337 0.892664
#
# Coordination Sequence:
#
# PCOD9141093 Si02
#       6
#     4   4   4   4   4   4
#     4  12  28  50  77 114 149 201 259 318 376 456
#     4  12  26  46  78 112 150 193 259 315 382 446
#     4  12  28  49  78 113 155 204 254 315 386 458
#     4  12  26  47  79 111 149 199 254 317 378 455
#     4  12  29  49  75 114 154 205 253 315 386 459
#     4  12  27  49  75 110 157 200 251 322 380 456
#
# _framework density 25.541145
#
# number of rings (size 3 to 8) (size 9 to 14) (size 15 to 20)
#    0.000    0.000    6.667    2.000    7.000    2.667 
#    0.000    0.000    0.000    0.000    0.000    0.000 
#    0.000    0.000    0.000    0.000    0.000    0.000 
#
# Total GULP energy -67043.790281 kJ/mol
# GULP energy per Si atom -5586.982523 kJ/mol
# Density = 2.548301 g / cm^3
# Si number density = 25.541145 Si / 1000 Ang^3
#
#
#
# Elastic Constant Matrix: (Units=GPa)
#
#
# Indices 1 2 3 4 5 6 
#
# 1 51.1963 32.3493 33.1376 0.0000 5.6105 0.0000
# 2 32.3493 104.0384 39.4792 0.0000 17.1673 0.0000
# 3 33.1376 39.4792 187.0058 0.0000 11.9891 0.0000
# 4 0.0000 0.0000 0.0000 39.0193 0.0000 -5.6102
# 5 5.6105 17.1673 11.9891 0.0000 47.7994 0.0000
# 6 0.0000 0.0000 0.0000 -5.6102 0.0000 45.0674
#
#
#
# Elastic Compliance Matrix: (Units=1/GPa)
#
#
# Indices 1 2 3 4 5 6 
#
# 1 0.025904 -0.006897 -0.003149 0.000000 0.000226 0.000000
# 2 -0.006897 0.012807 -0.001259 0.000000 -0.003475 0.000000
# 3 -0.003149 -0.001259 0.006218 0.000000 -0.000738 0.000000
# 4 0.000000 0.000000 0.000000 0.026095 0.000000 0.003248
# 5 0.000226 -0.003475 -0.000738 0.000000 0.022327 0.000000
# 6 0.000000 0.000000 0.000000 0.003248 0.000000 0.022593
#
#
# Mechanical properties :
#
#
# Convention : Reuss Voigt Hill
#
# Bulk Modulus (GPa) = 44.80161 61.35254 53.07707
# Shear Modulus (GPa) = 34.24775 42.19550 38.22162
#
# Velocity S-wave (km/s) = 3.66578 4.06896 3.87262
# Velocity P-wave (km/s) = 5.95788 6.79327 6.38924
#
# Compressibility (1/GPa) = 0.02232063
#
# Stress axis : x y z
#
# Youngs Moduli (GPa) = 38.60433 78.07987 160.81171
#
# Poissons Ratio (x) = 0.53852 0.50634
# Poissons Ratio (y) = 0.26625 0.20244
# Poissons Ratio (z) = 0.12155 0.09829
#
# Static dielectric constant tensor:
#      x y z
#    x 2.064870 0.000000 0.032520 
#    y 0.000000 2.210140 0.000000 
#    z 0.032520 0.000000 1.991450 
# 
# From -- ./inp_files/3676.got.cif
#   From: 2010.05.17/outbox.cif.g08.bks.cpg/sg9_2_cif.got.tgz:3676.got - 2010.06.03 20:04:27.
