data_PCOD9141165
_publ_section_title
;
Structure prediction by ZEFSAII (Michael W. Deem and Ramdas Pophale) SiO2 
 PCOD9141165
Probable space group: C C
;
_chemical_formula_sum "Si O2"
_cell_formula_units_Z 32
_cell_length_a 26.651558
_cell_length_b 5.084381
_cell_length_c 15.751394
_cell_angle_alpha 90.000000
_cell_angle_beta 34.960715
_cell_angle_gamma 90.000000
_cell_volume 1223.053368
_symmetry_space_group_name_H-M "C C"
_symmetry_group_IT_number 9
_symmetry_cell_setting 'monoclinic'
loop_
_space_group_symop_operation_xyz
x,y,z
x,-y,1/2+z
1/2+x,1/2+y,z
1/2+x,1/2-y,1/2+z
loop_
_atom_site_type_symbol
_atom_site_label
_atom_site_fract_x
_atom_site_fract_y
_atom_site_fract_z
Si Si1 0.233150 0.372173 0.143620
Si Si2 0.323128 0.549307 0.846941
Si Si3 0.371379 0.967640 0.552199
Si Si4 0.526526 0.291783 0.316450
Si Si5 0.737537 0.178558 0.309615
Si Si6 0.072385 0.690520 0.651910
Si Si7 0.032065 0.195729 0.432448
Si Si8 0.436750 0.959235 0.203808
O O1 0.229391 0.588431 0.223975
O O2 0.135311 0.254879 0.278139
O O3 0.309839 0.179531 0.071580
O O4 0.264076 0.458852 0.007820
O O5 0.276003 0.537158 0.821174
O O6 0.356948 0.837979 0.821794
O O7 0.400077 0.329399 0.730049
O O8 0.425351 0.217560 0.442220
O O9 0.305606 0.082951 0.713240
O O10 0.451073 0.800349 0.483658
O O11 0.557738 0.539808 0.220423
O O12 0.532002 0.384002 0.407252
O O13 0.583586 0.049110 0.202826
O O14 0.645933 0.240455 0.479954
O O15 0.986761 0.602885 0.720549
O O16 0.003552 0.358283 0.555519
#
# Coordination Sequence:
#
# PCOD9141165 Si02
#       8
#     4   4   4   4   4   4   4   4
#     4  12  30  53  84 129 171 226 289 359 432 513
#     4  12  29  50  80 119 165 221 279 351 423 509
#     4  12  27  52  84 123 171 224 287 355 432 507
#     4  12  27  51  83 118 161 222 281 347 422 504
#     4  12  29  52  81 122 173 221 292 351 431 508
#     4  12  28  50  81 118 164 218 280 348 423 508
#     4  12  27  55  82 123 168 223 284 355 424 511
#     4  12  27  51  77 116 163 213 276 342 425 502
#
# _framework density 26.164027999999998
#
# number of rings (size 3 to 8) (size 9 to 14) (size 15 to 20)
#    0.000    0.000    3.750    4.500    8.750    3.000 
#    0.000    0.000    0.000    0.000    0.000    0.000 
#    0.000    0.000    0.000    0.000    0.000    0.000 
#
# Total GULP energy -89513.403199 kJ/mol
# GULP energy per Si atom -5594.587700 kJ/mol
# Density = 2.610448 g / cm^3
# Si number density = 26.164028 Si / 1000 Ang^3
#
#
#
# Elastic Constant Matrix: (Units=GPa)
#
#
# Indices 1 2 3 4 5 6 
#
# 1 99.5807 17.0545 12.2893 0.0641 -14.3943 -0.0668
# 2 17.0545 122.6585 28.8984 0.1768 3.2710 -0.0783
# 3 12.2893 28.8984 159.2309 0.0377 5.7257 -0.0425
# 4 0.0641 0.1768 0.0377 25.2097 -0.0028 4.6482
# 5 -14.3943 3.2710 5.7257 -0.0028 46.1024 0.0029
# 6 -0.0668 -0.0783 -0.0425 4.6482 0.0029 40.3059
#
#
#
# Elastic Compliance Matrix: (Units=1/GPa)
#
#
# Indices 1 2 3 4 5 6 
#
# 1 0.010896 -0.001444 -0.000708 -0.000019 0.003592 0.000016
# 2 -0.001444 0.008716 -0.001438 -0.000059 -0.000891 0.000020
# 3 -0.000708 -0.001438 0.006630 0.000001 -0.000942 0.000003
# 4 -0.000019 -0.000059 0.000001 0.040530 0.000001 -0.004674
# 5 0.003592 -0.000891 -0.000942 0.000001 0.022993 0.000001
# 6 0.000016 0.000020 0.000003 -0.004674 0.000001 0.025349
#
#
# Mechanical properties :
#
#
# Convention : Reuss Voigt Hill
#
# Bulk Modulus (GPa) = 52.46241 55.32830 53.89535
# Shear Modulus (GPa) = 38.86566 43.87214 41.36890
#
# Velocity S-wave (km/s) = 3.85835 4.09933 3.98066
# Velocity P-wave (km/s) = 6.32013 6.60293 6.46307
#
# Compressibility (1/GPa) = 0.01906127
#
# Stress axis : x y z
#
# Youngs Moduli (GPa) = 91.77612 114.72863 150.83473
#
# Poissons Ratio (x) = 0.16566 0.10680
# Poissons Ratio (y) = 0.13252 0.21696
# Poissons Ratio (z) = 0.06498 0.16503
#
# Static dielectric constant tensor:
#      x y z
#    x 2.069860 -0.000100 0.043800 
#    y -0.000100 2.059670 -0.000060 
#    z 0.043800 -0.000060 2.093240 
# 
# From -- ./inp_files/31775.got.cif
#   From: 2010.05.17/outbox.cif.g08.bks.cpg/sg9_16_cif.got.tgz:31775.got - 2010.06.03 20:04:27.
