data_PCOD9141030
_publ_section_title
;
Structure prediction by ZEFSAII (Michael W. Deem and Ramdas Pophale) SiO2 
 PCOD9141030
Probable space group: C C
;
_chemical_formula_sum "Si O2"
_cell_formula_units_Z 32
_cell_length_a 7.952011
_cell_length_b 11.813811
_cell_length_c 14.854788
_cell_angle_alpha 90.000000
_cell_angle_beta 80.505986
_cell_angle_gamma 90.000000
_cell_volume 1376.397048
_symmetry_space_group_name_H-M "C C"
_symmetry_group_IT_number 9
_symmetry_cell_setting 'monoclinic'
loop_
_space_group_symop_operation_xyz
x,y,z
x,-y,1/2+z
1/2+x,1/2+y,z
1/2+x,1/2-y,1/2+z
loop_
_atom_site_type_symbol
_atom_site_label
_atom_site_fract_x
_atom_site_fract_y
_atom_site_fract_z
Si Si1 0.630250 0.253775 0.315710
Si Si2 0.272115 0.348484 0.631182
Si Si3 0.723495 0.781780 0.011692
Si Si4 0.583291 0.915890 0.179104
Si Si5 0.241248 0.238158 0.303175
Si Si6 0.607489 0.312930 0.999544
Si Si7 0.626950 0.544596 0.057247
Si Si8 0.199563 0.012578 0.749121
O O1 0.769631 0.208879 0.231045
O O2 0.673407 0.212062 0.411701
O O3 0.443674 0.220990 0.296397
O O4 0.619710 0.390321 0.317312
O O5 0.173593 0.259088 0.577589
O O6 0.447578 0.388360 0.568732
O O7 0.175089 0.466196 0.652629
O O8 0.585457 0.843259 0.086845
O O9 0.905842 0.835712 0.017176
O O10 0.752053 0.650610 0.037173
O O11 0.685035 0.836988 0.240721
O O12 0.396863 0.951210 0.227774
O O13 0.160804 0.257870 0.407763
O O14 0.172052 0.116461 0.278435
O O15 0.678882 0.441089 0.988868
O O16 0.627990 0.484509 0.154235
#
# Coordination Sequence:
#
# PCOD9141030 Si02
#       8
#     4   4   4   4   4   4   4   4
#     4  12  26  47  71 106 145 185 240 294 355 423
#     4  12  25  48  75 103 144 191 233 292 360 422
#     4  12  26  47  71 106 145 185 240 294 355 423
#     4  12  25  48  75 103 144 191 233 292 360 422
#     4  12  27  48  72 106 145 186 238 296 354 426
#     4  12  27  48  72 106 145 186 238 296 354 426
#     4  12  25  46  77 102 141 188 240 292 358 423
#     4  12  25  46  77 102 141 188 240 292 358 423
#
# _framework density 23.249103999999999
#
# number of rings (size 3 to 8) (size 9 to 14) (size 15 to 20)
#    0.000    0.000    5.000    5.250    3.500    1.000 
#    4.500    0.000    0.000    0.000    0.000    0.000 
#    0.000    0.000    0.000    0.000    0.000    0.000 
#
# Total GULP energy -89529.149361 kJ/mol
# GULP energy per Si atom -5595.571835 kJ/mol
# Density = 2.319619 g / cm^3
# Si number density = 23.249104 Si / 1000 Ang^3
#
#
#
# Elastic Constant Matrix: (Units=GPa)
#
#
# Indices 1 2 3 4 5 6 
#
# 1 43.4525 -7.0309 -1.9604 0.0000 8.1191 0.0000
# 2 -7.0309 152.0282 26.1106 0.0000 12.8439 0.0000
# 3 -1.9604 26.1106 121.0259 0.0000 9.8334 0.0000
# 4 0.0000 0.0000 0.0000 22.5862 0.0000 -8.4142
# 5 8.1191 12.8439 9.8334 0.0000 28.5181 0.0000
# 6 0.0000 0.0000 0.0000 -8.4142 0.0000 20.8371
#
#
#
# Elastic Compliance Matrix: (Units=1/GPa)
#
#
# Indices 1 2 3 4 5 6 
#
# 1 0.024831 0.001713 0.000689 0.000000 -0.008078 0.000000
# 2 0.001713 0.007148 -0.001248 0.000000 -0.003277 0.000000
# 3 0.000689 -0.001248 0.008759 0.000000 -0.002654 0.000000
# 4 0.000000 0.000000 0.000000 0.052115 0.000000 0.021044
# 5 -0.008078 -0.003277 -0.002654 0.000000 0.039756 0.000000
# 6 0.000000 0.000000 0.000000 0.021044 0.000000 0.056489
#
#
# Mechanical properties :
#
#
# Convention : Reuss Voigt Hill
#
# Bulk Modulus (GPa) = 23.23148 38.97170 31.10159
# Shear Modulus (GPa) = 24.85834 34.34743 29.60289
#
# Velocity S-wave (km/s) = 3.27344 3.84782 3.57219
# Velocity P-wave (km/s) = 4.92963 6.04484 5.51549
#
# Compressibility (1/GPa) = 0.04304504
#
# Stress axis : x y z
#
# Youngs Moduli (GPa) = 40.27183 139.89702 114.17086
#
# Poissons Ratio (x) = -0.23957 -0.07868
# Poissons Ratio (y) = -0.06897 0.14251
# Poissons Ratio (z) = -0.02775 0.17462
#
# Static dielectric constant tensor:
#      x y z
#    x 1.907600 0.000000 0.015680 
#    y 0.000000 1.861630 0.000000 
#    z 0.015680 0.000000 1.934210 
# 
# From -- ./inp_files/22731.got.cif
#   From: 2010.05.17/outbox.cif.g08.bks.cpg/sg9_12_cif.got.tgz:22731.got - 2010.06.03 20:04:27.
