data_PCOD9141424
_publ_section_title
;
Structure prediction by ZEFSAII (Michael W. Deem and Ramdas Pophale) SiO2 
 PCOD9141424
Probable space group: P 2/M
;
_chemical_formula_sum "Si O2"
_cell_formula_units_Z 30
_cell_length_a 24.816447
_cell_length_b 7.631593
_cell_length_c 7.053212
_cell_angle_alpha 90.000000
_cell_angle_beta 121.975649
_cell_angle_gamma 90.000000
_cell_volume 1133.124181
_symmetry_space_group_name_H-M "P 2/M"
_symmetry_group_IT_number 10
_symmetry_cell_setting 'monoclinic'
loop_
_space_group_symop_operation_xyz
x,y,z
-x,y,-z
-x,-y,-z
x,-y,z
loop_
_atom_site_type_symbol
_atom_site_label
_atom_site_fract_x
_atom_site_fract_y
_atom_site_fract_z
Si Si1 0.515681 0.801538 0.747725
Si Si2 0.651376 0.804245 0.053999
Si Si3 0.749580 0.700609 0.811557
Si Si4 0.153552 0.000000 0.883489
Si Si5 0.944466 0.709921 0.168585
Si Si6 0.623193 0.299461 0.405361
Si Si7 0.085010 0.706122 0.334719
Si Si8 0.224720 0.793791 0.575725
O O1 0.500000 0.815582 0.500000
O O2 0.452211 0.717894 0.712297
O O3 0.521976 0.000000 0.836707
O O4 0.584761 0.712900 0.881832
O O5 0.642844 0.816408 0.266066
O O6 0.721287 0.720462 0.181938
O O7 0.651311 0.000000 0.968956
O O8 0.761344 0.500000 0.891354
O O9 0.672930 0.738651 0.667972
O O10 0.769828 0.711640 0.623564
O O11 0.790877 0.847700 0.986784
O O12 0.098941 0.155896 0.800764
O O13 0.937139 0.500000 0.198214
O O14 0.019327 0.755574 0.312523
O O15 0.925200 0.733731 0.910095
O O16 0.637036 0.500000 0.382156
O O17 0.092484 0.500000 0.378106
O O18 0.152331 0.788428 0.511716
O O19 0.238027 0.000000 0.582342
#
# Coordination Sequence:
#
# PCOD9141424 Si02
#       8
#     4   4   4   2   4   4   4   4
#     4  10  21  37  56  76 102 137 172 210 259 312
#     4   9  19  33  51  76 102 132 173 218 257 305
#     4  10  19  29  41  64  92 121 163 209 253 299
#     4  12  18  25  42  58  84 126 166 204 252 298
#     4   9  18  26  34  53  83 120 166 206 242 297
#     4  10  21  34  52  76 102 132 169 216 262 309
#     4   9  16  25  34  50  81 120 160 203 245 290
#     4  10  16  25  42  61  86 123 166 206 251 299
#
# _framework density 26.475470999999999
#
# number of rings (size 3 to 8) (size 9 to 14) (size 15 to 20)
#    0.000    2.267    2.000    2.400    2.800    3.467 
#    0.000    0.000    0.000    0.000    0.000    0.000 
#    0.000    0.000    0.000    2.400    0.267   11.867 
#
# Total GULP energy -167283.562967 kJ/mol
# GULP energy per Si atom -5576.118766 kJ/mol
# Density = 2.641521 g / cm^3
# Si number density = 26.475471 Si / 1000 Ang^3
#
#
#
# Elastic Constant Matrix: (Units=GPa)
#
#
# Indices 1 2 3 4 5 6 
#
# 1 166.7211 53.4563 62.2024 0.0000 55.0312 0.0000
# 2 53.4563 143.5135 53.4603 0.0000 23.3162 0.0000
# 3 62.2024 53.4603 134.9069 0.0000 57.7883 0.0000
# 4 0.0000 0.0000 0.0000 1.0078 0.0000 17.5129
# 5 55.0312 23.3162 57.7883 0.0000 68.6041 0.0000
# 6 0.0000 0.0000 0.0000 17.5129 0.0000 30.8651
#
#
#
# Elastic Compliance Matrix: (Units=1/GPa)
#
#
# Indices 1 2 3 4 5 6 
#
# 1 0.008849 -0.002064 -0.000817 0.000000 -0.005709 0.000000
# 2 -0.002064 0.008657 -0.003016 0.000000 0.001254 0.000000
# 3 -0.000817 -0.003016 0.012930 0.000000 -0.009211 0.000000
# 4 0.000000 0.000000 0.000000 -0.111994 0.000000 0.063546
# 5 -0.005709 0.001254 -0.009211 0.000000 0.026489 0.000000
# 6 0.000000 0.000000 0.000000 0.063546 0.000000 -0.003657
#
#
# Mechanical properties :
#
#
# Convention : Reuss Voigt Hill
#
# Bulk Modulus (GPa) = 53.64274 87.04216 70.34245
# Shear Modulus (GPa) = -122.79249 38.49689 -42.14780
#
# Velocity S-wave (km/s) = -6.81765 3.81735 -3.99426
# Velocity P-wave (km/s) = 6.45512 7.23723 2.31396
#
# Compressibility (1/GPa) = 0.01864185
#
# Stress axis : x y z
#
# Youngs Moduli (GPa) = 113.00736 115.51892 77.34022
#
# Poissons Ratio (x) = 0.23848 0.06315
# Poissons Ratio (y) = 0.23329 0.23324
# Poissons Ratio (z) = 0.09228 0.34838
#
# Static dielectric constant tensor:
#      x y z
#    x 2.201750 0.000000 0.029970 
#    y 0.000000 1.987570 0.000000 
#    z 0.029970 0.000000 2.174760 
# 
# From -- ./inp_files/36754.got.cif
#   From: 2010.05.17/outbox.cif.g08.bks.cpg/sg10_19_cif.got.tgz:36754.got - 2010.06.03 11:33:40.
