data_PCOD9141540
_publ_section_title
;
Structure prediction by ZEFSAII (Michael W. Deem and Ramdas Pophale) SiO2 
 PCOD9141540
Probable space group: P 2/M
;
_chemical_formula_sum "Si O2"
_cell_formula_units_Z 32
_cell_length_a 12.329401
_cell_length_b 8.852217
_cell_length_c 24.409485
_cell_angle_alpha 90.000000
_cell_angle_beta 50.602934
_cell_angle_gamma 90.000000
_cell_volume 2058.736168
_symmetry_space_group_name_H-M "P 2/M"
_symmetry_group_IT_number 10
_symmetry_cell_setting 'monoclinic'
loop_
_space_group_symop_operation_xyz
x,y,z
-x,y,-z
-x,-y,-z
x,-y,z
loop_
_atom_site_type_symbol
_atom_site_label
_atom_site_fract_x
_atom_site_fract_y
_atom_site_fract_z
Si Si1 0.152066 0.819721 0.509275
Si Si2 0.585337 0.821660 0.740941
Si Si3 0.592655 0.177435 0.314437
Si Si4 0.105226 0.824099 0.018881
Si Si5 0.161009 0.181422 0.838052
Si Si6 0.428321 0.321792 0.464932
Si Si7 0.338322 0.677809 0.879830
Si Si8 0.857250 0.319521 0.609071
O O1 0.285947 0.771031 0.501348
O O2 0.171414 0.749856 0.442198
O O3 0.007193 0.749541 0.577764
O O4 0.141248 0.000000 0.508266
O O5 0.500224 0.799119 0.710836
O O6 0.484280 0.762538 0.821482
O O7 0.730363 0.733042 0.688166
O O8 0.610101 0.000000 0.738482
O O9 0.753276 0.208748 0.244979
O O10 0.532831 0.276379 0.382367
O O11 0.579719 0.000000 0.332907
O O12 0.003478 0.783650 0.102251
O O13 0.144201 0.000000 0.010162
O O14 0.243897 0.729938 0.961468
O O15 0.000000 0.810360 0.000000
O O16 0.242888 0.273828 0.858330
O O17 0.176922 0.000000 0.844868
O O18 0.500000 0.289312 0.500000
O O19 0.396575 0.500000 0.472013
O O20 0.360524 0.500000 0.873268
O O21 0.865001 0.500000 0.602762
#
# Coordination Sequence:
#
# PCOD9141540 Si02
#       8
#     4   4   4   4   4   4   4   4
#     4  11  21  34  50  68  89 116 148 182 222 272
#     4  10  18  29  43  61  85 115 147 181 218 262
#     4   9  17  29  45  62  81 107 145 187 223 268
#     4   8  13  23  35  47  69 104 139 172 210 254
#     4   8  15  26  38  51  72 103 139 177 217 257
#     4  11  23  36  49  66  90 118 149 190 235 273
#     4  10  17  22  32  53  79 107 140 177 212 252
#     4  11  20  31  49  70  92 115 143 185 228 266
#
# _framework density 15.543516
#
# number of rings (size 3 to 8) (size 9 to 14) (size 15 to 20)
#    0.000    2.250    1.250    6.375    0.000    5.250 
#    0.000    0.000    0.000    0.000    0.000    0.000 
#    0.000    0.000    0.000    1.125    0.000   21.875 
#
# Total GULP energy -178296.704527 kJ/mol
# GULP energy per Si atom -5571.772016 kJ/mol
# Density = 1.550814 g / cm^3
# Si number density = 15.543516 Si / 1000 Ang^3
#
#
#
# Elastic Constant Matrix: (Units=GPa)
#
#
# Indices 1 2 3 4 5 6 
#
# 1 38.8683 37.4808 35.9786 0.0000 -12.8100 0.0000
# 2 37.4808 102.2926 53.3847 0.0000 -17.1361 0.0000
# 3 35.9786 53.3847 96.7979 0.0000 -34.6959 0.0000
# 4 0.0000 0.0000 0.0000 -2.8907 0.0000 12.1912
# 5 -12.8100 -17.1361 -34.6959 0.0000 18.9655 0.0000
# 6 0.0000 0.0000 0.0000 12.1912 0.0000 -5.5465
#
#
#
# Elastic Compliance Matrix: (Units=1/GPa)
#
#
# Indices 1 2 3 4 5 6 
#
# 1 0.047169 -0.011500 -0.010151 0.000000 0.002899 0.000000
# 2 -0.011500 0.016647 -0.006679 0.000000 -0.004945 0.000000
# 3 -0.010151 -0.006679 0.038245 0.000000 0.057076 0.000000
# 4 0.000000 0.000000 0.000000 0.041831 0.000000 0.091945
# 5 0.002899 -0.004945 0.057076 0.000000 0.154633 0.000000
# 6 0.000000 0.000000 0.000000 0.091945 0.000000 0.021801
#
#
# Mechanical properties :
#
#
# Convention : Reuss Voigt Hill
#
# Bulk Modulus (GPa) = 22.02552 54.62743 38.32647
# Shear Modulus (GPa) = 12.75125 9.51332 11.13229
#
# Velocity S-wave (km/s) = 2.86730 2.47664 2.67910
# Velocity P-wave (km/s) = 5.01626 6.58782 5.85501
#
# Compressibility (1/GPa) = 0.04540189
#
# Stress axis : x y z
#
# Youngs Moduli (GPa) = 21.20043 60.07179 26.14711
#
# Poissons Ratio (x) = 0.69082 0.26541
# Poissons Ratio (y) = 0.24380 0.17463
# Poissons Ratio (z) = 0.21520 0.40121
#
# Static dielectric constant tensor:
#      x y z
#    x 1.492090 0.000000 -0.030470 
#    y 0.000000 1.517920 0.000000 
#    z -0.030470 0.000000 1.565590 
# 
# From -- ./inp_files/88530.got.cif
#   From: 2010.05.17/outbox.cif.g08.bks.cpg/sg10_45_cif.got.tgz:88530.got - 2010.06.03 11:33:40.
