data_PCOD9141718
_publ_section_title
;
Structure prediction by ZEFSAII (Michael W. Deem and Ramdas Pophale) SiO2 
 PCOD9141718
Probable space group: P 2/M
;
_chemical_formula_sum "Si O2"
_cell_formula_units_Z 24
_cell_length_a 25.427603
_cell_length_b 8.683762
_cell_length_c 18.985305
_cell_angle_alpha 90.000000
_cell_angle_beta 19.092417
_cell_angle_gamma 90.000000
_cell_volume 1371.203591
_symmetry_space_group_name_H-M "P 2/M"
_symmetry_group_IT_number 10
_symmetry_cell_setting 'monoclinic'
loop_
_space_group_symop_operation_xyz
x,y,z
-x,y,-z
-x,-y,-z
x,-y,z
loop_
_atom_site_type_symbol
_atom_site_label
_atom_site_fract_x
_atom_site_fract_y
_atom_site_fract_z
Si Si1 0.243817 0.686106 0.349964
Si Si2 0.433545 0.685020 0.974265
Si Si3 0.917299 0.815733 0.825284
Si Si4 0.601209 0.185106 0.137006
Si Si5 0.737269 0.316821 0.175784
Si Si6 0.579409 0.815606 0.501119
O O1 0.226613 0.500000 0.372846
O O2 0.394300 0.726834 0.209760
O O3 0.082400 0.763091 0.581441
O O4 0.297850 0.732667 0.202705
O O5 0.428597 0.500000 0.977316
O O6 0.412061 0.750442 0.924061
O O7 0.911259 0.000000 0.840795
O O8 0.768238 0.767884 0.963420
O O9 0.887259 0.738918 0.939580
O O10 0.454869 0.230306 0.374710
O O11 0.601329 0.000000 0.134034
O O12 0.720145 0.500000 0.193933
O O13 0.585492 0.236162 0.329014
O O14 0.721394 0.261748 0.276607
O O15 0.593744 0.000000 0.478562
#
# Coordination Sequence:
#
# PCOD9141718 Si02
#       6
#     4   4   4   4   4   4
#     4   9  19  36  53  72  96 127 165 203 243 294
#     4   9  19  35  54  72  96 128 163 202 246 292
#     4  10  20  33  49  73 102 132 162 201 247 289
#     4   9  19  32  48  73 103 130 162 200 241 287
#     4  10  17  26  44  70  97 128 164 201 238 286
#     4   9  16  28  44  66  99 133 161 197 240 286
#
# _framework density 17.502870999999999
#
# number of rings (size 3 to 8) (size 9 to 14) (size 15 to 20)
#    0.000    2.667    0.000    5.500    0.000    6.000 
#    0.000    5.000    0.000    1.000    0.000    7.000 
#    0.000    0.000    0.000    0.000    0.000    0.000 
#
# Total GULP energy -133719.003588 kJ/mol
# GULP energy per Si atom -5571.625149 kJ/mol
# Density = 1.746303 g / cm^3
# Si number density = 17.502871 Si / 1000 Ang^3
#
#
#
# Elastic Constant Matrix: (Units=GPa)
#
#
# Indices 1 2 3 4 5 6 
#
# 1 63.7580 26.2942 107.6553 0.0000 34.8235 0.0000
# 2 26.2942 28.2863 28.3898 0.0000 11.5987 0.0000
# 3 107.6553 28.3898 91.8578 0.0000 48.8938 0.0000
# 4 0.0000 0.0000 0.0000 27.8806 0.0000 10.3109
# 5 34.8235 11.5987 48.8938 0.0000 26.3234 0.0000
# 6 0.0000 0.0000 0.0000 10.3109 0.0000 27.0731
#
#
#
# Elastic Compliance Matrix: (Units=1/GPa)
#
#
# Indices 1 2 3 4 5 6 
#
# 1 0.000617 -0.007668 0.024970 0.000000 -0.043818 0.000000
# 2 -0.007668 0.049571 -0.009475 0.000000 0.005901 0.000000
# 3 0.024970 -0.009475 -0.007864 0.000000 -0.014251 0.000000
# 4 0.000000 0.000000 0.000000 0.041747 0.000000 -0.015900
# 5 -0.043818 0.005901 -0.014251 0.000000 0.119826 0.000000
# 6 0.000000 0.000000 0.000000 -0.015900 0.000000 0.042993
#
#
# Mechanical properties :
#
#
# Convention : Reuss Voigt Hill
#
# Bulk Modulus (GPa) = 17.24789 56.50897 36.87843
# Shear Modulus (GPa) = 19.95538 17.69293 18.82415
#
# Velocity S-wave (km/s) = 3.38023 3.18285 3.28302
# Velocity P-wave (km/s) = 5.01102 6.77222 5.95707
#
# Compressibility (1/GPa) = 0.05797811
#
# Stress axis : x y z
#
# Youngs Moduli (GPa) = 1621.87829 20.17326 -127.15433
#
# Poissons Ratio (x) = 0.15468 3.17509
# Poissons Ratio (y) = 12.43595 -1.20479
# Poissons Ratio (z) = -40.49886 0.19114
#
# Static dielectric constant tensor:
#      x y z
#    x 1.603560 0.000000 0.035110 
#    y 0.000000 1.587570 0.000000 
#    z 0.035110 0.000000 1.613640 
# 
# From -- ./inp_files/52868.got.cif
#   From: 2010.05.17/outbox.cif.g08.bks.cpg/sg10_27_cif.got.tgz:52868.got - 2010.06.03 11:33:40.
