data_PCOD9141825
_publ_section_title
;
Structure prediction by ZEFSAII (Michael W. Deem and Ramdas Pophale) SiO2 
 PCOD9141825
Probable space group: P 2/M
;
_chemical_formula_sum "Si O2"
_cell_formula_units_Z 24
_cell_length_a 5.338509
_cell_length_b 16.735515
_cell_length_c 20.977272
_cell_angle_alpha 90.000000
_cell_angle_beta 120.889117
_cell_angle_gamma 90.000000
_cell_volume 1608.338913
_symmetry_space_group_name_H-M "P 2/M"
_symmetry_group_IT_number 10
_symmetry_cell_setting 'monoclinic'
loop_
_space_group_symop_operation_xyz
x,y,z
-x,y,-z
-x,-y,-z
x,-y,z
loop_
_atom_site_type_symbol
_atom_site_label
_atom_site_fract_x
_atom_site_fract_y
_atom_site_fract_z
Si Si1 0.690874 0.597242 0.329644
Si Si2 0.361483 0.597396 0.414622
Si Si3 0.242788 0.405122 0.160656
Si Si4 0.585810 0.346780 0.082668
Si Si5 0.048602 0.905920 0.915123
Si Si6 0.450412 0.839587 0.084024
O O1 0.695538 0.500000 0.330103
O O2 0.553310 0.622511 0.379099
O O3 0.479026 0.621094 0.244363
O O4 0.025015 0.623363 0.365028
O O5 0.500000 0.622328 0.500000
O O6 0.361328 0.500000 0.414369
O O7 0.192611 0.500000 0.161042
O O8 0.390289 0.388993 0.111204
O O9 0.931803 0.363197 0.132164
O O10 0.512380 0.253028 0.080854
O O11 0.500000 0.372311 0.000000
O O12 0.245534 0.886194 0.879978
O O13 0.747005 0.858369 0.880773
O O14 0.001689 0.000000 0.916455
O O15 0.250039 0.873948 0.999976
#
# Coordination Sequence:
#
# PCOD9141825 Si02
#       6
#     4   4   4   4   4   4
#     4   9  17  30  43  58  83 104 128 167 209 264
#     4   9  15  24  43  67  85 101 119 148 202 265
#     4  11  24  37  48  60  76 110 152 191 240 274
#     4  12  23  35  50  60  79 106 145 200 244 269
#     4  10  17  28  47  67  85 103 121 150 215 280
#     4  10  18  29  43  64  84 102 125 164 220 271
#
# _framework density 14.922228
#
# number of rings (size 3 to 8) (size 9 to 14) (size 15 to 20)
#    0.000    1.833    1.667    6.000    2.333    6.667 
#    0.000    0.000    0.000    0.000    0.000    0.000 
#    0.000    0.000    0.000    0.000    0.000    0.000 
#
# Total GULP energy -133748.491339 kJ/mol
# GULP energy per Si atom -5572.853806 kJ/mol
# Density = 1.488826 g / cm^3
# Si number density = 14.922228 Si / 1000 Ang^3
#
#
#
# Elastic Constant Matrix: (Units=GPa)
#
#
# Indices 1 2 3 4 5 6 
#
# 1 113.7840 11.3368 6.8342 0.0000 9.4225 0.0000
# 2 11.3368 32.1410 11.2719 0.0000 3.1679 0.0000
# 3 6.8342 11.2719 35.5638 0.0000 4.5918 0.0000
# 4 0.0000 0.0000 0.0000 -1.8024 0.0000 3.3206
# 5 9.4225 3.1679 4.5918 0.0000 23.2876 0.0000
# 6 0.0000 0.0000 0.0000 3.3206 0.0000 24.0426
#
#
#
# Elastic Compliance Matrix: (Units=1/GPa)
#
#
# Indices 1 2 3 4 5 6 
#
# 1 0.009372 -0.002810 -0.000482 0.000000 -0.003315 0.000000
# 2 -0.002810 0.036005 -0.010658 0.000000 -0.001660 0.000000
# 3 -0.000482 -0.010658 0.032196 0.000000 -0.004703 0.000000
# 4 0.000000 0.000000 0.000000 -0.442271 0.000000 0.061083
# 5 -0.003315 -0.001660 -0.004703 0.000000 0.045436 0.000000
# 6 0.000000 0.000000 0.000000 0.061083 0.000000 0.033156
#
#
# Mechanical properties :
#
#
# Convention : Reuss Voigt Hill
#
# Bulk Modulus (GPa) = 20.13129 26.70830 23.41979
# Shear Modulus (GPa) = -20.69129 19.24195 -0.72467
#
# Velocity S-wave (km/s) = -3.72776 3.59483 -0.69763
# Velocity P-wave (km/s) = 2.23789 5.93023 3.88326
#
# Compressibility (1/GPa) = 0.04967391
#
# Stress axis : x y z
#
# Youngs Moduli (GPa) = 106.70079 27.77376 31.05937
#
# Poissons Ratio (x) = 0.07804 0.01498
# Poissons Ratio (y) = 0.29981 0.33102
# Poissons Ratio (z) = 0.05148 0.29600
#
# Static dielectric constant tensor:
#      x y z
#    x 1.514230 0.000000 0.075820 
#    y 0.000000 1.483260 0.000000 
#    z 0.075820 0.000000 1.355790 
# 
# From -- ./inp_files/11189.got.cif
#   From: 2010.05.17/outbox.cif.g08.bks.cpg/sg10_6_cif.got.tgz:11189.got - 2010.06.03 11:33:40.
