data_PCOD9141057
_publ_section_title
;
Structure prediction by ZEFSAII (Michael W. Deem and Ramdas Pophale) SiO2 
 PCOD9141057
Probable space group: C C
;
_chemical_formula_sum "Si O2"
_cell_formula_units_Z 32
_cell_length_a 14.981230
_cell_length_b 11.454244
_cell_length_c 9.435003
_cell_angle_alpha 90.000000
_cell_angle_beta 56.753291
_cell_angle_gamma 90.000000
_cell_volume 1354.026630
_symmetry_space_group_name_H-M "C C"
_symmetry_group_IT_number 9
_symmetry_cell_setting 'monoclinic'
loop_
_space_group_symop_operation_xyz
x,y,z
x,-y,1/2+z
1/2+x,1/2+y,z
1/2+x,1/2-y,1/2+z
loop_
_atom_site_type_symbol
_atom_site_label
_atom_site_fract_x
_atom_site_fract_y
_atom_site_fract_z
Si Si1 0.155950 0.441919 0.745140
Si Si2 0.785197 0.935524 0.905260
Si Si3 0.630858 0.624470 0.453513
Si Si4 0.353241 0.069587 0.361908
Si Si5 0.509315 0.474810 0.325376
Si Si6 0.863967 0.301710 0.388567
Si Si7 0.518983 0.856057 0.494755
Si Si8 0.966318 0.275950 0.990766
O O1 0.254800 0.440470 0.767907
O O2 0.206358 0.473461 0.550719
O O3 0.080120 0.550597 0.847916
O O4 0.080669 0.332404 0.847999
O O5 0.775343 0.799991 0.962383
O O6 0.905038 0.968984 0.843836
O O7 0.757448 0.616484 0.349802
O O8 0.573840 0.559342 0.373413
O O9 0.587436 0.564317 0.632754
O O10 0.595770 0.757945 0.486922
O O11 0.378948 0.150580 0.475182
O O12 0.327322 0.936146 0.421761
O O13 0.458400 0.077842 0.173349
O O14 0.472092 0.357923 0.438936
O O15 0.935076 0.290601 0.466535
O O16 0.934095 0.286641 0.183451
#
# Coordination Sequence:
#
# PCOD9141057 Si02
#       8
#     4   4   4   4   4   4   4   4
#     4  12  26  47  77 111 144 203 245 306 381 449
#     4  12  28  46  77 109 151 194 251 308 383 447
#     4  12  30  46  76 106 151 202 247 307 386 444
#     4  12  27  50  76 108 148 202 251 309 381 453
#     4  12  28  50  69 110 153 194 249 309 372 459
#     4  12  25  49  75 107 152 192 245 325 364 445
#     4  12  26  51  73 107 151 193 255 314 368 462
#     4  12  26  49  75 108 156 192 253 312 369 455
#
# _framework density 23.633213999999999
#
# number of rings (size 3 to 8) (size 9 to 14) (size 15 to 20)
#    0.000    0.000    5.000    3.750    8.750    0.000 
#    0.000    0.000    0.000    0.000    0.000    0.000 
#    0.000    0.000    0.000    0.000    0.000    0.000 
#
# Total GULP energy -89679.204540 kJ/mol
# GULP energy per Si atom -5604.950284 kJ/mol
# Density = 2.357942 g / cm^3
# Si number density = 23.633214 Si / 1000 Ang^3
#
#
#
# Elastic Constant Matrix: (Units=GPa)
#
#
# Indices 1 2 3 4 5 6 
#
# 1 100.8893 37.4156 13.1901 0.0000 -4.0718 0.0000
# 2 37.4156 103.6945 -16.2565 0.0000 -2.2862 0.0000
# 3 13.1901 -16.2565 22.3319 0.0000 4.2231 0.0000
# 4 0.0000 0.0000 0.0000 27.8433 0.0000 6.9095
# 5 -4.0718 -2.2862 4.2231 0.0000 32.9998 0.0000
# 6 0.0000 0.0000 0.0000 6.9095 0.0000 40.3374
#
#
#
# Elastic Compliance Matrix: (Units=1/GPa)
#
#
# Indices 1 2 3 4 5 6 
#
# 1 0.014809 -0.007607 -0.014891 0.000000 0.003206 0.000000
# 2 -0.007607 0.014796 0.015626 0.000000 -0.001913 0.000000
# 3 -0.014891 0.015626 0.066706 0.000000 -0.009291 0.000000
# 4 0.000000 0.000000 0.000000 0.037510 0.000000 -0.006425
# 5 0.003206 -0.001913 -0.009291 0.000000 0.031755 0.000000
# 6 0.000000 0.000000 0.000000 -0.006425 0.000000 0.025891
#
#
# Mechanical properties :
#
#
# Convention : Reuss Voigt Hill
#
# Bulk Modulus (GPa) = 12.11146 32.84604 22.47875
# Shear Modulus (GPa) = 21.48363 33.07387 27.27875
#
# Velocity S-wave (km/s) = 3.01831 3.74500 3.40112
# Velocity P-wave (km/s) = 4.15726 5.71213 4.99556
#
# Compressibility (1/GPa) = 0.08256645
#
# Stress axis : x y z
#
# Youngs Moduli (GPa) = 67.52493 67.58495 14.99115
#
# Poissons Ratio (x) = 0.51415 0.22323
# Poissons Ratio (y) = 0.51369 -0.23425
# Poissons Ratio (z) = 1.00552 -1.05608
#
# Static dielectric constant tensor:
#      x y z
#    x 1.893190 0.000000 -0.000300 
#    y 0.000000 1.877920 0.000000 
#    z -0.000300 0.000000 1.885670 
# 
# From -- ./inp_files/9232.got.cif
#   From: 2010.05.17/outbox.cif.g08.bks.cpg/sg9_5_cif.got.tgz:9232.got - 2010.06.03 20:04:27.
