data_PCOD9141467
_publ_section_title
;
Structure prediction by ZEFSAII (Michael W. Deem and Ramdas Pophale) SiO2 
 PCOD9141467
Probable space group: P 2/M
;
_chemical_formula_sum "Si O2"
_cell_formula_units_Z 24
_cell_length_a 11.831420
_cell_length_b 7.519579
_cell_length_c 24.268015
_cell_angle_alpha 90.000000
_cell_angle_beta 24.255210
_cell_angle_gamma 90.000000
_cell_volume 886.945525
_symmetry_space_group_name_H-M "P 2/M"
_symmetry_group_IT_number 10
_symmetry_cell_setting 'monoclinic'
loop_
_space_group_symop_operation_xyz
x,y,z
-x,y,-z
-x,-y,-z
x,-y,z
loop_
_atom_site_type_symbol
_atom_site_label
_atom_site_fract_x
_atom_site_fract_y
_atom_site_fract_z
Si Si1 0.676166 0.219285 0.586321
Si Si2 0.800583 0.713030 0.817992
Si Si3 0.784677 0.792629 0.704574
Si Si4 0.360370 0.788582 0.617771
Si Si5 0.805142 0.203836 0.131615
Si Si6 0.273499 0.296680 0.997083
O O1 0.989924 0.276311 0.438174
O O2 0.507129 0.278659 0.607374
O O3 0.489631 0.278046 0.720402
O O4 0.680497 0.000000 0.586135
O O5 0.776665 0.500000 0.828243
O O6 0.481454 0.775589 0.951850
O O7 0.921799 0.776816 0.704867
O O8 0.031725 0.759806 0.759357
O O9 0.489740 0.708447 0.848983
O O10 0.740659 0.000000 0.712991
O O11 0.500000 0.714999 0.500000
O O12 0.403377 0.000000 0.598997
O O13 0.759381 0.000000 0.134532
O O14 0.000889 0.200208 0.098731
O O15 0.000000 0.293327 0.000000
O O16 0.202762 0.500000 0.040653
#
# Coordination Sequence:
#
# PCOD9141467 Si02
#       6
#     4   4   4   4   4   4
#     4   9  18  32  52  82 110 133 176 224 259 305
#     4   9  18  29  46  75 109 139 170 206 251 310
#     4   9  15  30  55  77 103 139 174 214 259 303
#     4  10  16  27  49  76 106 142 174 209 258 309
#     4  10  21  38  59  79 101 135 178 222 266 312
#     4   9  19  35  54  77 107 141 174 214 262 316
#
# _framework density 27.059159999999999
#
# number of rings (size 3 to 8) (size 9 to 14) (size 15 to 20)
#    1.000    1.667    1.667    1.000    0.000    0.667 
#    0.000    4.167    0.000   10.000    0.000    0.000 
#    0.000    0.000    0.000    0.000    0.000    0.000 
#
# Total GULP energy -134041.478441 kJ/mol
# GULP energy per Si atom -5585.061602 kJ/mol
# Density = 2.699757 g / cm^3
# Si number density = 27.059160 Si / 1000 Ang^3
#
#
#
# Elastic Constant Matrix: (Units=GPa)
#
#
# Indices 1 2 3 4 5 6 
#
# 1 114.1375 -1.0146 51.3432 0.0000 -18.2880 0.0000
# 2 -1.0146 81.1341 -2.7597 0.0000 3.8429 0.0000
# 3 51.3432 -2.7597 180.8284 0.0000 -8.9281 0.0000
# 4 0.0000 0.0000 0.0000 8.6971 0.0000 6.6652
# 5 -18.2880 3.8429 -8.9281 0.0000 47.5685 0.0000
# 6 0.0000 0.0000 0.0000 6.6652 0.0000 -0.0524
#
#
#
# Elastic Compliance Matrix: (Units=1/GPa)
#
#
# Indices 1 2 3 4 5 6 
#
# 1 0.010607 -0.000132 -0.002838 0.000000 0.003556 0.000000
# 2 -0.000132 0.012378 0.000176 0.000000 -0.001018 0.000000
# 3 -0.002838 0.000176 0.006343 0.000000 0.000085 0.000000
# 4 0.000000 0.000000 0.000000 0.001168 0.000000 0.148509
# 5 0.003556 -0.001018 0.000085 0.000000 0.022488 0.000000
# 6 0.000000 0.000000 0.000000 0.148509 0.000000 -0.193781
#
#
# Mechanical properties :
#
#
# Convention : Reuss Voigt Hill
#
# Bulk Modulus (GPa) = 42.12480 52.35975 47.24228
# Shear Modulus (GPa) = -39.27811 33.14470 -3.06671
#
# Velocity S-wave (km/s) = -3.81407 3.50365 -1.06574
# Velocity P-wave (km/s) = 1.94801 5.97993 3.99780
#
# Compressibility (1/GPa) = 0.02373898
#
# Stress axis : x y z
#
# Youngs Moduli (GPa) = 94.28119 80.78966 157.65896
#
# Poissons Ratio (x) = 0.01069 0.44744
# Poissons Ratio (y) = 0.01247 -0.02778
# Poissons Ratio (z) = 0.26757 -0.01424
#
# Static dielectric constant tensor:
#      x y z
#    x 2.248910 0.000000 0.102090 
#    y 0.000000 1.968310 0.000000 
#    z 0.102090 0.000000 2.176030 
# 
# From -- ./inp_files/92484.got.cif
#   From: 2010.05.17/outbox.cif.g08.bks.cpg/sg10_47_cif.got.tgz:92484.got - 2010.06.03 11:33:40.
