data_PCOD9141363
_publ_section_title
;
Structure prediction by ZEFSAII (Michael W. Deem and Ramdas Pophale) SiO2 
 PCOD9141363
Probable space group: P 2/M
;
_chemical_formula_sum "Si O2"
_cell_formula_units_Z 20
_cell_length_a 16.420749
_cell_length_b 13.830704
_cell_length_c 9.141324
_cell_angle_alpha 90.000000
_cell_angle_beta 157.951268
_cell_angle_gamma 90.000000
_cell_volume 779.354242
_symmetry_space_group_name_H-M "P 2/M"
_symmetry_group_IT_number 10
_symmetry_cell_setting 'monoclinic'
loop_
_space_group_symop_operation_xyz
x,y,z
-x,y,-z
-x,-y,-z
x,-y,z
loop_
_atom_site_type_symbol
_atom_site_label
_atom_site_fract_x
_atom_site_fract_y
_atom_site_fract_z
Si Si1 0.609192 0.697926 0.843897
Si Si2 0.109543 0.500000 0.344269
Si Si3 0.260870 0.500000 0.029105
Si Si4 0.109674 0.894918 0.343640
Si Si5 0.760744 0.302346 0.529123
Si Si6 0.262460 0.105279 0.031660
O O1 0.500000 0.699810 0.500000
O O2 0.745901 0.599220 0.072888
O O3 0.416604 0.694562 0.639595
O O4 0.738477 0.798757 0.067509
O O5 0.243092 0.400428 0.570914
O O6 0.000000 0.500000 0.000000
O O7 0.917266 0.500000 0.141162
O O8 0.500000 0.500000 0.500000
O O9 0.250727 0.797842 0.577781
O O10 0.218186 0.000000 0.544358
O O11 0.000000 0.898175 0.000000
O O12 0.915552 0.886192 0.137517
O O13 0.000000 0.301175 0.000000
O O14 0.500000 0.102201 0.500000
O O15 0.234841 0.000000 0.912291
#
# Coordination Sequence:
#
# PCOD9141363 Si02
#       6
#     4   2   2   4   4   4
#     4  10  16  21  27  33  39  44  50  56  62  68
#     4  10  16  22  28  32  38  44  50  56  62  68
#     4  10  16  22  28  32  38  44  50  56  62  68
#     4   9  15  21  27  33  39  45  51  56  61  67
#     4  10  16  21  27  33  39  44  50  56  62  68
#     4   9  15  21  27  33  39  45  51  56  61  67
#
# _framework density 25.662268999999998
#
# number of rings (size 3 to 8) (size 9 to 14) (size 15 to 20)
#    0.000    2.400    0.000   11.400    0.000    2.400 
#    0.000    0.000    0.000    0.000    0.000    0.000 
#    0.000    0.000    0.000    0.000    0.000    0.000 
#
# Total GULP energy -111980.218918 kJ/mol
# GULP energy per Si atom -5599.010946 kJ/mol
# Density = 2.560386 g / cm^3
# Si number density = 25.662269 Si / 1000 Ang^3
#
#
#
# Elastic Constant Matrix: (Units=GPa)
#
#
# Indices 1 2 3 4 5 6 
#
# 1 181.3125 91.4653 69.3434 0.0000 51.4932 0.0000
# 2 91.4653 341.9168 52.0868 0.0000 62.7680 0.0000
# 3 69.3434 52.0868 133.1775 0.0000 27.5126 0.0000
# 4 0.0000 0.0000 0.0000 -6.1655 0.0000 38.8474
# 5 51.4932 62.7680 27.5126 0.0000 69.9597 0.0000
# 6 0.0000 0.0000 0.0000 38.8474 0.0000 14.7763
#
#
#
# Elastic Compliance Matrix: (Units=1/GPa)
#
#
# Indices 1 2 3 4 5 6 
#
# 1 0.008367 -0.001026 -0.003127 0.000000 -0.004008 0.000000
# 2 -0.001026 0.003704 -0.000418 0.000000 -0.002404 0.000000
# 3 -0.003127 -0.000418 0.009521 0.000000 -0.001068 0.000000
# 4 0.000000 0.000000 0.000000 -0.009234 0.000000 0.024276
# 5 -0.004008 -0.002404 -0.001068 0.000000 0.019821 0.000000
# 6 0.000000 0.000000 0.000000 0.024276 0.000000 0.003853
#
#
# Mechanical properties :
#
#
# Convention : Reuss Voigt Hill
#
# Bulk Modulus (GPa) = 80.32185 120.24419 100.28302
# Shear Modulus (GPa) = 101.36860 45.28153 73.32506
#
# Velocity S-wave (km/s) = 6.29180 4.20517 5.35118
# Velocity P-wave (km/s) = 9.17333 8.39858 8.79449
#
# Compressibility (1/GPa) = 0.01244991
#
# Stress axis : x y z
#
# Youngs Moduli (GPa) = 119.51137 269.97068 105.02960
#
# Poissons Ratio (x) = 0.27702 0.32847
# Poissons Ratio (y) = 0.12263 0.04389
# Poissons Ratio (z) = 0.37376 0.11281
#
# Static dielectric constant tensor:
#      x y z
#    x 1.951730 0.000000 -0.058360 
#    y 0.000000 2.141780 0.000000 
#    z -0.058360 0.000000 1.931320 
# 
# From -- ./inp_files/53870.got.cif
#   From: 2010.05.17/outbox.cif.g08.bks.cpg/sg10_27_cif.got.tgz:53870.got - 2010.06.03 11:33:40.
