data_PCOD9141576
_publ_section_title
;
Structure prediction by ZEFSAII (Michael W. Deem and Ramdas Pophale) SiO2 
 PCOD9141576
Probable space group: P 2/M
;
_chemical_formula_sum "Si O2"
_cell_formula_units_Z 28
_cell_length_a 22.077878
_cell_length_b 8.478525
_cell_length_c 11.664423
_cell_angle_alpha 90.000000
_cell_angle_beta 129.900670
_cell_angle_gamma 90.000000
_cell_volume 1675.041284
_symmetry_space_group_name_H-M "P 2/M"
_symmetry_group_IT_number 10
_symmetry_cell_setting 'monoclinic'
loop_
_space_group_symop_operation_xyz
x,y,z
-x,y,-z
-x,-y,-z
x,-y,z
loop_
_atom_site_type_symbol
_atom_site_label
_atom_site_fract_x
_atom_site_fract_y
_atom_site_fract_z
Si Si1 0.458098 0.309288 0.125107
Si Si2 0.906028 0.686561 0.000752
Si Si3 0.424185 0.811555 0.336045
Si Si4 0.772066 0.690922 0.526646
Si Si5 0.735776 0.309742 0.745542
Si Si6 0.620302 0.691922 0.204978
Si Si7 0.067698 0.185557 0.222358
O O1 0.456998 0.500000 0.128469
O O2 0.432527 0.244116 0.215701
O O3 0.547210 0.260845 0.197987
O O4 0.402262 0.259552 0.951249
O O5 0.911543 0.500000 0.027204
O O6 0.978979 0.770352 0.152036
O O7 0.815789 0.740234 0.909560
O O8 0.918522 0.721084 0.880275
O O9 0.500000 0.752494 0.500000
O O10 0.343642 0.752608 0.295407
O O11 0.424709 0.000000 0.339721
O O12 0.777999 0.500000 0.531390
O O13 0.744859 0.736983 0.622789
O O14 0.704101 0.743126 0.356589
O O15 0.858603 0.762560 0.610985
O O16 0.734447 0.500000 0.745642
O O17 0.620685 0.500000 0.206045
O O18 0.071479 0.000000 0.203557
#
# Coordination Sequence:
#
# PCOD9141576 Si02
#       7
#     4   4   4   4   4   4   4
#     4   9  17  32  52  70  88 114 153 193 227 265
#     4   9  16  28  43  60  85 117 152 188 227 267
#     4  11  23  34  44  64  95 126 153 183 222 267
#     4   9  16  28  45  67  94 120 149 185 227 269
#     4   9  18  30  47  68  88 118 156 189 222 264
#     4   8  15  29  51  73  89 112 149 193 231 263
#     4  10  17  24  38  63  92 121 150 179 219 269
#
# _framework density 16.716004999999999
#
# number of rings (size 3 to 8) (size 9 to 14) (size 15 to 20)
#    0.000    2.714    0.000    5.571    0.000    5.143 
#    0.000    2.857    0.000    0.000    0.000    1.000 
#    0.000    8.000    0.000    0.000    0.000    0.000 
#
# Total GULP energy -155979.026795 kJ/mol
# GULP energy per Si atom -5570.679528 kJ/mol
# Density = 1.667796 g / cm^3
# Si number density = 16.716005 Si / 1000 Ang^3
#
#
#
# Elastic Constant Matrix: (Units=GPa)
#
#
# Indices 1 2 3 4 5 6 
#
# 1 84.0613 14.3406 64.2795 0.0000 23.8745 0.0000
# 2 14.3406 7.4087 18.7106 0.0000 6.4311 0.0000
# 3 64.2795 18.7106 135.6504 0.0000 38.4532 0.0000
# 4 0.0000 0.0000 0.0000 32.2970 0.0000 -47.9955
# 5 23.8745 6.4311 38.4532 0.0000 31.9579 0.0000
# 6 0.0000 0.0000 0.0000 -47.9955 0.0000 136.0213
#
#
#
# Elastic Compliance Matrix: (Units=1/GPa)
#
#
# Indices 1 2 3 4 5 6 
#
# 1 0.021517 -0.023342 -0.005693 0.000000 -0.004527 0.000000
# 2 -0.023342 0.235072 -0.019573 0.000000 -0.006317 0.000000
# 3 -0.005693 -0.019573 0.015855 0.000000 -0.010886 0.000000
# 4 0.000000 0.000000 0.000000 0.065097 0.000000 0.022970
# 5 -0.004527 -0.006317 -0.010886 0.000000 0.049043 0.000000
# 6 0.000000 0.000000 0.000000 0.022970 0.000000 0.015457
#
#
# Mechanical properties :
#
#
# Convention : Reuss Voigt Hill
#
# Bulk Modulus (GPa) = 5.70682 46.86464 26.28573
# Shear Modulus (GPa) = 8.96593 48.70789 28.83691
#
# Velocity S-wave (km/s) = 2.31847 5.40386 4.15795
# Velocity P-wave (km/s) = 3.25400 8.18733 6.22980
#
# Compressibility (1/GPa) = 0.17522879
#
# Stress axis : x y z
#
# Youngs Moduli (GPa) = 46.47384 4.25402 63.07038
#
# Poissons Ratio (x) = 0.09930 0.35909
# Poissons Ratio (y) = 1.08479 1.23445
# Poissons Ratio (z) = 0.26459 0.08326
#
# Static dielectric constant tensor:
#      x y z
#    x 1.552550 0.000000 0.040190 
#    y 0.000000 1.563970 0.000000 
#    z 0.040190 0.000000 1.598190 
# 
# From -- ./inp_files/54958.got.cif
#   From: 2010.05.17/outbox.cif.g08.bks.cpg/sg10_28_cif.got.tgz:54958.got - 2010.06.03 11:33:40.
