data_PCOD9141742
_publ_section_title
;
Structure prediction by ZEFSAII (Michael W. Deem and Ramdas Pophale) SiO2 
 PCOD9141742
Probable space group: P 2/M
;
_chemical_formula_sum "Si O2"
_cell_formula_units_Z 32
_cell_length_a 20.193601
_cell_length_b 9.005331
_cell_length_c 29.884586
_cell_angle_alpha 90.000000
_cell_angle_beta 23.245068
_cell_angle_gamma 90.000000
_cell_volume 2144.811112
_symmetry_space_group_name_H-M "P 2/M"
_symmetry_group_IT_number 10
_symmetry_cell_setting 'monoclinic'
loop_
_space_group_symop_operation_xyz
x,y,z
-x,y,-z
-x,-y,-z
x,-y,z
loop_
_atom_site_type_symbol
_atom_site_label
_atom_site_fract_x
_atom_site_fract_y
_atom_site_fract_z
Si Si1 0.884392 0.172945 0.438977
Si Si2 0.600882 0.676709 0.840450
Si Si3 0.094421 0.321067 0.738740
Si Si4 0.044715 0.678706 0.422338
Si Si5 0.687580 0.821967 0.476392
Si Si6 0.394145 0.329700 0.612152
Si Si7 0.251411 0.828657 0.167572
Si Si8 0.742472 0.176718 0.942096
O O1 0.917661 0.260735 0.463763
O O2 0.742914 0.224064 0.491924
O O3 0.058508 0.182360 0.302991
O O4 0.855962 0.000000 0.467289
O O5 0.580655 0.500000 0.850095
O O6 0.643590 0.724443 0.864865
O O7 0.766387 0.722457 0.709672
O O8 0.431042 0.758086 0.931645
O O9 0.094200 0.500000 0.734645
O O10 0.187023 0.252041 0.637724
O O11 0.209995 0.282849 0.710020
O O12 0.908315 0.256746 0.857243
O O13 0.039122 0.500000 0.424790
O O14 0.000000 0.729265 0.500000
O O15 0.500701 0.771349 0.579274
O O16 0.705400 0.000000 0.462057
O O17 0.500000 0.329824 0.500000
O O18 0.390204 0.500000 0.630751
O O19 0.261254 0.795108 0.109218
O O20 0.305798 0.000000 0.141025
O O21 0.753469 0.000000 0.941768
#
# Coordination Sequence:
#
# PCOD9141742 Si02
#       8
#     4   4   4   4   4   4   4   4
#     4   9  17  29  44  65  89 114 147 181 218 259
#     4  10  20  31  44  64  84 108 144 181 218 260
#     4  10  19  29  41  58  85 119 154 187 218 251
#     4   9  19  35  51  66  86 112 143 181 224 266
#     4  10  17  27  42  62  87 116 150 185 218 257
#     4   8  16  28  39  56  82 115 151 186 219 250
#     4   9  17  30  42  56  84 117 145 177 214 250
#     4  11  20  30  43  60  86 118 149 181 215 254
#
# _framework density 14.919729
#
# number of rings (size 3 to 8) (size 9 to 14) (size 15 to 20)
#    0.000    2.500    1.250    2.625    0.000    7.000 
#    0.000    0.000    0.000    0.000    0.000    0.000 
#    0.000    1.000    0.000   11.250    0.000    5.625 
#
# Total GULP energy -178332.718620 kJ/mol
# GULP energy per Si atom -5572.897457 kJ/mol
# Density = 1.488577 g / cm^3
# Si number density = 14.919729 Si / 1000 Ang^3
#
#
#
# Elastic Constant Matrix: (Units=GPa)
#
#
# Indices 1 2 3 4 5 6 
#
# 1 106.2165 44.9538 56.0645 0.0000 -19.4919 0.0000
# 2 44.9538 42.8355 33.4069 0.0000 -13.4316 0.0000
# 3 56.0645 33.4069 59.5875 0.0000 -19.0526 0.0000
# 4 0.0000 0.0000 0.0000 18.4983 0.0000 -7.2247
# 5 -19.4919 -13.4316 -19.0526 0.0000 25.5307 0.0000
# 6 0.0000 0.0000 0.0000 -7.2247 0.0000 24.5599
#
#
#
# Elastic Compliance Matrix: (Units=1/GPa)
#
#
# Indices 1 2 3 4 5 6 
#
# 1 0.021795 -0.012223 -0.013646 0.000000 0.000026 0.000000
# 2 -0.012223 0.049018 -0.014079 0.000000 0.005950 0.000000
# 3 -0.013646 -0.014079 0.041785 0.000000 0.013358 0.000000
# 4 0.000000 0.000000 0.000000 0.061076 0.000000 0.017966
# 5 0.000026 0.005950 0.013358 0.000000 0.052287 0.000000
# 6 0.000000 0.000000 0.000000 0.017966 0.000000 0.046002
#
#
# Mechanical properties :
#
#
# Convention : Reuss Voigt Hill
#
# Bulk Modulus (GPa) = 30.57734 53.05444 41.81589
# Shear Modulus (GPa) = 13.78329 18.66540 16.22435
#
# Velocity S-wave (km/s) = 3.04275 3.54086 3.30122
# Velocity P-wave (km/s) = 5.73442 7.23561 6.52831
#
# Compressibility (1/GPa) = 0.03270396
#
# Stress axis : x y z
#
# Youngs Moduli (GPa) = 45.88180 20.40081 23.93207
#
# Poissons Ratio (x) = 0.24935 0.32657
# Poissons Ratio (y) = 0.56079 0.33693
# Poissons Ratio (z) = 0.62609 0.28722
#
# Static dielectric constant tensor:
#      x y z
#    x 1.494770 0.000000 -0.027360 
#    y 0.000000 1.499990 0.000000 
#    z -0.027360 0.000000 1.496550 
# 
# From -- ./inp_files/72556.got.cif
#   From: 2010.05.17/outbox.cif.g08.bks.cpg/sg10_37_cif.got.tgz:72556.got - 2010.06.03 11:33:40.
