data_PCOD9141321
_publ_section_title
;
Structure prediction by ZEFSAII (Michael W. Deem and Ramdas Pophale) SiO2 
 PCOD9141321
Probable space group: P 2/M
;
_chemical_formula_sum "Si O2"
_cell_formula_units_Z 20
_cell_length_a 7.087053
_cell_length_b 8.043917
_cell_length_c 19.472077
_cell_angle_alpha 90.000000
_cell_angle_beta 50.210294
_cell_angle_gamma 90.000000
_cell_volume 852.966662
_symmetry_space_group_name_H-M "P 2/M"
_symmetry_group_IT_number 10
_symmetry_cell_setting 'monoclinic'
loop_
_space_group_symop_operation_xyz
x,y,z
-x,y,-z
-x,-y,-z
x,-y,z
loop_
_atom_site_type_symbol
_atom_site_label
_atom_site_fract_x
_atom_site_fract_y
_atom_site_fract_z
Si Si1 0.158631 0.000000 0.392124
Si Si2 0.706089 0.000000 0.396102
Si Si3 0.146049 0.322052 0.704678
Si Si4 0.353492 0.691006 0.271766
Si Si5 0.106282 0.808049 0.110499
Si Si6 0.585089 0.301090 0.081070
O O1 0.308648 0.830714 0.339872
O O2 0.000000 0.000000 0.500000
O O3 0.959354 0.000000 0.377900
O O4 0.500000 0.000000 0.500000
O O5 0.698472 0.165689 0.354123
O O6 0.262347 0.500000 0.664092
O O7 0.894403 0.316158 0.718159
O O8 0.074513 0.300139 0.800765
O O9 0.390857 0.500000 0.286973
O O10 0.561452 0.739868 0.167047
O O11 0.361240 0.791393 0.094695
O O12 0.031419 0.000000 0.126977
O O13 0.176594 0.744230 0.018800
O O14 0.454912 0.500000 0.915695
#
# Coordination Sequence:
#
# PCOD9141321 Si02
#       6
#     2   2   4   4   4   4
#     4  10  20  32  49  67  87 117 150 188 231 266
#     4  10  20  34  49  67  89 115 152 192 227 266
#     4   9  16  28  42  60  87 118 148 180 221 268
#     4   8  16  27  41  60  86 117 148 180 218 265
#     4  10  15  19  32  55  83 117 147 174 210 261
#     4   9  15  21  31  52  82 118 148 173 210 262
#
# _framework density 23.447576000000002
#
# number of rings (size 3 to 8) (size 9 to 14) (size 15 to 20)
#    0.000    2.800    1.000    4.800    5.600    0.800 
#    0.000    0.000    0.000    0.000    0.000    0.000 
#    0.000    3.200    0.000    6.400    0.000    4.000 
#
# Total GULP energy -111730.764484 kJ/mol
# GULP energy per Si atom -5586.538224 kJ/mol
# Density = 2.339421 g / cm^3
# Si number density = 23.447576 Si / 1000 Ang^3
#
#
#
# Elastic Constant Matrix: (Units=GPa)
#
#
# Indices 1 2 3 4 5 6 
#
# 1 85.6931 2.2499 6.2069 0.0000 27.1981 0.0000
# 2 2.2499 207.5439 107.8247 0.0000 1.9628 0.0000
# 3 6.2069 107.8247 185.5235 0.0000 2.9946 0.0000
# 4 0.0000 0.0000 0.0000 -105.6824 0.0000 113.2670
# 5 27.1981 1.9628 2.9946 0.0000 24.6562 0.0000
# 6 0.0000 0.0000 0.0000 113.2670 0.0000 -102.1340
#
#
#
# Elastic Compliance Matrix: (Units=1/GPa)
#
#
# Indices 1 2 3 4 5 6 
#
# 1 0.017977 0.000199 -0.000397 0.000000 -0.019797 0.000000
# 2 0.000199 0.006905 -0.004015 0.000000 -0.000281 0.000000
# 3 -0.000397 -0.004015 0.007740 0.000000 -0.000182 0.000000
# 4 0.000000 0.000000 0.000000 0.050173 0.000000 0.055642
# 5 -0.019797 -0.000281 -0.000182 0.000000 0.062441 0.000000
# 6 0.000000 0.000000 0.000000 0.055642 0.000000 0.051916
#
#
# Mechanical properties :
#
#
# Convention : Reuss Voigt Hill
#
# Bulk Modulus (GPa) = 41.33272 79.03596 60.18434
# Shear Modulus (GPa) = 23.40360 -12.46678 5.46841
#
# Velocity S-wave (km/s) = 3.16274 -2.30834 1.52881
# Velocity P-wave (km/s) = 5.56805 5.16489 5.37026
#
# Compressibility (1/GPa) = 0.02419391
#
# Stress axis : x y z
#
# Youngs Moduli (GPa) = 55.62778 144.82890 129.20043
#
# Poissons Ratio (x) = -0.02880 0.05135
# Poissons Ratio (y) = -0.01106 0.51875
# Poissons Ratio (z) = 0.02211 0.58150
#
# Static dielectric constant tensor:
#      x y z
#    x 0.682680 0.000000 0.260450 
#    y 0.000000 1.825340 0.000000 
#    z 0.260450 0.000000 1.796630 
# 
# From -- ./inp_files/34079.got.cif
#   From: 2010.05.17/outbox.cif.g08.bks.cpg/sg10_18_cif.got.tgz:34079.got - 2010.06.03 11:33:40.
