data_PCOD9141760
_publ_section_title
;
Structure prediction by ZEFSAII (Michael W. Deem and Ramdas Pophale) SiO2 
 PCOD9141760
Probable space group: P 2/M
;
_chemical_formula_sum "Si O2"
_cell_formula_units_Z 32
_cell_length_a 24.598144
_cell_length_b 8.707374
_cell_length_c 18.271370
_cell_angle_alpha 90.000000
_cell_angle_beta 30.722233
_cell_angle_gamma 90.000000
_cell_volume 1999.293743
_symmetry_space_group_name_H-M "P 2/M"
_symmetry_group_IT_number 10
_symmetry_cell_setting 'monoclinic'
loop_
_space_group_symop_operation_xyz
x,y,z
-x,y,-z
-x,-y,-z
x,-y,z
loop_
_atom_site_type_symbol
_atom_site_label
_atom_site_fract_x
_atom_site_fract_y
_atom_site_fract_z
Si Si1 0.973530 0.185563 0.446297
Si Si2 0.586971 0.685413 0.735742
Si Si3 0.638107 0.184547 0.950918
Si Si4 0.560402 0.685948 0.601627
Si Si5 0.626656 0.321860 0.371787
Si Si6 0.741873 0.315954 0.685010
Si Si7 0.329348 0.183415 0.828814
Si Si8 0.190886 0.813339 0.122876
O O1 0.861588 0.255072 0.552358
O O2 0.000000 0.225350 0.500000
O O3 0.073154 0.237450 0.281608
O O4 0.965695 0.000000 0.452152
O O5 0.577716 0.500000 0.748400
O O6 0.600742 0.730967 0.635017
O O7 0.682654 0.730150 0.678666
O O8 0.477102 0.754835 0.892712
O O9 0.675477 0.249765 0.830088
O O10 0.724652 0.232032 0.912175
O O11 0.636920 0.000000 0.949253
O O12 0.555371 0.500000 0.603273
O O13 0.630900 0.736855 0.450291
O O14 0.441000 0.748213 0.728566
O O15 0.500000 0.316118 0.500000
O O16 0.659046 0.500000 0.331768
O O17 0.683409 0.233637 0.240490
O O18 0.741846 0.500000 0.689630
O O19 0.337002 0.000000 0.823544
O O20 0.236885 0.235539 0.991241
O O21 0.188764 0.000000 0.125755
#
# Coordination Sequence:
#
# PCOD9141760 Si02
#       8
#     4   4   4   4   4   4   4   4
#     4  10  19  36  56  69  89 124 164 202 243 286
#     4  10  21  35  49  69 100 132 160 198 243 283
#     4  11  20  34  52  71  96 129 167 198 233 285
#     4   9  17  30  46  64  92 131 161 184 227 283
#     4   8  15  27  42  63  92 125 159 187 222 282
#     4  11  23  36  49  71  99 125 161 205 246 284
#     4  10  17  27  44  69  98 123 152 193 238 278
#     4   9  18  31  48  71  96 123 156 198 240 279
#
# _framework density 16.005652000000001
#
# number of rings (size 3 to 8) (size 9 to 14) (size 15 to 20)
#    0.000    2.250    2.500    2.250    0.000    5.000 
#    0.000    1.250    0.000    0.000    0.000    0.875 
#    0.000    7.000    0.000    0.000    0.000    0.000 
#
# Total GULP energy -178415.871176 kJ/mol
# GULP energy per Si atom -5575.495974 kJ/mol
# Density = 1.596922 g / cm^3
# Si number density = 16.005652 Si / 1000 Ang^3
#
#
#
# Elastic Constant Matrix: (Units=GPa)
#
#
# Indices 1 2 3 4 5 6 
#
# 1 135.0928 30.3351 91.6270 0.0000 16.9545 0.0000
# 2 30.3351 15.9975 24.5392 0.0000 5.6733 0.0000
# 3 91.6270 24.5392 99.4581 0.0000 26.3007 0.0000
# 4 0.0000 0.0000 0.0000 395.9612 0.0000 -62.5464
# 5 16.9545 5.6733 26.3007 0.0000 31.3737 0.0000
# 6 0.0000 0.0000 0.0000 -62.5464 0.0000 28.8253
#
#
#
# Elastic Compliance Matrix: (Units=1/GPa)
#
#
# Indices 1 2 3 4 5 6 
#
# 1 0.023330 -0.017611 -0.018831 0.000000 0.006363 0.000000
# 2 -0.017611 0.114144 -0.011559 0.000000 -0.001434 0.000000
# 3 -0.018831 -0.011559 0.034704 0.000000 -0.016826 0.000000
# 4 0.000000 0.000000 0.000000 0.003843 0.000000 0.008338
# 5 0.006363 -0.001434 -0.016826 0.000000 0.042800 0.000000
# 6 0.000000 0.000000 0.000000 0.008338 0.000000 0.052783
#
#
# Mechanical properties :
#
#
# Convention : Reuss Voigt Hill
#
# Bulk Modulus (GPa) = 13.12736 60.39456 36.76096
# Shear Modulus (GPa) = 12.72269 98.16852 55.44560
#
# Velocity S-wave (km/s) = 2.82243 7.84008 5.89207
# Velocity P-wave (km/s) = 4.34062 10.94399 8.32502
#
# Compressibility (1/GPa) = 0.07617678
#
# Stress axis : x y z
#
# Youngs Moduli (GPa) = 42.86240 8.76083 28.81520
#
# Poissons Ratio (x) = 0.15429 0.54261
# Poissons Ratio (y) = 0.75487 0.33307
# Poissons Ratio (z) = 0.80713 0.10126
#
# Static dielectric constant tensor:
#      x y z
#    x 1.543180 0.000000 0.032150 
#    y 0.000000 1.544780 0.000000 
#    z 0.032150 0.000000 1.525470 
# 
# From -- ./inp_files/52737.got.cif
#   From: 2010.05.17/outbox.cif.g08.bks.cpg/sg10_27_cif.got.tgz:52737.got - 2010.06.03 11:33:40.
