data_PCOD9141436
_publ_section_title
;
Structure prediction by ZEFSAII (Michael W. Deem and Ramdas Pophale) SiO2 
 PCOD9141436
Probable space group: P 2/M
;
_chemical_formula_sum "Si O2"
_cell_formula_units_Z 32
_cell_length_a 8.976102
_cell_length_b 14.324706
_cell_length_c 15.247205
_cell_angle_alpha 90.000000
_cell_angle_beta 69.014669
_cell_angle_gamma 90.000000
_cell_volume 1830.451131
_symmetry_space_group_name_H-M "P 2/M"
_symmetry_group_IT_number 10
_symmetry_cell_setting 'monoclinic'
loop_
_space_group_symop_operation_xyz
x,y,z
-x,y,-z
-x,-y,-z
x,-y,z
loop_
_atom_site_type_symbol
_atom_site_label
_atom_site_fract_x
_atom_site_fract_y
_atom_site_fract_z
Si Si1 0.736020 0.702410 0.114781
Si Si2 0.596981 0.607922 0.630656
Si Si3 0.305830 0.391355 0.052614
Si Si4 0.185496 0.103323 0.975454
Si Si5 0.885600 0.609965 0.446744
Si Si6 0.782481 0.612012 0.283320
Si Si7 0.635799 0.108156 0.896712
Si Si8 0.364111 0.289242 0.209528
O O1 0.748345 0.812984 0.096826
O O2 0.820095 0.663417 0.183755
O O3 0.549325 0.679103 0.165539
O O4 0.779327 0.655248 0.012906
O O5 0.610208 0.500000 0.659851
O O6 0.704782 0.614653 0.521611
O O7 0.408453 0.626439 0.658324
O O8 0.676942 0.676643 0.685191
O O9 0.269237 0.500000 0.063710
O O10 0.270712 0.341846 0.151940
O O11 0.500000 0.381341 0.000000
O O12 0.255214 0.000000 0.941884
O O13 0.212124 0.120917 0.072957
O O14 0.000000 0.100160 0.000000
O O15 0.928051 0.500000 0.429693
O O16 0.880303 0.646051 0.348028
O O17 0.000000 0.648205 0.500000
O O18 0.804173 0.500000 0.268227
O O19 0.636675 0.180940 0.817921
O O20 0.622540 0.000000 0.873961
O O21 0.500000 0.129852 0.000000
#
# Coordination Sequence:
#
# PCOD9141436 Si02
#       8
#     4   4   4   4   4   4   4   4
#     4  10  17  28  44  66  91 120 154 187 225 267
#     4   9  17  28  45  67  92 120 153 188 222 267
#     4   9  15  23  38  62  93 123 150 179 215 259
#     4  10  20  33  47  64  90 124 159 194 231 271
#     4   9  17  31  47  64  88 118 150 189 232 268
#     4   9  17  29  47  68  90 118 153 189 225 269
#     4  10  17  29  48  67  89 119 155 194 231 265
#     4  10  16  26  43  69  92 118 152 189 226 265
#
# _framework density 17.482030000000002
#
# number of rings (size 3 to 8) (size 9 to 14) (size 15 to 20)
#    0.000    2.500    2.500    1.500    0.000    4.500 
#    2.250    0.000    0.000    1.500    0.000    0.875 
#    0.000    5.000    0.000    0.000    0.000    0.000 
#
# Total GULP energy -178162.123409 kJ/mol
# GULP energy per Si atom -5567.566357 kJ/mol
# Density = 1.744224 g / cm^3
# Si number density = 17.482030 Si / 1000 Ang^3
#
#
#
# Elastic Constant Matrix: (Units=GPa)
#
#
# Indices 1 2 3 4 5 6 
#
# 1 43.2361 4.8644 25.2609 0.0000 24.8376 0.0000
# 2 4.8644 73.8936 43.1177 0.0000 22.6275 0.0000
# 3 25.2609 43.1177 85.5870 0.0000 39.4302 0.0000
# 4 0.0000 0.0000 0.0000 13.4608 0.0000 4.0014
# 5 24.8376 22.6275 39.4302 0.0000 31.9273 0.0000
# 6 0.0000 0.0000 0.0000 4.0014 0.0000 0.5785
#
#
#
# Elastic Compliance Matrix: (Units=1/GPa)
#
#
# Indices 1 2 3 4 5 6 
#
# 1 0.047668 0.009708 0.003002 0.000000 -0.047671 0.000000
# 2 0.009708 0.021351 -0.007357 0.000000 -0.013598 0.000000
# 3 0.003002 -0.007357 0.030573 0.000000 -0.034880 0.000000
# 4 0.000000 0.000000 0.000000 -0.070350 0.000000 0.486570
# 5 -0.047671 -0.013598 -0.034880 0.000000 0.121121 0.000000
# 6 0.000000 0.000000 0.000000 0.486570 0.000000 -1.636830
#
#
# Mechanical properties :
#
#
# Convention : Reuss Voigt Hill
#
# Bulk Modulus (GPa) = 9.06623 38.80029 23.93326
# Shear Modulus (GPa) = -3.42370 17.82491 7.20060
#
# Velocity S-wave (km/s) = -1.40095 3.19660 2.03170
# Velocity P-wave (km/s) = 1.60636 5.98890 4.38448
#
# Compressibility (1/GPa) = 0.11029942
#
# Stress axis : x y z
#
# Youngs Moduli (GPa) = 20.97847 46.83696 32.70809
#
# Poissons Ratio (x) = -0.45469 -0.09821
# Poissons Ratio (y) = -0.20366 0.24062
# Poissons Ratio (z) = -0.06299 0.34456
#
# Static dielectric constant tensor:
#      x y z
#    x 1.686910 0.000000 0.011570 
#    y 0.000000 1.597670 0.000000 
#    z 0.011570 0.000000 1.618470 
# 
# From -- ./inp_files/29023.got.cif
#   From: 2010.05.17/outbox.cif.g08.bks.cpg/sg10_15_cif.got.tgz:29023.got - 2010.06.03 11:33:40.
