data_PCOD9141465
_publ_section_title
;
Structure prediction by ZEFSAII (Michael W. Deem and Ramdas Pophale) SiO2 
 PCOD9141465
Probable space group: P 2/M
;
_chemical_formula_sum "Si O2"
_cell_formula_units_Z 32
_cell_length_a 15.237641
_cell_length_b 7.644381
_cell_length_c 27.290110
_cell_angle_alpha 90.000000
_cell_angle_beta 145.348756
_cell_angle_gamma 90.000000
_cell_volume 1807.410109
_symmetry_space_group_name_H-M "P 2/M"
_symmetry_group_IT_number 10
_symmetry_cell_setting 'monoclinic'
loop_
_space_group_symop_operation_xyz
x,y,z
-x,y,-z
-x,-y,-z
x,-y,z
loop_
_atom_site_type_symbol
_atom_site_label
_atom_site_fract_x
_atom_site_fract_y
_atom_site_fract_z
Si Si1 0.157765 0.205156 0.440314
Si Si2 0.231069 0.694110 0.278515
Si Si3 0.078143 0.214791 0.587785
Si Si4 0.945900 0.789851 0.898455
Si Si5 0.241676 0.786432 0.091923
Si Si6 0.327257 0.799613 0.425217
Si Si7 0.525352 0.795441 0.354365
Si Si8 0.573392 0.786397 0.265075
O O1 0.213755 0.279902 0.413918
O O2 0.311036 0.213758 0.543951
O O3 0.020973 0.277706 0.411244
O O4 0.117332 0.000000 0.413803
O O5 0.201050 0.500000 0.282563
O O6 0.107192 0.739830 0.179983
O O7 0.250391 0.803743 0.336652
O O8 0.393963 0.703444 0.325005
O O9 0.256514 0.270503 0.672499
O O10 0.000000 0.266890 0.500000
O O11 0.074088 0.000000 0.585744
O O12 0.824229 0.732782 0.884767
O O13 0.946239 0.000000 0.900511
O O14 0.114227 0.729142 0.993899
O O15 0.418139 0.730370 0.165767
O O16 0.241407 0.000000 0.091783
O O17 0.500000 0.720269 0.500000
O O18 0.354798 0.000000 0.455240
O O19 0.545916 0.732416 0.308676
O O20 0.477410 0.000000 0.330033
O O21 0.577018 0.000000 0.266231
#
# Coordination Sequence:
#
# PCOD9141465 Si02
#       8
#     4   4   4   4   4   4   4   4
#     4   9  16  26  41  64  91 120 152 182 215 254
#     4  12  23  31  42  65  93 119 150 189 232 266
#     4   9  14  20  35  67 102 120 136 175 222 259
#     4   9  16  29  47  64  87 117 152 184 216 267
#     4   8  14  24  43  68  89 116 150 183 215 259
#     4  10  19  32  49  64  84 119 158 188 216 261
#     4  10  16  27  46  64  89 124 157 181 205 257
#     4   9  14  21  40  68  96 121 146 177 216 257
#
# _framework density 17.704891
#
# number of rings (size 3 to 8) (size 9 to 14) (size 15 to 20)
#    0.000    2.500    3.750    1.875    0.000    0.250 
#    0.000    1.250    0.000    0.000    0.000    3.500 
#    0.000    7.000    0.000    0.000    0.000    0.000 
#
# Total GULP energy -178341.375923 kJ/mol
# GULP energy per Si atom -5573.167998 kJ/mol
# Density = 1.766459 g / cm^3
# Si number density = 17.704891 Si / 1000 Ang^3
#
#
#
# Elastic Constant Matrix: (Units=GPa)
#
#
# Indices 1 2 3 4 5 6 
#
# 1 138.7421 4.6214 66.6824 0.0000 11.2236 0.0000
# 2 4.6214 32.8630 5.5903 0.0000 2.8736 0.0000
# 3 66.6824 5.5903 106.5299 0.0000 12.3324 0.0000
# 4 0.0000 0.0000 0.0000 -4.2061 0.0000 56.1294
# 5 11.2236 2.8736 12.3324 0.0000 25.1943 0.0000
# 6 0.0000 0.0000 0.0000 56.1294 0.0000 -4.0557
#
#
#
# Elastic Compliance Matrix: (Units=1/GPa)
#
#
# Indices 1 2 3 4 5 6 
#
# 1 0.010366 -0.000254 -0.006301 0.000000 -0.001505 0.000000
# 2 -0.000254 0.030908 -0.001132 0.000000 -0.002858 0.000000
# 3 -0.006301 -0.001132 0.013835 0.000000 -0.003836 0.000000
# 4 0.000000 0.000000 0.000000 0.001294 0.000000 0.017913
# 5 -0.001505 -0.002858 -0.003836 0.000000 0.042565 0.000000
# 6 0.000000 0.000000 0.000000 0.017913 0.000000 0.001342
#
#
# Mechanical properties :
#
#
# Convention : Reuss Voigt Hill
#
# Bulk Modulus (GPa) = 25.16756 47.99145 36.57951
# Shear Modulus (GPa) = 38.78070 16.80257 27.79163
#
# Velocity S-wave (km/s) = 4.68524 3.08398 3.96626
# Velocity P-wave (km/s) = 6.59656 6.31240 6.45604
#
# Compressibility (1/GPa) = 0.03973369
#
# Stress axis : x y z
#
# Youngs Moduli (GPa) = 96.46615 32.35454 72.28166
#
# Poissons Ratio (x) = 0.00823 0.45547
# Poissons Ratio (y) = 0.02453 0.08182
# Poissons Ratio (z) = 0.60786 0.03662
#
# Static dielectric constant tensor:
#      x y z
#    x 1.604220 0.000000 0.006310 
#    y 0.000000 1.656650 0.000000 
#    z 0.006310 0.000000 1.613520 
# 
# From -- ./inp_files/77400.got.cif
#   From: 2010.05.17/outbox.cif.g08.bks.cpg/sg10_39_cif.got.tgz:77400.got - 2010.06.03 11:33:40.
