data_PCOD9141289
_publ_section_title
;
Structure prediction by ZEFSAII (Michael W. Deem and Ramdas Pophale) SiO2 
 PCOD9141289
Probable space group: C C
;
_chemical_formula_sum "Si O2"
_cell_formula_units_Z 16
_cell_length_a 15.000000
_cell_length_b 21.000000
_cell_length_c 9.000000
_cell_angle_alpha 90.000000
_cell_angle_beta 30.000000
_cell_angle_gamma 90.000000
_cell_volume 1417.500000
_symmetry_space_group_name_H-M "C C"
_symmetry_group_IT_number 9
_symmetry_cell_setting 'monoclinic'
loop_
_space_group_symop_operation_xyz
x,y,z
x,-y,1/2+z
1/2+x,1/2+y,z
1/2+x,1/2-y,1/2+z
loop_
_atom_site_type_symbol
_atom_site_label
_atom_site_fract_x
_atom_site_fract_y
_atom_site_fract_z
Si Si1 0.357430 0.950505 0.186680
Si Si2 0.476804 0.290584 0.335056
Si Si3 0.730260 0.324200 0.216115
Si Si4 0.877391 0.174044 0.410748
Si Si5 0.127442 0.204683 0.310922
Si Si6 0.727676 0.556423 0.198169
Si Si7 0.744746 0.918504 0.671081
Si Si8 0.880426 0.972064 0.782449
O O1 0.284338 0.896054 0.179880
O O2 0.239511 0.957915 0.505553
O O3 0.380950 0.018608 0.069643
O O4 0.534157 0.916541 0.996825
O O5 0.654348 0.315490 0.160868
O O6 0.376836 0.228713 0.544416
O O7 0.339640 0.350059 0.516046
O O8 0.545269 0.268388 0.078564
O O9 0.549172 0.309807 0.564696
O O10 0.737600 0.233335 0.588766
O O11 0.852493 0.096871 0.411334
O O12 0.958723 0.182948 0.456262
O O13 0.219072 0.134443 0.216407
O O14 0.564928 0.513455 0.500240
O O15 0.835001 0.950653 0.682604
O O16 0.762352 0.970347 0.515246
#
# Coordination Sequence:
#
# PCOD9141289 Si02
#       8
#     4   4   4   4   4   4   4   4
#     4  12  27  44  73 106 142 186 240 299 353 433
#     4  12  26  46  73 103 143 188 236 294 363 429
#     4  12  25  48  71 102 141 189 235 291 362 429
#     4  12  26  48  73 104 141 190 234 292 360 430
#     4  12  27  46  74 106 143 186 238 296 357 426
#     4  12  24  48  74 104 142 190 241 295 359 424
#     4  12  26  45  72 106 142 188 239 298 358 428
#     4  12  25  49  74 103 146 191 237 297 362 427
#
# _framework density 11.287478
#
# number of rings (size 3 to 8) (size 9 to 14) (size 15 to 20)
#    0.000    0.000    5.000    4.500    3.500    1.000 
#    2.250    0.000    0.000    0.000    0.000    0.000 
#    0.000    0.000    0.000    0.000    0.000    0.000 
#
# Total GULP energy -89143.882252 kJ/mol
# GULP energy per Si atom -5571.492641 kJ/mol
# Density = 1.126179 g / cm^3
# Si number density = 11.287478 Si / 1000 Ang^3
#
#
#
# Elastic Constant Matrix: (Units=GPa)
#
#
# Indices 1 2 3 4 5 6 
#
# 1 -39.7702 -53.7368 -7.9497 0.0016 -7.9806 0.0014
# 2 -53.7368 138.3797 6.0502 -0.0037 -7.9793 0.0002
# 3 -7.9497 6.0502 31.3217 -0.0156 1.9505 0.0000
# 4 0.0016 -0.0037 -0.0156 35.3408 0.0052 0.7920
# 5 -7.9806 -7.9793 1.9505 0.0052 35.1410 -0.0001
# 6 0.0014 0.0002 0.0000 0.7920 -0.0001 43.5629
#
#
#
# Elastic Compliance Matrix: (Units=1/GPa)
#
#
# Indices 1 2 3 4 5 6 
#
# 1 -0.015398 -0.006148 -0.002424 0.000000 -0.004758 0.000001
# 2 -0.006148 0.004941 -0.002506 0.000000 -0.000135 0.000000
# 3 -0.002424 -0.002506 0.031976 0.000014 -0.002894 0.000000
# 4 0.000000 0.000000 0.000014 0.028307 -0.000005 -0.000515
# 5 -0.004758 -0.000135 -0.002894 -0.000005 0.027506 0.000000
# 6 0.000001 0.000000 0.000000 -0.000515 0.000000 0.022965
#
#
# Mechanical properties :
#
#
# Convention : Reuss Voigt Hill
#
# Bulk Modulus (GPa) = -1566.26319 2.07317 -782.09501
# Shear Modulus (GPa) = 40.90273 35.18009 38.04141
#
# Velocity S-wave (km/s) = 4.26122 3.95190 4.10947
# Velocity P-wave (km/s) = 25.90562 4.66301 18.01884
#
# Compressibility (1/GPa) = -0.00063846
#
# Stress axis : x y z
#
# Youngs Moduli (GPa) = -64.94318 202.39307 31.27359
#
# Poissons Ratio (x) = 1.24429 0.07582
# Poissons Ratio (y) = -0.39926 0.07838
# Poissons Ratio (z) = -0.15744 0.50727
#
# Static dielectric constant tensor:
#      x y z
#    x 2.163110 0.000000 -0.003470 
#    y 0.000000 1.795750 0.000000 
#    z -0.003470 0.000000 1.985030 
# 
# From -- ./inp_files/10090.got.cif
#   From: 2010.05.17/outbox.ucp.g08.bks.cvg/sg9_6_cif.got.tgz:10090.got - 2010.06.11 13:03:20.
