data_PCOD9141427
_publ_section_title
;
Structure prediction by ZEFSAII (Michael W. Deem and Ramdas Pophale) SiO2 
 PCOD9141427
Probable space group: P 2/M
;
_chemical_formula_sum "Si O2"
_cell_formula_units_Z 32
_cell_length_a 7.621966
_cell_length_b 13.702348
_cell_length_c 14.952267
_cell_angle_alpha 90.000000
_cell_angle_beta 98.272771
_cell_angle_gamma 90.000000
_cell_volume 1545.347737
_symmetry_space_group_name_H-M "P 2/M"
_symmetry_group_IT_number 10
_symmetry_cell_setting 'monoclinic'
loop_
_space_group_symop_operation_xyz
x,y,z
-x,y,-z
-x,-y,-z
x,-y,z
loop_
_atom_site_type_symbol
_atom_site_label
_atom_site_fract_x
_atom_site_fract_y
_atom_site_fract_z
Si Si1 0.722928 0.714837 0.688617
Si Si2 0.717329 0.889518 0.006704
Si Si3 0.898282 0.613044 0.857682
Si Si4 0.363929 0.115773 0.196646
Si Si5 0.281364 0.386584 0.979644
Si Si6 0.334870 0.616070 0.690584
Si Si7 0.715474 0.390701 0.513875
Si Si8 0.316327 0.753068 0.846007
O O1 0.865242 0.669923 0.765640
O O2 0.702346 0.825613 0.721323
O O3 0.538076 0.655578 0.695105
O O4 0.768481 0.690126 0.589798
O O5 0.790655 0.815930 0.087059
O O6 0.771719 0.000000 0.031274
O O7 0.500000 0.885518 0.000000
O O8 0.749649 0.871374 0.903761
O O9 0.855175 0.500000 0.838404
O O10 0.093563 0.616444 0.912466
O O11 0.768632 0.650615 0.926157
O O12 0.549501 0.168713 0.186498
O O13 0.383087 0.000000 0.211257
O O14 0.323999 0.500000 0.989971
O O15 0.402595 0.327563 0.919358
O O16 0.334421 0.500000 0.713741
O O17 0.242238 0.626401 0.586972
O O18 0.252745 0.686935 0.758983
O O19 0.500000 0.393680 0.500000
O O20 0.777219 0.500000 0.544778
#
# Coordination Sequence:
#
# PCOD9141427 Si02
#       8
#     4   4   4   4   4   4   4   4
#     4  10  16  26  47  63  78 111 150 175 204 265
#     4   8  14  25  39  56  79 106 136 171 213 257
#     4   9  17  29  43  61  86 115 147 178 210 251
#     4   9  18  29  42  64  89 110 137 180 231 269
#     4   9  18  29  40  59  89 118 143 178 215 246
#     4   9  17  26  39  64  92 112 135 175 223 264
#     4   8  14  25  40  61  88 113 137 170 216 264
#     4  10  16  25  43  59  79 114 148 168 203 263
#
# _framework density 20.707312999999999
#
# number of rings (size 3 to 8) (size 9 to 14) (size 15 to 20)
#    0.000    3.000    0.000    4.875    0.000    1.000 
#    0.000    0.000    0.000   23.625    0.000    9.625 
#    0.000    0.000    0.000   29.250    0.000    4.000 
#
# Total GULP energy -178319.303548 kJ/mol
# GULP energy per Si atom -5572.478236 kJ/mol
# Density = 2.066018 g / cm^3
# Si number density = 20.707313 Si / 1000 Ang^3
#
#
#
# Elastic Constant Matrix: (Units=GPa)
#
#
# Indices 1 2 3 4 5 6 
#
# 1 53.5111 -1.1448 11.4704 0.0000 -4.2384 0.0000
# 2 -1.1448 173.5067 79.9019 0.0000 -17.1557 0.0000
# 3 11.4704 79.9019 150.7055 0.0000 -14.2092 0.0000
# 4 0.0000 0.0000 0.0000 36.8435 0.0000 -7.5264
# 5 -4.2384 -17.1557 -14.2092 0.0000 8.1193 0.0000
# 6 0.0000 0.0000 0.0000 -7.5264 0.0000 1.5228
#
#
#
# Elastic Compliance Matrix: (Units=1/GPa)
#
#
# Indices 1 2 3 4 5 6 
#
# 1 0.019999 0.001993 -0.001434 0.000000 0.012141 0.000000
# 2 0.001993 0.008710 -0.003517 0.000000 0.013290 0.000000
# 3 -0.001434 -0.003517 0.009387 0.000000 0.008248 0.000000
# 4 0.000000 0.000000 0.000000 -2.813833 0.000000-13.907179
# 5 0.012141 0.013290 0.008248 0.000000 0.172017 0.000000
# 6 0.000000 0.000000 0.000000-13.907179 0.000000-68.078614
#
#
# Mechanical properties :
#
#
# Convention : Reuss Voigt Hill
#
# Bulk Modulus (GPa) = 31.07462 62.01981 46.54721
# Shear Modulus (GPa) = -0.07076 28.46352 14.19638
#
# Velocity S-wave (km/s) = -0.18505 3.71153 2.62119
# Velocity P-wave (km/s) = 3.87215 6.95579 5.62923
#
# Compressibility (1/GPa) = 0.03218060
#
# Stress axis : x y z
#
# Youngs Moduli (GPa) = 50.00156 114.80887 106.53323
#
# Poissons Ratio (x) = -0.22879 0.15277
# Poissons Ratio (y) = -0.09964 0.37464
# Poissons Ratio (z) = 0.07170 0.40374
#
# Static dielectric constant tensor:
#      x y z
#    x 1.871360 0.000000 0.003840 
#    y 0.000000 1.763380 0.000000 
#    z 0.003840 0.000000 1.783670 
# 
# From -- ./inp_files/61568.got.cif
#   From: 2010.05.17/outbox.cif.g08.bks.cpg/sg10_31_cif.got.tgz:61568.got - 2010.06.03 11:33:40.
