data_PCOD9141856
_publ_section_title
;
Structure prediction by ZEFSAII (Michael W. Deem and Ramdas Pophale) SiO2 
 PCOD9141856
Probable space group: P 2/M
;
_chemical_formula_sum "Si O2"
_cell_formula_units_Z 32
_cell_length_a 22.929846
_cell_length_b 13.326145
_cell_length_c 16.030346
_cell_angle_alpha 90.000000
_cell_angle_beta 159.859849
_cell_angle_gamma 90.000000
_cell_volume 1686.583755
_symmetry_space_group_name_H-M "P 2/M"
_symmetry_group_IT_number 10
_symmetry_cell_setting 'monoclinic'
loop_
_space_group_symop_operation_xyz
x,y,z
-x,y,-z
-x,-y,-z
x,-y,z
loop_
_atom_site_type_symbol
_atom_site_label
_atom_site_fract_x
_atom_site_fract_y
_atom_site_fract_z
Si Si1 0.284434 0.611407 0.602067
Si Si2 0.178066 0.190044 0.694095
Si Si3 0.689066 0.384067 0.717024
Si Si4 0.247697 0.384474 0.881087
Si Si5 0.471877 0.888823 0.755671
Si Si6 0.666444 0.175383 0.267283
Si Si7 0.906482 0.384592 0.158603
Si Si8 0.386389 0.680364 0.567456
O O1 0.361713 0.500000 0.716115
O O2 0.372841 0.708629 0.759976
O O3 0.267968 0.637216 0.481899
O O4 0.101398 0.611428 0.398091
O O5 0.220845 0.307525 0.769839
O O6 0.189323 0.170555 0.609520
O O7 0.000000 0.165034 0.500000
O O8 0.339990 0.133927 0.953881
O O9 0.500000 0.382906 0.500000
O O10 0.742917 0.500000 0.778045
O O11 0.682422 0.338130 0.616574
O O12 0.807159 0.337247 0.947469
O O13 0.211343 0.500000 0.809722
O O14 0.130697 0.344255 0.799671
O O15 0.435969 0.375401 0.172482
O O16 0.332098 0.879750 0.642405
O O17 0.427105 0.797255 0.635255
O O18 0.469330 0.000000 0.716627
O O19 0.500000 0.133152 0.000000
O O20 0.841349 0.500000 0.077874
#
# Coordination Sequence:
#
# PCOD9141856 Si02
#       8
#     4   4   4   4   4   4   4   4
#     4  10  19  30  44  68 105 134 160 200 238 275
#     4  10  20  31  48  76 101 123 162 207 242 287
#     4  10  17  28  49  76 103 130 165 194 221 279
#     4  10  18  30  46  67 101 141 169 190 225 283
#     4   9  20  38  55  69  91 122 159 207 257 302
#     4   9  19  33  49  71  95 129 170 194 239 296
#     4   9  18  29  44  69 101 139 168 190 230 276
#     4  10  19  31  50  73  92 122 166 205 240 284
#
# _framework density 18.973262999999999
#
# number of rings (size 3 to 8) (size 9 to 14) (size 15 to 20)
#    0.000    2.375    1.250    2.625    0.000    4.000 
#    0.000    1.875    0.000    0.375    0.000    7.000 
#    0.000    0.000    0.000    0.000    0.000    0.000 
#
# Total GULP energy -178304.881725 kJ/mol
# GULP energy per Si atom -5572.027554 kJ/mol
# Density = 1.893008 g / cm^3
# Si number density = 18.973263 Si / 1000 Ang^3
#
#
#
# Elastic Constant Matrix: (Units=GPa)
#
#
# Indices 1 2 3 4 5 6 
#
# 1 81.4682 6.4821 12.0578 0.0000 15.7910 0.0000
# 2 6.4821 80.8658 1.9547 0.0000 1.5449 0.0000
# 3 12.0578 1.9547 25.1140 0.0000 6.2063 0.0000
# 4 0.0000 0.0000 0.0000 6.6606 0.0000 1.9121
# 5 15.7910 1.5449 6.2063 0.0000 32.1473 0.0000
# 6 0.0000 0.0000 0.0000 1.9121 0.0000 5.4285
#
#
#
# Elastic Compliance Matrix: (Units=1/GPa)
#
#
# Indices 1 2 3 4 5 6 
#
# 1 0.014287 -0.000903 -0.005319 0.000000 -0.005947 0.000000
# 2 -0.000903 0.012452 -0.000522 0.000000 -0.000054 0.000000
# 3 -0.005319 -0.000522 0.043853 0.000000 -0.005828 0.000000
# 4 0.000000 0.000000 0.000000 0.167028 0.000000 -0.058833
# 5 -0.005947 -0.000054 -0.005828 0.000000 0.035156 0.000000
# 6 0.000000 0.000000 0.000000 -0.058833 0.000000 0.204935
#
#
# Mechanical properties :
#
#
# Convention : Reuss Voigt Hill
#
# Bulk Modulus (GPa) = 17.51225 25.38194 21.44709
# Shear Modulus (GPa) = 9.79942 19.97751 14.88847
#
# Velocity S-wave (km/s) = 2.27510 3.24841 2.80430
# Velocity P-wave (km/s) = 4.01888 5.24179 4.67053
#
# Compressibility (1/GPa) = 0.05710288
#
# Stress axis : x y z
#
# Youngs Moduli (GPa) = 69.99546 80.30708 22.80332
#
# Poissons Ratio (x) = 0.07252 0.12130
# Poissons Ratio (y) = 0.06321 0.01191
# Poissons Ratio (z) = 0.37233 0.04194
#
# Static dielectric constant tensor:
#      x y z
#    x 1.708860 0.000000 0.022070 
#    y 0.000000 1.691290 0.000000 
#    z 0.022070 0.000000 1.674360 
# 
# From -- ./inp_files/38223.got.cif
#   From: 2010.05.17/outbox.cif.g08.bks.cpg/sg10_20_cif.got.tgz:38223.got - 2010.06.03 11:33:40.
