data_PCOD9141186
_publ_section_title
;
Structure prediction by ZEFSAII (Michael W. Deem and Ramdas Pophale) SiO2 
 PCOD9141186
Probable space group: C C
;
_chemical_formula_sum "Si O2"
_cell_formula_units_Z 20
_cell_length_a 6.823173
_cell_length_b 13.234051
_cell_length_c 10.907263
_cell_angle_alpha 90.000000
_cell_angle_beta 43.210008
_cell_angle_gamma 90.000000
_cell_volume 674.340244
_symmetry_space_group_name_H-M "C C"
_symmetry_group_IT_number 9
_symmetry_cell_setting 'monoclinic'
loop_
_space_group_symop_operation_xyz
x,y,z
x,-y,1/2+z
1/2+x,1/2+y,z
1/2+x,1/2-y,1/2+z
loop_
_atom_site_type_symbol
_atom_site_label
_atom_site_fract_x
_atom_site_fract_y
_atom_site_fract_z
Si Si1 0.117540 0.304319 0.269710
Si Si2 0.803364 0.540835 0.083214
Si Si3 0.109863 0.654653 0.436456
Si Si4 0.641586 0.803822 0.656932
Si Si5 0.943799 0.012451 0.498298
O O1 0.399924 0.251516 0.191847
O O2 0.228928 0.392991 0.126962
O O3 0.947289 0.361021 0.456064
O O4 0.901168 0.216392 0.323277
O O5 0.652356 0.538608 0.287334
O O6 0.594208 0.506696 0.065058
O O7 0.063346 0.462107 0.982711
O O8 0.007383 0.656795 0.342080
O O9 0.860964 0.720650 0.606571
O O10 0.812792 0.900714 0.529420
#
# Coordination Sequence:
#
# PCOD9141186 Si02
#       5
#     4   4   4   4   4
#     4  12  30  60 100 138 190 264 318 404 490 574
#     4  12  29  62  96 139 196 256 325 403 486 582
#     4  12  28  57  91 140 194 249 326 401 481 581
#     4  12  28  57  91 140 194 249 326 401 481 581
#     4  12  29  62  96 139 196 256 325 403 486 582
#
# _framework density 29.658619999999999
#
# number of rings (size 3 to 8) (size 9 to 14) (size 15 to 20)
#    0.000    0.000    6.000    1.200    0.000    6.400 
#   14.400    0.000    0.000    0.000    0.000    0.000 
#    0.000    0.000    0.000    0.000    0.000    0.000 
#
# Total GULP energy -56075.659162 kJ/mol
# GULP energy per Si atom -5607.565916 kJ/mol
# Density = 2.959112 g / cm^3
# Si number density = 29.658620 Si / 1000 Ang^3
#
#
#
# Elastic Constant Matrix: (Units=GPa)
#
#
# Indices 1 2 3 4 5 6 
#
# 1 184.1579 78.4616 68.5373 -0.0039 -9.2974 0.0013
# 2 78.4616 168.2021 44.4619 -0.0004 -15.0359 -0.0003
# 3 68.5373 44.4619 196.0118 -0.0147 18.1999 0.0063
# 4 -0.0039 -0.0004 -0.0147 69.7143 0.0065 -12.4067
# 5 -9.2974 -15.0359 18.1999 0.0065 78.9797 -0.0017
# 6 0.0013 -0.0003 0.0063 -12.4067 -0.0017 55.1017
#
#
#
# Elastic Compliance Matrix: (Units=1/GPa)
#
#
# Indices 1 2 3 4 5 6 
#
# 1 0.007446 -0.002866 -0.002028 0.000000 0.000798 0.000000
# 2 -0.002866 0.007624 -0.000849 0.000000 0.001310 0.000000
# 3 -0.002028 -0.000849 0.006172 0.000001 -0.001823 0.000000
# 4 0.000000 0.000000 0.000001 0.014943 -0.000002 0.003365
# 5 0.000798 0.001310 -0.001823 -0.000002 0.013425 0.000000
# 6 0.000000 0.000000 0.000000 0.003365 0.000000 0.018906
#
#
# Mechanical properties :
#
#
# Convention : Reuss Voigt Hill
#
# Bulk Modulus (GPa) = 102.48670 103.47704 102.98187
# Shear Modulus (GPa) = 60.05786 64.55322 62.30554
#
# Velocity S-wave (km/s) = 4.50485 4.67040 4.58837
# Velocity P-wave (km/s) = 7.85422 8.00304 7.92898
#
# Compressibility (1/GPa) = 0.00975736
#
# Stress axis : x y z
#
# Youngs Moduli (GPa) = 134.29777 131.17172 162.01027
#
# Poissons Ratio (x) = 0.37595 0.32849
# Poissons Ratio (y) = 0.38491 0.13750
# Poissons Ratio (z) = 0.27230 0.11133
#
# Static dielectric constant tensor:
#      x y z
#    x 2.461070 0.000000 0.042020 
#    y 0.000000 2.651110 0.000010 
#    z 0.042020 0.000010 2.302490 
# 
# From -- ./inp_files/5069.got.cif
#   From: 2010.05.17/outbox.cif.g08.bks.cpg/sg9_3_cif.got.tgz:5069.got - 2010.06.03 20:04:27.
