data_PCOD9141925
_publ_section_title
;
Structure prediction by ZEFSAII (Michael W. Deem and Ramdas Pophale) SiO2 
 PCOD9141925
Probable space group: P 2/M
;
_chemical_formula_sum "Si O2"
_cell_formula_units_Z 28
_cell_length_a 10.768407
_cell_length_b 16.970949
_cell_length_c 18.640216
_cell_angle_alpha 90.000000
_cell_angle_beta 157.498276
_cell_angle_gamma 90.000000
_cell_volume 1303.706221
_symmetry_space_group_name_H-M "P 2/M"
_symmetry_group_IT_number 10
_symmetry_cell_setting 'monoclinic'
loop_
_space_group_symop_operation_xyz
x,y,z
-x,y,-z
-x,-y,-z
x,-y,z
loop_
_atom_site_type_symbol
_atom_site_label
_atom_site_fract_x
_atom_site_fract_y
_atom_site_fract_z
Si Si1 0.495668 0.500000 0.272626
Si Si2 0.354498 0.239669 0.721877
Si Si3 0.320974 0.911956 0.788959
Si Si4 0.872731 0.331226 0.268377
Si Si5 0.155528 0.261110 0.283712
Si Si6 0.781587 0.500000 0.271083
Si Si7 0.999812 0.910021 0.236363
Si Si8 0.606468 0.669888 0.727837
O O1 0.537576 0.500000 0.208784
O O2 0.339385 0.580404 0.218020
O O3 0.861811 0.500000 0.500943
O O4 0.365736 0.148536 0.748723
O O5 0.593856 0.273855 0.790434
O O6 0.000000 0.255606 0.500000
O O7 0.353455 0.283595 0.797441
O O8 0.053754 0.891104 0.707450
O O9 0.251387 0.000000 0.726399
O O10 0.652998 0.913113 0.011554
O O11 0.895376 0.292882 0.202132
O O12 0.240815 0.327806 0.498067
O O13 0.763934 0.421470 0.214783
O O14 0.500000 0.287136 0.500000
O O15 0.149592 0.298420 0.202087
O O16 0.162193 0.165900 0.287084
O O17 0.130127 0.000000 0.300298
#
# Coordination Sequence:
#
# PCOD9141925 Si02
#       8
#     2   4   4   4   4   2   4   4
#     4   9  14  25  41  65 100 133 162 194 242 293
#     4  10  17  29  49  74 102 128 161 202 246 291
#     4   9  18  33  54  76  95 123 168 213 244 283
#     4   9  16  27  44  69  98 130 167 203 235 283
#     4  10  19  31  47  73 104 130 160 202 249 293
#     4   9  14  23  43  67  96 132 165 200 240 280
#     4   9  18  34  54  73  95 128 169 206 243 291
#     4   9  18  27  43  70 102 133 158 196 248 293
#
# _framework density 21.477232000000001
#
# number of rings (size 3 to 8) (size 9 to 14) (size 15 to 20)
#    0.000    2.714    2.857    0.857    0.000    1.143 
#    0.000    4.286    0.000    1.714    0.000    6.000 
#    0.000    0.000    0.000    0.000    0.000    0.000 
#
# Total GULP energy -156236.499864 kJ/mol
# GULP energy per Si atom -5579.874995 kJ/mol
# Density = 2.142835 g / cm^3
# Si number density = 21.477232 Si / 1000 Ang^3
#
#
#
# Elastic Constant Matrix: (Units=GPa)
#
#
# Indices 1 2 3 4 5 6 
#
# 1 181.9302 109.7014 20.0248 0.0000 -8.6179 0.0000
# 2 109.7014 162.8735 -12.1436 0.0000 -3.9719 0.0000
# 3 20.0248 -12.1436 46.5607 0.0000 -5.5678 0.0000
# 4 0.0000 0.0000 0.0000 34.7695 0.0000 -4.4938
# 5 -8.6179 -3.9719 -5.5678 0.0000 15.1835 0.0000
# 6 0.0000 0.0000 0.0000 -4.4938 0.0000 29.0803
#
#
#
# Elastic Compliance Matrix: (Units=1/GPa)
#
#
# Indices 1 2 3 4 5 6 
#
# 1 0.011081 -0.007913 -0.006615 0.000000 0.001794 0.000000
# 2 -0.007913 0.011993 0.006661 0.000000 0.001089 0.000000
# 3 -0.006615 0.006661 0.027003 0.000000 0.007890 0.000000
# 4 0.000000 0.000000 0.000000 0.029347 0.000000 0.004535
# 5 0.001794 0.001089 0.007890 0.000000 0.070057 0.000000
# 6 0.000000 0.000000 0.000000 0.004535 0.000000 0.035088
#
#
# Mechanical properties :
#
#
# Convention : Reuss Voigt Hill
#
# Bulk Modulus (GPa) = 29.11780 69.61440 49.36610
# Shear Modulus (GPa) = 23.61264 34.05878 28.83571
#
# Velocity S-wave (km/s) = 3.31936 3.98654 3.66815
# Velocity P-wave (km/s) = 5.31769 7.32622 6.40122
#
# Compressibility (1/GPa) = 0.03434326
#
# Stress axis : x y z
#
# Youngs Moduli (GPa) = 90.24321 83.38415 37.03261
#
# Poissons Ratio (x) = 0.65982 0.24498
# Poissons Ratio (y) = 0.71410 -0.24668
# Poissons Ratio (z) = 0.59697 -0.55545
#
# Static dielectric constant tensor:
#      x y z
#    x 1.767110 0.000000 0.017370 
#    y 0.000000 1.779460 0.000000 
#    z 0.017370 0.000000 1.842210 
# 
# From -- ./inp_files/30139.got.cif
#   From: 2010.05.17/outbox.cif.g08.bks.cpg/sg10_16_cif.got.tgz:30139.got - 2010.06.03 11:33:40.
