data_PCOD9141747
_publ_section_title
;
Structure prediction by ZEFSAII (Michael W. Deem and Ramdas Pophale) SiO2 
 PCOD9141747
Probable space group: P 2/M
;
_chemical_formula_sum "Si O2"
_cell_formula_units_Z 32
_cell_length_a 23.700035
_cell_length_b 18.345338
_cell_length_c 8.155800
_cell_angle_alpha 90.000000
_cell_angle_beta 32.521817
_cell_angle_gamma 90.000000
_cell_volume 1906.414209
_symmetry_space_group_name_H-M "P 2/M"
_symmetry_group_IT_number 10
_symmetry_cell_setting 'monoclinic'
loop_
_space_group_symop_operation_xyz
x,y,z
-x,y,-z
-x,-y,-z
x,-y,z
loop_
_atom_site_type_symbol
_atom_site_label
_atom_site_fract_x
_atom_site_fract_y
_atom_site_fract_z
Si Si1 0.119983 0.417539 0.638834
Si Si2 0.851879 0.178786 0.564877
Si Si3 0.449914 0.916789 0.306967
Si Si4 0.739227 0.154976 0.372362
Si Si5 0.949599 0.690044 0.452953
Si Si6 0.670929 0.086912 0.888548
Si Si7 0.841709 0.280632 0.267654
Si Si8 0.037807 0.082600 0.219592
O O1 0.159613 0.500000 0.533582
O O2 0.109637 0.375946 0.491140
O O3 0.180240 0.361411 0.610388
O O4 0.000000 0.420527 0.000000
O O5 0.874999 0.239042 0.647815
O O6 0.743921 0.133677 0.830615
O O7 0.854864 0.227546 0.392436
O O8 0.947610 0.122257 0.337121
O O9 0.349829 0.865065 0.539818
O O10 0.415990 0.000000 0.424940
O O11 0.500000 0.916944 0.000000
O O12 0.546141 0.897941 0.191127
O O13 0.709378 0.111824 0.613191
O O14 0.753960 0.240276 0.375636
O O15 0.853593 0.125449 0.048421
O O16 0.000000 0.668510 0.500000
O O17 0.048213 0.714079 0.097705
O O18 0.685210 0.000000 0.874263
O O19 0.000000 0.081016 0.500000
O O20 0.053967 0.000000 0.122154
#
# Coordination Sequence:
#
# PCOD9141747 Si02
#       8
#     4   4   4   4   4   4   4   4
#     4   8  15  28  44  62  88 118 144 172 204 252
#     4  10  18  29  42  59  85 114 147 183 223 263
#     4   8  14  26  41  60  82 105 143 193 237 265
#     4  10  17  27  43  61  85 112 143 184 229 270
#     4  10  18  28  42  62  89 118 144 175 217 263
#     4   9  17  27  43  62  79 107 149 196 235 265
#     4   9  18  28  43  64  86 112 148 175 213 270
#     4  11  22  30  39  60  87 118 152 187 228 271
#
# _framework density 16.785439
#
# number of rings (size 3 to 8) (size 9 to 14) (size 15 to 20)
#    0.000    2.625    1.250    3.750    1.750    0.250 
#    0.000    1.875    0.000    0.750    0.000    3.500 
#    0.000   24.500    0.000    0.000    0.000   60.000 
#
# Total GULP energy -178335.178756 kJ/mol
# GULP energy per Si atom -5572.974336 kJ/mol
# Density = 1.674723 g / cm^3
# Si number density = 16.785439 Si / 1000 Ang^3
#
#
#
# Elastic Constant Matrix: (Units=GPa)
#
#
# Indices 1 2 3 4 5 6 
#
# 1 53.0379 52.7511 36.2728 0.0000 -22.4375 0.0000
# 2 52.7511 141.9661 30.5668 0.0000 -25.1982 0.0000
# 3 36.2728 30.5668 27.9458 0.0000 -23.0053 0.0000
# 4 0.0000 0.0000 0.0000 8.0968 0.0000 -3.3181
# 5 -22.4375 -25.1982 -23.0053 0.0000 28.4585 0.0000
# 6 0.0000 0.0000 0.0000 -3.3181 0.0000 11.8834
#
#
#
# Elastic Compliance Matrix: (Units=1/GPa)
#
#
# Indices 1 2 3 4 5 6 
#
# 1 -0.708086 0.085492 1.280294 0.000000 0.552388 0.000000
# 2 0.085492 -0.001108 -0.164629 0.000000 -0.066659 0.000000
# 3 1.280294 -0.164629 -2.196978 0.000000 -0.912343 0.000000
# 4 0.000000 0.000000 0.000000 0.139463 0.000000 0.038941
# 5 0.552388 -0.066659 -0.912343 0.000000 -0.325886 0.000000
# 6 0.000000 0.000000 0.000000 0.038941 0.000000 0.095024
#
#
# Mechanical properties :
#
#
# Convention : Reuss Voigt Hill
#
# Bulk Modulus (GPa) = -1.98469 51.34790 24.68161
# Shear Modulus (GPa) = -0.89801 16.57837 7.84018
#
# Velocity S-wave (km/s) = -0.73223 3.14612 2.16355
# Velocity P-wave (km/s) = 1.37834 6.62228 4.58011
#
# Compressibility (1/GPa) = -0.50385778
#
# Stress axis : x y z
#
# Youngs Moduli (GPa) = -1.41226 -902.36735 -0.45517
#
# Poissons Ratio (x) = 77.14522 0.58275
# Poissons Ratio (y) = 0.12074 -0.07493
# Poissons Ratio (z) = 1.80811 -148.55544
#
# Static dielectric constant tensor:
#      x y z
#    x 1.631100 0.000000 0.019040 
#    y 0.000000 1.575650 0.000000 
#    z 0.019040 0.000000 1.571120 
# 
# From -- ./inp_files/36463.got.cif
#   From: 2010.05.17/outbox.cif.g08.bks.cpg/sg10_19_cif.got.tgz:36463.got - 2010.06.03 11:33:40.
