data_PCOD9141337
_publ_section_title
;
Structure prediction by ZEFSAII (Michael W. Deem and Ramdas Pophale) SiO2 
 PCOD9141337
Probable space group: P 2/M
;
_chemical_formula_sum "Si O2"
_cell_formula_units_Z 28
_cell_length_a 7.567638
_cell_length_b 21.171860
_cell_length_c 7.120949
_cell_angle_alpha 90.000000
_cell_angle_beta 77.801917
_cell_angle_gamma 90.000000
_cell_volume 1115.166659
_symmetry_space_group_name_H-M "P 2/M"
_symmetry_group_IT_number 10
_symmetry_cell_setting 'monoclinic'
loop_
_space_group_symop_operation_xyz
x,y,z
-x,y,-z
-x,-y,-z
x,-y,z
loop_
_atom_site_type_symbol
_atom_site_label
_atom_site_fract_x
_atom_site_fract_y
_atom_site_fract_z
Si Si1 0.662471 0.567711 0.187839
Si Si2 0.213399 0.174770 0.450633
Si Si3 0.699438 0.306754 0.536887
Si Si4 0.796364 0.298252 0.098392
Si Si5 0.785448 0.843277 0.104922
Si Si6 0.754373 0.566537 0.606302
Si Si7 0.532152 0.072243 0.722983
O O1 0.719083 0.500000 0.086785
O O2 0.698264 0.634655 0.081182
O O3 0.748555 0.567840 0.378696
O O4 0.449310 0.563454 0.271697
O O5 0.311532 0.239164 0.366113
O O6 0.242687 0.162980 0.663755
O O7 0.294489 0.118804 0.307753
O O8 0.000000 0.182361 0.500000
O O9 0.500000 0.324801 0.500000
O O10 0.802497 0.294589 0.322429
O O11 0.798945 0.360574 0.634656
O O12 0.737525 0.228175 0.044512
O O13 0.000000 0.307449 0.000000
O O14 0.636658 0.899045 0.119323
O O15 0.000000 0.854376 0.000000
O O16 0.842066 0.500000 0.644630
O O17 0.500000 0.071016 0.500000
O O18 0.567408 0.000000 0.767372
#
# Coordination Sequence:
#
# PCOD9141337 Si02
#       7
#     4   4   4   4   4   4   4
#     4   8  12  18  29  51  84 111 139 184 236 269
#     4  10  20  32  49  74 102 129 161 200 242 284
#     4  10  15  26  46  63  84 121 162 195 231 284
#     4   9  15  22  35  59  87 115 143 183 230 272
#     4   9  18  33  53  74  98 129 161 199 241 287
#     4   8  12  19  35  59  82 108 150 201 239 268
#     4   9  18  33  54  77  98 126 165 199 235 287
#
# _framework density 25.108357000000002
#
# number of rings (size 3 to 8) (size 9 to 14) (size 15 to 20)
#    0.000    3.000    2.857    3.000    0.000    0.857 
#    0.000    0.714    0.000    1.286    0.000    0.000 
#    0.000    0.000    0.000   15.143    0.000    1.286 
#
# Total GULP energy -155934.983301 kJ/mol
# GULP energy per Si atom -5569.106546 kJ/mol
# Density = 2.505121 g / cm^3
# Si number density = 25.108357 Si / 1000 Ang^3
#
#
#
# Elastic Constant Matrix: (Units=GPa)
#
#
# Indices 1 2 3 4 5 6 
#
# 1 44.4484 46.9816 21.0826 0.0000 -12.2485 0.0000
# 2 46.9816 234.5364 35.9762 0.0000 -36.5953 0.0000
# 3 21.0826 35.9762 129.5995 0.0000 -11.5134 0.0000
# 4 0.0000 0.0000 0.0000 2.8889 0.0000 -19.5235
# 5 -12.2485 -36.5953 -11.5134 0.0000 48.6948 0.0000
# 6 0.0000 0.0000 0.0000 -19.5235 0.0000 43.5753
#
#
#
# Elastic Compliance Matrix: (Units=1/GPa)
#
#
# Indices 1 2 3 4 5 6 
#
# 1 0.030247 -0.005092 -0.003239 0.000000 0.003016 0.000000
# 2 -0.005092 0.005828 -0.000525 0.000000 0.002975 0.000000
# 3 -0.003239 -0.000525 0.008459 0.000000 0.000790 0.000000
# 4 0.000000 0.000000 0.000000 -0.170696 0.000000 -0.076479
# 5 0.003016 0.002975 0.000790 0.000000 0.023718 0.000000
# 6 0.000000 0.000000 0.000000 -0.076479 0.000000 -0.011317
#
#
# Mechanical properties :
#
#
# Convention : Reuss Voigt Hill
#
# Bulk Modulus (GPa) = 37.28197 68.51835 52.90016
# Shear Modulus (GPa) = -57.40027 39.33474 -9.03277
#
# Velocity S-wave (km/s) = -4.78651 3.96232 -1.89877
# Velocity P-wave (km/s) = 3.95814 6.94850 4.03824
#
# Compressibility (1/GPa) = 0.02682262
#
# Stress axis : x y z
#
# Youngs Moduli (GPa) = 33.06089 171.57086 118.21636
#
# Poissons Ratio (x) = 0.87357 0.38292
# Poissons Ratio (y) = 0.16833 0.06211
# Poissons Ratio (z) = 0.10709 0.09014
#
# Static dielectric constant tensor:
#      x y z
#    x 2.166560 0.000000 0.040400 
#    y 0.000000 2.120140 0.000000 
#    z 0.040400 0.000000 2.046280 
# 
# From -- ./inp_files/43500.got.cif
#   From: 2010.05.17/outbox.cif.g08.bks.cpg/sg10_22_cif.got.tgz:43500.got - 2010.06.03 11:33:40.
