data_PCOD9141951
_publ_section_title
;
Structure prediction by ZEFSAII (Michael W. Deem and Ramdas Pophale) SiO2 
 PCOD9141951
Probable space group: P 2/M
;
_chemical_formula_sum "Si O2"
_cell_formula_units_Z 26
_cell_length_a 22.651506
_cell_length_b 12.486844
_cell_length_c 7.291334
_cell_angle_alpha 90.000000
_cell_angle_beta 145.356651
_cell_angle_gamma 90.000000
_cell_volume 1172.361438
_symmetry_space_group_name_H-M "P 2/M"
_symmetry_group_IT_number 10
_symmetry_cell_setting 'monoclinic'
loop_
_space_group_symop_operation_xyz
x,y,z
-x,y,-z
-x,-y,-z
x,-y,z
loop_
_atom_site_type_symbol
_atom_site_label
_atom_site_fract_x
_atom_site_fract_y
_atom_site_fract_z
Si Si1 0.122650 0.265143 0.287300
Si Si2 0.308353 0.121994 0.749045
Si Si3 0.497052 0.735104 0.768379
Si Si4 0.199377 0.500000 0.066405
Si Si5 0.880306 0.273563 0.157619
Si Si6 0.125250 0.500000 0.301352
Si Si7 0.551363 0.500000 0.333025
Si Si8 0.699123 0.122175 0.717486
O O1 0.199792 0.170813 0.540577
O O2 0.155232 0.381896 0.449947
O O3 0.135731 0.274311 0.101876
O O4 0.000000 0.246094 0.000000
O O5 0.305715 0.119537 0.518544
O O6 0.326991 0.000000 0.855566
O O7 0.399965 0.204082 0.031508
O O8 0.484262 0.612708 0.672976
O O9 0.397739 0.806937 0.466898
O O10 0.500000 0.731833 0.000000
O O11 0.165176 0.500000 0.193099
O O12 0.323696 0.500000 0.367711
O O13 0.151694 0.392215 0.860967
O O14 0.000000 0.252657 0.500000
O O15 0.804214 0.183258 0.038391
O O16 0.000000 0.500000 0.000000
O O17 0.500000 0.500000 0.000000
O O18 0.694468 0.000000 0.768028
#
# Coordination Sequence:
#
# PCOD9141951 Si02
#       8
#     4   4   4   2   4   2   2   4
#     4   9  18  31  47  67  94 123 157 194 231 271
#     4   9  17  27  42  64  90 122 154 187 233 283
#     4   9  16  25  39  62  91 119 150 184 235 287
#     4  10  17  30  44  64  98 122 150 192 238 282
#     4  10  19  30  46  67  93 125 159 189 228 276
#     4   8  16  27  43  62  85 119 152 185 221 270
#     4  10  18  23  41  68  92 123 146 186 244 284
#     4   9  16  27  41  59  89 122 150 189 231 272
#
# _framework density 22.177458999999999
#
# number of rings (size 3 to 8) (size 9 to 14) (size 15 to 20)
#    0.000    2.769    1.538    0.692    6.462    2.462 
#    0.000    0.000    0.000    0.000    0.000    1.077 
#    0.000    3.692    0.000    0.000    0.000    0.000 
#
# Total GULP energy -145161.207287 kJ/mol
# GULP energy per Si atom -5583.123357 kJ/mol
# Density = 2.212698 g / cm^3
# Si number density = 22.177459 Si / 1000 Ang^3
#
#
#
# Elastic Constant Matrix: (Units=GPa)
#
#
# Indices 1 2 3 4 5 6 
#
# 1 76.4352 42.0308 33.8818 0.0000 -9.2817 0.0000
# 2 42.0308 242.6479 78.3218 0.0000 49.1908 0.0000
# 3 33.8818 78.3218 100.0643 0.0000 38.0153 0.0000
# 4 0.0000 0.0000 0.0000 -4.6934 0.0000 27.3853
# 5 -9.2817 49.1908 38.0153 0.0000 42.7962 0.0000
# 6 0.0000 0.0000 0.0000 27.3853 0.0000 -3.1661
#
#
#
# Elastic Compliance Matrix: (Units=1/GPa)
#
#
# Indices 1 2 3 4 5 6 
#
# 1 0.023784 -0.004345 -0.012844 0.000000 0.021561 0.000000
# 2 -0.004345 0.006745 -0.000762 0.000000 -0.008019 0.000000
# 3 -0.012844 -0.000762 0.023643 0.000000 -0.022912 0.000000
# 4 0.000000 0.000000 0.000000 0.004307 0.000000 0.037254
# 5 0.021561 -0.008019 -0.022912 0.000000 0.057612 0.000000
# 6 0.000000 0.000000 0.000000 0.037254 0.000000 0.006385
#
#
# Mechanical properties :
#
#
# Convention : Reuss Voigt Hill
#
# Bulk Modulus (GPa) = 54.73209 80.84624 67.78917
# Shear Modulus (GPa) = 30.40104 24.64821 27.52462
#
# Velocity S-wave (km/s) = 3.70646 3.33740 3.52676
# Velocity P-wave (km/s) = 6.56124 7.16829 6.87147
#
# Compressibility (1/GPa) = 0.01827082
#
# Stress axis : x y z
#
# Youngs Moduli (GPa) = 42.04537 148.24812 42.29550
#
# Poissons Ratio (x) = 0.64416 0.54323
# Poissons Ratio (y) = 0.18269 0.03223
# Poissons Ratio (z) = 0.54001 0.11298
#
# Static dielectric constant tensor:
#      x y z
#    x 1.782340 0.000000 -0.065750 
#    y 0.000000 1.804780 0.000000 
#    z -0.065750 0.000000 1.790130 
# 
# From -- ./inp_files/37632.got.cif
#   From: 2010.05.17/outbox.cif.g08.bks.cpg/sg10_19_cif.got.tgz:37632.got - 2010.06.03 11:33:40.
