data_PCOD9141303
_publ_section_title
;
Structure prediction by ZEFSAII (Michael W. Deem and Ramdas Pophale) SiO2 
 PCOD9141303
Probable space group: P 2/M
;
_chemical_formula_sum "Si O2"
_cell_formula_units_Z 28
_cell_length_a 5.403014
_cell_length_b 25.392765
_cell_length_c 13.858498
_cell_angle_alpha 90.000000
_cell_angle_beta 99.448745
_cell_angle_gamma 90.000000
_cell_volume 1875.554886
_symmetry_space_group_name_H-M "P 2/M"
_symmetry_group_IT_number 10
_symmetry_cell_setting 'monoclinic'
loop_
_space_group_symop_operation_xyz
x,y,z
-x,y,-z
-x,-y,-z
x,-y,z
loop_
_atom_site_type_symbol
_atom_site_label
_atom_site_fract_x
_atom_site_fract_y
_atom_site_fract_z
Si Si1 0.718213 0.500000 0.435637
Si Si2 0.222013 0.000000 0.433802
Si Si3 0.776965 0.114051 0.564800
Si Si4 0.872273 0.393668 0.387676
Si Si5 0.875064 0.436268 0.773146
Si Si6 0.699469 0.722358 0.385939
Si Si7 0.567539 0.563424 0.111210
Si Si8 0.799167 0.766895 0.613264
O O1 0.500000 0.500000 0.500000
O O2 0.705557 0.446644 0.373978
O O3 0.000000 0.500000 0.500000
O O4 0.500000 0.000000 0.500000
O O5 0.199001 0.942892 0.381705
O O6 0.000000 0.000000 0.500000
O O7 0.500000 0.114445 0.500000
O O8 0.794613 0.170184 0.617107
O O9 0.000000 0.115549 0.500000
O O10 0.088286 0.403785 0.322998
O O11 0.719947 0.339933 0.373961
O O12 0.000000 0.391079 0.500000
O O13 0.858655 0.500000 0.752426
O O14 0.143397 0.426349 0.843082
O O15 0.641691 0.419548 0.824364
O O16 0.749650 0.743894 0.499945
O O17 0.428590 0.743313 0.341696
O O18 0.928769 0.746615 0.341823
O O19 0.543442 0.500000 0.107493
O O20 0.500000 0.583190 0.000000
#
# Coordination Sequence:
#
# PCOD9141303 Si02
#       8
#     2   2   4   4   4   4   4   4
#     4  10  24  34  44  54  71 110 139 160 196 226
#     4   8  16  20  30  48  64  84 100 140 210 252
#     4  10  14  23  34  47  66  82 112 155 196 246
#     4  11  22  36  45  61  87 115 140 168 195 243
#     4  10  20  33  48  69  85 105 131 157 199 250
#     4  10  19  27  41  51  68  96 136 160 189 214
#     4   9  18  34  54  70  84  98 121 159 202 250
#     4  10  16  28  38  52  63  94 133 167 186 226
#
# _framework density 14.928915999999999
#
# number of rings (size 3 to 8) (size 9 to 14) (size 15 to 20)
#    0.000    2.143    5.000    0.429    2.000    5.143 
#    0.000    0.000    0.000    0.000    0.000    0.000 
#    0.000    0.000    0.000    0.000    0.000    0.000 
#
# Total GULP energy -155876.383713 kJ/mol
# GULP energy per Si atom -5567.013704 kJ/mol
# Density = 1.489494 g / cm^3
# Si number density = 14.928916 Si / 1000 Ang^3
#
#
#
# Elastic Constant Matrix: (Units=GPa)
#
#
# Indices 1 2 3 4 5 6 
#
# 1 119.5591 31.8197 18.8473 0.0000 -16.6447 0.0000
# 2 31.8197 141.2275 5.0081 0.0000 -8.6649 0.0000
# 3 18.8473 5.0081 48.2285 0.0000 -5.5673 0.0000
# 4 0.0000 0.0000 0.0000 -2.6381 0.0000 -2.2265
# 5 -16.6447 -8.6649 -5.5673 0.0000 14.1794 0.0000
# 6 0.0000 0.0000 0.0000 -2.2265 0.0000 18.2028
#
#
#
# Elastic Compliance Matrix: (Units=1/GPa)
#
#
# Indices 1 2 3 4 5 6 
#
# 1 0.010705 -0.001672 -0.002804 0.000000 0.010444 0.000000
# 2 -0.001672 0.007621 0.000181 0.000000 0.002766 0.000000
# 3 -0.002804 0.000181 0.022463 0.000000 0.005638 0.000000
# 4 0.000000 0.000000 0.000000 -0.343593 0.000000 -0.042027
# 5 0.010444 0.002766 0.005638 0.000000 0.086688 0.000000
# 6 0.000000 0.000000 0.000000 -0.042027 0.000000 0.049796
#
#
# Mechanical properties :
#
#
# Convention : Reuss Voigt Hill
#
# Bulk Modulus (GPa) = 31.05713 46.70725 38.88219
# Shear Modulus (GPa) = -34.01400 22.83815 -5.58792
#
# Velocity S-wave (km/s) = -4.77843 3.91550 -1.93679
# Velocity P-wave (km/s) = 3.09775 7.19693 4.59346
#
# Compressibility (1/GPa) = 0.03219872
#
# Stress axis : x y z
#
# Youngs Moduli (GPa) = 93.41457 131.22173 44.51854
#
# Poissons Ratio (x) = 0.21936 0.12484
# Poissons Ratio (y) = 0.15616 -0.00807
# Poissons Ratio (z) = 0.26196 -0.02378
#
# Static dielectric constant tensor:
#      x y z
#    x 1.554650 0.000000 0.014020 
#    y 0.000000 1.540630 0.000000 
#    z 0.014020 0.000000 1.495720 
# 
# From -- ./inp_files/39881.got.cif
#   From: 2010.05.17/outbox.cif.g08.bks.cpg/sg10_20_cif.got.tgz:39881.got - 2010.06.03 11:33:40.
