data_PCOD9141944
_publ_section_title
;
Structure prediction by ZEFSAII (Michael W. Deem and Ramdas Pophale) SiO2 
 PCOD9141944
Probable space group: P 2/M
;
_chemical_formula_sum "Si O2"
_cell_formula_units_Z 28
_cell_length_a 7.080625
_cell_length_b 19.271406
_cell_length_c 15.625549
_cell_angle_alpha 90.000000
_cell_angle_beta 42.291518
_cell_angle_gamma 90.000000
_cell_volume 1434.738500
_symmetry_space_group_name_H-M "P 2/M"
_symmetry_group_IT_number 10
_symmetry_cell_setting 'monoclinic'
loop_
_space_group_symop_operation_xyz
x,y,z
-x,y,-z
-x,-y,-z
x,-y,z
loop_
_atom_site_type_symbol
_atom_site_label
_atom_site_fract_x
_atom_site_fract_y
_atom_site_fract_z
Si Si1 0.448884 0.579881 0.327883
Si Si2 0.316839 0.702135 0.863454
Si Si3 0.728960 0.198933 0.266637
Si Si4 0.804351 0.077716 0.352117
Si Si5 0.880532 0.298309 0.763731
Si Si6 0.868933 0.799899 0.453067
Si Si7 0.108427 0.578668 0.605514
O O1 0.555698 0.500000 0.290238
O O2 0.625326 0.639866 0.223004
O O3 0.356355 0.598220 0.456033
O O4 0.166651 0.578826 0.363866
O O5 0.350774 0.774500 0.800106
O O6 0.546804 0.698135 0.862391
O O7 0.000000 0.697289 0.000000
O O8 0.787211 0.118055 0.267159
O O9 0.461275 0.212225 0.418561
O O10 0.989055 0.246881 0.209985
O O11 0.500000 0.071589 0.500000
O O12 0.941540 0.134975 0.367992
O O13 0.921224 0.000000 0.307956
O O14 0.993960 0.266590 0.635838
O O15 0.025787 0.373154 0.712754
O O16 0.000000 0.814168 0.500000
O O17 0.157177 0.500000 0.616513
#
# Coordination Sequence:
#
# PCOD9141944 Si02
#       7
#     4   4   4   4   4   4   4
#     4   8  15  28  47  72 101 132 168 211 259 306
#     4  11  22  34  51  72  97 138 185 220 252 292
#     4  10  20  34  53  77 106 134 168 206 256 305
#     4   8  16  30  49  78 113 139 157 190 247 313
#     4  10  19  32  52  74 105 136 165 215 259 303
#     4  10  17  29  53  81 107 133 163 200 255 311
#     4   8  14  26  48  75 101 132 165 205 259 313
#
# _framework density 19.515751999999999
#
# number of rings (size 3 to 8) (size 9 to 14) (size 15 to 20)
#    0.000    2.714    1.429    3.000    2.000    1.143 
#    0.000    0.714    0.000    3.857    0.000    9.000 
#    0.000    0.000    0.000    0.000    0.000    0.000 
#
# Total GULP energy -156030.052571 kJ/mol
# GULP energy per Si atom -5572.501878 kJ/mol
# Density = 1.947133 g / cm^3
# Si number density = 19.515752 Si / 1000 Ang^3
#
#
#
# Elastic Constant Matrix: (Units=GPa)
#
#
# Indices 1 2 3 4 5 6 
#
# 1 54.4152 2.7512 4.1774 0.0000 -13.1205 0.0000
# 2 2.7512 91.3466 20.8908 0.0000 -1.2065 0.0000
# 3 4.1774 20.8908 68.7872 0.0000 -20.7571 0.0000
# 4 0.0000 0.0000 0.0000 8.6014 0.0000 0.0474
# 5 -13.1205 -1.2065 -20.7571 0.0000 23.3092 0.0000
# 6 0.0000 0.0000 0.0000 0.0474 0.0000 15.5293
#
#
#
# Elastic Compliance Matrix: (Units=1/GPa)
#
#
# Indices 1 2 3 4 5 6 
#
# 1 0.021927 -0.001321 0.003792 0.000000 0.015651 0.000000
# 2 -0.001321 0.012059 -0.004948 0.000000 -0.004525 0.000000
# 3 0.003792 -0.004948 0.022395 0.000000 0.021821 0.000000
# 4 0.000000 0.000000 0.000000 0.116263 0.000000 -0.000355
# 5 0.015651 -0.004525 0.021821 0.000000 0.070910 0.000000
# 6 0.000000 0.000000 0.000000 -0.000355 0.000000 0.064395
#
#
# Mechanical properties :
#
#
# Convention : Reuss Voigt Hill
#
# Bulk Modulus (GPa) = 19.44472 30.02088 24.73280
# Shear Modulus (GPa) = 15.14955 21.93661 18.54308
#
# Velocity S-wave (km/s) = 2.78919 3.35632 3.08581
# Velocity P-wave (km/s) = 4.51199 5.51689 5.03955
#
# Compressibility (1/GPa) = 0.05142784
#
# Stress axis : x y z
#
# Youngs Moduli (GPa) = 45.60660 82.92659 44.65344
#
# Poissons Ratio (x) = 0.10955 -0.16935
# Poissons Ratio (y) = 0.06025 0.22093
# Poissons Ratio (z) = -0.17296 0.41029
#
# Static dielectric constant tensor:
#      x y z
#    x 1.776970 0.000000 -0.033050 
#    y 0.000000 1.701580 0.000000 
#    z -0.033050 0.000000 1.684090 
# 
# From -- ./inp_files/35362.got.cif
#   From: 2010.05.17/outbox.cif.g08.bks.cpg/sg10_18_cif.got.tgz:35362.got - 2010.06.03 11:33:40.
