data_PCOD9141411
_publ_section_title
;
Structure prediction by ZEFSAII (Michael W. Deem and Ramdas Pophale) SiO2 
 PCOD9141411
Probable space group: P 2/M
;
_chemical_formula_sum "Si O2"
_cell_formula_units_Z 28
_cell_length_a 8.298320
_cell_length_b 17.648262
_cell_length_c 11.069262
_cell_angle_alpha 90.000000
_cell_angle_beta 59.622139
_cell_angle_gamma 90.000000
_cell_volume 1398.540941
_symmetry_space_group_name_H-M "P 2/M"
_symmetry_group_IT_number 10
_symmetry_cell_setting 'monoclinic'
loop_
_space_group_symop_operation_xyz
x,y,z
-x,y,-z
-x,-y,-z
x,-y,z
loop_
_atom_site_type_symbol
_atom_site_label
_atom_site_fract_x
_atom_site_fract_y
_atom_site_fract_z
Si Si1 0.691840 0.413049 0.692022
Si Si2 0.286880 0.408625 0.581963
Si Si3 0.377235 0.688191 0.923788
Si Si4 0.935234 0.412118 0.841967
Si Si5 0.718494 0.151077 0.147475
Si Si6 0.616417 0.909295 0.835111
Si Si7 0.965054 0.089868 0.833633
O O1 0.620582 0.500000 0.711056
O O2 0.780290 0.394669 0.529331
O O3 0.520731 0.358237 0.786682
O O4 0.834277 0.411262 0.749032
O O5 0.500000 0.381469 0.500000
O O6 0.289441 0.500000 0.597895
O O7 0.142225 0.380682 0.737262
O O8 0.300850 0.763690 0.891099
O O9 0.500000 0.704305 0.000000
O O10 0.200065 0.636595 0.024156
O O11 0.941579 0.500000 0.879180
O O12 0.506897 0.120573 0.228169
O O13 0.846467 0.136573 0.215387
O O14 0.832279 0.103701 0.001385
O O15 0.829724 0.884693 0.775415
O O16 0.617979 0.000000 0.831639
O O17 0.500000 0.886461 0.000000
O O18 0.004213 0.000000 0.809738
#
# Coordination Sequence:
#
# PCOD9141411 Si02
#       7
#     4   4   4   4   4   4   4
#     4   9  17  31  50  68  87 117 157 196 234 277
#     4   9  17  31  49  67  85 109 151 202 237 268
#     4  10  19  29  43  67  98 125 149 186 237 287
#     4   9  17  31  50  68  87 117 157 196 234 277
#     4  10  16  25  38  57  89 123 152 185 227 275
#     4   8  13  22  38  56  77 113 156 191 221 260
#     4   9  16  26  40  58  80 116 162 192 216 266
#
# _framework density 20.020864
#
# number of rings (size 3 to 8) (size 9 to 14) (size 15 to 20)
#    0.000    2.857    0.000    4.714    0.000    3.429 
#    5.143    0.000    0.000    3.429    0.000    0.000 
#    0.000    0.000    0.000   16.714    0.000  191.286 
#
# Total GULP energy -156043.618144 kJ/mol
# GULP energy per Si atom -5572.986362 kJ/mol
# Density = 1.997530 g / cm^3
# Si number density = 20.020864 Si / 1000 Ang^3
#
#
#
# Elastic Constant Matrix: (Units=GPa)
#
#
# Indices 1 2 3 4 5 6 
#
# 1 158.6506 47.1488 29.6073 0.0000 -16.5446 0.0000
# 2 47.1488 74.1583 26.4068 0.0000 -13.4787 0.0000
# 3 29.6073 26.4068 49.4292 0.0000 -16.1785 0.0000
# 4 0.0000 0.0000 0.0000 -3.1034 0.0000 -3.6084
# 5 -16.5446 -13.4787 -16.1785 0.0000 22.9238 0.0000
# 6 0.0000 0.0000 0.0000 -3.6084 0.0000 72.7755
#
#
#
# Elastic Compliance Matrix: (Units=1/GPa)
#
#
# Indices 1 2 3 4 5 6 
#
# 1 0.008098 -0.004062 -0.002015 0.000000 0.002035 0.000000
# 2 -0.004062 0.019066 -0.006558 0.000000 0.003651 0.000000
# 3 -0.002015 -0.006558 0.030173 0.000000 0.015985 0.000000
# 4 0.000000 0.000000 0.000000 -0.304659 0.000000 -0.015106
# 5 0.002035 0.003651 0.015985 0.000000 0.058519 0.000000
# 6 0.000000 0.000000 0.000000 -0.015106 0.000000 0.012992
#
#
# Mechanical properties :
#
#
# Convention : Reuss Voigt Hill
#
# Bulk Modulus (GPa) = 31.18330 54.28487 42.73408
# Shear Modulus (GPa) = -35.75203 30.45753 -2.64725
#
# Velocity S-wave (km/s) = -4.23038 3.90460 -1.15114
# Velocity P-wave (km/s) = 2.87269 6.89209 4.42993
#
# Compressibility (1/GPa) = 0.03206845
#
# Stress axis : x y z
#
# Youngs Moduli (GPa) = 123.48105 52.45047 33.14188
#
# Poissons Ratio (x) = 0.21303 0.06678
# Poissons Ratio (y) = 0.50152 0.21734
# Poissons Ratio (z) = 0.24882 0.34396
#
# Static dielectric constant tensor:
#      x y z
#    x 1.841570 0.000000 0.029120 
#    y 0.000000 1.687750 0.000000 
#    z 0.029120 0.000000 1.670700 
# 
# From -- ./inp_files/42892.got.cif
#   From: 2010.05.17/outbox.cif.g08.bks.cpg/sg10_22_cif.got.tgz:42892.got - 2010.06.03 11:33:40.
