data_PCOD9141919
_publ_section_title
;
Structure prediction by ZEFSAII (Michael W. Deem and Ramdas Pophale) SiO2 
 PCOD9141919
Probable space group: P 2/M
;
_chemical_formula_sum "Si O2"
_cell_formula_units_Z 32
_cell_length_a 12.740860
_cell_length_b 7.467712
_cell_length_c 18.475094
_cell_angle_alpha 90.000000
_cell_angle_beta 102.309382
_cell_angle_gamma 90.000000
_cell_volume 1717.403214
_symmetry_space_group_name_H-M "P 2/M"
_symmetry_group_IT_number 10
_symmetry_cell_setting 'monoclinic'
loop_
_space_group_symop_operation_xyz
x,y,z
-x,y,-z
-x,-y,-z
x,-y,z
loop_
_atom_site_type_symbol
_atom_site_label
_atom_site_fract_x
_atom_site_fract_y
_atom_site_fract_z
Si Si1 0.173407 0.792430 0.692388
Si Si2 0.970376 0.219002 0.577175
Si Si3 0.322631 0.780133 0.840358
Si Si4 0.433896 0.780072 0.163763
Si Si5 0.626631 0.790223 0.997819
Si Si6 0.725700 0.217259 0.563132
Si Si7 0.358122 0.707723 0.607837
Si Si8 0.598514 0.206484 0.682817
O O1 0.231620 0.716484 0.771854
O O2 0.261041 0.786719 0.640738
O O3 0.062649 0.716086 0.645284
O O4 0.151557 0.000000 0.705949
O O5 0.849852 0.273753 0.578630
O O6 0.000000 0.274459 0.500000
O O7 0.972648 0.000000 0.577775
O O8 0.440761 0.729663 0.827940
O O9 0.322117 0.000000 0.840743
O O10 0.313990 0.718085 0.922360
O O11 0.369300 0.717924 0.083093
O O12 0.392002 0.716668 0.235094
O O13 0.432923 0.000000 0.163303
O O14 0.655344 0.000000 0.997330
O O15 0.500000 0.781596 0.000000
O O16 0.667935 0.273161 0.480582
O O17 0.664807 0.284414 0.625607
O O18 0.722916 0.000000 0.562700
O O19 0.364643 0.500000 0.627818
O O20 0.472642 0.790683 0.644053
O O21 0.633371 0.000000 0.693731
#
# Coordination Sequence:
#
# PCOD9141919 Si02
#       8
#     4   4   4   4   4   4   4   4
#     4  10  17  29  49  67  86 114 149 182 215 252
#     4   9  16  28  48  67  82 105 143 190 225 246
#     4   8  12  19  36  61  86 109 137 171 207 249
#     4   8  12  20  36  60  87 110 135 169 208 248
#     4   7  10  16  29  56  89 110 128 165 208 244
#     4  10  20  34  49  64  82 111 151 186 215 251
#     4  12  23  32  44  64  91 117 143 176 220 263
#     4  10  19  31  48  66  85 114 149 179 209 254
#
# _framework density 18.632781999999999
#
# number of rings (size 3 to 8) (size 9 to 14) (size 15 to 20)
#    0.000    2.750    2.500    3.000    0.000    2.000 
#    0.000    1.250    0.000    0.000    0.000    2.625 
#    0.000    7.000    0.000    0.000    0.000    4.125 
#
# Total GULP energy -178410.320371 kJ/mol
# GULP energy per Si atom -5575.322512 kJ/mol
# Density = 1.859037 g / cm^3
# Si number density = 18.632782 Si / 1000 Ang^3
#
#
#
# Elastic Constant Matrix: (Units=GPa)
#
#
# Indices 1 2 3 4 5 6 
#
# 1 43.2220 -5.8185 48.6430 0.0000 -5.4647 0.0000
# 2 -5.8185 55.3490 -2.5865 0.0000 3.4604 0.0000
# 3 48.6430 -2.5865 192.2431 0.0000 14.6297 0.0000
# 4 0.0000 0.0000 0.0000 -28.7929 0.0000 -9.9497
# 5 -5.4647 3.4604 14.6297 0.0000 19.8274 0.0000
# 6 0.0000 0.0000 0.0000 -9.9497 0.0000 -27.4961
#
#
#
# Elastic Compliance Matrix: (Units=1/GPa)
#
#
# Indices 1 2 3 4 5 6 
#
# 1 0.038145 0.002356 -0.011007 0.000000 0.018224 0.000000
# 2 0.002356 0.018461 -0.000161 0.000000 -0.002454 0.000000
# 3 -0.011007 -0.000161 0.008702 0.000000 -0.009426 0.000000
# 4 0.000000 0.000000 0.000000 -0.039694 0.000000 0.014364
# 5 0.018224 -0.002454 -0.009426 0.000000 0.062842 0.000000
# 6 0.000000 0.000000 0.000000 0.014364 0.000000 -0.041567
#
#
# Mechanical properties :
#
#
# Convention : Reuss Voigt Hill
#
# Bulk Modulus (GPa) = 20.97126 41.25447 31.11286
# Shear Modulus (GPa) = 62.18393 9.41275 35.79834
#
# Velocity S-wave (km/s) = 5.78324 2.25004 4.38797
# Velocity P-wave (km/s) = 7.47489 5.37951 6.51203
#
# Compressibility (1/GPa) = 0.04768431
#
# Stress axis : x y z
#
# Youngs Moduli (GPa) = 26.21571 54.16901 114.91623
#
# Poissons Ratio (x) = -0.12764 1.26487
# Poissons Ratio (y) = -0.06177 0.01852
# Poissons Ratio (z) = 0.28855 0.00873
#
# Static dielectric constant tensor:
#      x y z
#    x 1.601280 0.000000 0.009330 
#    y 0.000000 1.713080 0.000000 
#    z 0.009330 0.000000 1.683430 
# 
# From -- ./inp_files/75979.got.cif
#   From: 2010.05.17/outbox.cif.g08.bks.cpg/sg10_38_cif.got.tgz:75979.got - 2010.06.03 11:33:40.
