data_PCOD9141816
_publ_section_title
;
Structure prediction by ZEFSAII (Michael W. Deem and Ramdas Pophale) SiO2 
 PCOD9141816
Probable space group: P 2/M
;
_chemical_formula_sum "Si O2"
_cell_formula_units_Z 32
_cell_length_a 20.993435
_cell_length_b 7.413233
_cell_length_c 20.502572
_cell_angle_alpha 90.000000
_cell_angle_beta 29.960990
_cell_angle_gamma 90.000000
_cell_volume 1593.517917
_symmetry_space_group_name_H-M "P 2/M"
_symmetry_group_IT_number 10
_symmetry_cell_setting 'monoclinic'
loop_
_space_group_symop_operation_xyz
x,y,z
-x,y,-z
-x,-y,-z
x,-y,z
loop_
_atom_site_type_symbol
_atom_site_label
_atom_site_fract_x
_atom_site_fract_y
_atom_site_fract_z
Si Si1 0.084107 0.212445 0.117953
Si Si2 0.397828 0.213863 0.376406
Si Si3 0.801226 0.220988 0.337579
Si Si4 0.642566 0.219564 0.353563
Si Si5 0.223650 0.716763 0.413087
Si Si6 0.147628 0.709210 0.344485
Si Si7 0.673374 0.221190 0.177334
Si Si8 0.054243 0.718029 0.293505
O O1 0.099824 0.231958 0.181573
O O2 0.944773 0.285289 0.222533
O O3 0.079068 0.000000 0.107673
O O4 0.203883 0.284924 0.971571
O O5 0.294073 0.283118 0.520591
O O6 0.342143 0.241930 0.353899
O O7 0.539593 0.282147 0.264577
O O8 0.403897 0.000000 0.382281
O O9 0.742066 0.274985 0.320804
O O10 0.802598 0.000000 0.338225
O O11 0.500000 0.276976 0.500000
O O12 0.675432 0.275792 0.251209
O O13 0.641119 0.000000 0.354884
O O14 0.213494 0.500000 0.417771
O O15 0.224551 0.786170 0.337772
O O16 0.092063 0.779949 0.564407
O O17 0.186659 0.500000 0.303096
O O18 0.139373 0.785225 0.278856
O O19 0.000000 0.711197 0.500000
O O20 0.673795 0.000000 0.175631
O O21 0.052498 0.500000 0.298813
#
# Coordination Sequence:
#
# PCOD9141816 Si02
#       8
#     4   4   4   4   4   4   4   4
#     4  10  19  30  43  67  98 121 147 188 230 265
#     4  10  17  28  45  67  93 120 149 184 227 270
#     4   9  16  25  42  65  90 117 147 187 226 259
#     4   9  14  24  42  64  89 118 152 187 224 267
#     4   9  16  27  46  71  93 115 148 190 227 263
#     4   7  12  24  42  65  91 115 145 185 224 260
#     4   9  18  29  43  64  93 125 152 183 228 273
#     4   9  16  28  47  68  91 122 152 180 222 273
#
# _framework density 20.081354999999999
#
# number of rings (size 3 to 8) (size 9 to 14) (size 15 to 20)
#    0.000    3.000    2.500    1.500    0.000    0.500 
#    0.000    3.750    0.000    3.000    0.000   10.500 
#    0.000    0.000    0.000    0.000    0.000    0.000 
#
# Total GULP energy -178449.912733 kJ/mol
# GULP energy per Si atom -5576.559773 kJ/mol
# Density = 2.003565 g / cm^3
# Si number density = 20.081355 Si / 1000 Ang^3
#
#
#
# Elastic Constant Matrix: (Units=GPa)
#
#
# Indices 1 2 3 4 5 6 
#
# 1 211.3759 -3.2330 105.6702 0.0000 2.0669 0.0000
# 2 -3.2330 64.0660 8.7467 0.0000 -5.0289 0.0000
# 3 105.6702 8.7467 146.2195 0.0000 1.1388 0.0000
# 4 0.0000 0.0000 0.0000 -1.2652 0.0000 3.7151
# 5 2.0669 -5.0289 1.1388 0.0000 22.4966 0.0000
# 6 0.0000 0.0000 0.0000 3.7151 0.0000 18.0543
#
#
#
# Elastic Compliance Matrix: (Units=1/GPa)
#
#
# Indices 1 2 3 4 5 6 
#
# 1 0.007487 0.001113 -0.005476 0.000000 -0.000162 0.000000
# 2 0.001113 0.016194 -0.001801 0.000000 0.003609 0.000000
# 3 -0.005476 -0.001801 0.010908 0.000000 -0.000452 0.000000
# 4 0.000000 0.000000 0.000000 -0.492682 0.000000 0.101381
# 5 -0.000162 0.003609 -0.000452 0.000000 0.045296 0.000000
# 6 0.000000 0.000000 0.000000 0.101381 0.000000 0.034527
#
#
# Mechanical properties :
#
#
# Convention : Reuss Voigt Hill
#
# Bulk Modulus (GPa) = 44.92282 71.55880 58.24081
# Shear Modulus (GPa) = -13.94615 28.55564 7.30475
#
# Velocity S-wave (km/s) = -2.63816 3.77503 1.90931
# Velocity P-wave (km/s) = 3.62479 7.39682 5.82461
#
# Compressibility (1/GPa) = 0.02226040
#
# Stress axis : x y z
#
# Youngs Moduli (GPa) = 133.56322 61.75044 91.67796
#
# Poissons Ratio (x) = -0.06871 0.50204
# Poissons Ratio (y) = -0.14862 0.16511
# Poissons Ratio (z) = 0.73140 0.11121
#
# Static dielectric constant tensor:
#      x y z
#    x 1.724070 0.000000 0.001920 
#    y 0.000000 1.790410 0.000000 
#    z 0.001920 0.000000 1.668540 
# 
# From -- ./inp_files/36041.got.cif
#   From: 2010.05.17/outbox.cif.g08.bks.cpg/sg10_19_cif.got.tgz:36041.got - 2010.06.03 11:33:40.
