data_PCOD9141579
_publ_section_title
;
Structure prediction by ZEFSAII (Michael W. Deem and Ramdas Pophale) SiO2 
 PCOD9141579
Probable space group: P 2/M
;
_chemical_formula_sum "Si O2"
_cell_formula_units_Z 24
_cell_length_a 17.144698
_cell_length_b 8.781511
_cell_length_c 15.826066
_cell_angle_alpha 90.000000
_cell_angle_beta 36.874514
_cell_angle_gamma 90.000000
_cell_volume 1429.782455
_symmetry_space_group_name_H-M "P 2/M"
_symmetry_group_IT_number 10
_symmetry_cell_setting 'monoclinic'
loop_
_space_group_symop_operation_xyz
x,y,z
-x,y,-z
-x,-y,-z
x,-y,z
loop_
_atom_site_type_symbol
_atom_site_label
_atom_site_fract_x
_atom_site_fract_y
_atom_site_fract_z
Si Si1 0.589942 0.317693 0.638919
Si Si2 0.639311 0.181942 0.417550
Si Si3 0.664830 0.181463 0.928796
Si Si4 0.625190 0.317326 0.794537
Si Si5 0.853334 0.316183 0.107619
Si Si6 0.288514 0.683012 0.939839
O O1 0.596430 0.500000 0.621583
O O2 0.644998 0.236561 0.509173
O O3 0.659655 0.280680 0.667630
O O4 0.436621 0.278212 0.783095
O O5 0.500000 0.232630 0.500000
O O6 0.753092 0.250499 0.262206
O O7 0.644353 0.000000 0.409376
O O8 0.705975 0.246336 0.801687
O O9 0.657666 0.000000 0.932026
O O10 0.520779 0.251708 0.068419
O O11 0.741191 0.237813 0.945207
O O12 0.620540 0.500000 0.807233
O O13 0.847568 0.500000 0.117036
O O14 0.805765 0.273174 0.054907
O O15 0.000000 0.267582 0.000000
O O16 0.285159 0.500000 0.954677
#
# Coordination Sequence:
#
# PCOD9141579 Si02
#       6
#     4   4   4   4   4   4
#     4   9  17  29  48  70  94 130 167 205 246 291
#     4  11  22  33  49  75 104 135 167 204 253 304
#     4  10  17  24  39  64  94 128 161 196 242 297
#     4   9  16  27  41  62  93 127 161 200 247 290
#     4  10  21  37  56  75  97 131 175 216 252 295
#     4   9  17  30  47  68  95 128 164 205 250 292
#
# _framework density 16.785769999999999
#
# number of rings (size 3 to 8) (size 9 to 14) (size 15 to 20)
#    0.000    2.333    1.667    4.500    0.000    5.000 
#    0.000    0.000    0.000    0.000    0.000    1.167 
#    0.000    9.333    0.000    0.000    0.000    0.000 
#
# Total GULP energy -133754.100136 kJ/mol
# GULP energy per Si atom -5573.087506 kJ/mol
# Density = 1.674757 g / cm^3
# Si number density = 16.785770 Si / 1000 Ang^3
#
#
#
# Elastic Constant Matrix: (Units=GPa)
#
#
# Indices 1 2 3 4 5 6 
#
# 1 157.8981 52.7793 74.4792 0.0000 36.9185 0.0000
# 2 52.7793 46.7884 30.7790 0.0000 14.2170 0.0000
# 3 74.4792 30.7790 73.7739 0.0000 13.3671 0.0000
# 4 0.0000 0.0000 0.0000 36.8235 0.0000 11.4843
# 5 36.9185 14.2170 13.3671 0.0000 28.4261 0.0000
# 6 0.0000 0.0000 0.0000 11.4843 0.0000 12.7877
#
#
#
# Elastic Compliance Matrix: (Units=1/GPa)
#
#
# Indices 1 2 3 4 5 6 
#
# 1 0.018060 -0.008092 -0.012397 0.000000 -0.013580 0.000000
# 2 -0.008092 0.035804 -0.005934 0.000000 -0.004608 0.000000
# 3 -0.012397 -0.005934 0.027428 0.000000 0.006170 0.000000
# 4 0.000000 0.000000 0.000000 0.037722 0.000000 -0.033877
# 5 -0.013580 -0.004608 0.006170 0.000000 0.052219 0.000000
# 6 0.000000 0.000000 0.000000 -0.033877 0.000000 0.108623
#
#
# Mechanical properties :
#
#
# Convention : Reuss Voigt Hill
#
# Bulk Modulus (GPa) = 35.15203 66.05950 50.60576
# Shear Modulus (GPa) = 14.61205 23.63566 19.12386
#
# Velocity S-wave (km/s) = 2.95363 3.75651 3.37900
# Velocity P-wave (km/s) = 5.71130 7.63250 6.74069
#
# Compressibility (1/GPa) = 0.02844786
#
# Stress axis : x y z
#
# Youngs Moduli (GPa) = 55.36953 27.92976 36.45936
#
# Poissons Ratio (x) = 0.22600 0.45198
# Poissons Ratio (y) = 0.44803 0.21634
# Poissons Ratio (z) = 0.68640 0.16573
#
# Static dielectric constant tensor:
#      x y z
#    x 1.618580 0.000000 0.025870 
#    y 0.000000 1.556950 0.000000 
#    z 0.025870 0.000000 1.536990 
# 
# From -- ./inp_files/66307.got.cif
#   From: 2010.05.17/outbox.cif.g08.bks.cpg/sg10_34_cif.got.tgz:66307.got - 2010.06.03 11:33:40.
