data_PCOD9141262
_publ_section_title
;
Structure prediction by ZEFSAII (Michael W. Deem and Ramdas Pophale) SiO2 
 PCOD9141262
Probable space group: C C
;
_chemical_formula_sum "Si O2"
_cell_formula_units_Z 16
_cell_length_a 24.000000
_cell_length_b 9.000000
_cell_length_c 9.000000
_cell_angle_alpha 90.000000
_cell_angle_beta 60.000000
_cell_angle_gamma 90.000000
_cell_volume 1683.553385
_symmetry_space_group_name_H-M "C C"
_symmetry_group_IT_number 9
_symmetry_cell_setting 'monoclinic'
loop_
_space_group_symop_operation_xyz
x,y,z
x,-y,1/2+z
1/2+x,1/2+y,z
1/2+x,1/2-y,1/2+z
loop_
_atom_site_type_symbol
_atom_site_label
_atom_site_fract_x
_atom_site_fract_y
_atom_site_fract_z
Si Si1 0.067170 0.133626 0.784210
Si Si2 0.428342 0.862569 0.460513
Si Si3 0.216894 0.519127 0.183562
Si Si4 0.125328 0.558293 0.563966
Si Si5 0.723595 0.353116 0.059062
Si Si6 0.038687 0.173425 0.167480
Si Si7 0.772512 0.327910 0.653022
Si Si8 0.996509 0.613697 0.189808
O O1 0.145243 0.148299 0.673382
O O2 0.027216 0.247303 0.734562
O O3 0.048658 0.974592 0.745561
O O4 0.044061 0.150486 0.984246
O O5 0.471579 0.748298 0.306204
O O6 0.351366 0.834647 0.551974
O O7 0.457875 0.856078 0.588724
O O8 0.449253 0.021107 0.361578
O O9 0.191013 0.542957 0.384143
O O10 0.149072 0.509387 0.186000
O O11 0.244987 0.685892 0.097720
O O12 0.250063 0.347561 0.133168
O O13 0.099602 0.722538 0.625553
O O14 0.062007 0.482398 0.577451
O O15 0.748355 0.515851 0.097713
O O16 0.745631 0.347696 0.857056
#
# Coordination Sequence:
#
# PCOD9141262 Si02
#       8
#     4   4   4   4   4   4   4   4
#     4  12  22  41  67 108 134 169 229 302 364 406
#     4  11  25  46  64  98 135 194 230 275 344 430
#     4  12  23  44  68 104 139 181 225 294 355 415
#     4  11  20  41  67 101 132 170 226 287 362 403
#     4  12  26  44  74 107 137 186 233 297 359 419
#     4  11  23  39  67  99 141 177 230 294 354 425
#     4  12  28  48  69 102 147 193 240 280 346 432
#     4  11  21  41  72  93 137 174 227 287 348 412
#
# _framework density 9.5037079999999996
#
# number of rings (size 3 to 8) (size 9 to 14) (size 15 to 20)
#    0.000    0.500    3.750    6.000    1.750    0.000 
#    6.750    0.000    0.000    0.000    0.000    0.000 
#    0.000    0.000    0.000    0.000    0.000    0.000 
#
# Total GULP energy -89082.067366 kJ/mol
# GULP energy per Si atom -5567.629210 kJ/mol
# Density = 0.948208 g / cm^3
# Si number density = 9.503708 Si / 1000 Ang^3
#
#
#
# Elastic Constant Matrix: (Units=GPa)
#
#
# Indices 1 2 3 4 5 6 
#
# 1 127.3306 51.6965 50.5406 0.0000 -16.5673 0.0000
# 2 51.6965 165.3889 45.1466 0.0000 -10.8615 0.0000
# 3 50.5406 45.1466 113.8217 0.0000 -0.2882 0.0000
# 4 0.0000 0.0000 0.0000 37.2308 0.0000 0.9051
# 5 -16.5673 -10.8615 -0.2882 0.0000 29.6956 0.0000
# 6 0.0000 0.0000 0.0000 0.9051 0.0000 133.4448
#
#
#
# Elastic Compliance Matrix: (Units=1/GPa)
#
#
# Indices 1 2 3 4 5 6 
#
# 1 0.010966 -0.001963 -0.004077 0.000000 0.005361 0.000000
# 2 -0.001963 0.007315 -0.002026 0.000000 0.001561 0.000000
# 3 -0.004077 -0.002026 0.011392 0.000000 -0.002905 0.000000
# 4 0.000000 0.000000 0.000000 0.026864 0.000000 -0.000182
# 5 0.005361 0.001561 -0.002905 0.000000 0.037209 0.000000
# 6 0.000000 0.000000 0.000000 -0.000182 0.000000 0.007495
#
#
# Mechanical properties :
#
#
# Convention : Reuss Voigt Hill
#
# Bulk Modulus (GPa) = 73.84555 77.92318 75.88436
# Shear Modulus (GPa) = 41.02123 57.35141 49.18632
#
# Velocity S-wave (km/s) = 4.65065 5.49897 5.09251
# Velocity P-wave (km/s) = 8.23246 9.02239 8.63646
#
# Compressibility (1/GPa) = 0.01354178
#
# Stress axis : x y z
#
# Youngs Moduli (GPa) = 91.18812 136.69669 87.77755
#
# Poissons Ratio (x) = 0.26830 0.35790
# Poissons Ratio (y) = 0.17898 0.17785
# Poissons Ratio (z) = 0.37180 0.27697
#
# Static dielectric constant tensor:
#      x y z
#    x 1.637770 0.000000 0.027030 
#    y 0.000000 1.155770 0.000000 
#    z 0.027030 0.000000 1.681460 
# 
# From -- ./inp_files/11367.got.cif
#   From: 2010.05.17/outbox.ucp.g08.bks.cvg/sg9_6_cif.got.tgz:11367.got - 2010.06.11 13:03:20.
