data_PCOD9141142
_publ_section_title
;
Structure prediction by ZEFSAII (Michael W. Deem and Ramdas Pophale) SiO2 
 PCOD9141142
Probable space group: C C
;
_chemical_formula_sum "Si O2"
_cell_formula_units_Z 20
_cell_length_a 12.171865
_cell_length_b 9.164454
_cell_length_c 9.579731
_cell_angle_alpha 90.000000
_cell_angle_beta 40.832211
_cell_angle_gamma 90.000000
_cell_volume 698.702918
_symmetry_space_group_name_H-M "C C"
_symmetry_group_IT_number 9
_symmetry_cell_setting 'monoclinic'
loop_
_space_group_symop_operation_xyz
x,y,z
x,-y,1/2+z
1/2+x,1/2+y,z
1/2+x,1/2-y,1/2+z
loop_
_atom_site_type_symbol
_atom_site_label
_atom_site_fract_x
_atom_site_fract_y
_atom_site_fract_z
Si Si1 0.215580 0.763318 0.981330
Si Si2 0.602575 0.570856 0.062861
Si Si3 0.319527 0.220383 0.069907
Si Si4 0.406548 0.808149 0.089136
Si Si5 0.125997 0.506952 0.717488
O O1 0.309582 0.777541 0.745240
O O2 0.327967 0.783598 0.011755
O O3 0.138097 0.603658 0.077093
O O4 0.085800 0.898976 0.100196
O O5 0.289758 0.609179 0.561278
O O6 0.660313 0.636382 0.155629
O O7 0.768261 0.603496 0.808437
O O8 0.460293 0.336715 0.620706
O O9 0.472998 0.878055 0.368987
O O10 0.575971 0.900228 0.894215
#
# Coordination Sequence:
#
# PCOD9141142 Si02
#       5
#     4   4   4   4   4
#     4  12  28  55  93 127 184 246 305 388 462 550
#     4  12  26  55  87 132 181 238 311 379 462 547
#     4  12  30  51  91 130 182 241 307 379 459 560
#     4  12  27  54  87 131 185 233 307 385 454 565
#     4  12  29  57  84 132 184 238 312 373 465 552
#
# _framework density 28.624469000000001
#
# number of rings (size 3 to 8) (size 9 to 14) (size 15 to 20)
#    0.000    0.000    6.000    1.200    8.400    1.600 
#    3.600    0.000    0.000    0.000    0.000    0.000 
#    0.000    0.000    0.000    0.000    0.000    0.000 
#
# Total GULP energy -56105.360225 kJ/mol
# GULP energy per Si atom -5610.536023 kJ/mol
# Density = 2.855932 g / cm^3
# Si number density = 28.624469 Si / 1000 Ang^3
#
#
#
# Elastic Constant Matrix: (Units=GPa)
#
#
# Indices 1 2 3 4 5 6 
#
# 1 173.9468 98.1747 82.7021 0.0000 36.8383 0.0000
# 2 98.1747 267.7373 79.9593 0.0000 5.3895 0.0000
# 3 82.7021 79.9593 120.0954 0.0000 5.2351 0.0000
# 4 0.0000 0.0000 0.0000 70.9293 0.0000 -6.9282
# 5 36.8383 5.3895 5.2351 0.0000 50.3911 0.0000
# 6 0.0000 0.0000 0.0000 -6.9282 0.0000 54.7419
#
#
#
# Elastic Compliance Matrix: (Units=1/GPa)
#
#
# Indices 1 2 3 4 5 6 
#
# 1 0.011519 -0.002248 -0.006107 0.000000 -0.007546 0.000000
# 2 -0.002248 0.005102 -0.001905 0.000000 0.001296 0.000000
# 3 -0.006107 -0.001905 0.013659 0.000000 0.003249 0.000000
# 4 0.000000 0.000000 0.000000 0.014275 0.000000 0.001807
# 5 -0.007546 0.001296 0.003249 0.000000 0.024885 0.000000
# 6 0.000000 0.000000 0.000000 0.001807 0.000000 0.018496
#
#
# Mechanical properties :
#
#
# Convention : Reuss Voigt Hill
#
# Bulk Modulus (GPa) = 102.46056 120.38354 111.42205
# Shear Modulus (GPa) = 44.75802 55.27534 50.01668
#
# Velocity S-wave (km/s) = 3.95856 4.39914 4.18465
# Velocity P-wave (km/s) = 7.53433 8.24322 7.89673
#
# Compressibility (1/GPa) = 0.00975985
#
# Stress axis : x y z
#
# Youngs Moduli (GPa) = 86.80982 195.98759 73.21127
#
# Poissons Ratio (x) = 0.44063 0.44709
# Poissons Ratio (y) = 0.19517 0.13950
# Poissons Ratio (z) = 0.53014 0.37343
#
# Static dielectric constant tensor:
#      x y z
#    x 2.210500 0.000000 -0.079680 
#    y 0.000000 2.227500 0.000000 
#    z -0.079680 0.000000 2.290270 
# 
# From -- ./inp_files/6831.got.cif
#   From: 2010.05.17/outbox.cif.g08.bks.cpg/sg9_4_cif.got.tgz:6831.got - 2010.06.03 20:04:27.
