data_PCOD9141811
_publ_section_title
;
Structure prediction by ZEFSAII (Michael W. Deem and Ramdas Pophale) SiO2 
 PCOD9141811
Probable space group: P 2/M
;
_chemical_formula_sum "Si O2"
_cell_formula_units_Z 32
_cell_length_a 31.844410
_cell_length_b 7.700617
_cell_length_c 15.599430
_cell_angle_alpha 90.000000
_cell_angle_beta 151.231036
_cell_angle_gamma 90.000000
_cell_volume 1841.044581
_symmetry_space_group_name_H-M "P 2/M"
_symmetry_group_IT_number 10
_symmetry_cell_setting 'monoclinic'
loop_
_space_group_symop_operation_xyz
x,y,z
-x,y,-z
-x,-y,-z
x,-y,z
loop_
_atom_site_type_symbol
_atom_site_label
_atom_site_fract_x
_atom_site_fract_y
_atom_site_fract_z
Si Si1 0.603017 0.788349 0.777217
Si Si2 0.409332 0.209818 0.443794
Si Si3 0.770174 0.704019 0.798260
Si Si4 0.209752 0.213130 0.833719
Si Si5 0.887876 0.203918 0.170244
Si Si6 0.867425 0.301507 0.810279
Si Si7 0.077624 0.787456 0.452457
Si Si8 0.949664 0.798616 0.787481
O O1 0.609400 0.737560 0.688385
O O2 0.508045 0.732399 0.640684
O O3 0.602278 0.000000 0.776580
O O4 0.689681 0.730447 0.980909
O O5 0.331490 0.272420 0.364110
O O6 0.407717 0.000000 0.442416
O O7 0.791073 0.500000 0.834685
O O8 0.801724 0.775509 0.763047
O O9 0.825693 0.780105 0.976399
O O10 0.159850 0.273413 0.830605
O O11 0.155340 0.268777 0.653582
O O12 0.210539 0.000000 0.836351
O O13 0.983828 0.273946 0.320497
O O14 0.900827 0.000000 0.210484
O O15 0.842852 0.500000 0.748630
O O16 0.881943 0.214041 0.744450
O O17 0.962315 0.296748 0.025897
O O18 0.084107 0.735814 0.364648
O O19 0.077570 0.000000 0.453954
O O20 0.975468 0.000000 0.824082
#
# Coordination Sequence:
#
# PCOD9141811 Si02
#       8
#     4   4   4   4   4   4   4   4
#     4   8  14  25  44  68  90 114 147 184 220 260
#     4   9  16  28  46  67  88 114 150 185 220 266
#     4  11  21  30  43  65  91 120 150 183 224 265
#     4   9  15  25  44  68  92 120 150 182 215 257
#     4  10  17  28  45  64  90 124 155 182 208 250
#     4  10  20  32  45  61  86 119 150 180 221 274
#     4   9  17  26  41  69  95 115 149 186 219 254
#     4  10  18  29  46  68  89 111 144 189 225 255
#
# _framework density 17.381436999999998
#
# number of rings (size 3 to 8) (size 9 to 14) (size 15 to 20)
#    0.000    2.500    2.500    3.000    0.000    3.000 
#    0.000    1.250    0.000    3.000    0.000    0.875 
#    0.000    7.000    0.000    0.000    0.000    0.000 
#
# Total GULP energy -178427.301083 kJ/mol
# GULP energy per Si atom -5575.853159 kJ/mol
# Density = 1.734188 g / cm^3
# Si number density = 17.381437 Si / 1000 Ang^3
#
#
#
# Elastic Constant Matrix: (Units=GPa)
#
#
# Indices 1 2 3 4 5 6 
#
# 1 114.0256 -5.4475 75.7932 0.0000 11.1468 0.0000
# 2 -5.4475 25.3908 -2.4454 0.0000 -2.1189 0.0000
# 3 75.7932 -2.4454 132.6821 0.0000 6.1069 0.0000
# 4 0.0000 0.0000 0.0000 -39.3370 0.0000 68.9717
# 5 11.1468 -2.1189 6.1069 0.0000 22.3142 0.0000
# 6 0.0000 0.0000 0.0000 68.9717 0.0000 -36.4698
#
#
#
# Elastic Compliance Matrix: (Units=1/GPa)
#
#
# Indices 1 2 3 4 5 6 
#
# 1 0.014788 0.001971 -0.008183 0.000000 -0.004961 0.000000
# 2 0.001971 0.040003 -0.000525 0.000000 0.002958 0.000000
# 3 -0.008183 -0.000525 0.012169 0.000000 0.000708 0.000000
# 4 0.000000 0.000000 0.000000 0.010977 0.000000 0.020759
# 5 -0.004961 0.002958 0.000708 0.000000 0.047380 0.000000
# 6 0.000000 0.000000 0.000000 0.020759 0.000000 0.011840
#
#
# Mechanical properties :
#
#
# Convention : Reuss Voigt Hill
#
# Bulk Modulus (GPa) = 18.69614 45.32211 32.00912
# Shear Modulus (GPa) = 29.68070 2.91471 16.29770
#
# Velocity S-wave (km/s) = 4.13681 1.29636 3.06543
# Velocity P-wave (km/s) = 5.79632 5.32657 5.56640
#
# Compressibility (1/GPa) = 0.05348698
#
# Stress axis : x y z
#
# Youngs Moduli (GPa) = 67.62089 24.99787 82.17580
#
# Poissons Ratio (x) = -0.04926 0.67245
# Poissons Ratio (y) = -0.13326 0.04311
# Poissons Ratio (z) = 0.55334 0.01311
#
# Static dielectric constant tensor:
#      x y z
#    x 1.605680 0.000000 0.011100 
#    y 0.000000 1.642420 0.000000 
#    z 0.011100 0.000000 1.570820 
# 
# From -- ./inp_files/72572.got.cif
#   From: 2010.05.17/outbox.cif.g08.bks.cpg/sg10_37_cif.got.tgz:72572.got - 2010.06.03 11:33:40.
