data_PCOD9141605
_publ_section_title
;
Structure prediction by ZEFSAII (Michael W. Deem and Ramdas Pophale) SiO2 
 PCOD9141605
Probable space group: P 2/M
;
_chemical_formula_sum "Si O2"
_cell_formula_units_Z 32
_cell_length_a 20.842337
_cell_length_b 8.293142
_cell_length_c 25.566491
_cell_angle_alpha 90.000000
_cell_angle_beta 156.663559
_cell_angle_gamma 90.000000
_cell_volume 1750.547508
_symmetry_space_group_name_H-M "P 2/M"
_symmetry_group_IT_number 10
_symmetry_cell_setting 'monoclinic'
loop_
_space_group_symop_operation_xyz
x,y,z
-x,y,-z
-x,-y,-z
x,-y,z
loop_
_atom_site_type_symbol
_atom_site_label
_atom_site_fract_x
_atom_site_fract_y
_atom_site_fract_z
Si Si1 0.886844 0.695648 0.316520
Si Si2 0.264780 0.687347 0.335875
Si Si3 0.665781 0.196776 0.455066
Si Si4 0.961133 0.807359 0.751993
Si Si5 0.608914 0.306284 0.188303
Si Si6 0.252659 0.807265 0.599815
Si Si7 0.754306 0.694925 0.104148
Si Si8 0.441606 0.188324 0.375585
O O1 0.892902 0.500000 0.322282
O O2 0.751244 0.751273 0.256275
O O3 0.833230 0.746701 0.218220
O O4 0.064249 0.759663 0.462338
O O5 0.298538 0.500000 0.370660
O O6 0.094870 0.733695 0.234677
O O7 0.397623 0.789472 0.467951
O O8 0.299775 0.724890 0.301491
O O9 0.825366 0.246414 0.607483
O O10 0.681535 0.251004 0.407284
O O11 0.506514 0.248980 0.368153
O O12 0.664895 0.000000 0.454914
O O13 0.133326 0.754141 0.858860
O O14 0.954257 0.000000 0.750496
O O15 0.606328 0.500000 0.181418
O O16 0.652351 0.262256 0.279894
O O17 0.430479 0.247699 0.038991
O O18 0.265548 0.000000 0.610406
O O19 0.753750 0.500000 0.103465
O O20 0.402379 0.000000 0.342591
#
# Coordination Sequence:
#
# PCOD9141605 Si02
#       8
#     4   4   4   4   4   4   4   4
#     4  10  20  36  57  77  99 133 172 213 263 314
#     4  10  17  25  39  66 100 131 165 206 249 299
#     4   8  16  29  46  68  97 131 166 207 249 297
#     4  10  18  31  49  70  99 134 169 208 255 305
#     4  10  22  38  53  74 105 136 170 212 261 315
#     4  11  21  35  53  77 105 136 174 215 256 302
#     4  10  20  35  55  77 100 132 173 217 260 307
#     4   9  15  26  42  63  94 133 168 204 255 302
#
# _framework density 18.279995
#
# number of rings (size 3 to 8) (size 9 to 14) (size 15 to 20)
#    0.000    2.250    1.250    4.500    0.000    4.000 
#    0.000    1.875    0.000    2.250    0.000    0.875 
#    0.000    7.000    0.000    0.000    0.000    0.000 
#
# Total GULP energy -178457.528792 kJ/mol
# GULP energy per Si atom -5576.797775 kJ/mol
# Density = 1.823839 g / cm^3
# Si number density = 18.279995 Si / 1000 Ang^3
#
#
#
# Elastic Constant Matrix: (Units=GPa)
#
#
# Indices 1 2 3 4 5 6 
#
# 1 85.0342 1.5744 -2.5730 0.0000 27.2452 0.0000
# 2 1.5744 14.6970 -3.5481 0.0000 2.2680 0.0000
# 3 -2.5730 -3.5481 14.7998 0.0000 -10.0604 0.0000
# 4 0.0000 0.0000 0.0000 19.7706 0.0000 2.3420
# 5 27.2452 2.2680 -10.0604 0.0000 14.3750 0.0000
# 6 0.0000 0.0000 0.0000 2.3420 0.0000 26.7218
#
#
#
# Elastic Compliance Matrix: (Units=1/GPa)
#
#
# Indices 1 2 3 4 5 6 
#
# 1 -0.549509 0.057329 1.182669 0.000000 1.860142 0.000000
# 2 0.057329 0.066255 -0.105130 0.000000 -0.192685 0.000000
# 3 1.182669 -0.105130 -2.411876 0.000000 -3.912901 0.000000
# 4 0.000000 0.000000 0.000000 0.051111 0.000000 -0.004480
# 5 1.860142 -0.192685 -3.912901 0.000000 -6.164044 0.000000
# 6 0.000000 0.000000 0.000000 -0.004480 0.000000 0.037815
#
#
# Mechanical properties :
#
#
# Convention : Reuss Voigt Hill
#
# Bulk Modulus (GPa) = -1.59899 11.71528 5.05815
# Shear Modulus (GPa) = -0.43674 20.11199 9.83763
#
# Velocity S-wave (km/s) = -0.48932 3.32055 2.32235
# Velocity P-wave (km/s) = 1.09356 4.59610 3.15660
#
# Compressibility (1/GPa) = -0.62539465
#
# Stress axis : x y z
#
# Youngs Moduli (GPa) = -1.81981 15.09328 -0.41462
#
# Poissons Ratio (x) = -0.86528 0.49035
# Poissons Ratio (y) = 0.10433 -0.04359
# Poissons Ratio (z) = 2.15223 1.58675
#
# Static dielectric constant tensor:
#      x y z
#    x 1.673650 0.000000 0.026520 
#    y 0.000000 1.634190 0.000000 
#    z 0.026520 0.000000 1.595670 
# 
# From -- ./inp_files/86103.got.cif
#   From: 2010.05.17/outbox.cif.g08.bks.cpg/sg10_44_cif.got.tgz:86103.got - 2010.06.03 11:33:40.
