data_PCOD9141114
_publ_section_title
;
Structure prediction by ZEFSAII (Michael W. Deem and Ramdas Pophale) SiO2 
 PCOD9141114
Probable space group: C C
;
_chemical_formula_sum "Si O2"
_cell_formula_units_Z 32
_cell_length_a 13.742491
_cell_length_b 11.049568
_cell_length_c 17.818404
_cell_angle_alpha 90.000000
_cell_angle_beta 148.686918
_cell_angle_gamma 90.000000
_cell_volume 1406.190430
_symmetry_space_group_name_H-M "C C"
_symmetry_group_IT_number 9
_symmetry_cell_setting 'monoclinic'
loop_
_space_group_symop_operation_xyz
x,y,z
x,-y,1/2+z
1/2+x,1/2+y,z
1/2+x,1/2-y,1/2+z
loop_
_atom_site_type_symbol
_atom_site_label
_atom_site_fract_x
_atom_site_fract_y
_atom_site_fract_z
Si Si1 0.363390 0.497693 0.947500
Si Si2 0.744431 0.244836 0.945905
Si Si3 0.004252 0.607222 0.505309
Si Si4 0.319637 0.271031 0.021796
Si Si5 0.805402 0.542906 0.218725
Si Si6 0.841345 0.277463 0.178895
Si Si7 0.641591 0.887175 0.670006
Si Si8 0.398591 0.288133 0.228149
O O1 0.270195 0.476221 0.804633
O O2 0.280862 0.606850 0.942889
O O3 0.322177 0.368272 0.957447
O O4 0.584212 0.525189 0.086083
O O5 0.736205 0.270897 0.029857
O O6 0.889141 0.323669 0.993333
O O7 0.537858 0.278868 0.783916
O O8 0.016804 0.467701 0.533343
O O9 0.215612 0.660009 0.648577
O O10 0.905724 0.603039 0.358409
O O11 0.492808 0.182920 0.122354
O O12 0.373610 0.347253 0.130691
O O13 0.115203 0.208596 0.894840
O O14 0.871264 0.413055 0.231077
O O15 0.850215 0.645721 0.187503
O O16 0.753327 0.203052 0.189453
#
# Coordination Sequence:
#
# PCOD9141114 Si02
#       8
#     4   4   4   4   4   4   4   4
#     4  12  26  49  77 106 155 197 251 316 377 450
#     4  12  27  48  75 110 150 195 249 309 381 447
#     4  12  29  48  75 111 151 198 255 312 377 453
#     4  12  27  48  76 111 151 201 254 310 375 445
#     4  12  26  49  77 106 155 197 251 316 377 450
#     4  12  27  48  75 110 150 195 249 309 381 447
#     4  12  29  48  75 111 151 198 255 312 377 453
#     4  12  27  48  76 111 151 201 254 310 375 445
#
# _framework density 22.756519999999998
#
# number of rings (size 3 to 8) (size 9 to 14) (size 15 to 20)
#    0.000    0.000    5.000    3.750   10.500    1.000 
#    0.000    0.000    0.000    0.000    0.000    0.000 
#    0.000    0.000    0.000    0.000    0.000    0.000 
#
# Total GULP energy -89330.341690 kJ/mol
# GULP energy per Si atom -5583.146356 kJ/mol
# Density = 2.270473 g / cm^3
# Si number density = 22.756520 Si / 1000 Ang^3
#
#
#
# Elastic Constant Matrix: (Units=GPa)
#
#
# Indices 1 2 3 4 5 6 
#
# 1 111.5953 40.5810 28.0487 -0.0001 17.9169 0.0000
# 2 40.5810 62.1798 24.7850 -0.0001 8.5201 0.0000
# 3 28.0487 24.7850 90.9139 -0.0004 -1.5081 0.0000
# 4 -0.0001 -0.0001 -0.0004 29.5464 -0.0002 -4.4249
# 5 17.9169 8.5201 -1.5081 -0.0002 37.7243 0.0000
# 6 0.0000 0.0000 0.0000 -4.4249 0.0000 3.8987
#
#
#
# Elastic Compliance Matrix: (Units=1/GPa)
#
#
# Indices 1 2 3 4 5 6 
#
# 1 0.012714 -0.006816 -0.002140 0.000000 -0.004584 0.000000
# 2 -0.006816 0.022414 -0.004040 0.000000 -0.001986 0.000000
# 3 -0.002140 -0.004040 0.012802 0.000000 0.002441 0.000000
# 4 0.000000 0.000000 0.000000 0.040776 0.000000 0.046280
# 5 -0.004584 -0.001986 0.002441 0.000000 0.029232 0.000000
# 6 0.000000 0.000000 0.000000 0.046280 0.000000 0.309023
#
#
# Mechanical properties :
#
#
# Convention : Reuss Voigt Hill
#
# Bulk Modulus (GPa) = 45.58865 50.16872 47.87869
# Shear Modulus (GPa) = 10.86332 25.65216 18.25774
#
# Velocity S-wave (km/s) = 2.18725 3.36109 2.83558
# Velocity P-wave (km/s) = 5.14349 6.09560 5.63967
#
# Compressibility (1/GPa) = 0.02193528
#
# Stress axis : x y z
#
# Youngs Moduli (GPa) = 78.65628 44.61582 78.11455
#
# Poissons Ratio (x) = 0.30411 0.16718
# Poissons Ratio (y) = 0.53613 0.31562
# Poissons Ratio (z) = 0.16834 0.18027
#
# Static dielectric constant tensor:
#      x y z
#    x 1.918540 0.000000 0.027810 
#    y 0.000000 1.827120 0.000000 
#    z 0.027810 0.000000 1.812790 
# 
# From -- ./inp_files/30721.got.cif
#   From: 2010.05.17/outbox.cif.g08.bks.cpg/sg9_16_cif.got.tgz:30721.got - 2010.06.03 20:04:27.
