data_PCOD9141380
_publ_section_title
;
Structure prediction by ZEFSAII (Michael W. Deem and Ramdas Pophale) SiO2 
 PCOD9141380
Probable space group: P 2/M
;
_chemical_formula_sum "Si O2"
_cell_formula_units_Z 22
_cell_length_a 13.526754
_cell_length_b 20.076933
_cell_length_c 13.529114
_cell_angle_alpha 90.000000
_cell_angle_beta 157.863854
_cell_angle_gamma 90.000000
_cell_volume 1384.462652
_symmetry_space_group_name_H-M "P 2/M"
_symmetry_group_IT_number 10
_symmetry_cell_setting 'monoclinic'
loop_
_space_group_symop_operation_xyz
x,y,z
-x,y,-z
-x,-y,-z
x,-y,z
loop_
_atom_site_type_symbol
_atom_site_label
_atom_site_fract_x
_atom_site_fract_y
_atom_site_fract_z
Si Si1 0.487341 0.638497 0.608351
Si Si2 0.489151 0.080003 0.698400
Si Si3 0.279098 0.918958 0.718159
Si Si4 0.019284 0.704960 0.898614
Si Si5 0.041148 0.859436 0.155511
Si Si6 0.709150 0.500000 0.781619
O O1 0.500000 0.645332 0.500000
O O2 0.627710 0.567877 0.761463
O O3 0.181458 0.654533 0.341219
O O4 0.674290 0.691582 0.834865
O O5 0.351606 0.100343 0.674050
O O6 0.302647 0.105765 0.437903
O O7 0.506220 0.000000 0.710556
O O8 0.780865 0.109536 0.963069
O O9 0.000000 0.895676 0.500000
O O10 0.274060 0.000000 0.713429
O O11 0.500000 0.897875 0.000000
O O12 0.941364 0.780694 0.806651
O O13 0.000000 0.694558 0.000000
O O14 0.000000 0.867396 0.000000
O O15 0.500000 0.500000 0.500000
O O16 0.000000 0.500000 0.000000
#
# Coordination Sequence:
#
# PCOD9141380 Si02
#       6
#     4   4   4   4   4   2
#     4   9  15  24  37  53  73  98 132 175 218 251
#     4  11  22  34  49  68  87 110 144 188 234 274
#     4   9  17  31  50  69  87 105 128 168 225 282
#     4   9  17  28  40  52  72 107 145 177 207 243
#     4  11  22  34  46  62  87 120 156 189 219 257
#     4  10  16  22  34  56  78  96 124 174 230 260
#
# _framework density 15.890642
#
# number of rings (size 3 to 8) (size 9 to 14) (size 15 to 20)
#    0.000    2.182    0.000    6.000    0.000    8.000 
#    0.000    0.000    0.000    0.000    0.000    0.000 
#    0.000    0.000    0.000    0.000    0.000    0.000 
#
# Total GULP energy -122468.625027 kJ/mol
# GULP energy per Si atom -5566.755683 kJ/mol
# Density = 1.585447 g / cm^3
# Si number density = 15.890642 Si / 1000 Ang^3
#
#
#
# Elastic Constant Matrix: (Units=GPa)
#
#
# Indices 1 2 3 4 5 6 
#
# 1 28.3794 8.5389 2.5220 0.0000 2.1378 0.0000
# 2 8.5389 47.7610 26.8121 0.0000 4.7574 0.0000
# 3 2.5220 26.8121 100.2560 0.0000 14.9695 0.0000
# 4 0.0000 0.0000 0.0000 20.9387 0.0000 7.3979
# 5 2.1378 4.7574 14.9695 0.0000 20.2505 0.0000
# 6 0.0000 0.0000 0.0000 7.3979 0.0000 -0.0259
#
#
#
# Elastic Compliance Matrix: (Units=1/GPa)
#
#
# Indices 1 2 3 4 5 6 
#
# 1 0.037527 -0.007208 0.001486 0.000000 -0.003367 0.000000
# 2 -0.007208 0.026040 -0.006725 0.000000 -0.000385 0.000000
# 3 0.001486 -0.006725 0.012953 0.000000 -0.008152 0.000000
# 4 0.000000 0.000000 0.000000 0.000468 0.000000 0.133847
# 5 -0.003367 -0.000385 -0.008152 0.000000 0.055854 0.000000
# 6 0.000000 0.000000 0.000000 0.133847 0.000000 -0.378832
#
#
# Mechanical properties :
#
#
# Convention : Reuss Voigt Hill
#
# Bulk Modulus (GPa) = 19.37007 28.01581 23.69294
# Shear Modulus (GPa) = -24.52341 17.46755 -3.52793
#
# Velocity S-wave (km/s) = -3.93270 3.31907 -1.49163
# Velocity P-wave (km/s) = 2.89921 5.68832 3.46060
#
# Compressibility (1/GPa) = 0.05162604
#
# Stress axis : x y z
#
# Youngs Moduli (GPa) = 26.64728 38.40232 77.20328
#
# Poissons Ratio (x) = 0.27682 -0.11476
# Poissons Ratio (y) = 0.19208 0.51921
# Poissons Ratio (z) = -0.03961 0.25826
#
# Static dielectric constant tensor:
#      x y z
#    x 1.509520 0.000000 0.024340 
#    y 0.000000 1.594840 0.000000 
#    z 0.024340 0.000000 1.529360 
# 
# From -- ./inp_files/67768.got.cif
#   From: 2010.05.17/outbox.cif.g08.bks.cpg/sg10_34_cif.got.tgz:67768.got - 2010.06.03 11:33:40.
