data_PCOD9141460
_publ_section_title
;
Structure prediction by ZEFSAII (Michael W. Deem and Ramdas Pophale) SiO2 
 PCOD9141460
Probable space group: P 2/M
;
_chemical_formula_sum "Si O2"
_cell_formula_units_Z 20
_cell_length_a 8.820248
_cell_length_b 11.901569
_cell_length_c 10.619748
_cell_angle_alpha 90.000000
_cell_angle_beta 126.005926
_cell_angle_gamma 90.000000
_cell_volume 901.829074
_symmetry_space_group_name_H-M "P 2/M"
_symmetry_group_IT_number 10
_symmetry_cell_setting 'monoclinic'
loop_
_space_group_symop_operation_xyz
x,y,z
-x,y,-z
-x,-y,-z
x,-y,z
loop_
_atom_site_type_symbol
_atom_site_label
_atom_site_fract_x
_atom_site_fract_y
_atom_site_fract_z
Si Si1 0.218893 0.769447 0.842529
Si Si2 0.683474 0.000000 0.505895
Si Si3 0.229189 0.135277 0.108798
Si Si4 0.771847 0.631716 0.391647
Si Si5 0.183933 0.000000 0.677694
Si Si6 0.205369 0.237603 0.352375
O O1 0.298920 0.688648 0.772633
O O2 0.009088 0.723480 0.770335
O O3 0.197001 0.889133 0.764439
O O4 0.303101 0.805145 0.018154
O O5 0.500000 0.000000 0.500000
O O6 0.795099 0.888176 0.592493
O O7 0.649257 0.000000 0.341690
O O8 0.294880 0.210136 0.260295
O O9 0.261954 0.000000 0.131308
O O10 0.000000 0.141735 0.000000
O O11 0.732144 0.500000 0.372561
O O12 0.709918 0.687181 0.494289
O O13 0.000000 0.648601 0.500000
O O14 0.000000 0.000000 0.500000
#
# Coordination Sequence:
#
# PCOD9141460 Si02
#       6
#     4   2   4   4   2   4
#     4  10  16  26  48  73  93 120 162 201 231 283
#     4  12  22  29  45  75 105 125 151 200 251 288
#     4   9  16  23  41  71  99 121 153 192 238 290
#     4   9  17  28  45  69  95 124 164 205 233 266
#     4  12  16  27  49  73  91 123 162 193 233 290
#     4  10  17  30  45  67  99 129 153 191 243 288
#
# _framework density 22.177150000000001
#
# number of rings (size 3 to 8) (size 9 to 14) (size 15 to 20)
#    0.000    2.000    6.000    0.600    0.000    0.000 
#    0.000    1.000    0.000    9.000    0.000    0.000 
#    0.000    1.600    0.000    0.000    0.000    0.000 
#
# Total GULP energy -111499.241099 kJ/mol
# GULP energy per Si atom -5574.962055 kJ/mol
# Density = 2.212667 g / cm^3
# Si number density = 22.177150 Si / 1000 Ang^3
#
#
#
# Elastic Constant Matrix: (Units=GPa)
#
#
# Indices 1 2 3 4 5 6 
#
# 1 66.8623 26.6814 65.8403 0.0000 -17.6273 0.0000
# 2 26.6814 121.4394 75.6298 0.0000 -35.8517 0.0000
# 3 65.8403 75.6298 143.2724 0.0000 -72.0456 0.0000
# 4 0.0000 0.0000 0.0000 2.8905 0.0000 -7.1516
# 5 -17.6273 -35.8517 -72.0456 0.0000 59.8790 0.0000
# 6 0.0000 0.0000 0.0000 -7.1516 0.0000 8.2817
#
#
#
# Elastic Compliance Matrix: (Units=1/GPa)
#
#
# Indices 1 2 3 4 5 6 
#
# 1 0.039429 0.004607 -0.033743 0.000000 -0.026234 0.000000
# 2 0.004607 0.012836 -0.011004 0.000000 -0.004198 0.000000
# 3 -0.033743 -0.011004 0.050604 0.000000 0.044364 0.000000
# 4 0.000000 0.000000 0.000000 -0.304394 0.000000 -0.262857
# 5 -0.026234 -0.004198 0.044364 0.000000 0.059842 0.000000
# 6 0.000000 0.000000 0.000000 -0.262857 0.000000 -0.106240
#
#
# Mechanical properties :
#
#
# Convention : Reuss Voigt Hill
#
# Bulk Modulus (GPa) = 44.27158 74.20858 59.24008
# Shear Modulus (GPa) = -31.22797 25.10508 -3.06144
#
# Velocity S-wave (km/s) = -3.75656 3.36821 -1.17620
# Velocity P-wave (km/s) = 1.09106 6.97573 4.99256
#
# Compressibility (1/GPa) = 0.02258786
#
# Stress axis : x y z
#
# Youngs Moduli (GPa) = 25.36197 77.90586 19.76137
#
# Poissons Ratio (x) = -0.35889 0.66681
# Poissons Ratio (y) = -0.11684 0.21745
# Poissons Ratio (z) = 0.85580 0.85727
#
# Static dielectric constant tensor:
#      x y z
#    x 1.902520 0.000000 -0.014200 
#    y 0.000000 1.746740 0.000000 
#    z -0.014200 0.000000 1.895790 
# 
# From -- ./inp_files/41705.got.cif
#   From: 2010.05.17/outbox.cif.g08.bks.cpg/sg10_21_cif.got.tgz:41705.got - 2010.06.03 11:33:40.
