data_PCOD9141691
_publ_section_title
;
Structure prediction by ZEFSAII (Michael W. Deem and Ramdas Pophale) SiO2 
 PCOD9141691
Probable space group: P 2/M
;
_chemical_formula_sum "Si O2"
_cell_formula_units_Z 22
_cell_length_a 10.729537
_cell_length_b 12.695115
_cell_length_c 23.934737
_cell_angle_alpha 90.000000
_cell_angle_beta 162.554147
_cell_angle_gamma 90.000000
_cell_volume 977.426765
_symmetry_space_group_name_H-M "P 2/M"
_symmetry_group_IT_number 10
_symmetry_cell_setting 'monoclinic'
loop_
_space_group_symop_operation_xyz
x,y,z
-x,y,-z
-x,-y,-z
x,-y,z
loop_
_atom_site_type_symbol
_atom_site_label
_atom_site_fract_x
_atom_site_fract_y
_atom_site_fract_z
Si Si1 0.512102 0.121035 0.271512
Si Si2 0.204324 0.500000 0.218215
Si Si3 0.068180 0.500000 0.780348
Si Si4 0.040960 0.731540 0.287273
Si Si5 0.264254 0.734487 0.730518
Si Si6 0.324386 0.267375 0.286853
Si Si7 0.405287 0.500000 0.133668
O O1 0.491162 0.188671 0.206095
O O2 0.264146 0.179100 0.214739
O O3 0.000000 0.123331 0.500000
O O4 0.395325 0.000000 0.214207
O O5 0.344532 0.381447 0.264230
O O6 0.255000 0.500000 0.306217
O O7 0.748530 0.500000 0.996203
O O8 0.982135 0.606246 0.711617
O O9 0.500000 0.500000 0.000000
O O10 0.500000 0.772121 0.500000
O O11 0.014372 0.737990 0.208146
O O12 0.715644 0.767949 0.195378
O O13 0.376293 0.612517 0.765341
O O14 0.780415 0.745830 0.507816
O O15 0.000000 0.500000 0.000000
#
# Coordination Sequence:
#
# PCOD9141691 Si02
#       7
#     4   2   2   4   4   4   2
#     4   9  18  33  52  72  96 130 170 208 246 291
#     4  10  19  30  47  73 103 129 161 199 238 292
#     4  10  17  26  42  67  99 133 159 187 235 290
#     4   9  17  29  47  72  99 128 162 199 242 293
#     4  10  19  33  52  74 103 134 164 203 249 293
#     4   9  18  33  53  75 100 132 167 201 245 300
#     4  12  23  32  47  76 110 136 165 204 246 294
#
# _framework density 22.508078999999999
#
# number of rings (size 3 to 8) (size 9 to 14) (size 15 to 20)
#    0.000    2.364    0.000    3.545    0.000    2.909 
#    0.000    4.545    0.000   10.364    0.000    0.000 
#    0.000   12.364    0.000    0.000    0.000    0.000 
#
# Total GULP energy -122627.222720 kJ/mol
# GULP energy per Si atom -5573.964669 kJ/mol
# Density = 2.245685 g / cm^3
# Si number density = 22.508079 Si / 1000 Ang^3
#
#
#
# Elastic Constant Matrix: (Units=GPa)
#
#
# Indices 1 2 3 4 5 6 
#
# 1 200.6069 96.9230 26.4865 0.0000 8.2793 0.0000
# 2 96.9230 142.8348 10.6341 0.0000 2.3458 0.0000
# 3 26.4865 10.6341 56.2625 0.0000 -1.6058 0.0000
# 4 0.0000 0.0000 0.0000 -73.4499 0.0000 1.4082
# 5 8.2793 2.3458 -1.6058 0.0000 27.7059 0.0000
# 6 0.0000 0.0000 0.0000 1.4082 0.0000 5.2604
#
#
#
# Elastic Compliance Matrix: (Units=1/GPa)
#
#
# Indices 1 2 3 4 5 6 
#
# 1 0.007923 -0.005132 -0.002820 0.000000 -0.002097 0.000000
# 2 -0.005132 0.010438 0.000462 0.000000 0.000677 0.000000
# 3 -0.002820 0.000462 0.019068 0.000000 0.001909 0.000000
# 4 0.000000 0.000000 0.000000 -0.013545 0.000000 0.003626
# 5 -0.002097 0.000677 0.001909 0.000000 0.036773 0.000000
# 6 0.000000 0.000000 0.000000 0.003626 0.000000 0.189130
#
#
# Mechanical properties :
#
#
# Convention : Reuss Voigt Hill
#
# Bulk Modulus (GPa) = 44.54204 74.19904 59.37054
# Shear Modulus (GPa) = 18.36547 9.61398 13.98973
#
# Velocity S-wave (km/s) = 2.85958 2.06897 2.49578
# Velocity P-wave (km/s) = 5.54394 6.22451 5.89406
#
# Compressibility (1/GPa) = 0.02245070
#
# Stress axis : x y z
#
# Youngs Moduli (GPa) = 126.21026 95.80345 52.44290
#
# Poissons Ratio (x) = 0.49167 0.14788
# Poissons Ratio (y) = 0.64773 -0.02425
# Poissons Ratio (z) = 0.35589 -0.04430
#
# Static dielectric constant tensor:
#      x y z
#    x 1.962190 0.000000 0.035870 
#    y 0.000000 1.784650 0.000000 
#    z 0.035870 0.000000 1.879810 
# 
# From -- ./inp_files/92820.got.cif
#   From: 2010.05.17/outbox.cif.g08.bks.cpg/sg10_47_cif.got.tgz:92820.got - 2010.06.03 11:33:40.
