data_PCOD9141147
_publ_section_title
;
Structure prediction by ZEFSAII (Michael W. Deem and Ramdas Pophale) SiO2 
 PCOD9141147
Probable space group: C C
;
_chemical_formula_sum "Si O2"
_cell_formula_units_Z 32
_cell_length_a 12.545149
_cell_length_b 12.535704
_cell_length_c 9.214762
_cell_angle_alpha 90.000000
_cell_angle_beta 70.701451
_cell_angle_gamma 90.000000
_cell_volume 1367.706584
_symmetry_space_group_name_H-M "C C"
_symmetry_group_IT_number 9
_symmetry_cell_setting 'monoclinic'
loop_
_space_group_symop_operation_xyz
x,y,z
x,-y,1/2+z
1/2+x,1/2+y,z
1/2+x,1/2-y,1/2+z
loop_
_atom_site_type_symbol
_atom_site_label
_atom_site_fract_x
_atom_site_fract_y
_atom_site_fract_z
Si Si1 0.596300 0.999797 0.185370
Si Si2 0.940094 0.453556 0.520497
Si Si3 0.045811 0.081586 0.025427
Si Si4 0.683070 0.795676 0.030461
Si Si5 0.848591 0.259463 0.680109
Si Si6 0.061358 0.119608 0.681517
Si Si7 0.802911 0.331917 0.020322
Si Si8 0.310864 0.364875 0.689203
O O1 0.536565 0.960089 0.357217
O O2 0.605777 0.900608 0.070947
O O3 0.501974 0.068843 0.145828
O O4 0.710962 0.064690 0.162687
O O5 0.866933 0.346631 0.544071
O O6 0.862107 0.558835 0.545254
O O7 0.923993 0.067068 0.157724
O O8 0.112512 0.187441 0.044522
O O9 0.104664 0.975069 0.057044
O O10 0.036608 0.080928 0.855729
O O11 0.746851 0.806744 0.155699
O O12 0.766101 0.815528 0.858432
O O13 0.957221 0.186400 0.664026
O O14 0.808303 0.315764 0.845817
O O15 0.176495 0.187036 0.637288
O O16 0.861422 0.228725 0.064593
#
# Coordination Sequence:
#
# PCOD9141147 Si02
#       8
#     4   4   4   4   4   4   4   4
#     4  12  27  47  77 109 148 197 256 309 372 446
#     4  12  27  47  77 109 148 197 256 309 372 446
#     4  12  29  50  77 110 154 198 250 312 384 455
#     4  12  29  49  77 113 150 199 252 312 381 451
#     4  12  29  49  77 113 150 199 252 312 381 451
#     4  12  29  50  77 110 154 198 250 312 384 455
#     4  12  27  48  77 106 152 198 251 310 376 446
#     4  12  27  48  77 106 152 198 251 310 376 446
#
# _framework density 23.396830999999999
#
# number of rings (size 3 to 8) (size 9 to 14) (size 15 to 20)
#    0.000    0.000    5.000    3.000   14.000    0.000 
#    0.000    0.000    0.000    0.000    0.000    0.000 
#    0.000    0.000    0.000    0.000    0.000    0.000 
#
# Total GULP energy -89446.323586 kJ/mol
# GULP energy per Si atom -5590.395224 kJ/mol
# Density = 2.334358 g / cm^3
# Si number density = 23.396831 Si / 1000 Ang^3
#
#
#
# Elastic Constant Matrix: (Units=GPa)
#
#
# Indices 1 2 3 4 5 6 
#
# 1 89.6421 -6.6426 24.3478 0.0000 3.9985 0.0000
# 2 -6.6426 90.8020 23.4385 0.0000 6.5582 0.0000
# 3 24.3478 23.4385 118.2643 0.0000 0.4688 0.0000
# 4 0.0000 0.0000 0.0000 33.4434 0.0000 3.4671
# 5 3.9985 6.5582 0.4688 0.0000 34.2819 0.0000
# 6 0.0000 0.0000 0.0000 3.4671 0.0000 38.3363
#
#
#
# Elastic Compliance Matrix: (Units=1/GPa)
#
#
# Indices 1 2 3 4 5 6 
#
# 1 0.012131 0.001743 -0.002836 0.000000 -0.001710 0.000000
# 2 0.001743 0.012024 -0.002732 0.000000 -0.002466 0.000000
# 3 -0.002836 -0.002732 0.009578 0.000000 0.000722 0.000000
# 4 0.000000 0.000000 0.000000 0.030184 0.000000 -0.002730
# 5 -0.001710 -0.002466 0.000722 0.000000 0.029831 0.000000
# 6 0.000000 0.000000 0.000000 -0.002730 0.000000 0.026332
#
#
# Mechanical properties :
#
#
# Convention : Reuss Voigt Hill
#
# Bulk Modulus (GPa) = 38.33947 42.33284 40.33615
# Shear Modulus (GPa) = 36.65012 38.38329 37.51671
#
# Velocity S-wave (km/s) = 3.96214 4.05474 4.00871
# Velocity P-wave (km/s) = 6.11176 6.32882 6.22124
#
# Compressibility (1/GPa) = 0.02608278
#
# Stress axis : x y z
#
# Youngs Moduli (GPa) = 82.43183 83.16824 104.40446
#
# Poissons Ratio (x) = -0.14497 0.29611
# Poissons Ratio (y) = -0.14368 0.28524
# Poissons Ratio (z) = 0.23379 0.22722
#
# Static dielectric constant tensor:
#      x y z
#    x 1.814860 0.000000 0.009560 
#    y 0.000000 1.816020 0.000000 
#    z 0.009560 0.000000 1.830510 
# 
# From -- ./inp_files/9228.got.cif
#   From: 2010.05.17/outbox.cif.g08.bks.cpg/sg9_5_cif.got.tgz:9228.got - 2010.06.03 20:04:27.
