data_PCOD9141244
_publ_section_title
;
Structure prediction by ZEFSAII (Michael W. Deem and Ramdas Pophale) SiO2 
 PCOD9141244
Probable space group: C C
;
_chemical_formula_sum "Si O2"
_cell_formula_units_Z 16
_cell_length_a 12.000000
_cell_length_b 9.000000
_cell_length_c 15.000000
_cell_angle_alpha 90.000000
_cell_angle_beta 70.000000
_cell_angle_gamma 90.000000
_cell_volume 1522.302046
_symmetry_space_group_name_H-M "C C"
_symmetry_group_IT_number 9
_symmetry_cell_setting 'monoclinic'
loop_
_space_group_symop_operation_xyz
x,y,z
x,-y,1/2+z
1/2+x,1/2+y,z
1/2+x,1/2-y,1/2+z
loop_
_atom_site_type_symbol
_atom_site_label
_atom_site_fract_x
_atom_site_fract_y
_atom_site_fract_z
Si Si1 0.796290 0.119102 0.120750
Si Si2 0.227242 0.301613 0.840201
Si Si3 0.543368 0.899776 0.622637
Si Si4 0.467389 0.877627 0.992935
Si Si5 0.020593 0.950499 0.109535
Si Si6 0.884726 0.655634 0.331676
Si Si7 0.659168 0.515623 0.401446
Si Si8 0.952525 0.002488 0.320783
O O1 0.737483 0.166976 0.231316
O O2 0.683806 0.070384 0.093618
O O3 0.881777 0.247919 0.056567
O O4 0.888384 0.987611 0.113017
O O5 0.235065 0.125463 0.849275
O O6 0.335126 0.396743 0.851651
O O7 0.099333 0.334594 0.920458
O O8 0.536551 0.724865 0.606390
O O9 0.466284 0.916898 0.733790
O O10 0.486309 0.999140 0.562070
O O11 0.403822 0.927158 0.919923
O O12 0.023330 0.019789 0.207711
O O13 0.118435 0.007679 0.014099
O O14 0.744278 0.652446 0.356213
O O15 0.921244 0.827580 0.332346
O O16 0.539321 0.532249 0.378313
#
# Coordination Sequence:
#
# PCOD9141244 Si02
#       8
#     4   4   4   4   4   4   4   4
#     4  11  22  47  68  95 139 176 221 276 335 398
#     4  11  23  42  71  97 135 174 226 275 329 403
#     4  11  25  44  68  95 137 178 220 276 336 397
#     4  12  24  42  71 101 131 179 222 277 340 391
#     4  10  23  42  66  96 128 176 218 269 328 397
#     4  11  24  46  67 100 134 175 226 277 331 401
#     4  12  23  43  68  97 133 169 222 274 335 391
#     4  10  24  46  65  93 135 179 217 272 336 388
#
# _framework density 10.510398
#
# number of rings (size 3 to 8) (size 9 to 14) (size 15 to 20)
#    0.000    1.000    3.750    2.250    5.250    2.000 
#    0.000    7.500    0.000    0.000    0.000    0.000 
#    0.000    0.000    0.000    0.000    0.000    0.000 
#
# Total GULP energy -89352.267616 kJ/mol
# GULP energy per Si atom -5584.516726 kJ/mol
# Density = 1.048648 g / cm^3
# Si number density = 10.510398 Si / 1000 Ang^3
#
#
#
# Elastic Constant Matrix: (Units=GPa)
#
#
# Indices 1 2 3 4 5 6 
#
# 1 47.0855 13.1527 43.9636 0.0000 -11.5533 0.0000
# 2 13.1527 -16.6800 4.2747 0.0000 11.4606 0.0000
# 3 43.9636 4.2747 106.4250 0.0000 -7.5483 0.0000
# 4 0.0000 0.0000 0.0000 24.1852 0.0000 -6.8450
# 5 -11.5533 11.4606 -7.5483 0.0000 32.7610 0.0000
# 6 0.0000 0.0000 0.0000 -6.8450 0.0000 37.5917
#
#
#
# Elastic Compliance Matrix: (Units=1/GPa)
#
#
# Indices 1 2 3 4 5 6 
#
# 1 0.027313 0.018685 -0.012010 0.000000 0.000328 0.000000
# 2 0.018685 -0.034508 -0.005092 0.000000 0.017488 0.000000
# 3 -0.012010 -0.005092 0.014627 0.000000 0.000916 0.000000
# 4 0.000000 0.000000 0.000000 0.043594 0.000000 0.007938
# 5 0.000328 0.017488 0.000916 0.000000 0.024733 0.000000
# 6 0.000000 0.000000 0.000000 0.007938 0.000000 0.028047
#
#
# Mechanical properties :
#
#
# Convention : Reuss Voigt Hill
#
# Bulk Modulus (GPa) = 94.36311 28.84585 61.60448
# Shear Modulus (GPa) = 47.99662 23.93689 35.96675
#
# Velocity S-wave (km/s) = 4.78356 3.37816 4.14092
# Velocity P-wave (km/s) = 8.68895 5.38222 7.22724
#
# Compressibility (1/GPa) = 0.01059736
#
# Stress axis : x y z
#
# Youngs Moduli (GPa) = 36.61270 -28.97891 68.36631
#
# Poissons Ratio (x) = 0.54147 0.82108
# Poissons Ratio (y) = -0.68410 0.34814
# Poissons Ratio (z) = 0.43972 -0.14757
#
# Static dielectric constant tensor:
#      x y z
#    x 1.783200 0.000000 0.030700 
#    y 0.000000 1.760950 0.000000 
#    z 0.030700 0.000000 1.790440 
# 
# From -- ./inp_files/24189.got.cif
#   From: 2010.05.17/outbox.ucp.g08.bks.cvg/sg9_13_cif.got.tgz:24189.got - 2010.06.11 13:03:20.
