data_PCOD9141761
_publ_section_title
;
Structure prediction by ZEFSAII (Michael W. Deem and Ramdas Pophale) SiO2 
 PCOD9141761
Probable space group: P 2/M
;
_chemical_formula_sum "Si O2"
_cell_formula_units_Z 24
_cell_length_a 9.247011
_cell_length_b 8.565672
_cell_length_c 21.450016
_cell_angle_alpha 90.000000
_cell_angle_beta 130.782681
_cell_angle_gamma 90.000000
_cell_volume 1286.461393
_symmetry_space_group_name_H-M "P 2/M"
_symmetry_group_IT_number 10
_symmetry_cell_setting 'monoclinic'
loop_
_space_group_symop_operation_xyz
x,y,z
-x,y,-z
-x,-y,-z
x,-y,z
loop_
_atom_site_type_symbol
_atom_site_label
_atom_site_fract_x
_atom_site_fract_y
_atom_site_fract_z
Si Si1 0.705868 0.186149 0.413531
Si Si2 0.453455 0.685652 0.241960
Si Si3 0.215819 0.812295 0.755640
Si Si4 0.959006 0.313952 0.583364
Si Si5 0.292159 0.190211 0.918792
Si Si6 0.047269 0.811151 0.084574
O O1 0.514698 0.247110 0.326760
O O2 0.765073 0.249400 0.498052
O O3 0.872048 0.249768 0.414095
O O4 0.710543 0.000000 0.414831
O O5 0.474073 0.500000 0.248811
O O6 0.603175 0.754714 0.233777
O O7 0.243137 0.736465 0.162966
O O8 0.243840 0.761892 0.834786
O O9 0.025238 0.745640 0.669432
O O10 0.209888 0.000000 0.750860
O O11 0.958994 0.500000 0.581160
O O12 0.127525 0.236600 0.920384
O O13 0.297290 0.000000 0.920077
O O14 0.500000 0.244399 0.000000
O O15 0.066906 0.000000 0.092949
O O16 0.000000 0.769573 0.000000
#
# Coordination Sequence:
#
# PCOD9141761 Si02
#       6
#     4   4   4   4   4   4
#     4  10  17  28  47  72 101 135 176 216 256 300
#     4  11  21  33  50  76 109 141 174 213 260 308
#     4  10  18  31  52  77 105 138 177 217 258 305
#     4  10  17  27  44  71 106 138 170 211 260 306
#     4   9  18  33  55  81 104 130 170 218 261 304
#     4  10  20  36  58  80 103 134 173 215 260 310
#
# _framework density 18.655826000000001
#
# number of rings (size 3 to 8) (size 9 to 14) (size 15 to 20)
#    0.000    2.000    0.000    9.000    0.000    3.000 
#    0.000    1.667    0.000    4.500    0.000    7.000 
#    0.000    0.000    0.000    0.000    0.000    0.000 
#
# Total GULP energy -133936.243995 kJ/mol
# GULP energy per Si atom -5580.676833 kJ/mol
# Density = 1.861337 g / cm^3
# Si number density = 18.655826 Si / 1000 Ang^3
#
#
#
# Elastic Constant Matrix: (Units=GPa)
#
#
# Indices 1 2 3 4 5 6 
#
# 1 72.5021 25.3607 73.0933 0.0000 -5.0321 0.0000
# 2 25.3607 116.6880 69.3559 0.0000 0.8610 0.0000
# 3 73.0933 69.3559 229.3803 0.0000 -6.1621 0.0000
# 4 0.0000 0.0000 0.0000 5.4547 0.0000 19.8577
# 5 -5.0321 0.8610 -6.1621 0.0000 23.3146 0.0000
# 6 0.0000 0.0000 0.0000 19.8577 0.0000 12.2228
#
#
#
# Elastic Compliance Matrix: (Units=1/GPa)
#
#
# Indices 1 2 3 4 5 6 
#
# 1 0.020548 -0.000780 -0.006236 0.000000 0.002816 0.000000
# 2 -0.000780 0.010512 -0.002966 0.000000 -0.001340 0.000000
# 3 -0.006236 -0.002966 0.007262 0.000000 0.000683 0.000000
# 4 0.000000 0.000000 0.000000 -0.037303 0.000000 0.060605
# 5 0.002816 -0.001340 0.000683 0.000000 0.043729 0.000000
# 6 0.000000 0.000000 0.000000 0.060605 0.000000 -0.016647
#
#
# Mechanical properties :
#
#
# Convention : Reuss Voigt Hill
#
# Bulk Modulus (GPa) = 54.47296 83.79890 69.13593
# Shear Modulus (GPa) = 92.27751 24.91577 58.59664
#
# Velocity S-wave (km/s) = 7.04063 3.65848 5.61048
# Velocity P-wave (km/s) = 9.76505 7.92855 8.89433
#
# Compressibility (1/GPa) = 0.01835773
#
# Stress axis : x y z
#
# Youngs Moduli (GPa) = 48.66636 95.12812 137.70452
#
# Poissons Ratio (x) = 0.07420 0.85876
# Poissons Ratio (y) = 0.03796 0.40842
# Poissons Ratio (z) = 0.30350 0.28214
#
# Static dielectric constant tensor:
#      x y z
#    x 1.631710 0.000000 -0.005940 
#    y 0.000000 1.624180 0.000000 
#    z -0.005940 0.000000 1.688970 
# 
# From -- ./inp_files/82045.got.cif
#   From: 2010.05.17/outbox.cif.g08.bks.cpg/sg10_42_cif.got.tgz:82045.got - 2010.06.03 11:33:40.
