data_PCOD9141325
_publ_section_title
;
Structure prediction by ZEFSAII (Michael W. Deem and Ramdas Pophale) SiO2 
 PCOD9141325
Probable space group: P 2/M
;
_chemical_formula_sum "Si O2"
_cell_formula_units_Z 22
_cell_length_a 5.541670
_cell_length_b 24.686694
_cell_length_c 7.815534
_cell_angle_alpha 90.000000
_cell_angle_beta 59.143735
_cell_angle_gamma 90.000000
_cell_volume 917.868829
_symmetry_space_group_name_H-M "P 2/M"
_symmetry_group_IT_number 10
_symmetry_cell_setting 'monoclinic'
loop_
_space_group_symop_operation_xyz
x,y,z
-x,y,-z
-x,-y,-z
x,-y,z
loop_
_atom_site_type_symbol
_atom_site_label
_atom_site_fract_x
_atom_site_fract_y
_atom_site_fract_z
Si Si1 0.500000 0.909501 0.500000
Si Si2 0.291334 0.158044 0.286124
Si Si3 0.924955 0.435785 0.281037
Si Si4 0.343235 0.727290 0.371326
Si Si5 0.925504 0.941963 0.827308
Si Si6 0.438182 0.607218 0.261496
O O1 0.493094 0.871715 0.667720
O O2 0.211978 0.941407 0.612445
O O3 0.386161 0.219923 0.236460
O O4 0.000000 0.162359 0.500000
O O5 0.223622 0.114596 0.164409
O O6 0.945557 0.500000 0.296436
O O7 0.747892 0.410215 0.503548
O O8 0.730725 0.422524 0.189928
O O9 0.232818 0.410204 0.184034
O O10 0.500000 0.736959 0.500000
O O11 0.471477 0.671716 0.254560
O O12 0.000000 0.718982 0.500000
O O13 0.783313 0.000000 0.837126
O O14 0.000000 0.942657 0.000000
#
# Coordination Sequence:
#
# PCOD9141325 Si02
#       6
#     2   4   4   4   4   4
#     4  10  19  36  58  86 110 148 187 232 294 348
#     4   9  20  33  53  78 105 140 184 239 284 344
#     4  10  16  22  31  50  80 118 170 221 267 329
#     4  11  17  29  46  66  96 129 182 235 280 337
#     4  10  22  39  58  84 116 148 189 238 294 359
#     4  10  15  23  33  53  77 121 167 222 267 329
#
# _framework density 23.968568000000001
#
# number of rings (size 3 to 8) (size 9 to 14) (size 15 to 20)
#    0.000    2.000    4.545    3.000    0.000    4.727 
#    0.000    1.818    0.000    0.000    0.000    0.000 
#    0.000    0.000    0.000    0.000    0.000   10.000 
#
# Total GULP energy -122828.127299 kJ/mol
# GULP energy per Si atom -5583.096695 kJ/mol
# Density = 2.391401 g / cm^3
# Si number density = 23.968568 Si / 1000 Ang^3
#
#
#
# Elastic Constant Matrix: (Units=GPa)
#
#
# Indices 1 2 3 4 5 6 
#
# 1 156.5167 37.8103 23.8801 0.0000 4.0735 0.0000
# 2 37.8103 242.9828 13.5416 0.0000 15.8110 0.0000
# 3 23.8801 13.5416 65.3455 0.0000 6.2239 0.0000
# 4 0.0000 0.0000 0.0000 -61.4836 0.0000 5.4947
# 5 4.0735 15.8110 6.2239 0.0000 53.4358 0.0000
# 6 0.0000 0.0000 0.0000 5.4947 0.0000 59.3037
#
#
#
# Elastic Compliance Matrix: (Units=1/GPa)
#
#
# Indices 1 2 3 4 5 6 
#
# 1 0.006979 -0.000956 -0.002355 0.000000 0.000025 0.000000
# 2 -0.000956 0.004365 -0.000444 0.000000 -0.001167 0.000000
# 3 -0.002355 -0.000444 0.016408 0.000000 -0.001600 0.000000
# 4 0.000000 0.000000 0.000000 -0.016131 0.000000 0.001495
# 5 0.000025 -0.001167 -0.001600 0.000000 0.019244 0.000000
# 6 0.000000 0.000000 0.000000 0.001495 0.000000 0.016724
#
#
# Mechanical properties :
#
#
# Convention : Reuss Voigt Hill
#
# Bulk Modulus (GPa) = 49.40174 68.36768 58.88471
# Shear Modulus (GPa) = 80.84640 36.22537 58.53589
#
# Velocity S-wave (km/s) = 5.81407 3.89185 4.94722
# Velocity P-wave (km/s) = 8.10722 6.98435 7.56664
#
# Compressibility (1/GPa) = 0.02024220
#
# Stress axis : x y z
#
# Youngs Moduli (GPa) = 143.29291 229.09453 60.94537
#
# Poissons Ratio (x) = 0.21910 0.14350
# Poissons Ratio (y) = 0.13704 0.02705
# Poissons Ratio (z) = 0.33739 0.10170
#
# Static dielectric constant tensor:
#      x y z
#    x 1.886100 0.000000 0.002140 
#    y 0.000000 1.870880 0.000000 
#    z 0.002140 0.000000 1.996690 
# 
# From -- ./inp_files/15549.got.cif
#   From: 2010.05.17/outbox.cif.g08.bks.cpg/sg10_8_cif.got.tgz:15549.got - 2010.06.03 11:33:40.
