data_PCOD9141674
_publ_section_title
;
Structure prediction by ZEFSAII (Michael W. Deem and Ramdas Pophale) SiO2 
 PCOD9141674
Probable space group: P 2/M
;
_chemical_formula_sum "Si O2"
_cell_formula_units_Z 32
_cell_length_a 22.254472
_cell_length_b 7.549206
_cell_length_c 32.146137
_cell_angle_alpha 90.000000
_cell_angle_beta 19.214247
_cell_angle_gamma 90.000000
_cell_volume 1777.367255
_symmetry_space_group_name_H-M "P 2/M"
_symmetry_group_IT_number 10
_symmetry_cell_setting 'monoclinic'
loop_
_space_group_symop_operation_xyz
x,y,z
-x,y,-z
-x,-y,-z
x,-y,z
loop_
_atom_site_type_symbol
_atom_site_label
_atom_site_fract_x
_atom_site_fract_y
_atom_site_fract_z
Si Si1 0.882933 0.786162 0.616563
Si Si2 0.785319 0.283679 0.297114
Si Si3 0.225126 0.708238 0.439731
Si Si4 0.185173 0.283411 0.901705
Si Si5 0.155643 0.705683 0.014937
Si Si6 0.428835 0.283450 0.388173
Si Si7 0.542732 0.795922 0.793461
Si Si8 0.578040 0.284032 0.513779
O O1 0.678324 0.722581 0.740539
O O2 0.000000 0.725589 0.500000
O O3 0.009942 0.733953 0.571966
O O4 0.877333 0.000000 0.619408
O O5 0.787404 0.500000 0.297102
O O6 0.720770 0.225793 0.385128
O O7 0.623715 0.234099 0.370783
O O8 0.981910 0.219638 0.153062
O O9 0.266450 0.500000 0.410508
O O10 0.293986 0.773818 0.439318
O O11 0.341101 0.788621 0.325634
O O12 0.189280 0.500000 0.899075
O O13 0.367683 0.228720 0.758474
O O14 0.185503 0.219673 0.949154
O O15 0.000000 0.229107 0.000000
O O16 0.109624 0.500000 0.038119
O O17 0.346526 0.712407 0.914327
O O18 0.424967 0.500000 0.391464
O O19 0.387017 0.223239 0.462199
O O20 0.507411 0.000000 0.826236
O O21 0.580812 0.500000 0.512364
#
# Coordination Sequence:
#
# PCOD9141674 Si02
#       8
#     4   4   4   4   4   4   4   4
#     4   8  16  29  42  57  80 112 144 168 203 256
#     4   8  14  23  38  60  85 113 142 178 213 242
#     4  10  17  26  41  64  88 110 139 175 211 246
#     4   9  15  22  34  55  84 113 137 164 202 246
#     4  10  17  26  41  64  88 108 141 180 211 244
#     4   9  15  22  34  57  86 113 137 166 206 250
#     4  10  19  30  42  58  84 117 144 168 207 257
#     4   8  13  23  37  58  88 114 140 173 213 251
#
# _framework density 18.004156999999999
#
# number of rings (size 3 to 8) (size 9 to 14) (size 15 to 20)
#    0.000    3.000    1.250    3.000    0.000    5.750 
#    0.000    0.000    0.000    0.375    0.000    4.375 
#    0.000    7.000    0.000    0.000    0.000    0.000 
#
# Total GULP energy -178300.946395 kJ/mol
# GULP energy per Si atom -5571.904575 kJ/mol
# Density = 1.796318 g / cm^3
# Si number density = 18.004157 Si / 1000 Ang^3
#
#
#
# Elastic Constant Matrix: (Units=GPa)
#
#
# Indices 1 2 3 4 5 6 
#
# 1 132.1031 -4.5046 52.6653 0.0000 -9.4684 0.0000
# 2 -4.5046 38.7627 -4.5871 0.0000 2.6018 0.0000
# 3 52.6653 -4.5871 71.3565 0.0000 -1.4821 0.0000
# 4 0.0000 0.0000 0.0000 -0.0777 0.0000 -18.1081
# 5 -9.4684 2.6018 -1.4821 0.0000 23.0095 0.0000
# 6 0.0000 0.0000 0.0000 -18.1081 0.0000 30.5742
#
#
#
# Elastic Compliance Matrix: (Units=1/GPa)
#
#
# Indices 1 2 3 4 5 6 
#
# 1 0.011089 0.000060 -0.008097 0.000000 0.004035 0.000000
# 2 0.000060 0.026182 0.001580 0.000000 -0.002834 0.000000
# 3 -0.008097 0.001580 0.020045 0.000000 -0.002219 0.000000
# 4 0.000000 0.000000 0.000000 -0.092571 0.000000 -0.054827
# 5 0.004035 -0.002834 -0.002219 0.000000 0.045298 0.000000
# 6 0.000000 0.000000 0.000000 -0.054827 0.000000 0.000235
#
#
# Mechanical properties :
#
#
# Convention : Reuss Voigt Hill
#
# Bulk Modulus (GPa) = 22.52100 36.59661 29.55881
# Shear Modulus (GPa) = 131.60174 23.94446 77.77310
#
# Velocity S-wave (km/s) = 8.55885 3.65079 6.57960
# Velocity P-wave (km/s) = 10.49799 6.17591 8.61248
#
# Compressibility (1/GPa) = 0.04440299
#
# Stress axis : x y z
#
# Youngs Moduli (GPa) = 90.17984 38.19394 49.88668
#
# Poissons Ratio (x) = -0.00228 0.40392
# Poissons Ratio (y) = -0.00538 -0.07883
# Poissons Ratio (z) = 0.73016 -0.06035
#
# Static dielectric constant tensor:
#      x y z
#    x 1.632190 0.000000 -0.018850 
#    y 0.000000 1.684560 0.000000 
#    z -0.018850 0.000000 1.602690 
# 
# From -- ./inp_files/95663.got.cif
#   From: 2010.05.17/outbox.cif.g08.bks.cpg/sg10_48_cif.got.tgz:95663.got - 2010.06.03 11:33:40.
