data_PCOD9141282
_publ_section_title
;
Structure prediction by ZEFSAII (Michael W. Deem and Ramdas Pophale) SiO2 
 PCOD9141282
Probable space group: C C
;
_chemical_formula_sum "Si O2"
_cell_formula_units_Z 16
_cell_length_a 15.000000
_cell_length_b 15.000000
_cell_length_c 21.000000
_cell_angle_alpha 90.000000
_cell_angle_beta 160.000000
_cell_angle_gamma 90.000000
_cell_volume 1616.045177
_symmetry_space_group_name_H-M "C C"
_symmetry_group_IT_number 9
_symmetry_cell_setting 'monoclinic'
loop_
_space_group_symop_operation_xyz
x,y,z
x,-y,1/2+z
1/2+x,1/2+y,z
1/2+x,1/2-y,1/2+z
loop_
_atom_site_type_symbol
_atom_site_label
_atom_site_fract_x
_atom_site_fract_y
_atom_site_fract_z
Si Si1 0.652980 0.838217 0.012050
Si Si2 0.580235 0.311005 0.071853
Si Si3 0.503631 0.217101 0.156755
Si Si4 0.309589 0.694424 0.109857
Si Si5 0.282288 0.039084 0.067537
Si Si6 0.982528 0.472033 0.334298
Si Si7 0.810787 0.643541 0.512168
Si Si8 0.321404 0.659185 0.773100
O O1 0.891987 0.793351 0.130757
O O2 0.735560 0.847689 0.141272
O O3 0.441466 0.758356 0.863515
O O4 0.545786 0.934543 0.914462
O O5 0.533644 0.266309 0.109490
O O6 0.702254 0.236783 0.104918
O O7 0.725884 0.407070 0.169991
O O8 0.288466 0.323292 0.854867
O O9 0.345031 0.126316 0.065679
O O10 0.602846 0.666810 0.319047
O O11 0.289637 0.777790 0.049468
O O12 0.180186 0.605477 0.992413
O O13 0.470089 0.007184 0.252165
O O14 0.249324 0.951464 0.002835
O O15 0.021547 0.079236 0.923623
O O16 0.087518 0.646072 0.664655
#
# Coordination Sequence:
#
# PCOD9141282 Si02
#       8
#     4   4   4   4   4   4   4   4
#     4  11  24  49  69 105 147 187 245 303 361 448
#     4  12  23  44  72 104 141 187 239 301 360 428
#     4  11  24  45  73 104 143 191 235 299 371 428
#     4  12  24  45  67 103 147 180 243 301 357 429
#     4  11  25  45  71 104 144 183 245 298 357 452
#     4  12  25  45  71 102 147 188 240 310 357 434
#     4  12  24  44  69  99 138 190 234 293 367 428
#     4  11  25  47  72 101 145 190 233 303 366 431
#
# _framework density 9.9007129999999997
#
# number of rings (size 3 to 8) (size 9 to 14) (size 15 to 20)
#    0.000    0.500    3.750    5.250    1.750    1.000 
#   11.250    0.000    0.000    0.000    0.000    0.000 
#    0.000    0.000    0.000    0.000    0.000    0.000 
#
# Total GULP energy -89092.156006 kJ/mol
# GULP energy per Si atom -5568.259750 kJ/mol
# Density = 0.987818 g / cm^3
# Si number density = 9.900713 Si / 1000 Ang^3
#
#
#
# Elastic Constant Matrix: (Units=GPa)
#
#
# Indices 1 2 3 4 5 6 
#
# 1 75.9139 38.1672 11.3703 0.1231 0.6325 -0.0587
# 2 38.1672 196.0662 45.5993 0.2549 -0.5301 -0.0369
# 3 11.3703 45.5993 92.6993 0.2267 12.5854 -0.0506
# 4 0.1231 0.2549 0.2267 45.2903 -0.0227 -5.0331
# 5 0.6325 -0.5301 12.5854 -0.0227 40.1886 -0.0188
# 6 -0.0587 -0.0369 -0.0506 -5.0331 -0.0188 26.1728
#
#
#
# Elastic Compliance Matrix: (Units=1/GPa)
#
#
# Indices 1 2 3 4 5 6 
#
# 1 0.014619 -0.002748 -0.000423 -0.000020 -0.000134 0.000024
# 2 -0.002748 0.006315 -0.002910 -0.000014 0.001038 -0.000005
# 3 -0.000423 -0.002910 0.012821 -0.000048 -0.004047 0.000008
# 4 -0.000020 -0.000014 -0.000048 0.022562 0.000030 0.004339
# 5 -0.000134 0.001038 -0.004047 0.000030 0.026166 0.000018
# 6 0.000024 -0.000005 0.000008 0.004339 0.000018 0.039042
#
#
# Mechanical properties :
#
#
# Convention : Reuss Voigt Hill
#
# Bulk Modulus (GPa) = 46.31355 61.66144 53.98750
# Shear Modulus (GPa) = 35.49026 40.29985 37.89506
#
# Velocity S-wave (km/s) = 4.23816 4.51621 4.37939
# Velocity P-wave (km/s) = 6.88397 7.64215 7.27295
#
# Compressibility (1/GPa) = 0.02159195
#
# Stress axis : x y z
#
# Youngs Moduli (GPa) = 68.40499 158.35736 77.99995
#
# Poissons Ratio (x) = 0.43511 0.03302
# Poissons Ratio (y) = 0.18795 0.22699
# Poissons Ratio (z) = 0.02896 0.46084
#
# Static dielectric constant tensor:
#      x y z
#    x 1.680610 0.000030 0.036410 
#    y 0.000030 1.665940 -0.000030 
#    z 0.036410 -0.000030 1.774680 
# 
# From -- ./inp_files/9235.got.cif
#   From: 2010.05.17/outbox.ucp.g08.bks.cvg/sg9_5_cif.got.tgz:9235.got - 2010.06.11 13:03:20.
