data_PCOD9141377
_publ_section_title
;
Structure prediction by ZEFSAII (Michael W. Deem and Ramdas Pophale) SiO2 
 PCOD9141377
Probable space group: P 2/M
;
_chemical_formula_sum "Si O2"
_cell_formula_units_Z 24
_cell_length_a 7.649555
_cell_length_b 8.439249
_cell_length_c 20.508862
_cell_angle_alpha 90.000000
_cell_angle_beta 55.978859
_cell_angle_gamma 90.000000
_cell_volume 1097.356192
_symmetry_space_group_name_H-M "P 2/M"
_symmetry_group_IT_number 10
_symmetry_cell_setting 'monoclinic'
loop_
_space_group_symop_operation_xyz
x,y,z
-x,y,-z
-x,-y,-z
x,-y,z
loop_
_atom_site_type_symbol
_atom_site_label
_atom_site_fract_x
_atom_site_fract_y
_atom_site_fract_z
Si Si1 0.665761 0.309728 0.254756
Si Si2 0.317220 0.808774 0.086076
Si Si3 0.924532 0.308777 0.086077
Si Si4 0.421190 0.812063 0.418289
Si Si5 0.930039 0.809728 0.745245
Si Si6 0.823907 0.687937 0.418280
O O1 0.661967 0.500000 0.258208
O O2 0.714251 0.259219 0.169824
O O3 0.464876 0.245277 0.335735
O O4 0.868014 0.250000 0.254654
O O5 0.110173 0.749987 0.093214
O O6 0.276270 0.759225 0.169821
O O7 0.330405 0.000000 0.083800
O O8 0.500000 0.747748 0.000000
O O9 0.918148 0.500000 0.083801
O O10 0.000000 0.247743 0.000000
O O11 0.623210 0.750045 0.417856
O O12 0.219259 0.749967 0.500004
O O13 0.422520 0.000000 0.419701
O O14 0.972086 0.745263 0.664270
O O15 0.936605 0.000000 0.741789
O O16 0.818254 0.500000 0.419677
#
# Coordination Sequence:
#
# PCOD9141377 Si02
#       6
#     4   4   4   4   4   4
#     4   9  15  24  37  53  76 105 136 170 209 250
#     4   9  18  31  46  65  89 117 149 184 221 261
#     4   9  18  31  46  65  89 117 149 184 221 261
#     4  10  16  22  32  48  72 101 134 167 203 248
#     4   9  15  24  37  53  76 105 136 170 209 250
#     4  10  16  22  32  48  72 101 134 167 203 248
#
# _framework density 21.870749
#
# number of rings (size 3 to 8) (size 9 to 14) (size 15 to 20)
#    0.000    2.667    0.000    7.000    0.000    2.000 
#    0.000    0.000    0.000    0.000    0.000    0.000 
#    0.000    1.333    0.000   15.333    0.000    9.667 
#
# Total GULP energy -133638.145150 kJ/mol
# GULP energy per Si atom -5568.256048 kJ/mol
# Density = 2.182097 g / cm^3
# Si number density = 21.870749 Si / 1000 Ang^3
#
#
#
# Elastic Constant Matrix: (Units=GPa)
#
#
# Indices 1 2 3 4 5 6 
#
# 1 32.0636 -3.6940 23.4706 0.0000 0.3716 0.0000
# 2 -3.6940 90.0616 63.6469 0.0000 3.3918 0.0000
# 3 23.4706 63.6469 327.0749 0.0000 14.4772 0.0000
# 4 0.0000 0.0000 0.0000 47.6554 0.0000 2.6752
# 5 0.3716 3.3918 14.4772 0.0000 8.6733 0.0000
# 6 0.0000 0.0000 0.0000 2.6752 0.0000 -5.5115
#
#
#
# Elastic Compliance Matrix: (Units=1/GPa)
#
#
# Indices 1 2 3 4 5 6 
#
# 1 0.033950 0.003592 -0.003249 0.000000 0.002563 0.000000
# 2 0.003592 0.013261 -0.002809 0.000000 -0.000650 0.000000
# 3 -0.003249 -0.002809 0.004084 0.000000 -0.005579 0.000000
# 4 0.000000 0.000000 0.000000 0.020427 0.000000 0.009915
# 5 0.002563 -0.000650 -0.005579 0.000000 0.124754 0.000000
# 6 0.000000 0.000000 0.000000 0.009915 0.000000 -0.176626
#
#
# Mechanical properties :
#
#
# Convention : Reuss Voigt Hill
#
# Bulk Modulus (GPa) = 21.56914 68.44967 45.00940
# Shear Modulus (GPa) = 124.26248 34.54854 79.40551
#
# Velocity S-wave (km/s) = 7.54587 3.97882 6.03204
# Velocity P-wave (km/s) = 9.26302 7.24384 8.31495
#
# Compressibility (1/GPa) = 0.04636254
#
# Stress axis : x y z
#
# Youngs Moduli (GPa) = 29.45495 75.41047 244.84725
#
# Poissons Ratio (x) = -0.27086 0.79542
# Poissons Ratio (y) = -0.10580 0.68788
# Poissons Ratio (z) = 0.09569 0.21186
#
# Static dielectric constant tensor:
#      x y z
#    x 1.895670 0.000000 0.004160 
#    y 0.000000 1.727370 0.000000 
#    z 0.004160 0.000000 1.978260 
# 
# From -- ./inp_files/87698.got.cif
#   From: 2010.05.17/outbox.cif.g08.bks.cpg/sg10_44_cif.got.tgz:87698.got - 2010.06.03 11:33:40.
