data_PCOD9141454
_publ_section_title
;
Structure prediction by ZEFSAII (Michael W. Deem and Ramdas Pophale) SiO2 
 PCOD9141454
Probable space group: P 2/M
;
_chemical_formula_sum "Si O2"
_cell_formula_units_Z 14
_cell_length_a 7.800581
_cell_length_b 16.364507
_cell_length_c 6.477510
_cell_angle_alpha 90.000000
_cell_angle_beta 137.791591
_cell_angle_gamma 90.000000
_cell_volume 555.516437
_symmetry_space_group_name_H-M "P 2/M"
_symmetry_group_IT_number 10
_symmetry_cell_setting 'monoclinic'
loop_
_space_group_symop_operation_xyz
x,y,z
-x,y,-z
-x,-y,-z
x,-y,z
loop_
_atom_site_type_symbol
_atom_site_label
_atom_site_fract_x
_atom_site_fract_y
_atom_site_fract_z
Si Si1 0.271995 0.411349 0.129213
Si Si2 0.271901 0.000000 0.627011
Si Si3 0.592400 0.762804 0.859335
Si Si4 0.101253 0.831205 0.351737
O O1 0.500000 0.410876 0.500000
O O2 0.283429 0.500000 0.029923
O O3 0.304526 0.329011 0.028584
O O4 0.000000 0.407130 0.000000
O O5 0.250039 0.917334 0.475368
O O6 0.000000 0.000000 0.500000
O O7 0.500000 0.000000 0.000000
O O8 0.319412 0.764153 0.501156
O O9 0.500000 0.793833 0.000000
O O10 0.827037 0.820117 0.998740
O O11 0.000000 0.821154 0.500000
#
# Coordination Sequence:
#
# PCOD9141454 Si02
#       4
#     4   2   4   4
#     4  10  21  37  55  75 100 133 173 211 251 307
#     4  10  16  26  44  70 106 140 166 200 251 298
#     4  10  19  32  51  77 105 131 166 212 257 298
#     4   9  17  28  45  73 105 134 164 205 251 297
#
# _framework density 25.201775999999999
#
# number of rings (size 3 to 8) (size 9 to 14) (size 15 to 20)
#    0.000    2.286    0.000    6.000    0.000    0.571 
#    0.000    0.000    0.000   10.286    0.000   20.000 
#    0.000    0.000    0.000    0.000    0.000    0.000 
#
# Total GULP energy -78146.224670 kJ/mol
# GULP energy per Si atom -5581.873191 kJ/mol
# Density = 2.514442 g / cm^3
# Si number density = 25.201776 Si / 1000 Ang^3
#
#
#
# Elastic Constant Matrix: (Units=GPa)
#
#
# Indices 1 2 3 4 5 6 
#
# 1 62.0185 20.3194 40.2122 0.0000 36.8955 0.0000
# 2 20.3194 183.6532 39.2872 0.0000 35.7569 0.0000
# 3 40.2122 39.2872 201.1578 0.0000 38.0871 0.0000
# 4 0.0000 0.0000 0.0000 38.9537 0.0000 10.6623
# 5 36.8955 35.7569 38.0871 0.0000 53.5929 0.0000
# 6 0.0000 0.0000 0.0000 10.6623 0.0000 34.6462
#
#
#
# Elastic Compliance Matrix: (Units=1/GPa)
#
#
# Indices 1 2 3 4 5 6 
#
# 1 0.028321 0.000966 -0.002353 0.000000 -0.018470 0.000000
# 2 0.000966 0.006335 -0.000583 0.000000 -0.004477 0.000000
# 3 -0.002353 -0.000583 0.005980 0.000000 -0.002241 0.000000
# 4 0.000000 0.000000 0.000000 0.028033 0.000000 -0.008627
# 5 -0.018470 -0.004477 -0.002241 0.000000 0.035954 0.000000
# 6 0.000000 0.000000 0.000000 -0.008627 0.000000 0.031518
#
#
# Mechanical properties :
#
#
# Convention : Reuss Voigt Hill
#
# Bulk Modulus (GPa) = 27.25089 71.82968 49.54028
# Shear Modulus (GPa) = 32.82727 48.57261 40.69994
#
# Velocity S-wave (km/s) = 3.61304 4.39492 4.02302
# Velocity P-wave (km/s) = 5.31432 7.37004 6.42493
#
# Compressibility (1/GPa) = 0.03669605
#
# Stress axis : x y z
#
# Youngs Moduli (GPa) = 35.30906 157.86517 167.23260
#
# Poissons Ratio (x) = -0.15249 0.39353
# Poissons Ratio (y) = -0.03411 0.09742
# Poissons Ratio (z) = 0.08309 0.09196
#
# Static dielectric constant tensor:
#      x y z
#    x 1.431710 0.000000 -0.553140 
#    y 0.000000 2.056650 0.000000 
#    z -0.553140 0.000000 1.810030 
# 
# From -- ./inp_files/3217.got.cif
#   From: 2010.05.17/outbox.cif.g08.bks.cpg/sg10_2_cif.got.tgz:3217.got - 2010.06.03 11:33:40.
