data_PCOD9141381
_publ_section_title
;
Structure prediction by ZEFSAII (Michael W. Deem and Ramdas Pophale) SiO2 
 PCOD9141381
Probable space group: P 2/M
;
_chemical_formula_sum "Si O2"
_cell_formula_units_Z 18
_cell_length_a 8.931819
_cell_length_b 20.536630
_cell_length_c 7.345353
_cell_angle_alpha 90.000000
_cell_angle_beta 145.320024
_cell_angle_gamma 90.000000
_cell_volume 766.633950
_symmetry_space_group_name_H-M "P 2/M"
_symmetry_group_IT_number 10
_symmetry_cell_setting 'monoclinic'
loop_
_space_group_symop_operation_xyz
x,y,z
-x,y,-z
-x,-y,-z
x,-y,z
loop_
_atom_site_type_symbol
_atom_site_label
_atom_site_fract_x
_atom_site_fract_y
_atom_site_fract_z
Si Si1 0.966292 0.203646 0.744163
Si Si2 0.460715 0.133987 0.240794
Si Si3 0.381736 0.426567 0.083429
Si Si4 0.880994 0.650836 0.679792
Si Si5 0.254959 0.000000 0.119169
O O1 0.754368 0.149654 0.469740
O O2 0.869776 0.275384 0.597419
O O3 0.259266 0.188579 0.971799
O O4 0.000000 0.200001 0.000000
O O5 0.500000 0.138770 0.500000
O O6 0.309321 0.065683 0.060109
O O7 0.361401 0.500000 0.137946
O O8 0.597853 0.382539 0.399720
O O9 0.500000 0.430442 0.000000
O O10 0.097508 0.393302 0.796410
O O11 0.000000 0.655479 0.000000
O O12 0.500000 0.000000 0.500000
O O13 0.000000 0.000000 0.000000
#
# Coordination Sequence:
#
# PCOD9141381 Si02
#       5
#     4   4   4   4   2
#     4   9  17  28  43  65  95 130 168 215 265 308
#     4   9  15  24  37  57  90 131 172 211 252 306
#     4  11  24  41  59  81 112 147 179 221 283 339
#     4  11  22  37  59  85 110 143 188 230 270 327
#     4  10  16  22  34  56  86 132 183 212 243 308
#
# _framework density 23.479261999999999
#
# number of rings (size 3 to 8) (size 9 to 14) (size 15 to 20)
#    0.000    2.000    0.000    6.667    0.000    8.000 
#    0.000    0.000    0.000    0.000    0.000    0.000 
#    0.000    0.000    0.000   70.000    0.000   78.000 
#
# Total GULP energy -100485.301429 kJ/mol
# GULP energy per Si atom -5582.516746 kJ/mol
# Density = 2.342582 g / cm^3
# Si number density = 23.479262 Si / 1000 Ang^3
#
#
#
# Elastic Constant Matrix: (Units=GPa)
#
#
# Indices 1 2 3 4 5 6 
#
# 1 47.1055 4.6244 15.5448 0.0000 2.9366 0.0000
# 2 4.6244 154.6381 60.8652 0.0000 17.8058 0.0000
# 3 15.5448 60.8652 125.3660 0.0000 38.4241 0.0000
# 4 0.0000 0.0000 0.0000 -478.6217 0.0000 292.8109
# 5 2.9366 17.8058 38.4241 0.0000 31.8934 0.0000
# 6 0.0000 0.0000 0.0000 292.8109 0.0000 -140.8011
#
#
#
# Elastic Compliance Matrix: (Units=1/GPa)
#
#
# Indices 1 2 3 4 5 6 
#
# 1 0.022252 0.000534 -0.003645 0.000000 0.002044 0.000000
# 2 0.000534 0.008009 -0.004073 0.000000 0.000387 0.000000
# 3 -0.003645 -0.004073 0.015230 0.000000 -0.015739 0.000000
# 4 0.000000 0.000000 0.000000 0.007674 0.000000 0.015959
# 5 0.002044 0.000387 -0.015739 0.000000 0.049912 0.000000
# 6 0.000000 0.000000 0.000000 0.015959 0.000000 0.026086
#
#
# Mechanical properties :
#
#
# Convention : Reuss Voigt Hill
#
# Bulk Modulus (GPa) = 32.13085 54.35318 43.24202
# Shear Modulus (GPa) = 32.48719 -101.10086 -34.30683
#
# Velocity S-wave (km/s) = 3.72379 -6.56910 -3.82665
# Velocity P-wave (km/s) = 5.67479 5.85985 1.03308
#
# Compressibility (1/GPa) = 0.03112273
#
# Stress axis : x y z
#
# Youngs Moduli (GPa) = 44.94002 124.85226 65.65942
#
# Poissons Ratio (x) = -0.06664 0.23932
# Poissons Ratio (y) = -0.02399 0.26745
# Poissons Ratio (z) = 0.16380 0.50856
#
# Static dielectric constant tensor:
#      x y z
#    x 2.012090 0.000000 -0.022640 
#    y 0.000000 1.954580 0.000000 
#    z -0.022640 0.000000 1.822810 
# 
# From -- ./inp_files/20032.got.cif
#   From: 2010.05.17/outbox.cif.g08.bks.cpg/sg10_11_cif.got.tgz:20032.got - 2010.06.03 11:33:40.
