data_PCOD9141960
_publ_section_title
;
Structure prediction by ZEFSAII (Michael W. Deem and Ramdas Pophale) SiO2 
 PCOD9141960
Probable space group: P 2/M
;
_chemical_formula_sum "Si O2"
_cell_formula_units_Z 28
_cell_length_a 18.068332
_cell_length_b 11.869715
_cell_length_c 24.099616
_cell_angle_alpha 90.000000
_cell_angle_beta 19.662901
_cell_angle_gamma 90.000000
_cell_volume 1739.141590
_symmetry_space_group_name_H-M "P 2/M"
_symmetry_group_IT_number 10
_symmetry_cell_setting 'monoclinic'
loop_
_space_group_symop_operation_xyz
x,y,z
-x,y,-z
-x,-y,-z
x,-y,z
loop_
_atom_site_type_symbol
_atom_site_label
_atom_site_fract_x
_atom_site_fract_y
_atom_site_fract_z
Si Si1 0.014767 0.131586 0.166647
Si Si2 0.628025 0.366063 0.966452
Si Si3 0.894503 0.863406 0.017267
Si Si4 0.484899 0.195211 0.159853
Si Si5 0.755230 0.000000 0.837218
Si Si6 0.805092 0.000000 0.681285
Si Si7 0.983104 0.791954 0.304665
Si Si8 0.390692 0.862857 0.345715
O O1 0.908095 0.195767 0.293733
O O2 0.954847 0.000000 0.212379
O O3 0.984354 0.173492 0.125134
O O4 0.277268 0.144604 0.991551
O O5 0.617907 0.500000 0.979677
O O6 0.878152 0.321204 0.784778
O O7 0.500000 0.334314 0.000000
O O8 0.526328 0.304010 0.092423
O O9 0.636107 0.836624 0.194751
O O10 0.908908 0.000000 0.006618
O O11 0.000000 0.822567 0.000000
O O12 0.345945 0.108076 0.221881
O O13 0.364380 0.198164 0.304647
O O14 0.885072 0.000000 0.687448
O O15 0.834434 0.109505 0.813946
O O16 0.500000 0.000000 0.000000
O O17 0.000000 0.000000 0.500000
O O18 0.788910 0.818823 0.484135
O O19 0.381101 0.000000 0.345301
#
# Coordination Sequence:
#
# PCOD9141960 Si02
#       8
#     4   4   4   4   2   2   4   4
#     4   9  14  26  44  63  93 127 159 187 232 279
#     4  10  22  38  51  63  88 130 176 211 237 273
#     4   8  15  26  43  65  97 138 167 181 211 284
#     4  10  18  31  47  66  94 125 157 194 240 294
#     4  12  20  26  42  68  93 121 152 193 243 294
#     4  12  20  26  42  70  97 115 144 195 249 290
#     4  11  19  30  47  71  98 124 159 199 247 290
#     4  10  17  30  48  73 105 127 149 192 251 290
#
# _framework density 16.099896999999999
#
# number of rings (size 3 to 8) (size 9 to 14) (size 15 to 20)
#    0.000    2.000    2.857    4.714    0.000    0.000 
#    0.000    1.429    0.000    5.571    0.000    0.000 
#    0.000   67.429    0.000    0.000    0.000    0.000 
#
# Total GULP energy -156016.710759 kJ/mol
# GULP energy per Si atom -5572.025384 kJ/mol
# Density = 1.606325 g / cm^3
# Si number density = 16.099897 Si / 1000 Ang^3
#
#
#
# Elastic Constant Matrix: (Units=GPa)
#
#
# Indices 1 2 3 4 5 6 
#
# 1 136.6891 29.7849 42.8501 0.0000 25.3012 0.0000
# 2 29.7849 52.1810 21.2510 0.0000 5.7448 0.0000
# 3 42.8501 21.2510 73.4000 0.0000 29.5212 0.0000
# 4 0.0000 0.0000 0.0000 12.7964 0.0000 2.1089
# 5 25.3012 5.7448 29.5212 0.0000 31.5019 0.0000
# 6 0.0000 0.0000 0.0000 2.1089 0.0000 12.4885
#
#
#
# Elastic Compliance Matrix: (Units=1/GPa)
#
#
# Indices 1 2 3 4 5 6 
#
# 1 0.009917 -0.004028 -0.002753 0.000000 -0.004651 0.000000
# 2 -0.004028 0.023552 -0.006486 0.000000 0.005018 0.000000
# 3 -0.002753 -0.006486 0.025267 0.000000 -0.020285 0.000000
# 4 0.000000 0.000000 0.000000 0.080384 0.000000 -0.013575
# 5 -0.004651 0.005018 -0.020285 0.000000 0.053574 0.000000
# 6 0.000000 0.000000 0.000000 -0.013575 0.000000 0.082366
#
#
# Mechanical properties :
#
#
# Convention : Reuss Voigt Hill
#
# Bulk Modulus (GPa) = 31.05191 50.00471 40.52831
# Shear Modulus (GPa) = 16.00880 22.58297 19.29589
#
# Velocity S-wave (km/s) = 3.15674 3.74930 3.46571
# Velocity P-wave (km/s) = 5.71100 7.06183 6.42203
#
# Compressibility (1/GPa) = 0.03220414
#
# Stress axis : x y z
#
# Youngs Moduli (GPa) = 100.83274 42.45935 39.57669
#
# Poissons Ratio (x) = 0.17101 0.10896
# Poissons Ratio (y) = 0.40612 0.25668
# Poissons Ratio (z) = 0.27759 0.27538
#
# Static dielectric constant tensor:
#      x y z
#    x 1.585920 0.000000 0.035070 
#    y 0.000000 1.517430 0.000000 
#    z 0.035070 0.000000 1.578480 
# 
# From -- ./inp_files/80257.got.cif
#   From: 2010.05.17/outbox.cif.g08.bks.cpg/sg10_41_cif.got.tgz:80257.got - 2010.06.03 11:33:40.
