data_PCOD9141493
_publ_section_title
;
Structure prediction by ZEFSAII (Michael W. Deem and Ramdas Pophale) SiO2 
 PCOD9141493
Probable space group: P 2/M
;
_chemical_formula_sum "Si O2"
_cell_formula_units_Z 22
_cell_length_a 6.971153
_cell_length_b 9.813022
_cell_length_c 13.986080
_cell_angle_alpha 90.000000
_cell_angle_beta 98.065291
_cell_angle_gamma 90.000000
_cell_volume 947.297366
_symmetry_space_group_name_H-M "P 2/M"
_symmetry_group_IT_number 10
_symmetry_cell_setting 'monoclinic'
loop_
_space_group_symop_operation_xyz
x,y,z
-x,y,-z
-x,-y,-z
x,-y,z
loop_
_atom_site_type_symbol
_atom_site_label
_atom_site_fract_x
_atom_site_fract_y
_atom_site_fract_z
Si Si1 0.394826 0.653482 0.193300
Si Si2 0.846301 0.659253 0.156913
Si Si3 0.000000 0.500000 0.500000
Si Si4 0.979112 0.749062 0.366760
Si Si5 0.276494 0.157290 0.021837
Si Si6 0.000000 0.000000 0.500000
Si Si7 0.569872 0.339569 0.399604
O O1 0.326902 0.500000 0.167513
O O2 0.621780 0.656969 0.177531
O O3 0.285687 0.763566 0.122653
O O4 0.406529 0.673924 0.307766
O O5 0.893909 0.500000 0.142159
O O6 0.970547 0.721660 0.252812
O O7 0.841674 0.755247 0.064082
O O8 0.939557 0.618431 0.573253
O O9 0.749324 0.750226 0.379541
O O10 0.056874 0.881999 0.423500
O O11 0.217474 0.000000 0.025552
O O12 0.500000 0.156951 0.000000
O O13 0.500000 0.308704 0.500000
O O14 0.642798 0.500000 0.404112
#
# Coordination Sequence:
#
# PCOD9141493 Si02
#       7
#     4   4   1   4   4   1   4
#     4   8  14  25  39  59  87 118 147 177 218 270
#     4   9  15  25  42  60  84 115 150 185 226 274
#     4  10  16  30  50  62  90 124 160 192 228 272
#     4  10  18  32  45  69  93 127 154 192 233 273
#     4   9  16  23  35  57  86 118 146 177 219 273
#     4  10  24  30  46  62  98 128 160 192 232 272
#     4   9  16  29  51  73  94 121 158 195 227 270
#
# _framework density 23.223963000000001
#
# number of rings (size 3 to 8) (size 9 to 14) (size 15 to 20)
#    0.000    2.909    1.818    1.636    1.273    2.182 
#    4.909    0.455    0.000    0.000    0.000    0.000 
#    0.000    8.727    0.000    0.000    0.000    0.000 
#
# Total GULP energy -122521.403021 kJ/mol
# GULP energy per Si atom -5569.154683 kJ/mol
# Density = 2.317110 g / cm^3
# Si number density = 23.223963 Si / 1000 Ang^3
#
#
#
# Elastic Constant Matrix: (Units=GPa)
#
#
# Indices 1 2 3 4 5 6 
#
# 1 87.2994 3.8536 21.7857 0.0000 3.8033 0.0000
# 2 3.8536 224.6021 116.4665 0.0000 13.7355 0.0000
# 3 21.7857 116.4665 191.9047 0.0000 -6.7701 0.0000
# 4 0.0000 0.0000 0.0000 -16.9203 0.0000 -5.2861
# 5 3.8033 13.7355 -6.7701 0.0000 26.8542 0.0000
# 6 0.0000 0.0000 0.0000 -5.2861 0.0000 -16.7998
#
#
#
# Elastic Compliance Matrix: (Units=1/GPa)
#
#
# Indices 1 2 3 4 5 6 
#
# 1 0.012055 0.001056 -0.002107 0.000000 -0.002779 0.000000
# 2 0.001056 0.007137 -0.004626 0.000000 -0.004966 0.000000
# 3 -0.002107 -0.004626 0.008427 0.000000 0.004789 0.000000
# 4 0.000000 0.000000 0.000000 -0.065543 0.000000 0.020623
# 5 -0.002779 -0.004966 0.004789 0.000000 0.041379 0.000000
# 6 0.000000 0.000000 0.000000 0.020623 0.000000 -0.066013
#
#
# Mechanical properties :
#
#
# Convention : Reuss Voigt Hill
#
# Bulk Modulus (GPa) = 61.48898 87.55753 74.52325
# Shear Modulus (GPa) = -109.21420 22.74017 -43.23702
#
# Velocity S-wave (km/s) = -6.86503 3.13256 -4.31947
# Velocity P-wave (km/s) = 6.02529 7.13212 2.69843
#
# Compressibility (1/GPa) = 0.01626308
#
# Stress axis : x y z
#
# Youngs Moduli (GPa) = 82.95192 140.11570 118.66743
#
# Poissons Ratio (x) = -0.14794 0.25008
# Poissons Ratio (y) = -0.08759 0.54901
# Poissons Ratio (z) = 0.17481 0.64824
#
# Static dielectric constant tensor:
#      x y z
#    x 1.939360 0.000000 -0.056210 
#    y 0.000000 1.771430 0.000000 
#    z -0.056210 0.000000 1.834850 
# 
# From -- ./inp_files/48492.got.cif
#   From: 2010.05.17/outbox.cif.g08.bks.cpg/sg10_25_cif.got.tgz:48492.got - 2010.06.03 11:33:40.
