data_PCOD9141003
_publ_section_title
;
Structure prediction by ZEFSAII (Michael W. Deem and Ramdas Pophale) SiO2 
 PCOD9141003
Probable space group: C C
;
_chemical_formula_sum "Si O2"
_cell_formula_units_Z 32
_cell_length_a 11.583785
_cell_length_b 14.140787
_cell_length_c 9.280188
_cell_angle_alpha 90.000000
_cell_angle_beta 116.999890
_cell_angle_gamma 90.000000
_cell_volume 1354.447426
_symmetry_space_group_name_H-M "C C"
_symmetry_group_IT_number 9
_symmetry_cell_setting 'monoclinic'
loop_
_space_group_symop_operation_xyz
x,y,z
x,-y,1/2+z
1/2+x,1/2+y,z
1/2+x,1/2-y,1/2+z
loop_
_atom_site_type_symbol
_atom_site_label
_atom_site_fract_x
_atom_site_fract_y
_atom_site_fract_z
Si Si1 0.875000 0.509909 0.039830
Si Si2 0.972210 0.066211 0.732870
Si Si3 0.098300 0.623601 0.735004
Si Si4 0.196352 0.954970 0.705335
Si Si5 0.484138 0.800825 0.450388
Si Si6 0.812016 0.027793 0.364256
Si Si7 0.707712 0.777153 0.773710
Si Si8 0.584536 0.279598 0.491513
O O1 0.759247 0.520307 0.087979
O O2 0.991817 0.458343 0.183044
O O3 0.816797 0.445911 0.880267
O O4 0.928458 0.606565 0.000991
O O5 0.861916 0.059467 0.548933
O O6 0.983289 0.163003 0.831769
O O7 0.934181 0.986386 0.828819
O O8 0.103023 0.033194 0.724717
O O9 0.077018 0.680762 0.868426
O O10 0.235653 0.570957 0.815170
O O11 0.066901 0.685716 0.576019
O O12 0.123477 0.857953 0.631614
O O13 0.579436 0.745403 0.614166
O O14 0.351734 0.755697 0.314633
O O15 0.716207 0.110038 0.259086
O O16 0.690103 0.747508 0.930099
#
# Coordination Sequence:
#
# PCOD9141003 Si02
#       8
#     4   4   4   4   4   4   4   4
#     4  12  25  48  81 107 156 207 267 321 404 483
#     4  12  25  49  79 113 161 207 268 331 415 481
#     4  12  30  49  79 114 157 213 270 328 406 487
#     4  12  24  49  78 114 154 210 261 332 406 479
#     4  12  27  50  76 119 157 211 268 333 401 486
#     4  12  26  47  80 111 163 209 262 332 411 484
#     4  12  27  47  78 112 163 207 266 331 406 481
#     4  12  28  49  75 120 155 208 270 332 397 491
#
# _framework density 23.625871
#
# number of rings (size 3 to 8) (size 9 to 14) (size 15 to 20)
#    0.000    0.000    6.250    2.250    5.250    4.000 
#    0.000    0.000    0.000    0.000    0.000    0.000 
#    0.000    0.000    0.000    0.000    0.000    0.000 
#
# Total GULP energy -89406.408372 kJ/mol
# GULP energy per Si atom -5587.900523 kJ/mol
# Density = 2.357210 g / cm^3
# Si number density = 23.625871 Si / 1000 Ang^3
#
#
#
# Elastic Constant Matrix: (Units=GPa)
#
#
# Indices 1 2 3 4 5 6 
#
# 1 92.0082 34.9034 33.2783 0.0000 3.5587 0.0000
# 2 34.9034 67.2071 13.9108 0.0000 1.7425 0.0000
# 3 33.2783 13.9108 99.3343 0.0000 9.3822 0.0000
# 4 0.0000 0.0000 0.0000 41.3617 0.0000 10.1738
# 5 3.5587 1.7425 9.3822 0.0000 43.7436 0.0000
# 6 0.0000 0.0000 0.0000 10.1738 0.0000 28.3639
#
#
#
# Elastic Compliance Matrix: (Units=1/GPa)
#
#
# Indices 1 2 3 4 5 6 
#
# 1 0.014960 -0.006933 -0.004034 0.000000 -0.000076 0.000000
# 2 -0.006933 0.018537 -0.000262 0.000000 -0.000118 0.000000
# 3 -0.004034 -0.000262 0.011659 0.000000 -0.002162 0.000000
# 4 0.000000 0.000000 0.000000 0.026516 0.000000 -0.009511
# 5 -0.000076 -0.000118 -0.002162 0.000000 0.023335 0.000000
# 6 0.000000 0.000000 0.000000 -0.009511 0.000000 0.038668
#
#
# Mechanical properties :
#
#
# Convention : Reuss Voigt Hill
#
# Bulk Modulus (GPa) = 44.05428 46.97050 45.51239
# Shear Modulus (GPa) = 30.54364 34.45765 32.50064
#
# Velocity S-wave (km/s) = 3.59946 3.82314 3.71298
# Velocity P-wave (km/s) = 5.99683 6.27795 6.13900
#
# Compressibility (1/GPa) = 0.02269927
#
# Stress axis : x y z
#
# Youngs Moduli (GPa) = 66.84288 53.94575 85.76785
#
# Poissons Ratio (x) = 0.37399 0.34598
# Poissons Ratio (y) = 0.46340 0.02249
# Poissons Ratio (z) = 0.26964 0.01415
#
# Static dielectric constant tensor:
#      x y z
#    x 1.905680 0.000000 0.037610 
#    y 0.000000 1.917500 0.000000 
#    z 0.037610 0.000000 1.925610 
# 
# From -- ./inp_files/7500.got.cif
#   From: 2010.05.17/outbox.cif.g08.bks.cpg/sg9_4_cif.got.tgz:7500.got - 2010.06.03 20:04:27.
