data_PCOD9141590
_publ_section_title
;
Structure prediction by ZEFSAII (Michael W. Deem and Ramdas Pophale) SiO2 
 PCOD9141590
Probable space group: P 2/M
;
_chemical_formula_sum "Si O2"
_cell_formula_units_Z 32
_cell_length_a 14.238257
_cell_length_b 8.680279
_cell_length_c 21.305845
_cell_angle_alpha 90.000000
_cell_angle_beta 127.185117
_cell_angle_gamma 90.000000
_cell_volume 2097.862275
_symmetry_space_group_name_H-M "P 2/M"
_symmetry_group_IT_number 10
_symmetry_cell_setting 'monoclinic'
loop_
_space_group_symop_operation_xyz
x,y,z
-x,y,-z
-x,-y,-z
x,-y,z
loop_
_atom_site_type_symbol
_atom_site_label
_atom_site_fract_x
_atom_site_fract_y
_atom_site_fract_z
Si Si1 0.525709 0.684665 0.719670
Si Si2 0.514952 0.183927 0.853362
Si Si3 0.221489 0.687031 0.235288
Si Si4 0.988691 0.686520 0.068251
Si Si5 0.379548 0.677577 0.910323
Si Si6 0.672702 0.315714 0.595819
Si Si7 0.747702 0.815781 0.026483
Si Si8 0.565816 0.816754 0.438234
O O1 0.519481 0.500000 0.711536
O O2 0.658496 0.734462 0.752189
O O3 0.504727 0.736760 0.781997
O O4 0.435142 0.760457 0.633723
O O5 0.412493 0.234807 0.859964
O O6 0.514549 0.000000 0.846163
O O7 0.500000 0.317931 0.000000
O O8 0.639366 0.229626 0.936501
O O9 0.221514 0.500000 0.233883
O O10 0.104091 0.739865 0.153040
O O11 0.232028 0.730897 0.312965
O O12 0.984906 0.500000 0.069069
O O13 0.869297 0.750417 0.049566
O O14 0.000000 0.731865 0.000000
O O15 0.350991 0.500000 0.885889
O O16 0.283354 0.752884 0.916951
O O17 0.674087 0.500000 0.588879
O O18 0.550248 0.265778 0.579754
O O19 0.670204 0.236745 0.526822
O O20 0.750617 0.000000 0.029526
O O21 0.552360 0.000000 0.436394
#
# Coordination Sequence:
#
# PCOD9141590 Si02
#       8
#     4   4   4   4   4   4   4   4
#     4  10  18  29  44  62  86 116 148 178 213 260
#     4  10  19  30  44  64  90 115 140 176 221 263
#     4   8  16  28  42  60  82 112 151 190 219 246
#     4  10  19  31  46  63  85 116 154 190 219 250
#     4   9  17  30  48  66  82 107 144 180 215 259
#     4   9  15  26  41  56  78 110 147 181 214 255
#     4  10  20  32  45  63  88 116 145 181 223 260
#     4  10  17  25  38  59  84 109 139 175 218 261
#
# _framework density 15.253624
#
# number of rings (size 3 to 8) (size 9 to 14) (size 15 to 20)
#    0.000    2.500    0.000    5.250    0.000    4.250 
#    0.000    3.750    0.000    0.000    0.000    0.000 
#    0.000    1.000    0.000   10.750    0.000    5.000 
#
# Total GULP energy -178283.050718 kJ/mol
# GULP energy per Si atom -5571.345335 kJ/mol
# Density = 1.521891 g / cm^3
# Si number density = 15.253624 Si / 1000 Ang^3
#
#
#
# Elastic Constant Matrix: (Units=GPa)
#
#
# Indices 1 2 3 4 5 6 
#
# 1 85.9966 20.2089 49.3116 0.0000 -13.6690 0.0000
# 2 20.2089 38.3531 28.3841 0.0000 -6.8897 0.0000
# 3 49.3116 28.3841 121.9286 0.0000 -17.7086 0.0000
# 4 0.0000 0.0000 0.0000 18.6880 0.0000 -7.8002
# 5 -13.6690 -6.8897 -17.7086 0.0000 17.9163 0.0000
# 6 0.0000 0.0000 0.0000 -7.8002 0.0000 38.0921
#
#
#
# Elastic Compliance Matrix: (Units=1/GPa)
#
#
# Indices 1 2 3 4 5 6 
#
# 1 0.016269 -0.003934 -0.004765 0.000000 0.006190 0.000000
# 2 -0.003934 0.032955 -0.005460 0.000000 0.004275 0.000000
# 3 -0.004765 -0.005460 0.012338 0.000000 0.006460 0.000000
# 4 0.000000 0.000000 0.000000 0.058511 0.000000 0.011982
# 5 0.006190 0.004275 0.006460 0.000000 0.068567 0.000000
# 6 0.000000 0.000000 0.000000 0.011982 0.000000 0.028706
#
#
# Mechanical properties :
#
#
# Convention : Reuss Voigt Hill
#
# Bulk Modulus (GPa) = 30.08030 49.12086 39.60058
# Shear Modulus (GPa) = 19.47462 24.83084 22.15273
#
# Velocity S-wave (km/s) = 3.57700 4.03906 3.81503
# Velocity P-wave (km/s) = 6.06818 7.35015 6.73971
#
# Compressibility (1/GPa) = 0.03324435
#
# Stress axis : x y z
#
# Youngs Moduli (GPa) = 61.46686 30.34431 81.05187
#
# Poissons Ratio (x) = 0.11938 0.38620
# Poissons Ratio (y) = 0.24182 0.44252
# Poissons Ratio (z) = 0.29288 0.16567
#
# Static dielectric constant tensor:
#      x y z
#    x 1.480770 0.000000 -0.011700 
#    y 0.000000 1.510130 0.000000 
#    z -0.011700 0.000000 1.544930 
# 
# From -- ./inp_files/83401.got.cif
#   From: 2010.05.17/outbox.cif.g08.bks.cpg/sg10_42_cif.got.tgz:83401.got - 2010.06.03 11:33:40.
