data_PCOD9141705
_publ_section_title
;
Structure prediction by ZEFSAII (Michael W. Deem and Ramdas Pophale) SiO2 
 PCOD9141705
Probable space group: P 2/M
;
_chemical_formula_sum "Si O2"
_cell_formula_units_Z 32
_cell_length_a 15.728537
_cell_length_b 7.578955
_cell_length_c 15.569696
_cell_angle_alpha 90.000000
_cell_angle_beta 78.888474
_cell_angle_gamma 90.000000
_cell_volume 1821.206503
_symmetry_space_group_name_H-M "P 2/M"
_symmetry_group_IT_number 10
_symmetry_cell_setting 'monoclinic'
loop_
_space_group_symop_operation_xyz
x,y,z
-x,y,-z
-x,-y,-z
x,-y,z
loop_
_atom_site_type_symbol
_atom_site_label
_atom_site_fract_x
_atom_site_fract_y
_atom_site_fract_z
Si Si1 0.205138 0.293747 0.432822
Si Si2 0.124219 0.788348 0.917752
Si Si3 0.606444 0.714529 0.568541
Si Si4 0.911108 0.205820 0.703589
Si Si5 0.242199 0.290190 0.742142
Si Si6 0.891299 0.714631 0.378196
Si Si7 0.583117 0.714619 0.372330
Si Si8 0.936331 0.216042 0.888345
O O1 0.215962 0.500000 0.451732
O O2 0.302833 0.220886 0.410633
O O3 0.152314 0.282000 0.355455
O O4 0.149165 0.222618 0.523701
O O5 0.205610 0.739921 0.844059
O O6 0.035506 0.727945 0.888136
O O7 0.119745 0.000000 0.920783
O O8 0.118782 0.728570 0.017637
O O9 0.604011 0.500000 0.575098
O O10 0.605371 0.756947 0.467160
O O11 0.514949 0.777391 0.625130
O O12 0.905798 0.279307 0.801443
O O13 0.010691 0.225455 0.654889
O O14 0.890058 0.000000 0.712079
O O15 0.245689 0.500000 0.727728
O O16 0.171363 0.223981 0.686831
O O17 0.338016 0.221446 0.701951
O O18 0.893962 0.500000 0.377118
O O19 0.581061 0.500000 0.367684
O O20 0.936853 0.000000 0.885845
#
# Coordination Sequence:
#
# PCOD9141705 Si02
#       8
#     4   4   4   4   4   4   4   4
#     4  10  19  31  45  63  88 120 152 180 210 249
#     4   9  16  30  48  62  81 113 146 177 216 268
#     4   8  13  24  43  64  85 114 149 177 206 251
#     4  11  21  32  45  62  84 116 154 187 213 248
#     4  10  17  26  43  70  95 113 137 177 220 253
#     4  10  19  30  42  61  92 123 147 174 209 250
#     4   8  13  23  42  66  89 112 142 178 211 251
#     4   8  16  30  46  61  80 110 149 184 215 254
#
# _framework density 17.570768999999999
#
# number of rings (size 3 to 8) (size 9 to 14) (size 15 to 20)
#    0.000    2.750    2.500    2.250    0.000    2.000 
#    0.000    2.500    0.000    0.750    0.000    2.625 
#    0.000    7.000    0.000    0.000    0.000    0.000 
#
# Total GULP energy -178381.160221 kJ/mol
# GULP energy per Si atom -5574.411257 kJ/mol
# Density = 1.753078 g / cm^3
# Si number density = 17.570769 Si / 1000 Ang^3
#
#
#
# Elastic Constant Matrix: (Units=GPa)
#
#
# Indices 1 2 3 4 5 6 
#
# 1 125.2673 -7.5938 79.0998 0.0000 -16.4160 0.0000
# 2 -7.5938 31.6286 -7.4983 0.0000 0.7331 0.0000
# 3 79.0998 -7.4983 120.8491 0.0000 -14.2907 0.0000
# 4 0.0000 0.0000 0.0000 15.8787 0.0000 -8.1331
# 5 -16.4160 0.7331 -14.2907 0.0000 27.2352 0.0000
# 6 0.0000 0.0000 0.0000 -8.1331 0.0000 -21.0473
#
#
#
# Elastic Compliance Matrix: (Units=1/GPa)
#
#
# Indices 1 2 3 4 5 6 
#
# 1 0.014025 0.001228 -0.008644 0.000000 0.003885 0.000000
# 2 0.001228 0.032197 0.001257 0.000000 0.000533 0.000000
# 3 -0.008644 0.001257 0.014276 0.000000 0.002247 0.000000
# 4 0.000000 0.000000 0.000000 0.052572 0.000000 -0.020315
# 5 0.003885 0.000533 0.002247 0.000000 0.040223 0.000000
# 6 0.000000 0.000000 0.000000 -0.020315 0.000000 -0.039662
#
#
# Mechanical properties :
#
#
# Convention : Reuss Voigt Hill
#
# Bulk Modulus (GPa) = 20.75535 45.08448 32.91991
# Shear Modulus (GPa) = 35.20866 18.66246 26.93556
#
# Velocity S-wave (km/s) = 4.48126 3.26257 3.91957
# Velocity P-wave (km/s) = 6.21399 6.31720 6.26581
#
# Compressibility (1/GPa) = 0.04818035
#
# Stress axis : x y z
#
# Youngs Moduli (GPa) = 71.30253 31.05833 70.04597
#
# Poissons Ratio (x) = -0.03814 0.60548
# Poissons Ratio (y) = -0.08755 -0.08805
# Poissons Ratio (z) = 0.61635 -0.03904
#
# Static dielectric constant tensor:
#      x y z
#    x 1.599720 0.000000 -0.019700 
#    y 0.000000 1.674600 0.000000 
#    z -0.019700 0.000000 1.602480 
# 
# From -- ./inp_files/66003.got.cif
#   From: 2010.05.17/outbox.cif.g08.bks.cpg/sg10_34_cif.got.tgz:66003.got - 2010.06.03 11:33:40.
