data_PCOD9141158
_publ_section_title
;
Structure prediction by ZEFSAII (Michael W. Deem and Ramdas Pophale) SiO2 
 PCOD9141158
Probable space group: C C
;
_chemical_formula_sum "Si O2"
_cell_formula_units_Z 20
_cell_length_a 4.676921
_cell_length_b 14.266752
_cell_length_c 9.657279
_cell_angle_alpha 90.000000
_cell_angle_beta 69.154796
_cell_angle_gamma 90.000000
_cell_volume 602.199299
_symmetry_space_group_name_H-M "C C"
_symmetry_group_IT_number 9
_symmetry_cell_setting 'monoclinic'
loop_
_space_group_symop_operation_xyz
x,y,z
x,-y,1/2+z
1/2+x,1/2+y,z
1/2+x,1/2-y,1/2+z
loop_
_atom_site_type_symbol
_atom_site_label
_atom_site_fract_x
_atom_site_fract_y
_atom_site_fract_z
Si Si1 0.054680 0.541247 0.083580
Si Si2 0.072594 0.753289 0.065634
Si Si3 0.052042 0.066628 0.729065
Si Si4 0.540390 0.047195 0.348395
Si Si5 0.223369 0.753013 0.382385
O O1 0.949149 0.647970 0.089344
O O2 0.855147 0.456186 0.038458
O O3 0.430692 0.741598 0.036738
O O4 0.251768 0.534437 0.896678
O O5 0.918013 0.841650 0.162057
O O6 0.719016 0.648807 0.806509
O O7 0.028500 0.771921 0.910436
O O8 0.801419 0.984045 0.665780
O O9 0.293829 0.980928 0.767504
O O10 0.636110 0.155120 0.325877
#
# Coordination Sequence:
#
# PCOD9141158 Si02
#       5
#     4   4   4   4   4
#     4  12  27  49  80 118 162 214 273 333 406 487
#     4  12  28  50  79 116 166 216 272 334 408 485
#     4  12  28  48  84 116 168 212 276 340 408 484
#     4  12  27  49  80 118 162 214 273 333 406 487
#     4  12  28  50  79 116 166 216 272 334 408 485
#
# _framework density 33.211596999999998
#
# number of rings (size 3 to 8) (size 9 to 14) (size 15 to 20)
#    0.000    0.000    6.000    2.400    5.600    3.200 
#    0.000    0.000    0.000    0.000    0.000    0.000 
#    0.000    0.000    0.000    0.000    0.000    0.000 
#
# Total GULP energy -55814.198984 kJ/mol
# GULP energy per Si atom -5581.419898 kJ/mol
# Density = 3.313601 g / cm^3
# Si number density = 33.211597 Si / 1000 Ang^3
#
#
#
# Elastic Constant Matrix: (Units=GPa)
#
#
# Indices 1 2 3 4 5 6 
#
# 1 228.5623 134.0463 57.0509 0.0000 -5.0060 0.0000
# 2 134.0463 314.9108 109.7349 0.0000 -41.9970 0.0000
# 3 57.0509 109.7349 326.6358 0.0000 27.7993 0.0000
# 4 0.0000 0.0000 0.0000 98.2691 0.0000 -29.7824
# 5 -5.0060 -41.9970 27.7993 0.0000 49.5576 0.0000
# 6 0.0000 0.0000 0.0000 -29.7824 0.0000 70.3481
#
#
#
# Elastic Compliance Matrix: (Units=1/GPa)
#
#
# Indices 1 2 3 4 5 6 
#
# 1 0.005962 -0.002795 0.000050 0.000000 -0.001794 0.000000
# 2 -0.002795 0.005810 -0.001952 0.000000 0.005737 0.000000
# 3 0.000050 -0.001952 0.004042 0.000000 -0.003917 0.000000
# 4 0.000000 0.000000 0.000000 0.011674 0.000000 0.004942
# 5 -0.001794 0.005737 -0.003917 0.000000 0.027056 0.000000
# 6 0.000000 0.000000 0.000000 0.004942 0.000000 0.016307
#
#
# Mechanical properties :
#
#
# Convention : Reuss Voigt Hill
#
# Bulk Modulus (GPa) = 155.73030 163.53033 159.63031
# Shear Modulus (GPa) = 60.69004 81.58674 71.13839
#
# Velocity S-wave (km/s) = 4.27942 4.96176 4.63317
# Velocity P-wave (km/s) = 8.45045 9.06484 8.76303
#
# Compressibility (1/GPa) = 0.00642136
#
# Stress axis : x y z
#
# Youngs Moduli (GPa) = 167.71747 172.10362 247.40780
#
# Poissons Ratio (x) = 0.48099 -0.01242
# Poissons Ratio (y) = 0.46873 0.48298
# Poissons Ratio (z) = -0.00842 0.33597
#
# Static dielectric constant tensor:
#      x y z
#    x 2.683110 0.000000 -0.176450 
#    y 0.000000 2.241670 0.000000 
#    z -0.176450 0.000000 3.001560 
# 
# From -- ./inp_files/12900.got.cif
#   From: 2010.05.17/outbox.cif.g08.bks.cpg/sg9_7_cif.got.tgz:12900.got - 2010.06.03 20:04:27.
