data_PCOD9141270
_publ_section_title
;
Structure prediction by ZEFSAII (Michael W. Deem and Ramdas Pophale) SiO2 
 PCOD9141270
Probable space group: C C
;
_chemical_formula_sum "Si O2"
_cell_formula_units_Z 16
_cell_length_a 9.000000
_cell_length_b 21.000000
_cell_length_c 15.000000
_cell_angle_alpha 90.000000
_cell_angle_beta 150.000000
_cell_angle_gamma 90.000000
_cell_volume 1417.500000
_symmetry_space_group_name_H-M "C C"
_symmetry_group_IT_number 9
_symmetry_cell_setting 'monoclinic'
loop_
_space_group_symop_operation_xyz
x,y,z
x,-y,1/2+z
1/2+x,1/2+y,z
1/2+x,1/2-y,1/2+z
loop_
_atom_site_type_symbol
_atom_site_label
_atom_site_fract_x
_atom_site_fract_y
_atom_site_fract_z
Si Si1 0.275360 0.368495 0.607130
Si Si2 0.845790 0.250592 0.025815
Si Si3 0.032313 0.174792 0.522242
Si Si4 0.015005 0.294339 0.636808
Si Si5 0.707701 0.036715 0.764256
Si Si6 0.851467 0.449518 0.261481
Si Si7 0.168409 0.983534 0.858193
Si Si8 0.846355 0.183915 0.843379
O O1 0.399791 0.309511 0.617244
O O2 0.527040 0.414642 0.772147
O O3 0.084752 0.342387 0.591209
O O4 0.083781 0.408090 0.437761
O O5 0.140286 0.289539 0.157916
O O6 0.664769 0.299258 0.995774
O O7 0.743032 0.219014 0.880658
O O8 0.133563 0.103542 0.601663
O O9 0.097944 0.224680 0.637426
O O10 0.691267 0.183685 0.316643
O O11 0.675937 0.298922 0.487852
O O12 0.538796 0.017962 0.773456
O O13 0.788074 0.109787 0.824978
O O14 0.997183 0.012077 0.857953
O O15 0.486573 0.024736 0.567229
O O16 0.696386 0.486782 0.268878
#
# Coordination Sequence:
#
# PCOD9141270 Si02
#       8
#     4   4   4   4   4   4   4   4
#     4  11  23  48  71 106 145 200 247 312 379 454
#     4  11  22  42  73 105 151 188 247 300 384 460
#     4  11  22  46  73 107 148 204 239 311 388 462
#     4  11  24  42  72 108 155 193 248 309 386 456
#     4  12  28  50  77 112 151 202 261 319 384 455
#     4  12  25  51  78 109 151 202 260 318 386 454
#     4  12  29  51  77 109 151 202 264 323 377 456
#     4  12  25  42  69 114 148 195 244 312 376 457
#
# _framework density 11.287478
#
# number of rings (size 3 to 8) (size 9 to 14) (size 15 to 20)
#    0.000    0.500    3.750    5.250    3.500    1.000 
#    2.250    0.000    0.000    0.000    0.000    0.000 
#    0.000    0.000    0.000    0.000    0.000    0.000 
#
# Total GULP energy -89096.666434 kJ/mol
# GULP energy per Si atom -5568.541652 kJ/mol
# Density = 1.126179 g / cm^3
# Si number density = 11.287478 Si / 1000 Ang^3
#
#
#
# Elastic Constant Matrix: (Units=GPa)
#
#
# Indices 1 2 3 4 5 6 
#
# 1 107.8653 45.0979 -0.9738 0.0001 -13.2451 -0.0059
# 2 45.0979 24.7179 8.2440 -0.0006 3.0465 0.0076
# 3 -0.9738 8.2440 60.8764 0.0180 1.6593 0.0178
# 4 0.0001 -0.0006 0.0180 38.6289 0.0056 -17.9448
# 5 -13.2451 3.0465 1.6593 0.0056 44.9070 0.0015
# 6 -0.0059 0.0076 0.0178 -17.9448 0.0015 31.9970
#
#
#
# Elastic Compliance Matrix: (Units=1/GPa)
#
#
# Indices 1 2 3 4 5 6 
#
# 1 0.074742 -0.146974 0.020247 0.000000 0.031267 0.000036
# 2 -0.146974 0.331703 -0.045522 0.000001 -0.064170 -0.000077
# 3 0.020247 -0.045522 0.022691 -0.000016 0.008221 -0.000007
# 4 0.000000 0.000001 -0.000016 0.035008 -0.000004 0.019633
# 5 0.031267 -0.064170 0.008221 -0.000004 0.035540 0.000012
# 6 0.000036 -0.000077 -0.000007 0.019633 0.000012 0.042264
#
#
# Mechanical properties :
#
#
# Convention : Reuss Voigt Hill
#
# Bulk Modulus (GPa) = 11.81495 33.13285 22.47390
# Shear Modulus (GPa) = 5.46653 32.51268 18.98960
#
# Velocity S-wave (km/s) = 1.55781 3.79913 2.90346
# Velocity P-wave (km/s) = 2.91216 5.82693 4.60618
#
# Compressibility (1/GPa) = 0.08463851
#
# Stress axis : x y z
#
# Youngs Moduli (GPa) = 13.37937 3.01475 44.07007
#
# Poissons Ratio (x) = 0.44309 -0.89228
# Poissons Ratio (y) = 1.96642 2.00614
# Poissons Ratio (z) = -0.27089 0.13724
#
# Static dielectric constant tensor:
#      x y z
#    x 1.925010 0.000000 0.160380 
#    y 0.000000 1.853940 0.000000 
#    z 0.160380 0.000000 2.098870 
# 
# From -- ./inp_files/23788.got.cif
#   From: 2010.05.17/outbox.ucp.g08.bks.cvg/sg9_12_cif.got.tgz:23788.got - 2010.06.11 13:03:20.
