data_PCOD9141995
_publ_section_title
;
Structure prediction by ZEFSAII (Michael W. Deem and Ramdas Pophale) SiO2 
 PCOD9141995
Probable space group: P 2/M
;
_chemical_formula_sum "Si O2"
_cell_formula_units_Z 32
_cell_length_a 26.327323
_cell_length_b 7.382223
_cell_length_c 19.417512
_cell_angle_alpha 90.000000
_cell_angle_beta 158.018866
_cell_angle_gamma 90.000000
_cell_volume 1412.566008
_symmetry_space_group_name_H-M "P 2/M"
_symmetry_group_IT_number 10
_symmetry_cell_setting 'monoclinic'
loop_
_space_group_symop_operation_xyz
x,y,z
-x,y,-z
-x,-y,-z
x,-y,z
loop_
_atom_site_type_symbol
_atom_site_label
_atom_site_fract_x
_atom_site_fract_y
_atom_site_fract_z
Si Si1 0.193932 0.789506 0.448965
Si Si2 0.911975 0.719788 0.160190
Si Si3 0.886726 0.792374 0.803071
Si Si4 0.140440 0.716860 0.758398
Si Si5 0.819569 0.717227 0.336620
Si Si6 0.614785 0.794947 0.194117
Si Si7 0.618973 0.281029 0.549976
Si Si8 0.664532 0.720151 0.765153
O O1 0.143179 0.712217 0.311160
O O2 0.321096 0.715551 0.654430
O O3 0.062870 0.781136 0.333631
O O4 0.227841 0.000000 0.478485
O O5 0.918868 0.500000 0.171957
O O6 0.840448 0.783102 0.140605
O O7 0.811033 0.778195 0.973745
O O8 0.739781 0.789807 0.654956
O O9 0.931826 0.000000 0.847717
O O10 0.000000 0.715823 0.000000
O O11 0.162390 0.500000 0.785936
O O12 0.216264 0.783009 0.785513
O O13 0.979668 0.746874 0.546093
O O14 0.798525 0.500000 0.314316
O O15 0.739011 0.802897 0.297031
O O16 0.567621 0.000000 0.151083
O O17 0.500000 0.708520 0.000000
O O18 0.625100 0.500000 0.552173
O O19 0.461336 0.224810 0.344324
O O20 0.646007 0.227719 0.662992
O O21 0.661825 0.500000 0.762543
#
# Coordination Sequence:
#
# PCOD9141995 Si02
#       8
#     4   4   4   4   4   4   4   4
#     4  10  21  36  52  72 101 132 167 213 254 292
#     4  10  17  30  53  77  99 128 167 205 249 303
#     4  10  21  36  53  75 104 137 169 207 256 298
#     4   8  15  27  48  74 100 122 147 198 257 295
#     4   9  16  31  51  73  98 125 159 202 251 298
#     4  10  21  37  53  69  96 137 175 207 249 297
#     4   9  17  33  52  73 103 135 168 203 243 298
#     4   8  16  30  51  76 103 133 161 200 253 299
#
# _framework density 22.653808000000001
#
# number of rings (size 3 to 8) (size 9 to 14) (size 15 to 20)
#    0.000    2.750    1.250    2.250    0.000    1.000 
#    2.250    3.750    0.000    0.000    0.000    0.000 
#    0.000    0.000    0.000    0.000    0.000    0.000 
#
# Total GULP energy -178210.098955 kJ/mol
# GULP energy per Si atom -5569.065592 kJ/mol
# Density = 2.260225 g / cm^3
# Si number density = 22.653808 Si / 1000 Ang^3
#
#
#
# Elastic Constant Matrix: (Units=GPa)
#
#
# Indices 1 2 3 4 5 6 
#
# 1 106.5472 -1.1301 34.7528 0.0000 -19.2754 0.0000
# 2 -1.1301 73.3496 5.5597 0.0000 -5.9984 0.0000
# 3 34.7528 5.5597 116.0229 0.0000 -29.7528 0.0000
# 4 0.0000 0.0000 0.0000 9.5664 0.0000 1.2210
# 5 -19.2754 -5.9984 -29.7528 0.0000 38.5552 0.0000
# 6 0.0000 0.0000 0.0000 1.2210 0.0000 34.9576
#
#
#
# Elastic Compliance Matrix: (Units=1/GPa)
#
#
# Indices 1 2 3 4 5 6 
#
# 1 0.010822 0.000647 -0.002318 0.000000 0.003722 0.000000
# 2 0.000647 0.013849 -0.000277 0.000000 0.002265 0.000000
# 3 -0.002318 -0.000277 0.011243 0.000000 0.007475 0.000000
# 4 0.000000 0.000000 0.000000 0.105001 0.000000 -0.003668
# 5 0.003722 0.002265 0.007475 0.000000 0.033918 0.000000
# 6 0.000000 0.000000 0.000000 -0.003668 0.000000 0.028734
#
#
# Mechanical properties :
#
#
# Convention : Reuss Voigt Hill
#
# Bulk Modulus (GPa) = 31.23153 41.58716 36.40934
# Shear Modulus (GPa) = 22.92142 33.73165 28.32654
#
# Velocity S-wave (km/s) = 3.18435 3.86295 3.53995
# Velocity P-wave (km/s) = 5.22843 6.18822 5.72846
#
# Compressibility (1/GPa) = 0.03201892
#
# Stress axis : x y z
#
# Youngs Moduli (GPa) = 92.40599 72.20497 88.94165
#
# Poissons Ratio (x) = -0.04670 0.20617
# Poissons Ratio (y) = -0.05977 0.02461
# Poissons Ratio (z) = 0.21420 0.01998
#
# Static dielectric constant tensor:
#      x y z
#    x 1.869060 0.000000 -0.060980 
#    y 0.000000 1.896740 0.000000 
#    z -0.060980 0.000000 1.851840 
# 
# From -- ./inp_files/87010.got.cif
#   From: 2010.05.17/outbox.cif.g08.bks.cpg/sg10_44_cif.got.tgz:87010.got - 2010.06.03 11:33:40.
