data_PCOD9141383
_publ_section_title
;
Structure prediction by ZEFSAII (Michael W. Deem and Ramdas Pophale) SiO2 
 PCOD9141383
Probable space group: P 2/M
;
_chemical_formula_sum "Si O2"
_cell_formula_units_Z 32
_cell_length_a 11.051250
_cell_length_b 14.733858
_cell_length_c 8.926759
_cell_angle_alpha 90.000000
_cell_angle_beta 90.327958
_cell_angle_gamma 90.000000
_cell_volume 1453.498470
_symmetry_space_group_name_H-M "P 2/M"
_symmetry_group_IT_number 10
_symmetry_cell_setting 'monoclinic'
loop_
_space_group_symop_operation_xyz
x,y,z
-x,y,-z
-x,-y,-z
x,-y,z
loop_
_atom_site_type_symbol
_atom_site_label
_atom_site_fract_x
_atom_site_fract_y
_atom_site_fract_z
Si Si1 0.300787 0.102934 0.537553
Si Si2 0.024078 0.394342 0.244604
Si Si3 0.198045 0.606487 0.949998
Si Si4 0.819317 0.252079 0.633894
Si Si5 0.667827 0.242962 0.912274
Si Si6 0.140200 0.895723 0.946641
Si Si7 0.478028 0.100472 0.246039
Si Si8 0.996441 0.100638 0.678605
O O1 0.228018 0.196358 0.508305
O O2 0.383436 0.101250 0.385293
O O3 0.391240 0.109140 0.677179
O O4 0.243899 0.000000 0.538763
O O5 0.016104 0.500000 0.283088
O O6 0.111473 0.386791 0.097657
O O7 0.090407 0.336405 0.372611
O O8 0.891462 0.363498 0.186068
O O9 0.226682 0.500000 0.930455
O O10 0.314318 0.669491 0.981564
O O11 0.713411 0.275843 0.748005
O O12 0.900431 0.176231 0.718475
O O13 0.553769 0.182563 0.863293
O O14 0.763063 0.172142 0.986140
O O15 0.120669 0.884991 0.767627
O O16 0.175070 0.000000 0.976181
O O17 0.000000 0.882679 0.000000
O O18 0.468003 0.000000 0.176922
O O19 0.000000 0.103702 0.500000
O O20 0.954634 0.000000 0.721859
#
# Coordination Sequence:
#
# PCOD9141383 Si02
#       8
#     4   4   4   4   4   4   4   4
#     4   8  14  23  35  52  76 103 132 164 200 245
#     4   8  14  23  35  53  76 100 130 167 201 238
#     4   8  14  22  32  50  78 106 129 158 200 248
#     4  10  16  24  41  58  74 103 138 166 198 241
#     4  10  16  22  40  60  78 100 132 171 207 236
#     4  10  18  26  38  59  83 105 133 166 198 237
#     4   8  14  23  33  52  80 103 125 164 212 243
#     4  10  20  30  38  55  86 115 135 159 198 249
#
# _framework density 22.015846
#
# number of rings (size 3 to 8) (size 9 to 14) (size 15 to 20)
#    0.000    3.000    1.250    3.000    1.750    1.000 
#    0.000    0.000    0.000    1.125    0.000    6.125 
#    0.000    5.000    0.000    0.000    0.000    8.250 
#
# Total GULP energy -178404.928806 kJ/mol
# GULP energy per Si atom -5575.154025 kJ/mol
# Density = 2.196574 g / cm^3
# Si number density = 22.015846 Si / 1000 Ang^3
#
#
#
# Elastic Constant Matrix: (Units=GPa)
#
#
# Indices 1 2 3 4 5 6 
#
# 1 26.5968 22.4125 29.9851 0.0000 11.3279 0.0000
# 2 22.4125 108.8763 44.4774 0.0000 29.2128 0.0000
# 3 29.9851 44.4774 94.2486 0.0000 17.9834 0.0000
# 4 0.0000 0.0000 0.0000 64.6337 0.0000 -11.6067
# 5 11.3279 29.2128 17.9834 0.0000 37.6587 0.0000
# 6 0.0000 0.0000 0.0000 -11.6067 0.0000 42.7419
#
#
#
# Elastic Compliance Matrix: (Units=1/GPa)
#
#
# Indices 1 2 3 4 5 6 
#
# 1 0.063194 -0.004083 -0.016675 0.000000 -0.007879 0.000000
# 2 -0.004083 0.013538 -0.003653 0.000000 -0.007529 0.000000
# 3 -0.016675 -0.003653 0.017760 0.000000 -0.000631 0.000000
# 4 0.000000 0.000000 0.000000 0.016265 0.000000 0.004417
# 5 -0.007879 -0.007529 -0.000631 0.000000 0.035066 0.000000
# 6 0.000000 0.000000 0.000000 0.004417 0.000000 0.024596
#
#
# Mechanical properties :
#
#
# Convention : Reuss Voigt Hill
#
# Bulk Modulus (GPa) = 21.89633 47.05241 34.47437
# Shear Modulus (GPa) = 21.32529 37.86331 29.59430
#
# Velocity S-wave (km/s) = 3.11566 4.15157 3.67035
# Velocity P-wave (km/s) = 4.78649 6.66327 5.80128
#
# Compressibility (1/GPa) = 0.04566976
#
# Stress axis : x y z
#
# Youngs Moduli (GPa) = 15.82424 73.86828 56.30685
#
# Poissons Ratio (x) = 0.30158 0.93892
# Poissons Ratio (y) = 0.06461 0.20570
# Poissons Ratio (z) = 0.26387 0.26985
#
# Static dielectric constant tensor:
#      x y z
#    x 1.907270 0.000000 -0.049910 
#    y 0.000000 1.797820 0.000000 
#    z -0.049910 0.000000 1.866720 
# 
# From -- ./inp_files/37696.got.cif
#   From: 2010.05.17/outbox.cif.g08.bks.cpg/sg10_19_cif.got.tgz:37696.got - 2010.06.03 11:33:40.
