data_PCOD9141420
_publ_section_title
;
Structure prediction by ZEFSAII (Michael W. Deem and Ramdas Pophale) SiO2 
 PCOD9141420
Probable space group: P 2/M
;
_chemical_formula_sum "Si O2"
_cell_formula_units_Z 28
_cell_length_a 5.438683
_cell_length_b 32.091863
_cell_length_c 7.705079
_cell_angle_alpha 90.000000
_cell_angle_beta 120.444367
_cell_angle_gamma 90.000000
_cell_volume 1159.402625
_symmetry_space_group_name_H-M "P 2/M"
_symmetry_group_IT_number 10
_symmetry_cell_setting 'monoclinic'
loop_
_space_group_symop_operation_xyz
x,y,z
-x,y,-z
-x,-y,-z
x,-y,z
loop_
_atom_site_type_symbol
_atom_site_label
_atom_site_fract_x
_atom_site_fract_y
_atom_site_fract_z
Si Si1 0.100771 0.670362 0.292108
Si Si2 0.427361 0.636085 0.745452
Si Si3 0.670404 0.188924 0.244831
Si Si4 0.654380 0.546154 0.366487
Si Si5 0.168693 0.764853 0.244865
Si Si6 0.171951 0.047726 0.245373
Si Si7 0.328414 0.906314 0.754595
O O1 0.251960 0.645781 0.504265
O O2 0.268512 0.654941 0.185560
O O3 0.158745 0.719322 0.325960
O O4 0.771182 0.659126 0.188734
O O5 0.440071 0.586639 0.772969
O O6 0.478541 0.217729 0.301726
O O7 0.678548 0.141335 0.309836
O O8 0.981686 0.205184 0.300818
O O9 0.500000 0.188883 0.000000
O O10 0.500000 0.549447 0.500000
O O11 0.581121 0.500000 0.271458
O O12 0.000000 0.548218 0.500000
O O13 0.000000 0.761204 0.000000
O O14 0.480391 0.065670 0.304325
O O15 0.980017 0.075673 0.304250
O O16 0.182751 0.000000 0.309540
O O17 0.000000 0.047651 0.000000
O O18 0.500000 0.906085 0.000000
#
# Coordination Sequence:
#
# PCOD9141420 Si02
#       7
#     4   4   4   4   4   4   4
#     4  10  18  28  44  59  84 111 134 170 206 247
#     4  10  17  30  43  65  88 110 136 161 201 249
#     4   9  17  28  40  53  72  98 135 177 211 239
#     4  10  16  25  41  63  91 112 131 161 199 243
#     4  10  19  30  42  59  79 104 140 181 214 236
#     4   9  15  21  30  46  66  87 116 155 198 241
#     4   9  15  23  34  46  63  91 121 158 203 235
#
# _framework density 24.150369000000001
#
# number of rings (size 3 to 8) (size 9 to 14) (size 15 to 20)
#    0.000    2.429    2.857    2.143    0.000    5.143 
#    0.000    0.000    0.000    0.000    0.000    0.000 
#    0.000    6.286    0.000    0.000    0.000    0.000 
#
# Total GULP energy -156689.474837 kJ/mol
# GULP energy per Si atom -5596.052673 kJ/mol
# Density = 2.409540 g / cm^3
# Si number density = 24.150369 Si / 1000 Ang^3
#
#
#
# Elastic Constant Matrix: (Units=GPa)
#
#
# Indices 1 2 3 4 5 6 
#
# 1 242.3769 87.6991 22.5070 0.0000 1.7409 0.0000
# 2 87.6991 214.7705 -7.5090 0.0000 -9.6199 0.0000
# 3 22.5070 -7.5090 76.4187 0.0000 -7.5114 0.0000
# 4 0.0000 0.0000 0.0000 411.9171 0.0000 -54.6504
# 5 1.7409 -9.6199 -7.5114 0.0000 45.4334 0.0000
# 6 0.0000 0.0000 0.0000 -54.6504 0.0000 54.7007
#
#
#
# Elastic Compliance Matrix: (Units=1/GPa)
#
#
# Indices 1 2 3 4 5 6 
#
# 1 0.005091 -0.002185 -0.001808 0.000000 -0.000957 0.000000
# 2 -0.002185 0.005663 0.001348 0.000000 0.001506 0.000000
# 3 -0.001808 0.001348 0.014013 0.000000 0.002672 0.000000
# 4 0.000000 0.000000 0.000000 0.002799 0.000000 0.002796
# 5 -0.000957 0.001506 0.002672 0.000000 0.022807 0.000000
# 6 0.000000 0.000000 0.000000 0.002796 0.000000 0.021075
#
#
# Mechanical properties :
#
#
# Convention : Reuss Voigt Hill
#
# Bulk Modulus (GPa) = 51.34251 82.10672 66.72462
# Shear Modulus (GPa) = 60.07367 131.13483 95.60425
#
# Velocity S-wave (km/s) = 4.99288 7.37680 6.29865
# Velocity P-wave (km/s) = 7.38540 10.32609 8.97698
#
# Compressibility (1/GPa) = 0.01947704
#
# Stress axis : x y z
#
# Youngs Moduli (GPa) = 196.41797 176.58728 71.36027
#
# Poissons Ratio (x) = 0.38584 0.12903
# Poissons Ratio (y) = 0.42917 -0.09619
# Poissons Ratio (z) = 0.35516 -0.23803
#
# Static dielectric constant tensor:
#      x y z
#    x 1.864010 0.000000 0.062840 
#    y 0.000000 1.835270 0.000000 
#    z 0.062840 0.000000 1.810740 
# 
# From -- ./inp_files/15839.got.cif
#   From: 2010.05.17/outbox.cif.g08.bks.cpg/sg10_8_cif.got.tgz:15839.got - 2010.06.03 11:33:40.
