data_PCOD9141442
_publ_section_title
;
Structure prediction by ZEFSAII (Michael W. Deem and Ramdas Pophale) SiO2 
 PCOD9141442
Probable space group: P 2/M
;
_chemical_formula_sum "Si O2"
_cell_formula_units_Z 19
_cell_length_a 7.788830
_cell_length_b 21.670596
_cell_length_c 6.755240
_cell_angle_alpha 90.000000
_cell_angle_beta 40.541212
_cell_angle_gamma 90.000000
_cell_volume 741.128929
_symmetry_space_group_name_H-M "P 2/M"
_symmetry_group_IT_number 10
_symmetry_cell_setting 'monoclinic'
loop_
_space_group_symop_operation_xyz
x,y,z
-x,y,-z
-x,-y,-z
x,-y,z
loop_
_atom_site_type_symbol
_atom_site_label
_atom_site_fract_x
_atom_site_fract_y
_atom_site_fract_z
Si Si1 0.500000 0.000000 0.500000
Si Si2 0.561802 0.117599 0.180590
Si Si3 0.115717 0.627177 0.125653
Si Si4 0.719111 0.500000 0.135442
Si Si5 0.387208 0.679413 0.391626
Si Si6 0.065980 0.803944 0.672777
O O1 0.611580 0.054239 0.249643
O O2 0.286845 0.144086 0.500887
O O3 0.500000 0.107773 0.000000
O O4 0.794040 0.169004 0.999560
O O5 0.269648 0.562681 0.000440
O O6 0.335837 0.680769 0.969438
O O7 0.000000 0.632451 0.000000
O O8 0.840092 0.633782 0.483487
O O9 0.500000 0.500000 0.500000
O O10 0.000000 0.500000 0.000000
O O11 0.500000 0.655246 0.500000
O O12 0.223321 0.741274 0.584606
O O13 0.000000 0.796140 0.500000
#
# Coordination Sequence:
#
# PCOD9141442 Si02
#       6
#     1   4   4   2   4   4
#     4  12  26  46  72 100 128 166 212 242 322 360
#     4  10  24  44  67  95 129 163 208 257 304 371
#     4   9  17  28  45  77 111 152 194 247 307 359
#     4  10  16  26  44  66 111 156 193 236 309 376
#     4  10  19  32  53  82 116 147 198 256 301 358
#     4  10  22  42  63  88 124 165 201 250 311 366
#
# _framework density 25.636565000000001
#
# number of rings (size 3 to 8) (size 9 to 14) (size 15 to 20)
#    0.000    2.105    0.000    4.737    1.474    2.526 
#    0.000    3.158    0.000    0.000    0.000    4.421 
#    0.000    0.000    0.000    0.000    0.000    0.000 
#
# Total GULP energy -105832.717798 kJ/mol
# GULP energy per Si atom -5570.143042 kJ/mol
# Density = 2.557822 g / cm^3
# Si number density = 25.636565 Si / 1000 Ang^3
#
#
#
# Elastic Constant Matrix: (Units=GPa)
#
#
# Indices 1 2 3 4 5 6 
#
# 1 91.7399 32.5309 47.8851 0.0000 -23.0469 0.0000
# 2 32.5309 171.9399 47.8301 0.0000 -15.5088 0.0000
# 3 47.8851 47.8301 184.7248 0.0000 -26.8900 0.0000
# 4 0.0000 0.0000 0.0000 0.1833 0.0000 27.1250
# 5 -23.0469 -15.5088 -26.8900 0.0000 49.5589 0.0000
# 6 0.0000 0.0000 0.0000 27.1250 0.0000 4.3901
#
#
#
# Elastic Compliance Matrix: (Units=1/GPa)
#
#
# Indices 1 2 3 4 5 6 
#
# 1 0.013926 -0.001510 -0.002546 0.000000 0.004622 0.000000
# 2 -0.001510 0.006495 -0.001191 0.000000 0.000684 0.000000
# 3 -0.002546 -0.001191 0.006683 0.000000 0.002069 0.000000
# 4 0.000000 0.000000 0.000000 -0.005973 0.000000 0.036907
# 5 0.004622 0.000684 0.002069 0.000000 0.023665 0.000000
# 6 0.000000 0.000000 0.000000 0.036907 0.000000 -0.000249
#
#
# Mechanical properties :
#
#
# Convention : Reuss Voigt Hill
#
# Bulk Modulus (GPa) = 60.20260 78.32185 69.26223
# Shear Modulus (GPa) = 82.54215 32.17036 57.35625
#
# Velocity S-wave (km/s) = 5.68040 3.54625 4.73512
# Velocity P-wave (km/s) = 8.15823 6.88367 7.54790
#
# Compressibility (1/GPa) = 0.01661058
#
# Stress axis : x y z
#
# Youngs Moduli (GPa) = 71.80868 153.97556 149.63250
#
# Poissons Ratio (x) = 0.23243 0.38100
# Poissons Ratio (y) = 0.10840 0.17816
# Poissons Ratio (z) = 0.18284 0.18334
#
# Static dielectric constant tensor:
#      x y z
#    x 2.083970 0.000000 0.104580 
#    y 0.000000 2.082150 0.000000 
#    z 0.104580 0.000000 2.147580 
# 
# From -- ./inp_files/20621.got.cif
#   From: 2010.05.17/outbox.cif.g08.bks.cpg/sg10_11_cif.got.tgz:20621.got - 2010.06.03 11:33:40.
