data_PCOD9141379
_publ_section_title
;
Structure prediction by ZEFSAII (Michael W. Deem and Ramdas Pophale) SiO2 
 PCOD9141379
Probable space group: P 2/M
;
_chemical_formula_sum "Si O2"
_cell_formula_units_Z 24
_cell_length_a 12.743355
_cell_length_b 22.616205
_cell_length_c 14.652057
_cell_angle_alpha 90.000000
_cell_angle_beta 159.919729
_cell_angle_gamma 90.000000
_cell_volume 1449.845914
_symmetry_space_group_name_H-M "P 2/M"
_symmetry_group_IT_number 10
_symmetry_cell_setting 'monoclinic'
loop_
_space_group_symop_operation_xyz
x,y,z
-x,y,-z
-x,-y,-z
x,-y,z
loop_
_atom_site_type_symbol
_atom_site_label
_atom_site_fract_x
_atom_site_fract_y
_atom_site_fract_z
Si Si1 0.135116 0.623419 0.006708
Si Si2 0.650134 0.930982 0.222265
Si Si3 0.134761 0.000000 0.210817
Si Si4 0.438745 0.817892 0.557876
Si Si5 0.829982 0.880508 0.031628
Si Si6 0.130807 0.500000 0.208537
Si Si7 0.363393 0.681272 0.489884
O O1 0.488009 0.636354 0.316262
O O2 0.000000 0.629547 0.000000
O O3 0.011092 0.560575 0.868874
O O4 0.991939 0.671340 0.821313
O O5 0.446218 0.894434 0.125756
O O6 0.000000 0.911068 0.500000
O O7 0.653963 0.000000 0.256050
O O8 0.500000 0.928999 0.000000
O O9 0.500000 0.000000 0.500000
O O10 0.000000 0.000000 0.000000
O O11 0.006392 0.941647 0.154658
O O12 0.500000 0.828025 0.500000
O O13 0.680257 0.852398 0.818152
O O14 0.456191 0.747795 0.589539
O O15 0.091491 0.839249 0.288212
O O16 0.500000 0.500000 0.500000
O O17 0.000000 0.500000 0.000000
O O18 0.500000 0.669142 0.500000
#
# Coordination Sequence:
#
# PCOD9141379 Si02
#       7
#     4   4   2   4   4   2   4
#     4   9  15  24  37  53  77 106 148 193 238 267
#     4  10  21  38  58  76  94 115 148 192 242 293
#     4  12  24  36  50  70  98 124 148 182 233 284
#     4  11  22  34  50  69  98 128 162 194 229 279
#     4  12  22  37  53  74  94 123 154 194 239 289
#     4  10  16  22  34  54  76 102 142 200 250 272
#     4   9  17  28  40  56  79 117 152 188 224 264
#
# _framework density 16.553483
#
# number of rings (size 3 to 8) (size 9 to 14) (size 15 to 20)
#    0.000    1.667    0.833    7.500    0.000    2.667 
#    0.000    0.000    0.000    0.000    0.000    0.000 
#    0.000    0.000    0.000    0.000    0.000    0.000 
#
# Total GULP energy -133747.918886 kJ/mol
# GULP energy per Si atom -5572.829954 kJ/mol
# Density = 1.651581 g / cm^3
# Si number density = 16.553483 Si / 1000 Ang^3
#
#
#
# Elastic Constant Matrix: (Units=GPa)
#
#
# Indices 1 2 3 4 5 6 
#
# 1 28.1936 15.7877 21.5690 0.0000 5.8486 0.0000
# 2 15.7877 69.7542 40.6704 0.0000 -9.3284 0.0000
# 3 21.5690 40.6704 136.6480 0.0000 -8.4537 0.0000
# 4 0.0000 0.0000 0.0000 26.8291 0.0000 -5.3769
# 5 5.8486 -9.3284 -8.4537 0.0000 24.1014 0.0000
# 6 0.0000 0.0000 0.0000 -5.3769 0.0000 4.0486
#
#
#
# Elastic Compliance Matrix: (Units=1/GPa)
#
#
# Indices 1 2 3 4 5 6 
#
# 1 0.049385 -0.010150 -0.005886 0.000000 -0.017977 0.000000
# 2 -0.010150 0.020045 -0.003814 0.000000 0.008884 0.000000
# 3 -0.005886 -0.003814 0.009588 0.000000 0.003315 0.000000
# 4 0.000000 0.000000 0.000000 0.050792 0.000000 0.067456
# 5 -0.017977 0.008884 0.003315 0.000000 0.050455 0.000000
# 6 0.000000 0.000000 0.000000 0.067456 0.000000 0.336586
#
#
# Mechanical properties :
#
#
# Convention : Reuss Voigt Hill
#
# Bulk Modulus (GPa) = 25.43421 43.40556 34.41988
# Shear Modulus (GPa) = 8.77719 21.43372 15.10546
#
# Velocity S-wave (km/s) = 2.30518 3.60226 3.02408
# Velocity P-wave (km/s) = 4.74166 6.60152 5.74732
#
# Compressibility (1/GPa) = 0.03931713
#
# Stress axis : x y z
#
# Youngs Moduli (GPa) = 20.24895 49.88702 104.30149
#
# Poissons Ratio (x) = 0.50633 0.61397
# Poissons Ratio (y) = 0.20552 0.39785
# Poissons Ratio (z) = 0.11920 0.19029
#
# Static dielectric constant tensor:
#      x y z
#    x 1.509370 0.000000 -0.001340 
#    y 0.000000 1.644960 0.000000 
#    z -0.001340 0.000000 1.590360 
# 
# From -- ./inp_files/65494.got.cif
#   From: 2010.05.17/outbox.cif.g08.bks.cpg/sg10_33_cif.got.tgz:65494.got - 2010.06.03 11:33:40.
