data_PCOD9141159
_publ_section_title
;
Structure prediction by ZEFSAII (Michael W. Deem and Ramdas Pophale) SiO2 
 PCOD9141159
Probable space group: C C
;
_chemical_formula_sum "Si O2"
_cell_formula_units_Z 16
_cell_length_a 23.381736
_cell_length_b 4.577320
_cell_length_c 8.293137
_cell_angle_alpha 90.000000
_cell_angle_beta 140.356329
_cell_angle_gamma 90.000000
_cell_volume 566.285050
_symmetry_space_group_name_H-M "C C"
_symmetry_group_IT_number 9
_symmetry_cell_setting 'monoclinic'
loop_
_space_group_symop_operation_xyz
x,y,z
x,-y,1/2+z
1/2+x,1/2+y,z
1/2+x,1/2-y,1/2+z
loop_
_atom_site_type_symbol
_atom_site_label
_atom_site_fract_x
_atom_site_fract_y
_atom_site_fract_z
Si Si1 0.477130 0.945093 0.150350
Si Si2 0.230078 0.840951 0.349638
Si Si3 0.804391 0.176526 0.184815
Si Si4 0.537611 0.559238 0.977227
O O1 0.468486 0.694029 0.269654
O O2 0.548411 0.188745 0.364762
O O3 0.506029 0.748579 0.061086
O O4 0.393306 0.160642 0.939208
O O5 0.234849 0.729245 0.178987
O O6 0.294809 0.654573 0.607614
O O7 0.271001 0.160968 0.452476
O O8 0.129431 0.881175 0.192894
#
# Coordination Sequence:
#
# PCOD9141159 Si02
#       4
#     4   4   4   4
#     4  12  27  50  78 116 160 210 263 326 397 474
#     4  12  27  50  77 112 156 208 261 322 392 470
#     4  12  27  50  77 112 156 208 261 322 392 470
#     4  12  27  50  78 116 160 210 263 326 397 474
#
# _framework density 28.254321999999998
#
# number of rings (size 3 to 8) (size 9 to 14) (size 15 to 20)
#    0.000    0.000    0.000    9.000    0.000    8.000 
#    0.000    0.000    0.000    0.000    0.000    0.000 
#    0.000    0.000    0.000    0.000    0.000    0.000 
#
# Total GULP energy -44836.656018 kJ/mol
# GULP energy per Si atom -5604.582002 kJ/mol
# Density = 2.819001 g / cm^3
# Si number density = 28.254322 Si / 1000 Ang^3
#
#
#
# Elastic Constant Matrix: (Units=GPa)
#
#
# Indices 1 2 3 4 5 6 
#
# 1 138.4405 48.9348 40.1120 0.0001 -2.5484 0.0000
# 2 48.9348 179.4731 61.2983 -0.0001 0.8199 0.0003
# 3 40.1120 61.2983 103.0673 0.0001 18.1267 0.0001
# 4 0.0001 -0.0001 0.0001 62.3454 0.0000 -5.4615
# 5 -2.5484 0.8199 18.1267 0.0000 43.2860 0.0000
# 6 0.0000 0.0003 0.0001 -5.4615 0.0000 44.7024
#
#
#
# Elastic Compliance Matrix: (Units=1/GPa)
#
#
# Indices 1 2 3 4 5 6 
#
# 1 0.008557 -0.001382 -0.002808 0.000000 0.001706 0.000000
# 2 -0.001382 0.007338 -0.004089 0.000000 0.001492 0.000000
# 3 -0.002808 -0.004089 0.014296 0.000000 -0.006074 0.000000
# 4 0.000000 0.000000 0.000000 0.016213 0.000000 0.001981
# 5 0.001706 0.001492 -0.006074 0.000000 0.025718 0.000000
# 6 0.000000 0.000000 0.000000 0.001981 0.000000 0.022612
#
#
# Mechanical properties :
#
#
# Convention : Reuss Voigt Hill
#
# Bulk Modulus (GPa) = 73.35470 80.18566 76.77018
# Shear Modulus (GPa) = 43.16404 48.10913 45.63659
#
# Velocity S-wave (km/s) = 3.91282 4.13088 4.02332
# Velocity P-wave (km/s) = 6.81412 7.15498 6.98663
#
# Compressibility (1/GPa) = 0.01363239
#
# Stress axis : x y z
#
# Youngs Moduli (GPa) = 116.86556 136.26949 69.95101
#
# Poissons Ratio (x) = 0.18828 0.19646
# Poissons Ratio (y) = 0.16147 0.28604
# Poissons Ratio (z) = 0.32822 0.55722
#
# Static dielectric constant tensor:
#      x y z
#    x 2.180940 0.000000 0.018400 
#    y 0.000000 2.052000 0.000000 
#    z 0.018400 0.000000 2.298030 
# 
# From -- ./inp_files/11896.got.cif
#   From: 2010.05.17/outbox.cif.g08.bks.cpg/sg9_6_cif.got.tgz:11896.got - 2010.06.03 20:04:27.
