data_PCOD9141497
_publ_section_title
;
Structure prediction by ZEFSAII (Michael W. Deem and Ramdas Pophale) SiO2 
 PCOD9141497
Probable space group: P 2/M
;
_chemical_formula_sum "Si O2"
_cell_formula_units_Z 30
_cell_length_a 29.472412
_cell_length_b 9.131913
_cell_length_c 17.067071
_cell_angle_alpha 90.000000
_cell_angle_beta 22.061734
_cell_angle_gamma 90.000000
_cell_volume 1725.314393
_symmetry_space_group_name_H-M "P 2/M"
_symmetry_group_IT_number 10
_symmetry_cell_setting 'monoclinic'
loop_
_space_group_symop_operation_xyz
x,y,z
-x,y,-z
-x,-y,-z
x,-y,z
loop_
_atom_site_type_symbol
_atom_site_label
_atom_site_fract_x
_atom_site_fract_y
_atom_site_fract_z
Si Si1 0.886311 0.323614 0.911665
Si Si2 0.267784 0.834336 0.967622
Si Si3 0.561739 0.677868 0.697929
Si Si4 0.370295 0.677336 0.240603
Si Si5 0.500000 0.248493 0.500000
Si Si6 0.837206 0.677583 0.547891
Si Si7 0.304956 0.175885 0.089660
Si Si8 0.322726 0.331825 0.647230
O O1 0.879288 0.500000 0.923826
O O2 0.025990 0.282845 0.693387
O O3 0.824478 0.267541 0.931219
O O4 0.798892 0.265881 0.120990
O O5 0.395819 0.831727 0.716530
O O6 0.221262 0.000000 0.041087
O O7 0.286436 0.789303 0.027517
O O8 0.546536 0.500000 0.719163
O O9 0.635825 0.714328 0.657827
O O10 0.623838 0.731778 0.518255
O O11 0.430848 0.750807 0.913557
O O12 0.372113 0.500000 0.233294
O O13 0.259266 0.724102 0.364078
O O14 0.500000 0.728762 0.000000
O O15 0.422693 0.329836 0.556490
O O16 0.830688 0.500000 0.566805
O O17 0.797330 0.754291 0.692006
O O18 0.309248 0.000000 0.091034
O O19 0.295158 0.500000 0.671993
#
# Coordination Sequence:
#
# PCOD9141497 Si02
#       8
#     4   4   4   4   2   4   4   4
#     4   9  20  36  53  74 103 137 176 212 247 299
#     4  10  21  34  50  74 105 138 172 208 254 304
#     4  10  18  32  53  78 105 136 168 205 258 310
#     4   9  16  29  53  79 101 128 170 213 253 303
#     4  10  16  30  50  74 103 136 175 204 251 296
#     4  10  20  37  56  74 100 138 175 210 254 307
#     4  11  22  34  50  78 108 133 166 214 260 300
#     4   9  17  29  49  78 107 133 167 213 255 293
#
# _framework density 17.388134000000001
#
# number of rings (size 3 to 8) (size 9 to 14) (size 15 to 20)
#    0.000    2.267    2.667    0.800    0.000    2.667 
#    0.000    4.667    0.000    4.000    0.000    0.000 
#    0.000    4.533    0.000    0.000    0.000    0.000 
#
# Total GULP energy -167107.233120 kJ/mol
# GULP energy per Si atom -5570.241104 kJ/mol
# Density = 1.734856 g / cm^3
# Si number density = 17.388134 Si / 1000 Ang^3
#
#
#
# Elastic Constant Matrix: (Units=GPa)
#
#
# Indices 1 2 3 4 5 6 
#
# 1 99.1492 13.6132 58.4360 0.0000 7.7744 0.0000
# 2 13.6132 15.6697 19.6242 0.0000 -0.6790 0.0000
# 3 58.4360 19.6242 127.3759 0.0000 -4.4802 0.0000
# 4 0.0000 0.0000 0.0000 6.3040 0.0000 5.3956
# 5 7.7744 -0.6790 -4.4802 0.0000 27.8785 0.0000
# 6 0.0000 0.0000 0.0000 5.3956 0.0000 5.3388
#
#
#
# Elastic Compliance Matrix: (Units=1/GPa)
#
#
# Indices 1 2 3 4 5 6 
#
# 1 0.014886 -0.005422 -0.006179 0.000000 -0.005276 0.000000
# 2 -0.005422 0.081049 -0.009933 0.000000 0.001890 0.000000
# 3 -0.006179 -0.009933 0.012338 0.000000 0.003464 0.000000
# 4 0.000000 0.000000 0.000000 1.175251 0.000000 -1.187766
# 5 -0.005276 0.001890 0.003464 0.000000 0.037944 0.000000
# 6 0.000000 0.000000 0.000000 -1.187766 0.000000 1.387724
#
#
# Mechanical properties :
#
#
# Convention : Reuss Voigt Hill
#
# Bulk Modulus (GPa) = 15.33642 47.28242 31.30942
# Shear Modulus (GPa) = 1.80245 17.93900 9.87073
#
# Velocity S-wave (km/s) = 1.01924 3.21546 2.38517
# Velocity P-wave (km/s) = 3.19755 6.40601 5.06267
#
# Compressibility (1/GPa) = 0.06520425
#
# Stress axis : x y z
#
# Youngs Moduli (GPa) = 67.17721 12.33817 81.05113
#
# Poissons Ratio (x) = 0.06690 0.50085
# Poissons Ratio (y) = 0.36424 0.80508
# Poissons Ratio (z) = 0.41512 0.12255
#
# Static dielectric constant tensor:
#      x y z
#    x 1.593990 0.000000 0.021840 
#    y 0.000000 1.591350 0.000000 
#    z 0.021840 0.000000 1.598440 
# 
# From -- ./inp_files/80718.got.cif
#   From: 2010.05.17/outbox.cif.g08.bks.cpg/sg10_41_cif.got.tgz:80718.got - 2010.06.03 11:33:40.
