data_PCOD9141909
_publ_section_title
;
Structure prediction by ZEFSAII (Michael W. Deem and Ramdas Pophale) SiO2 
 PCOD9141909
Probable space group: P 2/M
;
_chemical_formula_sum "Si O2"
_cell_formula_units_Z 30
_cell_length_a 21.873647
_cell_length_b 20.664972
_cell_length_c 19.019532
_cell_angle_alpha 90.000000
_cell_angle_beta 168.264300
_cell_angle_gamma 90.000000
_cell_volume 1748.643299
_symmetry_space_group_name_H-M "P 2/M"
_symmetry_group_IT_number 10
_symmetry_cell_setting 'monoclinic'
loop_
_space_group_symop_operation_xyz
x,y,z
-x,y,-z
-x,-y,-z
x,-y,z
loop_
_atom_site_type_symbol
_atom_site_label
_atom_site_fract_x
_atom_site_fract_y
_atom_site_fract_z
Si Si1 0.032471 0.696021 0.953532
Si Si2 0.419491 0.365011 0.269774
Si Si3 0.025866 0.073202 0.647569
Si Si4 0.727842 0.202020 0.534904
Si Si5 0.277451 0.927881 0.545194
Si Si6 0.154312 0.213517 0.601615
Si Si7 0.635050 0.500000 0.574503
Si Si8 0.915185 0.735552 0.186293
O O1 0.732918 0.659612 0.590283
O O2 0.961749 0.770171 0.855156
O O3 0.000000 0.684641 0.000000
O O4 0.308548 0.669845 0.217993
O O5 0.500292 0.437845 0.382233
O O6 0.172922 0.337438 0.936949
O O7 0.944494 0.079073 0.638574
O O8 0.881614 0.135659 0.449299
O O9 0.932501 0.000000 0.519968
O O10 0.384550 0.078481 0.043459
O O11 0.759420 0.127110 0.553782
O O12 0.824075 0.238062 0.570978
O O13 0.387464 0.222336 0.169736
O O14 0.247572 0.000000 0.482650
O O15 0.000000 0.232077 0.500000
O O16 0.009651 0.249412 0.371895
O O17 0.500000 0.229002 0.000000
O O18 0.500000 0.500000 0.500000
O O19 0.000000 0.500000 0.000000
#
# Coordination Sequence:
#
# PCOD9141909 Si02
#       8
#     4   4   4   4   4   4   2   4
#     4  10  19  31  49  75 103 132 168 199 240 284
#     4  10  21  34  53  75 106 143 162 197 230 287
#     4  10  20  32  46  65  95 126 160 204 260 325
#     4  10  17  31  51  66  92 129 164 212 244 288
#     4  10  17  29  48  66  87 123 167 205 248 303
#     4  12  22  32  50  70  96 129 164 218 263 296
#     4  12  22  34  56  86 120 142 164 188 238 296
#     4  10  20  35  50  70  96 128 176 202 243 297
#
# _framework density 17.156157
#
# number of rings (size 3 to 8) (size 9 to 14) (size 15 to 20)
#    0.000    1.600    2.667    4.000    0.000    0.533 
#    0.000    0.000    0.000    0.400    0.000    0.933 
#    0.000    9.600    0.000    0.000    0.000    2.133 
#
# Total GULP energy -167122.432381 kJ/mol
# GULP energy per Si atom -5570.747746 kJ/mol
# Density = 1.711711 g / cm^3
# Si number density = 17.156157 Si / 1000 Ang^3
#
#
#
# Elastic Constant Matrix: (Units=GPa)
#
#
# Indices 1 2 3 4 5 6 
#
# 1 66.5954 27.8563 18.1997 0.0000 7.5988 0.0000
# 2 27.8563 92.9218 28.9537 0.0000 -14.7421 0.0000
# 3 18.1997 28.9537 57.9183 0.0000 9.9421 0.0000
# 4 0.0000 0.0000 0.0000 19.0743 0.0000 -2.7264
# 5 7.5988 -14.7421 9.9421 0.0000 29.0220 0.0000
# 6 0.0000 0.0000 0.0000 -2.7264 0.0000 22.7066
#
#
#
# Elastic Compliance Matrix: (Units=1/GPa)
#
#
# Indices 1 2 3 4 5 6 
#
# 1 0.019006 -0.006507 -0.001379 0.000000 -0.007809 0.000000
# 2 -0.006507 0.017799 -0.009241 0.000000 0.013910 0.000000
# 3 -0.001379 -0.009241 0.024503 0.000000 -0.012727 0.000000
# 4 0.000000 0.000000 0.000000 0.053342 0.000000 0.006405
# 5 -0.007809 0.013910 -0.012727 0.000000 0.047927 0.000000
# 6 0.000000 0.000000 0.000000 0.006405 0.000000 0.044809
#
#
# Mechanical properties :
#
#
# Convention : Reuss Voigt Hill
#
# Bulk Modulus (GPa) = 36.96245 40.82834 38.89539
# Shear Modulus (GPa) = 19.94755 23.65563 21.80159
#
# Velocity S-wave (km/s) = 3.41355 3.71730 3.56866
# Velocity P-wave (km/s) = 6.09326 6.50186 6.30088
#
# Compressibility (1/GPa) = 0.02705448
#
# Stress axis : x y z
#
# Youngs Moduli (GPa) = 52.61584 56.18401 40.81094
#
# Poissons Ratio (x) = 0.36558 0.05627
# Poissons Ratio (y) = 0.34236 0.37713
# Poissons Ratio (z) = 0.07255 0.51919
#
# Static dielectric constant tensor:
#      x y z
#    x 1.587720 0.000000 -0.011070 
#    y 0.000000 1.633250 0.000000 
#    z -0.011070 0.000000 1.601710 
# 
# From -- ./inp_files/86644.got.cif
#   From: 2010.05.17/outbox.cif.g08.bks.cpg/sg10_44_cif.got.tgz:86644.got - 2010.06.03 11:33:40.
