data_PCOD9141008
_publ_section_title
;
Structure prediction by ZEFSAII (Michael W. Deem and Ramdas Pophale) SiO2 
 PCOD9141008
Probable space group: C C
;
_chemical_formula_sum "Si O2"
_cell_formula_units_Z 32
_cell_length_a 11.175681
_cell_length_b 9.313648
_cell_length_c 29.025505
_cell_angle_alpha 90.000000
_cell_angle_beta 29.474012
_cell_angle_gamma 90.000000
_cell_volume 1486.497112
_symmetry_space_group_name_H-M "C C"
_symmetry_group_IT_number 9
_symmetry_cell_setting 'monoclinic'
loop_
_space_group_symop_operation_xyz
x,y,z
x,-y,1/2+z
1/2+x,1/2+y,z
1/2+x,1/2-y,1/2+z
loop_
_atom_site_type_symbol
_atom_site_label
_atom_site_fract_x
_atom_site_fract_y
_atom_site_fract_z
Si Si1 0.607400 0.330007 0.936130
Si Si2 0.552200 0.588697 0.616471
Si Si3 0.978526 0.573611 0.918021
Si Si4 0.685516 0.170046 0.241499
Si Si5 0.932794 0.670301 0.087075
Si Si6 0.866388 0.646037 0.595989
Si Si7 0.181263 0.863386 0.429666
Si Si8 0.850674 0.824492 0.787484
O O1 0.530679 0.495524 0.965651
O O2 0.897446 0.334958 0.832069
O O3 0.503602 0.231777 0.930453
O O4 0.534345 0.251837 0.008155
O O5 0.771513 0.507970 0.516632
O O6 0.322276 0.482856 0.689479
O O7 0.515495 0.739629 0.603506
O O8 0.634359 0.611657 0.641289
O O9 0.889891 0.584212 0.895249
O O10 0.219655 0.476919 0.842072
O O11 0.794114 0.276864 0.167184
O O12 0.744898 0.220683 0.273363
O O13 0.001457 0.503555 0.060882
O O14 0.639821 0.670765 0.186167
O O15 0.024877 0.752800 0.511927
O O16 0.279713 0.784056 0.351780
#
# Coordination Sequence:
#
# PCOD9141008 Si02
#       8
#     4   4   4   4   4   4   4   4
#     4  12  25  45  75 107 147 198 242 301 379 439
#     4  12  24  51  75 101 154 194 240 318 372 435
#     4  12  24  51  75 101 154 194 240 318 372 435
#     4  12  25  48  74 106 149 192 247 307 373 443
#     4  12  25  45  75 107 147 198 242 301 379 439
#     4  12  26  47  76 111 144 194 252 306 377 448
#     4  12  26  47  76 111 144 194 252 306 377 448
#     4  12  25  48  74 106 149 192 247 307 373 443
#
# _framework density 21.527117000000001
#
# number of rings (size 3 to 8) (size 9 to 14) (size 15 to 20)
#    0.000    0.000    7.500    1.500    0.000    1.000 
#    9.000    0.000    0.000    0.000    0.000    0.000 
#    0.000    0.000    0.000    0.000    0.000    0.000 
#
# Total GULP energy -89591.077497 kJ/mol
# GULP energy per Si atom -5599.442344 kJ/mol
# Density = 2.147812 g / cm^3
# Si number density = 21.527117 Si / 1000 Ang^3
#
#
#
# Elastic Constant Matrix: (Units=GPa)
#
#
# Indices 1 2 3 4 5 6 
#
# 1 67.2321 20.7605 -17.9391 0.0020 13.3332 -0.0004
# 2 20.7605 139.0440 19.3850 0.0023 1.1992 -0.0006
# 3 -17.9391 19.3850 97.4491 0.0023 -1.3552 -0.0016
# 4 0.0020 0.0023 0.0023 44.5541 0.0003 6.5063
# 5 13.3332 1.1992 -1.3552 0.0003 41.6226 -0.0001
# 6 -0.0004 -0.0006 -0.0016 6.5063 -0.0001 49.4338
#
#
#
# Elastic Compliance Matrix: (Units=1/GPa)
#
#
# Indices 1 2 3 4 5 6 
#
# 1 0.017986 -0.003177 0.003866 -0.000001 -0.005544 0.000000
# 2 -0.003177 0.007961 -0.002158 0.000000 0.000718 0.000000
# 3 0.003866 -0.002158 0.011392 -0.000001 -0.000805 0.000000
# 4 -0.000001 0.000000 -0.000001 0.022884 0.000000 -0.003012
# 5 -0.005544 0.000718 -0.000805 0.000000 0.025755 0.000000
# 6 0.000000 0.000000 0.000000 -0.003012 0.000000 0.020625
#
#
# Mechanical properties :
#
#
# Convention : Reuss Voigt Hill
#
# Bulk Modulus (GPa) = 29.06998 38.68199 33.87599
# Shear Modulus (GPa) = 41.31968 45.89003 43.60486
#
# Velocity S-wave (km/s) = 4.38588 4.62208 4.50552
# Velocity P-wave (km/s) = 6.25948 6.81856 6.54499
#
# Compressibility (1/GPa) = 0.03439975
#
# Stress axis : x y z
#
# Youngs Moduli (GPa) = 55.59980 125.61273 87.78429
#
# Poissons Ratio (x) = 0.39901 -0.33935
# Poissons Ratio (y) = 0.17662 0.18947
# Poissons Ratio (z) = -0.21493 0.27112
#
# Static dielectric constant tensor:
#      x y z
#    x 1.799490 0.000000 -0.039660 
#    y 0.000000 1.797650 0.000000 
#    z -0.039660 0.000000 1.788200 
# 
# From -- ./inp_files/37280.got.cif
#   From: 2010.05.17/outbox.cif.g08.bks.cpg/sg9_19_cif.got.tgz:37280.got - 2010.06.03 20:04:27.
