data_PCOD9141412
_publ_section_title
;
Structure prediction by ZEFSAII (Michael W. Deem and Ramdas Pophale) SiO2 
 PCOD9141412
Probable space group: P 2/M
;
_chemical_formula_sum "Si O2"
_cell_formula_units_Z 32
_cell_length_a 27.965142
_cell_length_b 17.566610
_cell_length_c 5.404929
_cell_angle_alpha 90.000000
_cell_angle_beta 101.143919
_cell_angle_gamma 90.000000
_cell_volume 2605.122135
_symmetry_space_group_name_H-M "P 2/M"
_symmetry_group_IT_number 10
_symmetry_cell_setting 'monoclinic'
loop_
_space_group_symop_operation_xyz
x,y,z
-x,y,-z
-x,-y,-z
x,-y,z
loop_
_atom_site_type_symbol
_atom_site_label
_atom_site_fract_x
_atom_site_fract_y
_atom_site_fract_z
Si Si1 0.941869 0.090305 0.191870
Si Si2 0.472376 0.407253 0.722376
Si Si3 0.864128 0.408046 0.614130
Si Si4 0.191451 0.592673 0.941450
Si Si5 0.030004 0.334153 0.280004
Si Si6 0.640504 0.407259 0.390505
Si Si7 0.947866 0.845602 0.697866
Si Si8 0.304223 0.407220 0.054222
O O1 0.922042 0.128044 0.421738
O O2 0.999677 0.111306 0.249677
O O3 0.936355 0.000000 0.186356
O O4 0.922042 0.128044 0.922345
O O5 0.500000 0.383119 0.500000
O O6 0.472734 0.500000 0.722734
O O7 0.415935 0.383560 0.665934
O O8 0.500000 0.383119 0.000000
O O9 0.865111 0.500000 0.615113
O O10 0.836151 0.383397 0.835837
O O11 0.918832 0.377249 0.668832
O O12 0.836151 0.383397 0.336469
O O13 0.191425 0.500000 0.941424
O O14 0.247829 0.616758 0.997829
O O15 0.040842 0.243586 0.290841
O O16 0.000000 0.351832 0.500000
O O17 0.000000 0.351832 0.000000
O O18 0.640861 0.500000 0.390862
O O19 0.668133 0.383153 0.668140
O O20 0.668134 0.383153 0.168130
O O21 0.304481 0.500000 0.054479
#
# Coordination Sequence:
#
# PCOD9141412 Si02
#       8
#     4   4   4   4   4   4   4   4
#     4  10  16  25  41  58  76  94 112 130 146 171
#     4   9  15  21  27  36  57  85 104 119 135 160
#     4  10  21  33  45  57  67  84 110 135 165 209
#     4   9  17  31  44  55  67  77  96 131 175 209
#     4  12  21  33  45  55  74  93 109 134 159 189
#     4   9  15  21  30  47  61  75 101 120 144 184
#     4  10  16  27  37  56  75  93 111 127 152 177
#     4   9  15  23  37  50  61  73  88 124 164 193
#
# _framework density 12.283493
#
# number of rings (size 3 to 8) (size 9 to 14) (size 15 to 20)
#    0.000    2.250    2.500    4.125    0.000    6.500 
#    0.000    0.000    0.000    0.000    0.000    0.000 
#    0.000    0.000    0.000    0.000    0.000    0.000 
#
# Total GULP energy -178210.805610 kJ/mol
# GULP energy per Si atom -5569.087675 kJ/mol
# Density = 1.225554 g / cm^3
# Si number density = 12.283493 Si / 1000 Ang^3
#
#
#
# Elastic Constant Matrix: (Units=GPa)
#
#
# Indices 1 2 3 4 5 6 
#
# 1 110.2033 15.0403 79.3680 0.0000 -4.1007 0.0000
# 2 15.0403 5.8362 14.8579 0.0000 0.0643 0.0000
# 3 79.3680 14.8579 155.2949 0.0000 -11.8205 0.0000
# 4 0.0000 0.0000 0.0000 4.8177 0.0000 -1.7149
# 5 -4.1007 0.0643 -11.8205 0.0000 23.9504 0.0000
# 6 0.0000 0.0000 0.0000 -1.7149 0.0000 -0.0392
#
#
#
# Elastic Compliance Matrix: (Units=1/GPa)
#
#
# Indices 1 2 3 4 5 6 
#
# 1 0.017520 -0.029568 -0.006121 0.000000 0.000058 0.000000
# 2 -0.029568 0.279646 -0.012558 0.000000 -0.012012 0.000000
# 3 -0.006121 -0.012558 0.011109 0.000000 0.004469 0.000000
# 4 0.000000 0.000000 0.000000 0.012539 0.000000 -0.547891
# 5 0.000058 -0.012012 0.004469 0.000000 0.044001 0.000000
# 6 0.000000 0.000000 0.000000 -0.547891 0.000000 -1.539177
#
#
# Mechanical properties :
#
#
# Convention : Reuss Voigt Hill
#
# Bulk Modulus (GPa) = 4.72185 54.42964 29.57574
# Shear Modulus (GPa) = -4.96388 16.55032 5.79322
#
# Velocity S-wave (km/s) = -2.01243 3.67463 2.17405
# Velocity P-wave (km/s) = 1.24396 7.90008 5.51651
#
# Compressibility (1/GPa) = 0.21178162
#
# Stress axis : x y z
#
# Youngs Moduli (GPa) = 57.07853 3.57595 90.01644
#
# Poissons Ratio (x) = 0.10573 0.55095
# Poissons Ratio (y) = 1.68771 1.13042
# Poissons Ratio (z) = 0.34935 0.04491
#
# Static dielectric constant tensor:
#      x y z
#    x 1.395110 0.000000 -0.030710 
#    y 0.000000 1.362020 0.000000 
#    z -0.030710 0.000000 1.482090 
# 
# From -- ./inp_files/12790.got.cif
#   From: 2010.05.17/outbox.cif.g08.bks.cpg/sg10_7_cif.got.tgz:12790.got - 2010.06.03 11:33:40.
