data_PCOD9141660
_publ_section_title
;
Structure prediction by ZEFSAII (Michael W. Deem and Ramdas Pophale) SiO2 
 PCOD9141660
Probable space group: P 2/M
;
_chemical_formula_sum "Si O2"
_cell_formula_units_Z 32
_cell_length_a 22.529267
_cell_length_b 8.675500
_cell_length_c 33.598513
_cell_angle_alpha 90.000000
_cell_angle_beta 18.379715
_cell_angle_gamma 90.000000
_cell_volume 2070.635310
_symmetry_space_group_name_H-M "P 2/M"
_symmetry_group_IT_number 10
_symmetry_cell_setting 'monoclinic'
loop_
_space_group_symop_operation_xyz
x,y,z
-x,y,-z
-x,-y,-z
x,-y,z
loop_
_atom_site_type_symbol
_atom_site_label
_atom_site_fract_x
_atom_site_fract_y
_atom_site_fract_z
Si Si1 0.136979 0.322610 0.451483
Si Si2 0.445677 0.185921 0.201829
Si Si3 0.283216 0.683803 0.145439
Si Si4 0.637237 0.316741 0.465246
Si Si5 0.179243 0.816840 0.296694
Si Si6 0.736718 0.184413 0.314734
Si Si7 0.136265 0.812758 0.083438
Si Si8 0.010021 0.815428 0.252613
O O1 0.157194 0.500000 0.450711
O O2 0.332071 0.254382 0.311298
O O3 0.000000 0.317082 0.500000
O O4 0.025100 0.228519 0.556065
O O5 0.331031 0.225927 0.234412
O O6 0.442147 0.000000 0.207095
O O7 0.660565 0.239839 0.060792
O O8 0.268086 0.500000 0.150240
O O9 0.225138 0.731709 0.226746
O O10 0.148862 0.764941 0.199015
O O11 0.500000 0.729205 0.000000
O O12 0.641742 0.500000 0.457316
O O13 0.689036 0.234146 0.390442
O O14 0.424179 0.262823 0.609506
O O15 0.804210 0.261316 0.387609
O O16 0.190480 0.000000 0.283548
O O17 0.955400 0.231715 0.171903
O O18 0.721569 0.000000 0.321001
O O19 0.096519 0.766253 0.154574
O O20 0.140056 0.000000 0.081330
O O21 0.988680 0.000000 0.265415
#
# Coordination Sequence:
#
# PCOD9141660 Si02
#       8
#     4   4   4   4   4   4   4   4
#     4   9  17  29  44  63  86 111 140 178 224 267
#     4   9  16  28  45  65  87 112 145 181 218 261
#     4  11  23  35  46  64  91 119 147 183 224 260
#     4  10  17  26  40  59  83 111 144 183 224 260
#     4  10  19  31  48  65  83 114 153 188 218 254
#     4   9  15  25  40  59  83 114 148 178 214 261
#     4   8  15  26  42  63  87 114 145 182 217 253
#     4  10  19  32  47  62  83 116 156 189 217 256
#
# _framework density 15.454193999999999
#
# number of rings (size 3 to 8) (size 9 to 14) (size 15 to 20)
#    0.000    2.500    0.000    5.250    0.000    4.000 
#    0.000    3.750    0.000    0.000    0.000    0.000 
#    0.000    1.000    0.000   10.750    0.000    5.000 
#
# Total GULP energy -178281.453548 kJ/mol
# GULP energy per Si atom -5571.295423 kJ/mol
# Density = 1.541902 g / cm^3
# Si number density = 15.454194 Si / 1000 Ang^3
#
#
#
# Elastic Constant Matrix: (Units=GPa)
#
#
# Indices 1 2 3 4 5 6 
#
# 1 45.9702 15.3365 42.1468 0.0000 -16.0576 0.0000
# 2 15.3365 32.9146 20.4395 0.0000 -7.9719 0.0000
# 3 42.1468 20.4395 124.7468 0.0000 -21.0172 0.0000
# 4 0.0000 0.0000 0.0000 38.4277 0.0000 14.3729
# 5 -16.0576 -7.9719 -21.0172 0.0000 25.8981 0.0000
# 6 0.0000 0.0000 0.0000 14.3729 0.0000 31.6815
#
#
#
# Elastic Compliance Matrix: (Units=1/GPa)
#
#
# Indices 1 2 3 4 5 6 
#
# 1 0.037574 -0.008678 -0.009033 0.000000 0.013295 0.000000
# 2 -0.008678 0.036910 -0.002442 0.000000 0.003999 0.000000
# 3 -0.009033 -0.002442 0.012045 0.000000 0.003422 0.000000
# 4 0.000000 0.000000 0.000000 0.031341 0.000000 -0.014218
# 5 0.013295 0.003999 0.003422 0.000000 0.050865 0.000000
# 6 0.000000 0.000000 0.000000 -0.014218 0.000000 0.038015
#
#
# Mechanical properties :
#
#
# Convention : Reuss Voigt Hill
#
# Bulk Modulus (GPa) = 21.63414 39.94190 30.78802
# Shear Modulus (GPa) = 19.05030 27.58206 23.31618
#
# Velocity S-wave (km/s) = 3.51478 4.22923 3.88845
# Velocity P-wave (km/s) = 5.52276 7.05336 6.33446
#
# Compressibility (1/GPa) = 0.04622324
#
# Stress axis : x y z
#
# Youngs Moduli (GPa) = 26.61401 27.09277 83.02356
#
# Poissons Ratio (x) = 0.23512 0.74994
# Poissons Ratio (y) = 0.23096 0.20273
# Poissons Ratio (z) = 0.24040 0.06616
#
# Static dielectric constant tensor:
#      x y z
#    x 1.502810 0.000000 -0.033320 
#    y 0.000000 1.517790 0.000000 
#    z -0.033320 0.000000 1.541750 
# 
# From -- ./inp_files/95645.got.cif
#   From: 2010.05.17/outbox.cif.g08.bks.cpg/sg10_48_cif.got.tgz:95645.got - 2010.06.03 11:33:40.
