data_PCOD9141222
_publ_section_title
;
Structure prediction by ZEFSAII (Michael W. Deem and Ramdas Pophale) SiO2 
 PCOD9141222
Probable space group: C C
;
_chemical_formula_sum "Si O2"
_cell_formula_units_Z 16
_cell_length_a 30.000000
_cell_length_b 9.000000
_cell_length_c 12.000000
_cell_angle_alpha 90.000000
_cell_angle_beta 150.000000
_cell_angle_gamma 90.000000
_cell_volume 1620.000000
_symmetry_space_group_name_H-M "C C"
_symmetry_group_IT_number 9
_symmetry_cell_setting 'monoclinic'
loop_
_space_group_symop_operation_xyz
x,y,z
x,-y,1/2+z
1/2+x,1/2+y,z
1/2+x,1/2-y,1/2+z
loop_
_atom_site_type_symbol
_atom_site_label
_atom_site_fract_x
_atom_site_fract_y
_atom_site_fract_z
Si Si1 0.639780 0.903595 0.095220
Si Si2 0.949587 0.781884 0.788434
Si Si3 0.028082 0.246276 0.672499
Si Si4 0.187139 0.250073 0.422005
Si Si5 0.694905 0.406468 0.404741
Si Si6 0.869775 0.063296 0.314481
Si Si7 0.129465 0.246862 0.554310
Si Si8 0.305742 0.278251 0.308988
O O1 0.635957 0.833574 0.210405
O O2 0.727390 0.848440 0.216512
O O3 0.563087 0.851175 0.844238
O O4 0.638598 0.079885 0.103797
O O5 0.981151 0.681324 0.961664
O O6 0.875737 0.716171 0.548737
O O7 0.033540 0.811708 0.890227
O O8 0.905651 0.920526 0.763345
O O9 0.106841 0.152909 0.781766
O O10 0.953401 0.136425 0.558890
O O11 0.281521 0.335957 0.633477
O O12 0.145303 0.239523 0.455897
O O13 0.197459 0.081976 0.404615
O O14 0.771341 0.344379 0.649647
O O15 0.695439 0.339714 0.281212
O O16 0.846639 0.907390 0.319422
#
# Coordination Sequence:
#
# PCOD9141222 Si02
#       8
#     4   4   4   4   4   4   4   4
#     4  11  22  42  70  97 129 177 228 272 328 405
#     4   9  22  40  64  93 132 163 214 283 322 379
#     4   8  21  41  65  90 132 170 220 279 322 383
#     4  12  25  40  69  99 135 177 219 275 341 394
#     4  10  25  41  64  97 134 172 221 275 336 396
#     4  10  21  41  66  95 125 171 223 271 329 387
#     4  11  25  42  67  99 136 175 227 269 341 400
#     4  11  21  41  71  92 127 177 224 276 329 398
#
# _framework density 9.8765429999999999
#
# number of rings (size 3 to 8) (size 9 to 14) (size 15 to 20)
#    0.750    1.000    2.500    0.750    8.750    2.000 
#    0.000    1.250    0.000    0.000    0.000    0.000 
#    0.000    0.000    0.000    0.000    0.000    0.000 
#
# Total GULP energy -89111.994235 kJ/mol
# GULP energy per Si atom -5569.499640 kJ/mol
# Density = 0.985406 g / cm^3
# Si number density = 9.876543 Si / 1000 Ang^3
#
#
#
# Elastic Constant Matrix: (Units=GPa)
#
#
# Indices 1 2 3 4 5 6 
#
# 1 120.2295 22.9179 36.4254 0.0000 -29.8046 0.0000
# 2 22.9179 107.1418 39.4196 0.0000 -32.3092 0.0000
# 3 36.4254 39.4196 124.7822 0.0000 -37.6619 0.0000
# 4 0.0000 0.0000 0.0000 13.1325 0.0000 -6.3049
# 5 -29.8046 -32.3092 -37.6619 0.0000 31.6071 0.0000
# 6 0.0000 0.0000 0.0000 -6.3049 0.0000 18.8417
#
#
#
# Elastic Compliance Matrix: (Units=1/GPa)
#
#
# Indices 1 2 3 4 5 6 
#
# 1 0.010948 0.001117 -0.000138 0.000000 0.011301 0.000000
# 2 0.001117 0.013608 -0.000170 0.000000 0.014762 0.000000
# 3 -0.000138 -0.000170 0.012518 0.000000 0.014613 0.000000
# 4 0.000000 0.000000 0.000000 0.090721 0.000000 0.030357
# 5 0.011301 0.014762 0.014613 0.000000 0.074797 0.000000
# 6 0.000000 0.000000 0.000000 0.030357 0.000000 0.063232
#
#
# Mechanical properties :
#
#
# Convention : Reuss Voigt Hill
#
# Bulk Modulus (GPa) = 25.84423 61.07548 43.45985
# Shear Modulus (GPa) = 18.04379 29.60897 23.82638
#
# Velocity S-wave (km/s) = 3.02564 3.87583 3.47682
# Velocity P-wave (km/s) = 5.03170 7.14255 6.17795
#
# Compressibility (1/GPa) = 0.03869336
#
# Stress axis : x y z
#
# Youngs Moduli (GPa) = 91.34302 73.48383 79.88318
#
# Poissons Ratio (x) = -0.08207 0.01100
# Poissons Ratio (y) = -0.10201 0.01355
# Poissons Ratio (z) = 0.01258 0.01246
#
# Static dielectric constant tensor:
#      x y z
#    x 1.693900 0.000000 0.022440 
#    y 0.000000 1.657060 0.000000 
#    z 0.022440 0.000000 1.781810 
# 
# From -- ./inp_files/21466.got.cif
#   From: 2010.05.17/outbox.ucp.g08.bks.cvg/sg9_11_cif.got.tgz:21466.got - 2010.06.11 13:03:20.
