data_PCOD9141793
_publ_section_title
;
Structure prediction by ZEFSAII (Michael W. Deem and Ramdas Pophale) SiO2 
 PCOD9141793
Probable space group: P 2/M
;
_chemical_formula_sum "Si O2"
_cell_formula_units_Z 22
_cell_length_a 12.446220
_cell_length_b 10.815073
_cell_length_c 7.053992
_cell_angle_alpha 90.000000
_cell_angle_beta 100.567085
_cell_angle_gamma 90.000000
_cell_volume 933.412176
_symmetry_space_group_name_H-M "P 2/M"
_symmetry_group_IT_number 10
_symmetry_cell_setting 'monoclinic'
loop_
_space_group_symop_operation_xyz
x,y,z
-x,y,-z
-x,-y,-z
x,-y,z
loop_
_atom_site_type_symbol
_atom_site_label
_atom_site_fract_x
_atom_site_fract_y
_atom_site_fract_z
Si Si1 0.276854 0.268756 0.128075
Si Si2 0.125490 0.500000 0.514346
Si Si3 0.755515 0.257788 0.420822
Si Si4 0.132055 0.500000 0.071393
Si Si5 0.130184 0.000000 0.502328
Si Si6 0.520688 0.726296 0.297611
Si Si7 0.488265 0.000000 0.225234
Si Si8 0.237181 0.000000 0.137224
O O1 0.266206 0.257557 0.356278
O O2 0.197640 0.376853 0.032310
O O3 0.408179 0.290773 0.145533
O O4 0.237224 0.134607 0.038432
O O5 0.165213 0.369324 0.601786
O O6 0.152218 0.500000 0.302243
O O7 0.000000 0.500000 0.500000
O O8 0.643815 0.304137 0.283409
O O9 0.809326 0.123940 0.403332
O O10 0.000000 0.500000 0.000000
O O11 0.151703 0.000000 0.281329
O O12 0.000000 0.000000 0.500000
O O13 0.500000 0.671995 0.500000
O O14 0.537071 0.874490 0.315760
O O15 0.362784 0.000000 0.249180
O O16 0.500000 0.000000 0.000000
#
# Coordination Sequence:
#
# PCOD9141793 Si02
#       8
#     4   2   4   2   2   4   2   2
#     4   8  16  30  52  77 103 131 167 215 262 309
#     4  10  20  35  49  69 101 134 169 218 262 301
#     4   9  17  29  50  77 103 132 170 214 263 310
#     4  10  20  35  53  73  97 136 179 210 255 323
#     4  10  17  27  48  78 106 138 176 215 254 305
#     4   9  16  30  52  77 103 134 171 215 265 317
#     4  10  18  29  49  79 113 144 168 207 263 320
#     4   8  16  32  49  71 104 138 166 206 260 305
#
# _framework density 23.569438000000002
#
# number of rings (size 3 to 8) (size 9 to 14) (size 15 to 20)
#    0.000    2.909    0.000    2.455    0.000    2.182 
#    0.000    7.727    0.000    8.727    0.000   12.091 
#    0.000    0.000    0.000    0.000    0.000    0.000 
#
# Total GULP energy -122617.889247 kJ/mol
# GULP energy per Si atom -5573.540420 kJ/mol
# Density = 2.351579 g / cm^3
# Si number density = 23.569438 Si / 1000 Ang^3
#
#
#
# Elastic Constant Matrix: (Units=GPa)
#
#
# Indices 1 2 3 4 5 6 
#
# 1 205.6957 87.2425 22.1627 0.0000 35.1675 0.0000
# 2 87.2425 183.6720 15.6376 0.0000 38.6542 0.0000
# 3 22.1627 15.6376 108.6296 0.0000 0.0430 0.0000
# 4 0.0000 0.0000 0.0000 -2.4410 0.0000 13.5044
# 5 35.1675 38.6542 0.0430 0.0000 23.1032 0.0000
# 6 0.0000 0.0000 0.0000 13.5044 0.0000 45.3418
#
#
#
# Elastic Compliance Matrix: (Units=1/GPa)
#
#
# Indices 1 2 3 4 5 6 
#
# 1 0.007032 -0.001520 -0.001213 0.000000 -0.008159 0.000000
# 2 -0.001520 0.008892 -0.000965 0.000000 -0.012563 0.000000
# 3 -0.001213 -0.000965 0.009591 0.000000 0.003443 0.000000
# 4 0.000000 0.000000 0.000000 -0.154725 0.000000 0.046083
# 5 -0.008159 -0.012563 0.003443 0.000000 0.076715 0.000000
# 6 0.000000 0.000000 0.000000 0.046083 0.000000 0.008330
#
#
# Mechanical properties :
#
#
# Convention : Reuss Voigt Hill
#
# Bulk Modulus (GPa) = 55.18833 83.12034 69.15433
# Shear Modulus (GPa) = -162.70204 38.06445 -62.31880
#
# Velocity S-wave (km/s) = -8.31750 4.02306 -5.14761
# Velocity P-wave (km/s) = 8.29307 7.54471 2.43437
#
# Compressibility (1/GPa) = 0.01811977
#
# Stress axis : x y z
#
# Youngs Moduli (GPa) = 142.21473 112.45578 104.26932
#
# Poissons Ratio (x) = 0.17090 0.12644
# Poissons Ratio (y) = 0.21613 0.10063
# Poissons Ratio (z) = 0.17245 0.10853
#
# Static dielectric constant tensor:
#      x y z
#    x 1.847030 0.000000 -0.015360 
#    y 0.000000 1.913700 0.000000 
#    z -0.015360 0.000000 1.888380 
# 
# From -- ./inp_files/24218.got.cif
#   From: 2010.05.17/outbox.cif.g08.bks.cpg/sg10_13_cif.got.tgz:24218.got - 2010.06.03 11:33:40.
