data_PCOD9141224
_publ_section_title
;
Structure prediction by ZEFSAII (Michael W. Deem and Ramdas Pophale) SiO2 
 PCOD9141224
Probable space group: C C
;
_chemical_formula_sum "Si O2"
_cell_formula_units_Z 14
_cell_length_a 15.000000
_cell_length_b 9.000000
_cell_length_c 15.000000
_cell_angle_alpha 90.000000
_cell_angle_beta 40.000000
_cell_angle_gamma 90.000000
_cell_volume 1301.644910
_symmetry_space_group_name_H-M "C C"
_symmetry_group_IT_number 9
_symmetry_cell_setting 'monoclinic'
loop_
_space_group_symop_operation_xyz
x,y,z
x,-y,1/2+z
1/2+x,1/2+y,z
1/2+x,1/2-y,1/2+z
loop_
_atom_site_type_symbol
_atom_site_label
_atom_site_fract_x
_atom_site_fract_y
_atom_site_fract_z
Si Si1 0.185480 0.701910 0.277280
Si Si2 0.859173 0.663454 0.486188
Si Si3 0.281730 0.160733 0.072472
Si Si4 0.519142 0.389296 0.895570
Si Si5 0.634579 0.800870 0.015763
Si Si6 0.933802 0.045895 0.130646
Si Si7 0.830368 0.060972 0.891888
O O1 0.198751 0.742305 0.370988
O O2 0.281847 0.554949 0.200472
O O3 0.023127 0.685686 0.380473
O O4 0.263304 0.801952 0.145719
O O5 0.830748 0.493069 0.491832
O O6 0.813897 0.774516 0.442761
O O7 0.201571 0.239422 0.053616
O O8 0.168623 0.144054 0.237915
O O9 0.421484 0.248001 0.990808
O O10 0.427732 0.480113 0.891880
O O11 0.529539 0.479445 0.979883
O O12 0.489557 0.710526 0.116912
O O13 0.683152 0.974571 0.988452
O O14 0.914408 0.952009 0.235047
#
# Coordination Sequence:
#
# PCOD9141224 Si02
#       7
#     4   4   4   4   4   4   4
#     4  11  23  40  71  95 138 186 230 278 346 424
#     4  12  24  45  66 106 138 182 230 290 359 412
#     4  11  26  42  73  99 140 184 231 290 359 407
#     4  11  23  47  69 100 141 186 231 292 344 424
#     4  10  21  42  69  99 132 186 233 279 351 417
#     4  11  21  43  71  99 140 183 235 291 348 418
#     4  10  22  41  71 100 135 185 230 292 347 416
#
# _framework density 10.755622000000001
#
# number of rings (size 3 to 8) (size 9 to 14) (size 15 to 20)
#    0.000    1.143    4.286    1.714    2.000    0.000 
#    5.143    0.000    0.000    0.000    0.000    0.000 
#    0.000    0.000    0.000    0.000    0.000    0.000 
#
# Total GULP energy -78022.709738 kJ/mol
# GULP energy per Si atom -5573.050696 kJ/mol
# Density = 1.073114 g / cm^3
# Si number density = 10.755622 Si / 1000 Ang^3
#
#
#
# Elastic Constant Matrix: (Units=GPa)
#
#
# Indices 1 2 3 4 5 6 
#
# 1 58.6993 27.2688 37.6683 0.0000 0.5480 0.0000
# 2 27.2688 99.9089 40.6632 0.0000 -9.4327 0.0000
# 3 37.6683 40.6632 124.6791 0.0000 -11.5288 0.0000
# 4 0.0000 0.0000 0.0000 28.3899 0.0000 3.1629
# 5 0.5480 -9.4327 -11.5288 0.0000 44.1277 0.0000
# 6 0.0000 0.0000 0.0000 3.1629 0.0000 23.5505
#
#
#
# Elastic Compliance Matrix: (Units=1/GPa)
#
#
# Indices 1 2 3 4 5 6 
#
# 1 0.022656 -0.004092 -0.005756 0.000000 -0.002660 0.000000
# 2 -0.004092 0.012381 -0.002615 0.000000 0.002014 0.000000
# 3 -0.005756 -0.002615 0.010829 0.000000 0.002342 0.000000
# 4 0.000000 0.000000 0.000000 0.035759 0.000000 -0.004803
# 5 -0.002660 0.002014 0.002342 0.000000 0.023737 0.000000
# 6 0.000000 0.000000 0.000000 -0.004803 0.000000 0.043107
#
#
# Mechanical properties :
#
#
# Convention : Reuss Voigt Hill
#
# Bulk Modulus (GPa) = 47.75899 54.94310 51.35105
# Shear Modulus (GPa) = 27.72017 31.05943 29.38980
#
# Velocity S-wave (km/s) = 3.59365 3.80395 3.70030
# Velocity P-wave (km/s) = 6.28245 6.70003 6.49460
#
# Compressibility (1/GPa) = 0.02093846
#
# Stress axis : x y z
#
# Youngs Moduli (GPa) = 44.13934 80.77188 92.34331
#
# Poissons Ratio (x) = 0.33051 0.53154
# Poissons Ratio (y) = 0.18061 0.24151
# Poissons Ratio (z) = 0.25407 0.21125
#
# Static dielectric constant tensor:
#      x y z
#    x 1.765890 0.000000 -0.029120 
#    y 0.000000 1.870960 0.000000 
#    z -0.029120 0.000000 1.815600 
# 
# From -- ./inp_files/11410.got.cif
#   From: 2010.05.17/outbox.ucp.g08.bks.cvg/sg9_6_cif.got.tgz:11410.got - 2010.06.11 13:03:20.
