data_PCOD9141921
_publ_section_title
;
Structure prediction by ZEFSAII (Michael W. Deem and Ramdas Pophale) SiO2 
 PCOD9141921
Probable space group: P 2/M
;
_chemical_formula_sum "Si O2"
_cell_formula_units_Z 30
_cell_length_a 21.674914
_cell_length_b 14.142706
_cell_length_c 6.712215
_cell_angle_alpha 90.000000
_cell_angle_beta 65.774294
_cell_angle_gamma 90.000000
_cell_volume 1876.377292
_symmetry_space_group_name_H-M "P 2/M"
_symmetry_group_IT_number 10
_symmetry_cell_setting 'monoclinic'
loop_
_space_group_symop_operation_xyz
x,y,z
-x,y,-z
-x,-y,-z
x,-y,z
loop_
_atom_site_type_symbol
_atom_site_label
_atom_site_fract_x
_atom_site_fract_y
_atom_site_fract_z
Si Si1 0.717895 0.888691 0.715804
Si Si2 0.167341 0.606529 0.873780
Si Si3 0.500000 0.825792 0.000000
Si Si4 0.396258 0.893521 0.459014
Si Si5 0.808928 0.284863 0.548602
Si Si6 0.078881 0.389963 0.355160
Si Si7 0.616198 0.223338 0.132610
Si Si8 0.712424 0.392170 0.961236
O O1 0.672747 0.877564 0.574749
O O2 0.783614 0.822141 0.611356
O O3 0.731083 0.000000 0.726574
O O4 0.670849 0.847200 0.955453
O O5 0.165544 0.500000 0.788524
O O6 0.177892 0.684795 0.694127
O O7 0.100451 0.620016 0.096054
O O8 0.229230 0.609976 0.947893
O O9 0.544375 0.884269 0.782919
O O10 0.446514 0.769781 0.935657
O O11 0.403751 0.820736 0.629248
O O12 0.396256 0.000000 0.540331
O O13 0.874831 0.317728 0.583332
O O14 0.747515 0.348220 0.718817
O O15 0.096340 0.500000 0.385098
O O16 0.000000 0.376617 0.500000
O O17 0.652416 0.323682 0.104875
O O18 0.692019 0.500000 0.956406
#
# Coordination Sequence:
#
# PCOD9141921 Si02
#       8
#     4   4   2   4   4   4   4   4
#     4   9  19  32  47  71  94 114 149 191 227 269
#     4   9  16  27  46  70  92 117 150 185 225 270
#     4  10  21  32  45  68  94 118 151 188 223 274
#     4  10  19  32  50  69  91 117 146 186 236 279
#     4  10  17  29  49  68  93 124 150 183 228 270
#     4   9  18  30  44  69 101 125 151 187 222 264
#     4  10  19  32  49  67  92 122 149 183 229 275
#     4   9  18  31  47  69  93 117 151 191 225 265
#
# _framework density 15.988256
#
# number of rings (size 3 to 8) (size 9 to 14) (size 15 to 20)
#    0.000    2.533    0.000    3.800    0.000    2.667 
#    0.000    2.333    0.000    2.000    0.000    0.933 
#    0.000    0.000    0.000    0.000    0.000    0.000 
#
# Total GULP energy -167193.823527 kJ/mol
# GULP energy per Si atom -5573.127451 kJ/mol
# Density = 1.595187 g / cm^3
# Si number density = 15.988256 Si / 1000 Ang^3
#
#
#
# Elastic Constant Matrix: (Units=GPa)
#
#
# Indices 1 2 3 4 5 6 
#
# 1 53.2520 39.9872 30.5395 0.0000 -15.3021 0.0000
# 2 39.9872 107.8976 43.2680 0.0000 -7.7991 0.0000
# 3 30.5395 43.2680 80.0307 0.0000 -2.5359 0.0000
# 4 0.0000 0.0000 0.0000 17.8923 0.0000 1.1425
# 5 -15.3021 -7.7991 -2.5359 0.0000 17.4026 0.0000
# 6 0.0000 0.0000 0.0000 1.1425 0.0000 12.1448
#
#
#
# Elastic Compliance Matrix: (Units=1/GPa)
#
#
# Indices 1 2 3 4 5 6 
#
# 1 0.038878 -0.008596 -0.009270 0.000000 0.028982 0.000000
# 2 -0.008596 0.014078 -0.004391 0.000000 -0.001889 0.000000
# 3 -0.009270 -0.004391 0.018170 0.000000 -0.007471 0.000000
# 4 0.000000 0.000000 0.000000 0.056228 0.000000 -0.005290
# 5 0.028982 -0.001889 -0.007471 0.000000 0.081011 0.000000
# 6 0.000000 0.000000 0.000000 -0.005290 0.000000 0.082838
#
#
# Mechanical properties :
#
#
# Convention : Reuss Voigt Hill
#
# Bulk Modulus (GPa) = 37.57715 52.08550 44.83133
# Shear Modulus (GPa) = 14.51018 17.98032 16.24525
#
# Velocity S-wave (km/s) = 3.01583 3.35714 3.19105
# Velocity P-wave (km/s) = 5.97335 6.90473 6.45586
#
# Compressibility (1/GPa) = 0.02661191
#
# Stress axis : x y z
#
# Youngs Moduli (GPa) = 25.72172 71.03315 55.03672
#
# Poissons Ratio (x) = 0.61060 0.51019
# Poissons Ratio (y) = 0.22110 0.24165
# Poissons Ratio (z) = 0.23844 0.31189
#
# Static dielectric constant tensor:
#      x y z
#    x 1.534700 0.000000 0.001430 
#    y 0.000000 1.519790 0.000000 
#    z 0.001430 0.000000 1.543140 
# 
# From -- ./inp_files/12601.got.cif
#   From: 2010.05.17/outbox.cif.g08.bks.cpg/sg10_7_cif.got.tgz:12601.got - 2010.06.03 11:33:40.
