data_PCOD9141787
_publ_section_title
;
Structure prediction by ZEFSAII (Michael W. Deem and Ramdas Pophale) SiO2 
 PCOD9141787
Probable space group: P 2/M
;
_chemical_formula_sum "Si O2"
_cell_formula_units_Z 28
_cell_length_a 20.313998
_cell_length_b 8.603429
_cell_length_c 17.416976
_cell_angle_alpha 90.000000
_cell_angle_beta 31.267567
_cell_angle_gamma 90.000000
_cell_volume 1579.925746
_symmetry_space_group_name_H-M "P 2/M"
_symmetry_group_IT_number 10
_symmetry_cell_setting 'monoclinic'
loop_
_space_group_symop_operation_xyz
x,y,z
-x,y,-z
-x,-y,-z
x,-y,z
loop_
_atom_site_type_symbol
_atom_site_label
_atom_site_fract_x
_atom_site_fract_y
_atom_site_fract_z
Si Si1 0.144002 0.811631 0.521121
Si Si2 0.845874 0.179824 0.656783
Si Si3 0.746815 0.185341 0.427333
Si Si4 0.007591 0.686828 0.902239
Si Si5 0.500215 0.312072 0.588619
Si Si6 0.858000 0.685245 0.806161
Si Si7 0.250101 0.310876 0.927307
O O1 0.192884 0.758801 0.388523
O O2 0.228198 0.763239 0.509577
O O3 0.999536 0.754060 0.675803
O O4 0.139316 0.000000 0.523302
O O5 0.809154 0.267362 0.770773
O O6 0.000000 0.183556 0.500000
O O7 0.807508 0.000000 0.702329
O O8 0.872802 0.231932 0.255432
O O9 0.625851 0.260084 0.507516
O O10 0.732336 0.000000 0.441594
O O11 0.022108 0.500000 0.878394
O O12 0.000000 0.719952 0.000000
O O13 0.876885 0.734096 0.991781
O O14 0.500000 0.259165 0.500000
O O15 0.497272 0.500000 0.590138
O O16 0.375772 0.256142 0.758590
O O17 0.869691 0.500000 0.798203
O O18 0.769824 0.738148 0.964618
O O19 0.254622 0.500000 0.922000
#
# Coordination Sequence:
#
# PCOD9141787 Si02
#       7
#     4   4   4   4   4   4   4
#     4   9  18  32  48  70 104 141 170 202 251 311
#     4   8  15  28  45  67 100 138 171 202 246 307
#     4  11  22  35  53  79 109 136 170 217 265 308
#     4  10  19  34  56  78 101 134 174 213 259 314
#     4  10  21  39  59  75  98 139 183 216 256 313
#     4  10  17  27  47  76 106 130 165 216 262 301
#     4   9  18  32  51  77 104 131 170 219 260 304
#
# _framework density 17.722352000000001
#
# number of rings (size 3 to 8) (size 9 to 14) (size 15 to 20)
#    0.000    2.429    1.429    2.571    0.000    6.000 
#    0.000    2.143    0.000    0.857    0.000    6.000 
#    0.000    0.000    0.000    0.000    0.000    0.000 
#
# Total GULP energy -156120.821206 kJ/mol
# GULP energy per Si atom -5575.743614 kJ/mol
# Density = 1.768202 g / cm^3
# Si number density = 17.722352 Si / 1000 Ang^3
#
#
#
# Elastic Constant Matrix: (Units=GPa)
#
#
# Indices 1 2 3 4 5 6 
#
# 1 152.7511 23.1594 84.0331 0.0000 25.9942 0.0000
# 2 23.1594 8.6936 16.9935 0.0000 8.3464 0.0000
# 3 84.0331 16.9935 124.9189 0.0000 13.7808 0.0000
# 4 0.0000 0.0000 0.0000 -9.3336 0.0000 7.8359
# 5 25.9942 8.3464 13.7808 0.0000 32.2230 0.0000
# 6 0.0000 0.0000 0.0000 7.8359 0.0000 19.2787
#
#
#
# Elastic Compliance Matrix: (Units=1/GPa)
#
#
# Indices 1 2 3 4 5 6 
#
# 1 0.013568 -0.022180 -0.005810 0.000000 -0.002715 0.000000
# 2 -0.022180 0.235554 -0.012979 0.000000 -0.037570 0.000000
# 3 -0.005810 -0.012979 0.013425 0.000000 0.002307 0.000000
# 4 0.000000 0.000000 0.000000 -0.079881 0.000000 0.032468
# 5 -0.002715 -0.037570 0.002307 0.000000 0.041969 0.000000
# 6 0.000000 0.000000 0.000000 0.032468 0.000000 0.038674
#
#
# Mechanical properties :
#
#
# Convention : Reuss Voigt Hill
#
# Bulk Modulus (GPa) = 5.53683 59.41507 32.47595
# Shear Modulus (GPa) = 12.33199 19.24543 15.78871
#
# Velocity S-wave (km/s) = 2.64075 3.29894 2.98802
# Velocity P-wave (km/s) = 3.52549 6.93606 5.50173
#
# Compressibility (1/GPa) = 0.18060864
#
# Stress axis : x y z
#
# Youngs Moduli (GPa) = 73.70297 4.24531 74.48898
#
# Poissons Ratio (x) = 0.09416 0.43281
# Poissons Ratio (y) = 1.63476 0.96676
# Poissons Ratio (z) = 0.42824 0.05510
#
# Static dielectric constant tensor:
#      x y z
#    x 1.624700 0.000000 0.032710 
#    y 0.000000 1.605410 0.000000 
#    z 0.032710 0.000000 1.585550 
# 
# From -- ./inp_files/79249.got.cif
#   From: 2010.05.17/outbox.cif.g08.bks.cpg/sg10_40_cif.got.tgz:79249.got - 2010.06.03 11:33:40.
