data_PCOD9141831
_publ_section_title
;
Structure prediction by ZEFSAII (Michael W. Deem and Ramdas Pophale) SiO2 
 PCOD9141831
Probable space group: P 2/M
;
_chemical_formula_sum "Si O2"
_cell_formula_units_Z 28
_cell_length_a 19.440129
_cell_length_b 10.059617
_cell_length_c 11.694040
_cell_angle_alpha 90.000000
_cell_angle_beta 132.390130
_cell_angle_gamma 90.000000
_cell_volume 1689.031315
_symmetry_space_group_name_H-M "P 2/M"
_symmetry_group_IT_number 10
_symmetry_cell_setting 'monoclinic'
loop_
_space_group_symop_operation_xyz
x,y,z
-x,y,-z
-x,-y,-z
x,-y,z
loop_
_atom_site_type_symbol
_atom_site_label
_atom_site_fract_x
_atom_site_fract_y
_atom_site_fract_z
Si Si1 0.158797 0.844761 0.749659
Si Si2 0.816388 0.346140 0.434287
Si Si3 0.731278 0.143314 0.899968
Si Si4 0.391675 0.341444 0.372916
Si Si5 0.241871 0.658682 0.389822
Si Si6 0.968617 0.647897 0.252773
Si Si7 0.093537 0.225641 0.048254
O O1 0.186828 0.758472 0.671578
O O2 0.076355 0.762486 0.719603
O O3 0.135520 0.000000 0.699516
O O4 0.239428 0.844545 0.935742
O O5 0.793318 0.500000 0.375889
O O6 0.757293 0.299715 0.477625
O O7 0.921969 0.349536 0.600734
O O8 0.665595 0.261409 0.786077
O O9 0.828272 0.146460 0.936266
O O10 0.686472 0.000000 0.828703
O O11 0.500000 0.306363 0.500000
O O12 0.384301 0.500000 0.345342
O O13 0.335983 0.309492 0.427062
O O14 0.230985 0.500000 0.378899
O O15 0.155010 0.713687 0.219574
O O16 0.933421 0.500000 0.245631
O O17 0.944014 0.673860 0.092226
O O18 0.000000 0.164435 0.000000
#
# Coordination Sequence:
#
# PCOD9141831 Si02
#       7
#     4   4   4   4   4   4   4
#     4  10  21  35  47  63  94 134 174 210 244 281
#     4  10  19  30  46  68  95 129 169 209 243 285
#     4   9  20  35  50  72  99 131 168 202 243 293
#     4   9  18  34  58  84 105 124 152 197 251 304
#     4   9  17  29  47  74 105 130 158 199 251 302
#     4  10  19  29  46  70  94 128 175 213 244 289
#     4  10  17  28  47  71 103 134 163 203 249 290
#
# _framework density 16.577549999999999
#
# number of rings (size 3 to 8) (size 9 to 14) (size 15 to 20)
#    0.000    2.429    1.429    1.286    0.000    7.429 
#    0.000    2.857    0.000    0.857    0.000    6.000 
#    0.000    0.000    0.000    0.000    0.000    0.000 
#
# Total GULP energy -155881.235254 kJ/mol
# GULP energy per Si atom -5567.186973 kJ/mol
# Density = 1.653982 g / cm^3
# Si number density = 16.577550 Si / 1000 Ang^3
#
#
#
# Elastic Constant Matrix: (Units=GPa)
#
#
# Indices 1 2 3 4 5 6 
#
# 1 89.6891 41.7479 50.2900 0.0000 -3.1046 0.0000
# 2 41.7479 84.4709 40.7755 0.0000 -8.0894 0.0000
# 3 50.2900 40.7755 59.3847 0.0000 -8.1497 0.0000
# 4 0.0000 0.0000 0.0000 11.7457 0.0000 6.5385
# 5 -3.1046 -8.0894 -8.1497 0.0000 32.5543 0.0000
# 6 0.0000 0.0000 0.0000 6.5385 0.0000 -8.1272
#
#
#
# Elastic Compliance Matrix: (Units=1/GPa)
#
#
# Indices 1 2 3 4 5 6 
#
# 1 0.021912 -0.002927 -0.016941 0.000000 -0.002879 0.000000
# 2 -0.002927 0.018161 -0.009745 0.000000 0.001794 0.000000
# 3 -0.016941 -0.009745 0.038651 0.000000 0.005639 0.000000
# 4 0.000000 0.000000 0.000000 0.058802 0.000000 0.047308
# 5 -0.002879 0.001794 0.005639 0.000000 0.032301 0.000000
# 6 0.000000 0.000000 0.000000 0.047308 0.000000 -0.084984
#
#
# Mechanical properties :
#
#
# Convention : Reuss Voigt Hill
#
# Bulk Modulus (GPa) = 51.28905 55.46349 53.37627
# Shear Modulus (GPa) = 33.20764 13.94999 23.57882
#
# Velocity S-wave (km/s) = 4.48053 2.90401 3.77548
# Velocity P-wave (km/s) = 7.60085 6.69133 7.16055
#
# Compressibility (1/GPa) = 0.01949734
#
# Stress axis : x y z
#
# Youngs Moduli (GPa) = 45.63784 55.06339 25.87281
#
# Poissons Ratio (x) = 0.16119 0.43831
# Poissons Ratio (y) = 0.13360 0.25212
# Poissons Ratio (z) = 0.77315 0.53657
#
# Static dielectric constant tensor:
#      x y z
#    x 1.583210 0.000000 -0.024770 
#    y 0.000000 1.574900 0.000000 
#    z -0.024770 0.000000 1.540100 
# 
# From -- ./inp_files/54989.got.cif
#   From: 2010.05.17/outbox.cif.g08.bks.cpg/sg10_28_cif.got.tgz:54989.got - 2010.06.03 11:33:40.
