data_PCOD9141193
_publ_section_title
;
Structure prediction by ZEFSAII (Michael W. Deem and Ramdas Pophale) SiO2 
 PCOD9141193
Probable space group: C C
;
_chemical_formula_sum "Si O2"
_cell_formula_units_Z 24
_cell_length_a 19.996962
_cell_length_b 7.131416
_cell_length_c 14.128192
_cell_angle_alpha 90.000000
_cell_angle_beta 153.835570
_cell_angle_gamma 90.000000
_cell_volume 888.412139
_symmetry_space_group_name_H-M "C C"
_symmetry_group_IT_number 9
_symmetry_cell_setting 'monoclinic'
loop_
_space_group_symop_operation_xyz
x,y,z
x,-y,1/2+z
1/2+x,1/2+y,z
1/2+x,1/2-y,1/2+z
loop_
_atom_site_type_symbol
_atom_site_label
_atom_site_fract_x
_atom_site_fract_y
_atom_site_fract_z
Si Si1 0.213570 0.514409 0.300370
Si Si2 0.734415 0.582457 0.284857
Si Si3 0.690132 0.555202 0.007909
Si Si4 0.462876 0.892394 0.721714
Si Si5 0.462999 0.675387 0.480916
Si Si6 0.723365 0.139295 0.020547
O O1 0.217504 0.306260 0.262998
O O2 0.335504 0.638795 0.398388
O O3 0.244536 0.470254 0.449938
O O4 0.875776 0.493442 0.026879
O O5 0.729813 0.526641 0.168680
O O6 0.587624 0.487223 0.144700
O O7 0.663203 0.349655 0.930798
O O8 0.838111 0.634934 0.143460
O O9 0.553224 0.699522 0.818936
O O10 0.559048 0.866521 0.603633
O O11 0.598937 0.030466 0.923949
O O12 0.378361 0.654738 0.273794
#
# Coordination Sequence:
#
# PCOD9141193 Si02
#       6
#     4   4   4   4   4   4
#     4  12  32  60  95 137 187 250 309 389 474 561
#     4  12  32  54  99 134 186 248 311 387 476 560
#     4  12  32  58  92 133 184 246 310 388 462 562
#     4  12  33  57  89 138 185 242 311 385 472 552
#     4  12  33  57  94 140 188 244 320 389 469 568
#     4  12  32  56  93 130 192 242 309 388 469 555
#
# _framework density 27.014489999999999
#
# number of rings (size 3 to 8) (size 9 to 14) (size 15 to 20)
#    0.000    0.000    1.667    2.000   21.000    2.667 
#    3.000    0.000    0.000    0.000    0.000    0.000 
#    0.000    0.000    0.000    0.000    0.000    0.000 
#
# Total GULP energy -67449.201013 kJ/mol
# GULP energy per Si atom -5620.766751 kJ/mol
# Density = 2.695300 g / cm^3
# Si number density = 27.014490 Si / 1000 Ang^3
#
#
#
# Elastic Constant Matrix: (Units=GPa)
#
#
# Indices 1 2 3 4 5 6 
#
# 1 166.9831 11.6385 69.7243 0.0000 2.4314 0.0000
# 2 11.6385 137.7806 67.6465 0.0000 -3.5974 0.0000
# 3 69.7243 67.6465 184.4490 0.0000 -8.4091 0.0000
# 4 0.0000 0.0000 0.0000 54.9661 0.0000 -2.7692
# 5 2.4314 -3.5974 -8.4091 0.0000 68.5937 0.0000
# 6 0.0000 0.0000 0.0000 -2.7692 0.0000 40.2284
#
#
#
# Elastic Compliance Matrix: (Units=1/GPa)
#
#
# Indices 1 2 3 4 5 6 
#
# 1 0.007222 0.000888 -0.003083 0.000000 -0.000587 0.000000
# 2 0.000888 0.008961 -0.003623 0.000000 -0.000006 0.000000
# 3 -0.003083 -0.003623 0.007956 0.000000 0.000895 0.000000
# 4 0.000000 0.000000 0.000000 0.018256 0.000000 0.001257
# 5 -0.000587 -0.000006 0.000895 0.000000 0.014709 0.000000
# 6 0.000000 0.000000 0.000000 0.001257 0.000000 0.024945
#
#
# Mechanical properties :
#
#
# Convention : Reuss Voigt Hill
#
# Bulk Modulus (GPa) = 79.96321 87.47014 83.71668
# Shear Modulus (GPa) = 51.09734 55.43788 53.26761
#
# Velocity S-wave (km/s) = 4.35383 4.53498 4.44533
# Velocity P-wave (km/s) = 7.41207 7.73762 7.57659
#
# Compressibility (1/GPa) = 0.01250575
#
# Stress axis : x y z
#
# Youngs Moduli (GPa) = 138.45684 111.59089 125.68829
#
# Poissons Ratio (x) = -0.09910 0.38746
# Poissons Ratio (y) = -0.12296 0.45531
# Poissons Ratio (z) = 0.42682 0.40424
#
# Static dielectric constant tensor:
#      x y z
#    x 2.147730 0.000000 -0.078360 
#    y 0.000000 2.065520 0.000000 
#    z -0.078360 0.000000 2.105730 
# 
# From -- ./inp_files/26764.got.cif
#   From: 2010.05.17/outbox.cif.g08.bks.cpg/sg9_14_cif.got.tgz:26764.got - 2010.06.03 20:04:27.
