data_PCOD9141357
_publ_section_title
;
Structure prediction by ZEFSAII (Michael W. Deem and Ramdas Pophale) SiO2 
 PCOD9141357
Probable space group: P 2/M
;
_chemical_formula_sum "Si O2"
_cell_formula_units_Z 32
_cell_length_a 23.704463
_cell_length_b 7.829166
_cell_length_c 26.763623
_cell_angle_alpha 90.000000
_cell_angle_beta 166.081274
_cell_angle_gamma 90.000000
_cell_volume 1194.778455
_symmetry_space_group_name_H-M "P 2/M"
_symmetry_group_IT_number 10
_symmetry_cell_setting 'monoclinic'
loop_
_space_group_symop_operation_xyz
x,y,z
-x,y,-z
-x,-y,-z
x,-y,z
loop_
_atom_site_type_symbol
_atom_site_label
_atom_site_fract_x
_atom_site_fract_y
_atom_site_fract_z
Si Si1 0.993871 0.197676 0.818225
Si Si2 0.716385 0.798563 0.391341
Si Si3 0.651710 0.204499 0.729241
Si Si4 0.791364 0.207684 0.096033
Si Si5 0.212814 0.687079 0.645924
Si Si6 0.478514 0.304293 0.280117
Si Si7 0.169827 0.791911 0.219422
Si Si8 0.378037 0.808554 0.945586
O O1 0.839914 0.271152 0.731761
O O2 0.922621 0.000000 0.750157
O O3 0.037241 0.274688 0.800626
O O4 0.257541 0.195992 0.069578
O O5 0.464167 0.756247 0.148289
O O6 0.881369 0.725427 0.490094
O O7 0.691045 0.729837 0.425088
O O8 0.743512 0.000000 0.417908
O O9 0.482755 0.265143 0.628347
O O10 0.658145 0.266048 0.677370
O O11 0.632234 0.000000 0.710067
O O12 0.910727 0.244513 0.974171
O O13 0.789291 0.262511 0.152614
O O14 0.817493 0.000000 0.119987
O O15 0.327460 0.500000 0.745138
O O16 0.390319 0.821939 0.820634
O O17 0.000000 0.682783 0.500000
O O18 0.407465 0.500000 0.214426
O O19 0.192820 0.000000 0.242166
O O20 0.295841 0.000000 0.860952
O O21 0.500000 0.728127 0.000000
#
# Coordination Sequence:
#
# PCOD9141357 Si02
#       8
#     4   4   4   4   4   4   4   4
#     4   8  12  20  31  41  56  83 119 154 191 235
#     4   9  16  27  41  54  70  96 129 162 197 240
#     4   8  12  19  27  35  51  78 112 148 187 229
#     4   7  11  20  35  52  68  89 121 162 200 232
#     4  10  20  32  46  66  90 112 137 174 219 262
#     4  10  16  20  28  44  64  85 113 152 195 234
#     4   7  10  16  27  38  49  73 112 153 186 223
#     4   9  17  29  45  65  88 115 148 181 211 249
#
# _framework density 26.783207000000001
#
# number of rings (size 3 to 8) (size 9 to 14) (size 15 to 20)
#    0.000    3.500    0.000    4.875    0.000    1.250 
#    0.000    5.000    0.000    0.000    0.000    0.000 
#    0.000    0.000    0.000    0.000    0.000    1.250 
#
# Total GULP energy -178489.445857 kJ/mol
# GULP energy per Si atom -5577.795183 kJ/mol
# Density = 2.672225 g / cm^3
# Si number density = 26.783207 Si / 1000 Ang^3
#
#
#
# Elastic Constant Matrix: (Units=GPa)
#
#
# Indices 1 2 3 4 5 6 
#
# 1 365.2317 14.6746 62.4684 0.0000 33.9427 0.0000
# 2 14.6746 67.6490 2.6164 0.0000 8.8884 0.0000
# 3 62.4684 2.6164 52.7461 0.0000 -1.8541 0.0000
# 4 0.0000 0.0000 0.0000 -15.6409 0.0000 73.4407
# 5 33.9427 8.8884 -1.8541 0.0000 61.9059 0.0000
# 6 0.0000 0.0000 0.0000 73.4407 0.0000 -46.4442
#
#
#
# Elastic Compliance Matrix: (Units=1/GPa)
#
#
# Indices 1 2 3 4 5 6 
#
# 1 0.003710 -0.000355 -0.004451 0.000000 -0.002117 0.000000
# 2 -0.000355 0.015136 -0.000401 0.000000 -0.001991 0.000000
# 3 -0.004451 -0.000401 0.024363 0.000000 0.003228 0.000000
# 4 0.000000 0.000000 0.000000 0.009951 0.000000 0.015736
# 5 -0.002117 -0.001991 0.003228 0.000000 0.017697 0.000000
# 6 0.000000 0.000000 0.000000 0.015736 0.000000 0.003351
#
#
# Mechanical properties :
#
#
# Convention : Reuss Voigt Hill
#
# Bulk Modulus (GPa) = 30.49049 71.68284 51.08667
# Shear Modulus (GPa) = 52.32635 27.02200 39.67417
#
# Velocity S-wave (km/s) = 4.42486 3.17979 3.85295
# Velocity P-wave (km/s) = 6.12493 6.34851 6.23772
#
# Compressibility (1/GPa) = 0.03279711
#
# Stress axis : x y z
#
# Youngs Moduli (GPa) = 269.52553 66.06691 41.04518
#
# Poissons Ratio (x) = 0.02343 0.18269
# Poissons Ratio (y) = 0.09557 0.01645
# Poissons Ratio (z) = 1.19964 0.02648
#
# Static dielectric constant tensor:
#      x y z
#    x 2.213260 0.000000 0.074610 
#    y 0.000000 1.995300 0.000000 
#    z 0.074610 0.000000 2.302950 
# 
# From -- ./inp_files/95752.got.cif
#   From: 2010.05.17/outbox.cif.g08.bks.cpg/sg10_48_cif.got.tgz:95752.got - 2010.06.03 11:33:40.
