data_PCOD9141715
_publ_section_title
;
Structure prediction by ZEFSAII (Michael W. Deem and Ramdas Pophale) SiO2 
 PCOD9141715
Probable space group: P 2/M
;
_chemical_formula_sum "Si O2"
_cell_formula_units_Z 32
_cell_length_a 26.277100
_cell_length_b 7.819145
_cell_length_c 25.018737
_cell_angle_alpha 90.000000
_cell_angle_beta 15.589200
_cell_angle_gamma 90.000000
_cell_volume 1381.438609
_symmetry_space_group_name_H-M "P 2/M"
_symmetry_group_IT_number 10
_symmetry_cell_setting 'monoclinic'
loop_
_space_group_symop_operation_xyz
x,y,z
-x,y,-z
-x,-y,-z
x,-y,z
loop_
_atom_site_type_symbol
_atom_site_label
_atom_site_fract_x
_atom_site_fract_y
_atom_site_fract_z
Si Si1 0.996855 0.707808 0.415270
Si Si2 0.503956 0.300187 0.257817
Si Si3 0.371012 0.197477 0.503026
Si Si4 0.716371 0.206458 0.296477
Si Si5 0.079290 0.193981 0.133533
Si Si6 0.208533 0.299314 0.892115
Si Si7 0.185538 0.696892 0.507606
Si Si8 0.293290 0.291898 0.195528
O O1 0.012118 0.500000 0.395223
O O2 0.195382 0.768062 0.239628
O O3 0.919884 0.774544 0.436832
O O4 0.844107 0.745285 0.615839
O O5 0.546417 0.500000 0.205913
O O6 0.376220 0.287225 0.440723
O O7 0.701225 0.210042 0.070862
O O8 0.380970 0.228829 0.333199
O O9 0.259737 0.270655 0.666954
O O10 0.592624 0.203357 0.297364
O O11 0.318193 0.000000 0.548649
O O12 0.500000 0.257564 0.500000
O O13 0.839490 0.261729 0.120993
O O14 0.724706 0.000000 0.290486
O O15 0.072165 0.244947 0.078364
O O16 0.015505 0.000000 0.203777
O O17 0.958161 0.301952 0.297400
O O18 0.244914 0.500000 0.861366
O O19 0.230808 0.500000 0.447776
O O20 0.302967 0.500000 0.182406
O O21 0.500000 0.226070 0.000000
#
# Coordination Sequence:
#
# PCOD9141715 Si02
#       8
#     4   4   4   4   4   4   4   4
#     4   8  15  27  43  70 107 140 173 211 253 307
#     4  10  20  34  53  76 104 137 176 223 272 323
#     4   9  16  27  44  66  96 132 170 213 262 320
#     4   8  14  24  39  63  94 127 164 208 261 321
#     4  11  22  36  54  74 102 140 181 224 268 320
#     4  10  17  26  44  69  97 128 167 216 268 322
#     4  10  21  36  54  78 109 144 180 221 269 315
#     4   8  13  23  43  72 106 142 173 205 251 304
#
# _framework density 23.164256999999999
#
# number of rings (size 3 to 8) (size 9 to 14) (size 15 to 20)
#    0.000    2.750    0.000    6.000    0.000    4.750 
#    0.000    3.750    0.000    0.750    0.000    7.000 
#    0.000    5.000    0.000    0.000    0.000    0.000 
#
# Total GULP energy -178636.037402 kJ/mol
# GULP energy per Si atom -5582.376169 kJ/mol
# Density = 2.311153 g / cm^3
# Si number density = 23.164257 Si / 1000 Ang^3
#
#
#
# Elastic Constant Matrix: (Units=GPa)
#
#
# Indices 1 2 3 4 5 6 
#
# 1 144.9652 -0.0405 17.9004 0.0000 -37.8232 0.0000
# 2 -0.0405 56.4324 -8.9371 0.0000 -5.0311 0.0000
# 3 17.9004 -8.9371 46.1767 0.0000 -26.2820 0.0000
# 4 0.0000 0.0000 0.0000 -3.4707 0.0000 -60.0620
# 5 -37.8232 -5.0311 -26.2820 0.0000 28.7311 0.0000
# 6 0.0000 0.0000 0.0000 -60.0620 0.0000 -335.9746
#
#
#
# Elastic Compliance Matrix: (Units=1/GPa)
#
#
# Indices 1 2 3 4 5 6 
#
# 1 0.013064 0.004664 0.012708 0.000000 0.029639 0.000000
# 2 0.004664 0.022821 0.017477 0.000000 0.026124 0.000000
# 3 0.012708 0.017477 0.065455 0.000000 0.079665 0.000000
# 4 0.000000 0.000000 0.000000 0.137616 0.000000 -0.024602
# 5 0.029639 0.026124 0.079665 0.000000 0.151274 0.000000
# 6 0.000000 0.000000 0.000000 -0.024602 0.000000 0.001422
#
#
# Mechanical properties :
#
#
# Convention : Reuss Voigt Hill
#
# Bulk Modulus (GPa) = 5.84663 29.49111 17.66887
# Shear Modulus (GPa) = 13.19391 -46.23275 -16.51942
#
# Velocity S-wave (km/s) = 2.38918 -4.47236 -2.67337
# Velocity P-wave (km/s) = 3.18439 3.72966 1.37296
#
# Compressibility (1/GPa) = 0.17103858
#
# Stress axis : x y z
#
# Youngs Moduli (GPa) = 76.54889 43.82016 15.27776
#
# Poissons Ratio (x) = -0.20439 -0.19415
# Poissons Ratio (y) = -0.35705 -0.26702
# Poissons Ratio (z) = -0.97280 -0.76586
#
# Static dielectric constant tensor:
#      x y z
#    x 1.907010 0.000000 -0.045180 
#    y 0.000000 1.842910 0.000000 
#    z -0.045180 0.000000 1.904710 
# 
# From -- ./inp_files/90540.got.cif
#   From: 2010.05.17/outbox.cif.g08.bks.cpg/sg10_46_cif.got.tgz:90540.got - 2010.06.03 11:33:40.
