data_PCOD9141934
_publ_section_title
;
Structure prediction by ZEFSAII (Michael W. Deem and Ramdas Pophale) SiO2 
 PCOD9141934
Probable space group: P 2/M
;
_chemical_formula_sum "Si O2"
_cell_formula_units_Z 30
_cell_length_a 20.476650
_cell_length_b 13.388029
_cell_length_c 12.244279
_cell_angle_alpha 90.000000
_cell_angle_beta 149.913390
_cell_angle_gamma 90.000000
_cell_volume 1682.727800
_symmetry_space_group_name_H-M "P 2/M"
_symmetry_group_IT_number 10
_symmetry_cell_setting 'monoclinic'
loop_
_space_group_symop_operation_xyz
x,y,z
-x,y,-z
-x,-y,-z
x,-y,z
loop_
_atom_site_type_symbol
_atom_site_label
_atom_site_fract_x
_atom_site_fract_y
_atom_site_fract_z
Si Si1 0.234852 0.314319 0.109006
Si Si2 0.996279 0.382390 0.369806
Si Si3 0.628591 0.770485 0.405880
Si Si4 0.500000 0.765156 0.000000
Si Si5 0.577938 0.388474 0.800120
Si Si6 0.843048 0.383878 0.766377
Si Si7 0.707859 0.610578 0.213462
Si Si8 0.359791 0.885768 0.357739
O O1 0.106343 0.326236 0.851606
O O2 0.354857 0.361257 0.215983
O O3 0.210481 0.369768 0.187795
O O4 0.267302 0.198711 0.174220
O O5 0.960104 0.500000 0.317473
O O6 0.143148 0.374983 0.539608
O O7 0.000000 0.347544 0.500000
O O8 0.527537 0.690755 0.312671
O O9 0.760317 0.702493 0.583032
O O10 0.637988 0.855881 0.511084
O O11 0.565304 0.812583 0.202455
O O12 0.385418 0.693803 0.876203
O O13 0.522070 0.500000 0.716636
O O14 0.689738 0.388085 0.055780
O O15 0.822864 0.500000 0.700546
O O16 0.000000 0.366980 0.000000
O O17 0.665676 0.500000 0.189149
O O18 0.500000 0.875422 0.500000
O O19 0.317932 0.000000 0.282820
#
# Coordination Sequence:
#
# PCOD9141934 Si02
#       8
#     4   4   4   2   4   4   4   4
#     4  11  20  33  54  78 107 145 187 230 279 326
#     4  10  18  29  48  78 113 150 185 217 258 317
#     4  10  21  37  55  82 111 144 185 229 280 332
#     4  10  21  34  53  78 112 150 182 224 274 326
#     4  10  17  29  50  81 115 145 179 220 266 321
#     4  10  22  35  48  74 114 157 194 222 257 319
#     4   9  18  29  45  74 113 154 189 213 247 308
#     4  10  21  40  63  83 102 129 179 242 302 346
#
# _framework density 17.828195999999998
#
# number of rings (size 3 to 8) (size 9 to 14) (size 15 to 20)
#    0.000    2.000    2.667    1.800    1.867    1.600 
#    0.000    2.333    0.000    6.800    0.000    0.933 
#    0.000    0.000    0.000    0.000    0.000    0.000 
#
# Total GULP energy -167315.767635 kJ/mol
# GULP energy per Si atom -5577.192254 kJ/mol
# Density = 1.778762 g / cm^3
# Si number density = 17.828196 Si / 1000 Ang^3
#
#
#
# Elastic Constant Matrix: (Units=GPa)
#
#
# Indices 1 2 3 4 5 6 
#
# 1 54.0012 2.0817 11.2097 0.0000 -5.6375 0.0000
# 2 2.0817 53.3582 15.5330 0.0000 -0.3144 0.0000
# 3 11.2097 15.5330 89.5387 0.0000 -6.5116 0.0000
# 4 0.0000 0.0000 0.0000 14.1269 0.0000 -1.7103
# 5 -5.6375 -0.3144 -6.5116 0.0000 28.7397 0.0000
# 6 0.0000 0.0000 0.0000 -1.7103 0.0000 18.3342
#
#
#
# Elastic Compliance Matrix: (Units=1/GPa)
#
#
# Indices 1 2 3 4 5 6 
#
# 1 0.019315 -0.000105 -0.002160 0.000000 0.003298 0.000000
# 2 -0.000105 0.019748 -0.003455 0.000000 -0.000588 0.000000
# 3 -0.002160 -0.003455 0.012206 0.000000 0.002304 0.000000
# 4 0.000000 0.000000 0.000000 0.071596 0.000000 0.006679
# 5 0.003298 -0.000588 0.002304 0.000000 0.035958 0.000000
# 6 0.000000 0.000000 0.000000 0.006679 0.000000 0.055166
#
#
# Mechanical properties :
#
#
# Convention : Reuss Voigt Hill
#
# Bulk Modulus (GPa) = 25.10854 28.28299 26.69577
# Shear Modulus (GPa) = 20.94642 23.44509 22.19575
#
# Velocity S-wave (km/s) = 3.43141 3.63030 3.53226
# Velocity P-wave (km/s) = 5.46018 5.78539 5.62514
#
# Compressibility (1/GPa) = 0.03982708
#
# Stress axis : x y z
#
# Youngs Moduli (GPa) = 51.77364 50.63861 81.92855
#
# Poissons Ratio (x) = 0.00533 0.17696
# Poissons Ratio (y) = 0.00545 0.28309
# Poissons Ratio (z) = 0.11183 0.17497
#
# Static dielectric constant tensor:
#      x y z
#    x 1.653330 0.000000 -0.026570 
#    y 0.000000 1.559590 0.000000 
#    z -0.026570 0.000000 1.658930 
# 
# From -- ./inp_files/55936.got.cif
#   From: 2010.05.17/outbox.cif.g08.bks.cpg/sg10_28_cif.got.tgz:55936.got - 2010.06.03 11:33:40.
