data_PCOD9141828
_publ_section_title
;
Structure prediction by ZEFSAII (Michael W. Deem and Ramdas Pophale) SiO2 
 PCOD9141828
Probable space group: P 2/M
;
_chemical_formula_sum "Si O2"
_cell_formula_units_Z 32
_cell_length_a 20.685995
_cell_length_b 7.387124
_cell_length_c 20.440533
_cell_angle_alpha 90.000000
_cell_angle_beta 30.615269
_cell_angle_gamma 90.000000
_cell_volume 1590.716478
_symmetry_space_group_name_H-M "P 2/M"
_symmetry_group_IT_number 10
_symmetry_cell_setting 'monoclinic'
loop_
_space_group_symop_operation_xyz
x,y,z
-x,y,-z
-x,-y,-z
x,-y,z
loop_
_atom_site_type_symbol
_atom_site_label
_atom_site_fract_x
_atom_site_fract_y
_atom_site_fract_z
Si Si1 0.364228 0.778006 0.355929
Si Si2 0.355165 0.788915 0.855680
Si Si3 0.098447 0.717966 0.822653
Si Si4 0.680725 0.780030 0.891469
Si Si5 0.397990 0.779996 0.180025
Si Si6 0.180343 0.718123 0.891877
Si Si7 0.866554 0.212113 0.355279
Si Si8 0.148312 0.221866 0.140327
O O1 0.503409 0.716073 0.258452
O O2 0.349628 0.723182 0.292918
O O3 0.250196 0.713799 0.501200
O O4 0.364013 0.000000 0.358119
O O5 0.298665 0.775162 0.832318
O O6 0.365251 0.000000 0.864517
O O7 0.248121 0.714869 0.998184
O O8 0.096180 0.500000 0.825874
O O9 0.172966 0.777924 0.822843
O O10 0.152334 0.773006 0.706055
O O11 0.951905 0.779177 0.959117
O O12 0.678042 0.720687 0.818338
O O13 0.794422 0.723801 0.839509
O O14 0.681283 0.000000 0.890492
O O15 0.545190 0.726872 0.041040
O O16 0.397088 0.000000 0.180580
O O17 0.178628 0.500000 0.893344
O O18 0.006223 0.286815 0.250135
O O19 0.872998 0.000000 0.365871
O O20 0.146095 0.000000 0.139806
#
# Coordination Sequence:
#
# PCOD9141828 Si02
#       8
#     4   4   4   4   4   4   4   4
#     4   9  17  28  41  62  95 127 151 182 227 270
#     4  10  17  28  47  69  92 119 151 186 224 266
#     4   9  18  33  50  68  92 119 146 183 230 272
#     4   8  12  19  35  58  85 118 154 186 217 262
#     4   8  12  20  35  56  85 122 154 179 219 269
#     4   9  18  32  50  71  92 113 145 191 231 264
#     4  10  19  30  45  67  95 123 150 185 227 269
#     4   9  15  24  39  63  90 115 150 190 221 255
#
# _framework density 20.116721999999999
#
# number of rings (size 3 to 8) (size 9 to 14) (size 15 to 20)
#    0.000    3.000    2.500    1.500    0.000    0.500 
#    0.000    3.125    0.000    7.500    0.000    0.000 
#    0.000    6.000    0.000    0.000    0.000    0.000 
#
# Total GULP energy -178492.900328 kJ/mol
# GULP energy per Si atom -5577.903135 kJ/mol
# Density = 2.007094 g / cm^3
# Si number density = 20.116722 Si / 1000 Ang^3
#
#
#
# Elastic Constant Matrix: (Units=GPa)
#
#
# Indices 1 2 3 4 5 6 
#
# 1 168.5587 -6.0121 108.5388 0.0000 10.0312 0.0000
# 2 -6.0121 66.8456 8.9211 0.0000 -4.7148 0.0000
# 3 108.5388 8.9211 164.6254 0.0000 12.5051 0.0000
# 4 0.0000 0.0000 0.0000 -2.2004 0.0000 14.1359
# 5 10.0312 -4.7148 12.5051 0.0000 26.8446 0.0000
# 6 0.0000 0.0000 0.0000 14.1359 0.0000 57.1097
#
#
#
# Elastic Compliance Matrix: (Units=1/GPa)
#
#
# Indices 1 2 3 4 5 6 
#
# 1 0.010544 0.001862 -0.007027 0.000000 -0.000340 0.000000
# 2 0.001862 0.015657 -0.002314 0.000000 0.003132 0.000000
# 3 -0.007027 -0.002314 0.011055 0.000000 -0.002931 0.000000
# 4 0.000000 0.000000 0.000000 -0.175459 0.000000 0.043430
# 5 -0.000340 0.003132 -0.002931 0.000000 0.039294 0.000000
# 6 0.000000 0.000000 0.000000 0.043430 0.000000 0.006760
#
#
# Mechanical properties :
#
#
# Convention : Reuss Voigt Hill
#
# Bulk Modulus (GPa) = 44.84553 69.21390 57.02972
# Shear Modulus (GPa) = -71.67616 35.58958 -18.04329
#
# Velocity S-wave (km/s) = -5.97557 4.21069 -2.99813
# Velocity P-wave (km/s) = 5.02682 7.62370 4.05289
#
# Compressibility (1/GPa) = 0.02229876
#
# Stress axis : x y z
#
# Youngs Moduli (GPa) = 94.84012 63.86886 90.45439
#
# Poissons Ratio (x) = -0.11894 0.63561
# Poissons Ratio (y) = -0.17661 0.20932
# Poissons Ratio (z) = 0.66643 0.14780
#
# Static dielectric constant tensor:
#      x y z
#    x 1.711950 0.000000 0.005150 
#    y 0.000000 1.787310 0.000000 
#    z 0.005150 0.000000 1.676990 
# 
# From -- ./inp_files/78962.got.cif
#   From: 2010.05.17/outbox.cif.g08.bks.cpg/sg10_40_cif.got.tgz:78962.got - 2010.06.03 11:33:40.
