data_PCOD9141219
_publ_section_title
;
Structure prediction by ZEFSAII (Michael W. Deem and Ramdas Pophale) SiO2 
 PCOD9141219
Probable space group: C C
;
_chemical_formula_sum "Si O2"
_cell_formula_units_Z 16
_cell_length_a 15.000000
_cell_length_b 15.000000
_cell_length_c 21.000000
_cell_angle_alpha 90.000000
_cell_angle_beta 20.000000
_cell_angle_gamma 90.000000
_cell_volume 1616.045177
_symmetry_space_group_name_H-M "C C"
_symmetry_group_IT_number 9
_symmetry_cell_setting 'monoclinic'
loop_
_space_group_symop_operation_xyz
x,y,z
x,-y,1/2+z
1/2+x,1/2+y,z
1/2+x,1/2-y,1/2+z
loop_
_atom_site_type_symbol
_atom_site_label
_atom_site_fract_x
_atom_site_fract_y
_atom_site_fract_z
Si Si1 0.427140 0.994149 0.322900
Si Si2 0.698250 0.136586 0.211244
Si Si3 0.738391 0.166441 0.449405
Si Si4 0.850020 0.342071 0.775003
Si Si5 0.006785 0.853156 0.632769
Si Si6 0.654283 0.607061 0.801265
Si Si7 0.398645 0.293121 0.358874
Si Si8 0.957303 0.094245 0.431319
O O1 0.168872 0.943224 0.515345
O O2 0.567098 0.041824 0.288188
O O3 0.363333 0.070481 0.312537
O O4 0.651819 0.925734 0.150477
O O5 0.465634 0.204749 0.354019
O O6 0.808689 0.151144 0.206623
O O7 0.928543 0.144748 0.002239
O O8 0.694997 0.269353 0.495952
O O9 0.440139 0.128316 0.638862
O O10 0.924796 0.129565 0.380740
O O11 0.872247 0.154137 0.291192
O O12 0.875768 0.252876 0.803226
O O13 0.611852 0.350166 0.883373
O O14 0.122708 0.339955 0.554400
O O15 0.602380 0.643307 0.763316
O O16 0.602099 0.501454 0.834859
#
# Coordination Sequence:
#
# PCOD9141219 Si02
#       8
#     4   4   4   4   4   4   4   4
#     4  10  21  44  68  92 133 180 222 276 346 412
#     4  10  21  39  68  98 129 175 219 281 333 398
#     4  12  27  41  68 100 130 182 227 289 334 410
#     4  11  24  42  69 104 136 181 226 279 347 406
#     4  12  25  42  65  98 131 170 236 278 341 399
#     4  11  22  43  73  99 137 178 229 280 341 409
#     4  11  21  40  66 104 128 173 224 276 328 405
#     4  11  23  45  67  95 142 183 223 275 350 409
#
# _framework density 9.9007129999999997
#
# number of rings (size 3 to 8) (size 9 to 14) (size 15 to 20)
#    0.000    1.000    5.000    4.500    1.750    3.000 
#    2.250    0.000    0.000    0.000    0.000    0.000 
#    0.000    0.000    0.000    0.000    0.000    0.000 
#
# Total GULP energy -89132.571992 kJ/mol
# GULP energy per Si atom -5570.785750 kJ/mol
# Density = 0.987818 g / cm^3
# Si number density = 9.900713 Si / 1000 Ang^3
#
#
#
# Elastic Constant Matrix: (Units=GPa)
#
#
# Indices 1 2 3 4 5 6 
#
# 1 168.7910 34.8920 31.3731 0.0061 -8.4111 0.0066
# 2 34.8920 60.0103 28.4984 -0.0018 6.7893 0.0533
# 3 31.3731 28.4984 74.7533 -0.1184 -8.4499 0.0612
# 4 0.0061 -0.0018 -0.1184 39.1967 0.1089 -5.7689
# 5 -8.4111 6.7893 -8.4499 0.1089 24.4468 -0.0666
# 6 0.0066 0.0533 0.0612 -5.7689 -0.0666 31.3188
#
#
#
# Elastic Compliance Matrix: (Units=1/GPa)
#
#
# Indices 1 2 3 4 5 6 
#
# 1 0.007108 -0.003960 -0.001116 -0.000012 0.003160 0.000012
# 2 -0.003960 0.024488 -0.008946 -0.000001 -0.011255 -0.000047
# 3 -0.001116 -0.008946 0.018205 0.000032 0.008393 0.000004
# 4 -0.000012 -0.000001 0.000032 0.026224 -0.000096 0.004830
# 5 0.003160 -0.011255 0.008393 -0.000096 0.048020 0.000086
# 6 0.000012 -0.000047 0.000004 0.004830 0.000086 0.032820
#
#
# Mechanical properties :
#
#
# Convention : Reuss Voigt Hill
#
# Bulk Modulus (GPa) = 45.96331 54.78684 50.37508
# Shear Modulus (GPa) = 26.01986 32.91188 29.46587
#
# Velocity S-wave (km/s) = 3.62890 4.08130 3.86173
# Velocity P-wave (km/s) = 6.38914 7.06665 6.73642
#
# Compressibility (1/GPa) = 0.02175648
#
# Stress axis : x y z
#
# Youngs Moduli (GPa) = 140.68528 40.83605 54.92992
#
# Poissons Ratio (x) = 0.16172 0.06132
# Poissons Ratio (y) = 0.55715 0.49140
# Poissons Ratio (z) = 0.15704 0.36531
#
# Static dielectric constant tensor:
#      x y z
#    x 1.728080 0.000000 0.027800 
#    y 0.000000 1.765360 0.000030 
#    z 0.027800 0.000030 1.720530 
# 
# From -- ./inp_files/9722.got.cif
#   From: 2010.05.17/outbox.ucp.g08.bks.cvg/sg9_5_cif.got.tgz:9722.got - 2010.06.11 13:03:20.
