data_PCOD9141957
_publ_section_title
;
Structure prediction by ZEFSAII (Michael W. Deem and Ramdas Pophale) SiO2 
 PCOD9141957
Probable space group: P 2/M
;
_chemical_formula_sum "Si O2"
_cell_formula_units_Z 32
_cell_length_a 9.303307
_cell_length_b 17.754231
_cell_length_c 19.521172
_cell_angle_alpha 90.000000
_cell_angle_beta 28.654436
_cell_angle_gamma 90.000000
_cell_volume 1546.169448
_symmetry_space_group_name_H-M "P 2/M"
_symmetry_group_IT_number 10
_symmetry_cell_setting 'monoclinic'
loop_
_space_group_symop_operation_xyz
x,y,z
-x,y,-z
-x,-y,-z
x,-y,z
loop_
_atom_site_type_symbol
_atom_site_label
_atom_site_fract_x
_atom_site_fract_y
_atom_site_fract_z
Si Si1 0.479220 0.260366 0.265333
Si Si2 0.154031 0.083905 0.118783
Si Si3 0.886163 0.226063 0.776474
Si Si4 0.658242 0.415836 0.116984
Si Si5 0.919287 0.341062 0.883159
Si Si6 0.762806 0.802593 0.024796
Si Si7 0.831743 0.270258 0.474091
Si Si8 0.522254 0.413897 0.573498
O O1 0.534370 0.346064 0.214027
O O2 0.687387 0.203377 0.135962
O O3 0.437762 0.246760 0.363446
O O4 0.142889 0.247412 0.377505
O O5 0.027963 0.151297 0.217919
O O6 0.026394 0.000000 0.177562
O O7 0.500000 0.079131 0.000000
O O8 0.140868 0.118870 0.048148
O O9 0.844749 0.297074 0.844282
O O10 0.561868 0.213575 0.876805
O O11 0.140827 0.241693 0.614319
O O12 0.523223 0.500000 0.180711
O O13 0.687356 0.391950 0.024191
O O14 0.000000 0.421292 0.000000
O O15 0.215170 0.387827 0.739341
O O16 0.955367 0.270404 0.920646
O O17 0.786634 0.359890 0.487940
O O18 0.500000 0.406239 0.500000
O O19 0.578861 0.500000 0.566262
#
# Coordination Sequence:
#
# PCOD9141957 Si02
#       8
#     4   4   4   4   4   4   4   4
#     4   9  19  32  51  68  90 126 166 193 235 282
#     4   8  13  23  44  73 100 124 147 183 234 279
#     4   9  16  29  48  70  97 121 152 194 232 279
#     4  10  20  33  48  66  90 118 154 203 247 284
#     4  10  17  30  48  65  86 118 152 193 242 280
#     4   8  16  29  48  71  96 119 152 198 231 276
#     4  10  19  34  49  66  92 129 162 199 234 281
#     4  11  22  33  45  65  93 123 158 203 248 286
#
# _framework density 20.696308999999999
#
# number of rings (size 3 to 8) (size 9 to 14) (size 15 to 20)
#    0.000    2.625    1.250    2.250    0.000    2.000 
#    0.000    1.250    0.000    5.250    0.000   12.250 
#    0.000   80.500    0.000    0.750    0.000    0.000 
#
# Total GULP energy -178307.142655 kJ/mol
# GULP energy per Si atom -5572.098208 kJ/mol
# Density = 2.064920 g / cm^3
# Si number density = 20.696309 Si / 1000 Ang^3
#
#
#
# Elastic Constant Matrix: (Units=GPa)
#
#
# Indices 1 2 3 4 5 6 
#
# 1 33.3742 12.2673 17.9766 0.0000 23.0151 0.0000
# 2 12.2673 113.2465 47.9598 0.0000 19.2659 0.0000
# 3 17.9766 47.9598 141.5246 0.0000 36.0459 0.0000
# 4 0.0000 0.0000 0.0000 13.9247 0.0000 -0.7031
# 5 23.0151 19.2659 36.0459 0.0000 36.7677 0.0000
# 6 0.0000 0.0000 0.0000 -0.7031 0.0000 14.2602
#
#
#
# Elastic Compliance Matrix: (Units=1/GPa)
#
#
# Indices 1 2 3 4 5 6 
#
# 1 0.053342 -0.000820 0.002529 0.000000 -0.035439 0.000000
# 2 -0.000820 0.010518 -0.002915 0.000000 -0.002140 0.000000
# 3 0.002529 -0.002915 0.010325 0.000000 -0.010177 0.000000
# 4 0.000000 0.000000 0.000000 0.071994 0.000000 0.003550
# 5 -0.035439 -0.002140 -0.010177 0.000000 0.060480 0.000000
# 6 0.000000 0.000000 0.000000 0.003550 0.000000 0.070300
#
#
# Mechanical properties :
#
#
# Convention : Reuss Voigt Hill
#
# Bulk Modulus (GPa) = 13.93314 49.39477 31.66395
# Shear Modulus (GPa) = 16.48558 26.98662 21.73610
#
# Velocity S-wave (km/s) = 2.82538 3.61492 3.24426
# Velocity P-wave (km/s) = 4.17019 6.42976 5.41905
#
# Compressibility (1/GPa) = 0.07177131
#
# Stress axis : x y z
#
# Youngs Moduli (GPa) = 18.74702 95.07782 96.85511
#
# Poissons Ratio (x) = 0.07797 -0.24490
# Poissons Ratio (y) = 0.01537 0.28233
# Poissons Ratio (z) = -0.04740 0.27715
#
# Static dielectric constant tensor:
#      x y z
#    x 1.898960 0.000000 -0.028680 
#    y 0.000000 1.708920 0.000000 
#    z -0.028680 0.000000 1.816180 
# 
# From -- ./inp_files/84190.got.cif
#   From: 2010.05.17/outbox.cif.g08.bks.cpg/sg10_43_cif.got.tgz:84190.got - 2010.06.03 11:33:40.
