data_PCOD9141423
_publ_section_title
;
Structure prediction by ZEFSAII (Michael W. Deem and Ramdas Pophale) SiO2 
 PCOD9141423
Probable space group: P 2/M
;
_chemical_formula_sum "Si O2"
_cell_formula_units_Z 26
_cell_length_a 7.547201
_cell_length_b 7.392862
_cell_length_c 22.464179
_cell_angle_alpha 90.000000
_cell_angle_beta 54.320521
_cell_angle_gamma 90.000000
_cell_volume 1018.125927
_symmetry_space_group_name_H-M "P 2/M"
_symmetry_group_IT_number 10
_symmetry_cell_setting 'monoclinic'
loop_
_space_group_symop_operation_xyz
x,y,z
-x,y,-z
-x,-y,-z
x,-y,z
loop_
_atom_site_type_symbol
_atom_site_label
_atom_site_fract_x
_atom_site_fract_y
_atom_site_fract_z
Si Si1 0.515234 0.712560 0.231646
Si Si2 0.837885 0.702765 0.079860
Si Si3 0.436050 0.781355 0.078589
Si Si4 0.710134 0.785183 0.608636
Si Si5 0.091628 0.794106 0.236069
Si Si6 0.793602 0.500000 0.358953
Si Si7 0.795209 0.219514 0.458355
O O1 0.513029 0.500000 0.218740
O O2 0.742881 0.784754 0.159768
O O3 0.476532 0.726751 0.309670
O O4 0.301785 0.793178 0.240571
O O5 0.925462 0.500000 0.074519
O O6 0.614544 0.697419 0.086543
O O7 0.000000 0.792161 0.000000
O O8 0.199895 0.738820 0.151725
O O9 0.455178 0.000000 0.078407
O O10 0.500000 0.726317 0.000000
O O11 0.712229 0.725578 0.540195
O O12 0.944885 0.735164 0.590087
O O13 0.706755 0.000000 0.607087
O O14 0.916346 0.656716 0.294443
O O15 0.010526 0.000000 0.249415
O O16 0.712084 0.339836 0.421425
O O17 0.769737 0.000000 0.455892
#
# Coordination Sequence:
#
# PCOD9141423 Si02
#       7
#     4   4   4   4   4   2   4
#     4  10  16  25  42  59  81 117 158 191 232 284
#     4   9  19  33  48  71 100 129 164 205 246 292
#     4   9  19  34  51  71  95 126 165 208 251 294
#     4   9  16  25  34  50  76 110 150 188 230 273
#     4  10  18  28  41  60  86 114 152 196 234 280
#     4  12  18  25  39  56  81 114 155 186 233 286
#     4   9  18  26  34  51  79 112 150 192 228 274
#
# _framework density 25.537115
#
# number of rings (size 3 to 8) (size 9 to 14) (size 15 to 20)
#    0.000    2.462    2.308    1.846    2.154    1.846 
#    0.000    0.000    0.000    0.000    0.000    0.000 
#    0.000    0.000    0.000    2.769    0.308   19.077 
#
# Total GULP energy -144822.899750 kJ/mol
# GULP energy per Si atom -5570.111529 kJ/mol
# Density = 2.547899 g / cm^3
# Si number density = 25.537115 Si / 1000 Ang^3
#
#
#
# Elastic Constant Matrix: (Units=GPa)
#
#
# Indices 1 2 3 4 5 6 
#
# 1 57.2625 15.1949 28.3406 0.0000 -26.8244 0.0000
# 2 15.1949 101.1596 28.7673 0.0000 5.2705 0.0000
# 3 28.3406 28.7673 279.6119 0.0000 6.2315 0.0000
# 4 0.0000 0.0000 0.0000 60.7863 0.0000 -6.5561
# 5 -26.8244 5.2705 6.2315 0.0000 0.3178 0.0000
# 6 0.0000 0.0000 0.0000 -6.5561 0.0000 -9.8398
#
#
#
# Elastic Compliance Matrix: (Units=1/GPa)
#
#
# Indices 1 2 3 4 5 6 
#
# 1 0.000050 0.001671 0.000616 0.000000 -0.035576 0.000000
# 2 0.001671 0.009616 -0.001328 0.000000 0.007610 0.000000
# 3 0.000616 -0.001328 0.003554 0.000000 0.004318 0.000000
# 4 0.000000 0.000000 0.000000 0.015348 0.000000 -0.010226
# 5 -0.035576 0.007610 0.004318 0.000000 -0.067072 0.000000
# 6 0.000000 0.000000 0.000000 -0.010226 0.000000 -0.094814
#
#
# Mechanical properties :
#
#
# Convention : Reuss Voigt Hill
#
# Bulk Modulus (GPa) = 66.06359 64.73773 65.40066
# Shear Modulus (GPa) = -38.40564 34.63494 -1.88535
#
# Velocity S-wave (km/s) = -3.88224 3.68674 -0.86016
# Velocity P-wave (km/s) = 2.41455 6.59759 4.96781
#
# Compressibility (1/GPa) = 0.01513693
#
# Stress axis : x y z
#
# Youngs Moduli (GPa) = 20058.45959 103.99760 281.34226
#
# Poissons Ratio (x) = -0.17377 -0.17328
# Poissons Ratio (y) = -33.51550 0.37369
# Poissons Ratio (z) = -12.35390 0.13813
#
# Static dielectric constant tensor:
#      x y z
#    x 2.128160 0.000000 -0.033160 
#    y 0.000000 1.970970 0.000000 
#    z -0.033160 0.000000 2.151690 
# 
# From -- ./inp_files/92445.got.cif
#   From: 2010.05.17/outbox.cif.g08.bks.cpg/sg10_47_cif.got.tgz:92445.got - 2010.06.03 11:33:40.
