data_PCOD9141537
_publ_section_title
;
Structure prediction by ZEFSAII (Michael W. Deem and Ramdas Pophale) SiO2 
 PCOD9141537
Probable space group: P 2/M
;
_chemical_formula_sum "Si O2"
_cell_formula_units_Z 19
_cell_length_a 8.893204
_cell_length_b 21.736384
_cell_length_c 5.291710
_cell_angle_alpha 90.000000
_cell_angle_beta 106.334659
_cell_angle_gamma 90.000000
_cell_volume 981.629994
_symmetry_space_group_name_H-M "P 2/M"
_symmetry_group_IT_number 10
_symmetry_cell_setting 'monoclinic'
loop_
_space_group_symop_operation_xyz
x,y,z
-x,y,-z
-x,-y,-z
x,-y,z
loop_
_atom_site_type_symbol
_atom_site_label
_atom_site_fract_x
_atom_site_fract_y
_atom_site_fract_z
Si Si1 0.607630 0.233138 0.301190
Si Si2 0.809296 0.570476 0.908807
Si Si3 0.500000 0.000000 0.000000
Si Si4 0.102321 0.000000 0.296519
Si Si5 0.189555 0.354817 0.590962
Si Si6 0.659830 0.095992 0.413034
O O1 0.500000 0.239455 0.500000
O O2 0.729224 0.288890 0.353600
O O3 0.689817 0.166349 0.358732
O O4 0.500000 0.233885 0.000000
O O5 0.754117 0.500000 0.871483
O O6 0.762843 0.609631 0.641924
O O7 0.763355 0.604534 0.144392
O O8 0.000000 0.568505 0.000000
O O9 0.622464 0.053623 0.155479
O O10 0.210841 0.060459 0.364245
O O11 0.000000 0.000000 0.500000
O O12 0.000000 0.000000 0.000000
O O13 0.000000 0.348904 0.500000
O O14 0.500000 0.093109 0.500000
#
# Coordination Sequence:
#
# PCOD9141537 Si02
#       6
#     4   4   1   2   4   4
#     4  11  23  40  60  87 116 158 201 238 291 353
#     4   9  17  32  57  87 114 151 200 243 285 344
#     4  10  16  36  64  84 102 140 206 250 264 328
#     4  11  26  39  60  92 125 147 184 250 313 346
#     4  10  20  35  58  86 120 152 191 248 299 342
#     4  10  23  39  65  84 116 160 207 239 286 360
#
# _framework density 19.355561999999999
#
# number of rings (size 3 to 8) (size 9 to 14) (size 15 to 20)
#    0.000    1.895    1.053    3.158    5.895    3.368 
#    0.000    3.158    0.000   12.632    0.000    0.000 
#    0.000    0.000    0.000    0.000    0.000    0.000 
#
# Total GULP energy -105867.924591 kJ/mol
# GULP energy per Si atom -5571.996031 kJ/mol
# Density = 1.931151 g / cm^3
# Si number density = 19.355562 Si / 1000 Ang^3
#
#
#
# Elastic Constant Matrix: (Units=GPa)
#
#
# Indices 1 2 3 4 5 6 
#
# 1 36.4987 50.3307 43.7562 0.0000 -4.4133 0.0000
# 2 50.3307 232.5557 98.2691 0.0000 7.7930 0.0000
# 3 43.7562 98.2691 179.0806 0.0000 -5.7942 0.0000
# 4 0.0000 0.0000 0.0000 -7.2300 0.0000 77.0975
# 5 -4.4133 7.7930 -5.7942 0.0000 26.5213 0.0000
# 6 0.0000 0.0000 0.0000 77.0975 0.0000 13.2218
#
#
#
# Elastic Compliance Matrix: (Units=1/GPa)
#
#
# Indices 1 2 3 4 5 6 
#
# 1 0.047394 -0.007507 -0.007185 0.000000 0.008523 0.000000
# 2 -0.007507 0.006934 -0.002092 0.000000 -0.003744 0.000000
# 3 -0.007185 -0.002092 0.008529 0.000000 0.001282 0.000000
# 4 0.000000 0.000000 0.000000 -0.002189 0.000000 0.012765
# 5 0.008523 -0.003744 0.001282 0.000000 0.040504 0.000000
# 6 0.000000 0.000000 0.000000 0.012765 0.000000 0.001197
#
#
# Mechanical properties :
#
#
# Convention : Reuss Voigt Hill
#
# Bulk Modulus (GPa) = 34.14171 92.53856 63.34013
# Shear Modulus (GPa) = 34.31702 23.55457 28.93580
#
# Velocity S-wave (km/s) = 4.21524 3.49225 3.87067
# Velocity P-wave (km/s) = 6.43184 8.01091 7.26441
#
# Compressibility (1/GPa) = 0.02928969
#
# Stress axis : x y z
#
# Youngs Moduli (GPa) = 21.09965 144.21425 117.24471
#
# Poissons Ratio (x) = 1.08257 0.84243
# Poissons Ratio (y) = 0.15839 0.24528
# Poissons Ratio (z) = 0.15161 0.30170
#
# Static dielectric constant tensor:
#      x y z
#    x 1.693340 0.000000 -0.021320 
#    y 0.000000 1.643460 0.000000 
#    z -0.021320 0.000000 1.674900 
# 
# From -- ./inp_files/4901.got.cif
#   From: 2010.05.17/outbox.cif.g08.bks.cpg/sg10_3_cif.got.tgz:4901.got - 2010.06.03 11:33:40.
