data_PCOD9141520
_publ_section_title
;
Structure prediction by ZEFSAII (Michael W. Deem and Ramdas Pophale) SiO2 
 PCOD9141520
Probable space group: P 2/M
;
_chemical_formula_sum "Si O2"
_cell_formula_units_Z 24
_cell_length_a 9.620161
_cell_length_b 8.614158
_cell_length_c 12.491405
_cell_angle_alpha 90.000000
_cell_angle_beta 111.060714
_cell_angle_gamma 90.000000
_cell_volume 966.009206
_symmetry_space_group_name_H-M "P 2/M"
_symmetry_group_IT_number 10
_symmetry_cell_setting 'monoclinic'
loop_
_space_group_symop_operation_xyz
x,y,z
-x,y,-z
-x,-y,-z
x,-y,z
loop_
_atom_site_type_symbol
_atom_site_label
_atom_site_fract_x
_atom_site_fract_y
_atom_site_fract_z
Si Si1 0.658297 0.313835 0.002988
Si Si2 0.454378 0.166259 0.359221
Si Si3 0.634557 0.500000 0.628125
Si Si4 0.915830 0.178498 0.213679
Si Si5 0.844779 0.500000 0.515318
Si Si6 0.220124 0.830169 0.596677
Si Si7 0.861981 0.685694 0.877762
O O1 0.644430 0.500000 0.985870
O O2 0.784986 0.281118 0.126022
O O3 0.500000 0.252806 0.000000
O O4 0.723552 0.249994 0.909242
O O5 0.500000 0.166270 0.500000
O O6 0.384793 0.334875 0.320633
O O7 0.604287 0.160683 0.329660
O O8 0.374575 0.000000 0.321963
O O9 0.500000 0.500000 0.500000
O O10 0.798964 0.500000 0.624437
O O11 0.890990 0.187548 0.334149
O O12 0.073190 0.231580 0.209541
O O13 0.890526 0.000000 0.175956
O O14 0.782623 0.668374 0.465440
O O15 0.000000 0.500000 0.500000
O O16 0.187022 0.000000 0.535623
O O17 0.846782 0.500000 0.860059
O O18 0.000000 0.704919 0.000000
#
# Coordination Sequence:
#
# PCOD9141520 Si02
#       7
#     4   4   2   4   2   4   4
#     4   9  18  33  53  78 109 139 176 218 264 309
#     4   9  15  28  53  77 100 133 173 221 262 303
#     4  10  16  32  54  80 100 124 183 217 245 326
#     4  10  20  32  52  79 104 139 181 216 260 316
#     4  12  24  36  58  84 108 140 180 225 277 329
#     4  10  21  36  55  82 111 140 181 228 272 320
#     4   8  15  29  49  73 100 138 181 214 250 309
#
# _framework density 24.844483
#
# number of rings (size 3 to 8) (size 9 to 14) (size 15 to 20)
#    0.000    2.500    3.333    1.500    2.333    3.667 
#    0.000    0.000    3.667    0.000    0.000    0.000 
#    0.000    0.000    0.000    0.000    0.000    0.000 
#
# Total GULP energy -133907.448056 kJ/mol
# GULP energy per Si atom -5579.477002 kJ/mol
# Density = 2.478794 g / cm^3
# Si number density = 24.844483 Si / 1000 Ang^3
#
#
#
# Elastic Constant Matrix: (Units=GPa)
#
#
# Indices 1 2 3 4 5 6 
#
# 1 161.3122 48.2648 21.4125 0.0000 -39.9677 0.0000
# 2 48.2648 167.0340 28.9728 0.0000 -20.2429 0.0000
# 3 21.4125 28.9728 57.6384 0.0000 -16.5134 0.0000
# 4 0.0000 0.0000 0.0000 178.6227 0.0000 -126.1385
# 5 -39.9677 -20.2429 -16.5134 0.0000 37.9496 0.0000
# 6 0.0000 0.0000 0.0000 -126.1385 0.0000 120.9566
#
#
#
# Elastic Compliance Matrix: (Units=1/GPa)
#
#
# Indices 1 2 3 4 5 6 
#
# 1 0.008729 -0.001493 -0.000099 0.000000 0.008353 0.000000
# 2 -0.001493 0.007004 -0.002680 0.000000 0.000998 0.000000
# 3 -0.000099 -0.002680 0.020900 0.000000 0.007560 0.000000
# 4 0.000000 0.000000 0.000000 0.021240 0.000000 0.022150
# 5 0.008353 0.000998 0.007560 0.000000 0.038970 0.000000
# 6 0.000000 0.000000 0.000000 0.022150 0.000000 0.031367
#
#
# Mechanical properties :
#
#
# Convention : Reuss Voigt Hill
#
# Bulk Modulus (GPa) = 35.60213 64.80941 50.20577
# Shear Modulus (GPa) = 34.21935 86.66142 60.44039
#
# Velocity S-wave (km/s) = 3.71528 5.91247 4.93764
# Velocity P-wave (km/s) = 5.72412 8.52950 7.26354
#
# Compressibility (1/GPa) = 0.02808821
#
# Stress axis : x y z
#
# Youngs Moduli (GPa) = 114.56574 142.77732 47.84772
#
# Poissons Ratio (x) = 0.21311 0.00474
# Poissons Ratio (y) = 0.17100 0.12825
# Poissons Ratio (z) = 0.01135 0.38268
#
# Static dielectric constant tensor:
#      x y z
#    x 2.074570 0.000000 0.099770 
#    y 0.000000 1.994090 0.000000 
#    z 0.099770 0.000000 2.063410 
# 
# From -- ./inp_files/74194.got.cif
#   From: 2010.05.17/outbox.cif.g08.bks.cpg/sg10_38_cif.got.tgz:74194.got - 2010.06.03 11:33:40.
