data_PCOD9141964
_publ_section_title
;
Structure prediction by ZEFSAII (Michael W. Deem and Ramdas Pophale) SiO2 
 PCOD9141964
Probable space group: P 2/M
;
_chemical_formula_sum "Si O2"
_cell_formula_units_Z 32
_cell_length_a 14.972808
_cell_length_b 7.626562
_cell_length_c 27.620125
_cell_angle_alpha 90.000000
_cell_angle_beta 34.774450
_cell_angle_gamma 90.000000
_cell_volume 1798.858973
_symmetry_space_group_name_H-M "P 2/M"
_symmetry_group_IT_number 10
_symmetry_cell_setting 'monoclinic'
loop_
_space_group_symop_operation_xyz
x,y,z
-x,y,-z
-x,-y,-z
x,-y,z
loop_
_atom_site_type_symbol
_atom_site_label
_atom_site_fract_x
_atom_site_fract_y
_atom_site_fract_z
Si Si1 0.500124 0.298780 0.839369
Si Si2 0.755539 0.789628 0.593298
Si Si3 0.072509 0.712034 0.915859
Si Si4 0.201136 0.199925 0.237401
Si Si5 0.575842 0.291144 0.232457
Si Si6 0.682743 0.785587 0.915665
Si Si7 0.203774 0.793858 0.030764
Si Si8 0.047332 0.214997 0.401556
O O1 0.554956 0.500000 0.810965
O O2 0.628197 0.198848 0.813474
O O3 0.472831 0.220234 0.798575
O O4 0.334453 0.297313 0.939863
O O5 0.575310 0.739268 0.667140
O O6 0.825961 0.729415 0.613970
O O7 0.878779 0.731370 0.497593
O O8 0.762855 0.000000 0.590920
O O9 0.071018 0.500000 0.917468
O O10 0.251865 0.774042 0.830577
O O11 0.962284 0.767301 0.920788
O O12 0.000000 0.770464 0.000000
O O13 0.231969 0.279749 0.170937
O O14 0.091312 0.277947 0.328373
O O15 0.147057 0.000000 0.253699
O O16 0.593091 0.500000 0.218751
O O17 0.773101 0.734845 0.924287
O O18 0.680003 0.000000 0.914015
O O19 0.500000 0.730533 0.000000
O O20 0.241123 0.000000 0.013272
O O21 0.052590 0.000000 0.398104
#
# Coordination Sequence:
#
# PCOD9141964 Si02
#       8
#     4   4   4   4   4   4   4   4
#     4  11  20  30  44  66  96 126 156 191 227 266
#     4   9  16  28  45  68  95 118 151 192 225 267
#     4  10  20  36  50  64  92 125 153 189 233 276
#     4  10  17  30  49  67  91 129 162 184 222 276
#     4  10  20  32  46  65  92 126 156 182 228 277
#     4   9  17  29  46  69  95 120 152 192 230 266
#     4  11  21  33  48  68  92 121 160 197 227 266
#     4   8  15  26  44  69  94 121 150 186 229 269
#
# _framework density 17.789054
#
# number of rings (size 3 to 8) (size 9 to 14) (size 15 to 20)
#    0.000    2.250    3.750    1.500    0.000    1.250 
#    0.000    3.750    0.000    0.000    0.000    0.875 
#    0.000    7.000    0.000    0.000    0.000    0.000 
#
# Total GULP energy -178452.974911 kJ/mol
# GULP energy per Si atom -5576.655466 kJ/mol
# Density = 1.774857 g / cm^3
# Si number density = 17.789054 Si / 1000 Ang^3
#
#
#
# Elastic Constant Matrix: (Units=GPa)
#
#
# Indices 1 2 3 4 5 6 
#
# 1 111.0573 0.5232 68.8752 0.0000 1.8696 0.0000
# 2 0.5232 40.2254 -0.8958 0.0000 1.4219 0.0000
# 3 68.8752 -0.8958 146.1881 0.0000 7.1507 0.0000
# 4 0.0000 0.0000 0.0000 16.3646 0.0000 -9.1500
# 5 1.8696 1.4219 7.1507 0.0000 27.4413 0.0000
# 6 0.0000 0.0000 0.0000 -9.1500 0.0000 17.8359
#
#
#
# Elastic Compliance Matrix: (Units=1/GPa)
#
#
# Indices 1 2 3 4 5 6 
#
# 1 0.012739 -0.000326 -0.006039 0.000000 0.000723 0.000000
# 2 -0.000326 0.024921 0.000373 0.000000 -0.001366 0.000000
# 3 -0.006039 0.000373 0.009794 0.000000 -0.002160 0.000000
# 4 0.000000 0.000000 0.000000 0.085686 0.000000 0.043957
# 5 0.000723 -0.001366 -0.002160 0.000000 0.037026 0.000000
# 6 0.000000 0.000000 0.000000 0.043957 0.000000 0.078617
#
#
# Mechanical properties :
#
#
# Convention : Reuss Voigt Hill
#
# Bulk Modulus (GPa) = 28.19310 48.27511 38.23411
# Shear Modulus (GPa) = 18.34260 27.59291 22.96776
#
# Velocity S-wave (km/s) = 3.21458 3.94270 3.59711
# Velocity P-wave (km/s) = 5.44620 6.92264 6.22832
#
# Compressibility (1/GPa) = 0.03546967
#
# Stress axis : x y z
#
# Youngs Moduli (GPa) = 78.49806 40.12724 102.10538
#
# Poissons Ratio (x) = 0.01307 0.61664
# Poissons Ratio (y) = 0.02557 -0.03809
# Poissons Ratio (z) = 0.47407 -0.01497
#
# Static dielectric constant tensor:
#      x y z
#    x 1.594980 0.000000 0.017800 
#    y 0.000000 1.669710 0.000000 
#    z 0.017800 0.000000 1.635110 
# 
# From -- ./inp_files/95249.got.cif
#   From: 2010.05.17/outbox.cif.g08.bks.cpg/sg10_48_cif.got.tgz:95249.got - 2010.06.03 11:33:40.
