data_PCOD9141981
_publ_section_title
;
Structure prediction by ZEFSAII (Michael W. Deem and Ramdas Pophale) SiO2 
 PCOD9141981
Probable space group: P 2/M
;
_chemical_formula_sum "Si O2"
_cell_formula_units_Z 28
_cell_length_a 17.100446
_cell_length_b 7.708018
_cell_length_c 15.605202
_cell_angle_alpha 90.000000
_cell_angle_beta 45.826684
_cell_angle_gamma 90.000000
_cell_volume 1475.302769
_symmetry_space_group_name_H-M "P 2/M"
_symmetry_group_IT_number 10
_symmetry_cell_setting 'monoclinic'
loop_
_space_group_symop_operation_xyz
x,y,z
-x,y,-z
-x,-y,-z
x,-y,z
loop_
_atom_site_type_symbol
_atom_site_label
_atom_site_fract_x
_atom_site_fract_y
_atom_site_fract_z
Si Si1 0.602968 0.212938 0.122997
Si Si2 0.811549 0.703386 0.474705
Si Si3 0.361403 0.701222 0.527535
Si Si4 0.033645 0.202080 0.382259
Si Si5 0.393521 0.199480 0.690605
Si Si6 0.637431 0.209887 0.751745
Si Si7 0.266236 0.787901 0.142234
O O1 0.633929 0.271665 0.194834
O O2 0.479795 0.267312 0.193556
O O3 0.602109 0.000000 0.125996
O O4 0.682876 0.269857 0.986250
O O5 0.831898 0.500000 0.446119
O O6 0.740093 0.770233 0.449340
O O7 0.927846 0.787778 0.403533
O O8 0.734434 0.727910 0.616423
O O9 0.376627 0.500000 0.491580
O O10 0.474524 0.793780 0.417677
O O11 0.348725 0.711465 0.639444
O O12 0.000000 0.281018 0.500000
O O13 0.143609 0.273313 0.256138
O O14 0.059704 0.000000 0.379593
O O15 0.358660 0.000000 0.712824
O O16 0.660342 0.262043 0.832034
O O17 0.639124 0.000000 0.747935
O O18 0.266886 0.000000 0.138302
#
# Coordination Sequence:
#
# PCOD9141981 Si02
#       7
#     4   4   4   4   4   4   4
#     4   9  17  28  48  78 105 130 159 201 249 295
#     4  11  22  33  49  72 102 134 166 206 249 290
#     4  10  20  33  48  69  99 134 165 197 248 299
#     4  10  19  33  53  75  97 129 171 210 245 288
#     4  10  18  29  50  77 101 124 159 205 248 293
#     4  10  17  30  51  74 102 133 166 198 239 296
#     4   9  17  30  49  74 103 132 165 201 245 295
#
# _framework density 18.979154999999999
#
# number of rings (size 3 to 8) (size 9 to 14) (size 15 to 20)
#    0.000    2.143    2.857    2.571    0.000    3.714 
#    0.000    0.000    0.000    6.857    0.000    6.000 
#    0.000    0.000    0.000    0.000    0.000    0.000 
#
# Total GULP energy -156260.370292 kJ/mol
# GULP energy per Si atom -5580.727510 kJ/mol
# Density = 1.893596 g / cm^3
# Si number density = 18.979155 Si / 1000 Ang^3
#
#
#
# Elastic Constant Matrix: (Units=GPa)
#
#
# Indices 1 2 3 4 5 6 
#
# 1 89.8083 -9.9260 39.0877 0.0000 24.1176 0.0000
# 2 -9.9260 29.3565 -5.4223 0.0000 0.4623 0.0000
# 3 39.0877 -5.4223 101.5069 0.0000 19.4167 0.0000
# 4 0.0000 0.0000 0.0000 -27.2354 0.0000 20.9770
# 5 24.1176 0.4623 19.4167 0.0000 31.2980 0.0000
# 6 0.0000 0.0000 0.0000 20.9770 0.0000 21.9581
#
#
#
# Elastic Compliance Matrix: (Units=1/GPa)
#
#
# Indices 1 2 3 4 5 6 
#
# 1 0.016108 0.004859 -0.004034 0.000000 -0.009982 0.000000
# 2 0.004859 0.035966 0.000985 0.000000 -0.004886 0.000000
# 3 -0.004034 0.000985 0.012329 0.000000 -0.004555 0.000000
# 4 0.000000 0.000000 0.000000 -0.021153 0.000000 0.020208
# 5 -0.009982 -0.004886 -0.004555 0.000000 0.042540 0.000000
# 6 0.000000 0.000000 0.000000 0.020208 0.000000 0.026237
#
#
# Mechanical properties :
#
#
# Convention : Reuss Voigt Hill
#
# Bulk Modulus (GPa) = 14.70118 29.79450 22.24784
# Shear Modulus (GPa) = 38.14423 18.33295 28.23859
#
# Velocity S-wave (km/s) = 4.48794 3.11135 3.86148
# Velocity P-wave (km/s) = 5.88373 5.35163 5.62397
#
# Compressibility (1/GPa) = 0.06802176
#
# Stress axis : x y z
#
# Youngs Moduli (GPa) = 62.08066 27.80428 81.11120
#
# Poissons Ratio (x) = -0.13509 0.32720
# Poissons Ratio (y) = -0.30162 -0.07989
# Poissons Ratio (z) = 0.25043 -0.02739
#
# Static dielectric constant tensor:
#      x y z
#    x 1.661780 0.000000 0.021590 
#    y 0.000000 1.696900 0.000000 
#    z 0.021590 0.000000 1.645040 
# 
# From -- ./inp_files/54710.got.cif
#   From: 2010.05.17/outbox.cif.g08.bks.cpg/sg10_28_cif.got.tgz:54710.got - 2010.06.03 11:33:40.
