data_PCOD9141416
_publ_section_title
;
Structure prediction by ZEFSAII (Michael W. Deem and Ramdas Pophale) SiO2 
 PCOD9141416
Probable space group: P 2/M
;
_chemical_formula_sum "Si O2"
_cell_formula_units_Z 30
_cell_length_a 5.375620
_cell_length_b 21.173441
_cell_length_c 22.880428
_cell_angle_alpha 90.000000
_cell_angle_beta 69.364843
_cell_angle_gamma 90.000000
_cell_volume 2437.178630
_symmetry_space_group_name_H-M "P 2/M"
_symmetry_group_IT_number 10
_symmetry_cell_setting 'monoclinic'
loop_
_space_group_symop_operation_xyz
x,y,z
-x,y,-z
-x,-y,-z
x,-y,z
loop_
_atom_site_type_symbol
_atom_site_label
_atom_site_fract_x
_atom_site_fract_y
_atom_site_fract_z
Si Si1 0.785472 0.423389 0.143015
Si Si2 0.608675 0.422964 0.927552
Si Si3 0.957750 0.385868 0.361506
Si Si4 0.360284 0.075167 0.426474
Si Si5 0.147928 0.129295 0.568051
Si Si6 0.809815 0.278124 0.460122
Si Si7 0.565762 0.576684 0.289498
Si Si8 0.188738 0.500000 0.540842
O O1 0.789800 0.500000 0.140127
O O2 0.587674 0.402192 0.108004
O O3 0.675894 0.407440 0.216071
O O4 0.088303 0.402194 0.108003
O O5 0.609924 0.500000 0.926717
O O6 0.500000 0.403867 0.000000
O O7 0.903383 0.319670 0.397748
O O8 0.767989 0.397009 0.321473
O O9 0.877015 0.438932 0.415324
O O10 0.267614 0.397008 0.321476
O O11 0.250311 0.095442 0.499793
O O12 0.650289 0.105659 0.399592
O O13 0.150932 0.105662 0.399592
O O14 0.366735 0.000000 0.422169
O O15 0.166170 0.203722 0.555894
O O16 0.500000 0.291847 0.500000
O O17 0.000000 0.291843 0.500000
O O18 0.555719 0.500000 0.296194
O O19 0.500000 0.500000 0.500000
O O20 0.000000 0.500000 0.500000
#
# Coordination Sequence:
#
# PCOD9141416 Si02
#       8
#     4   4   4   4   4   4   4   2
#     4   9  17  26  42  57  74 101 117 139 175 208
#     4   9  15  24  37  60  84 100 116 132 157 206
#     4  12  23  34  49  58  71  92 118 161 200 241
#     4  10  16  25  41  60  78  96 114 132 161 203
#     4  10  16  27  39  56  77  95 113 136 164 215
#     4  12  21  35  45  57  74  95 118 146 197 251
#     4  11  20  36  47  59  74  90 124 160 192 229
#     4  12  22  36  46  60  70  80 109 154 213 254
#
# _framework density 12.309316000000001
#
# number of rings (size 3 to 8) (size 9 to 14) (size 15 to 20)
#    0.000    1.467    4.000    5.600    0.000    3.733 
#    0.000    0.000    0.000    0.000    0.000    0.000 
#    0.000    0.000    0.000    0.000    0.000    0.000 
#
# Total GULP energy -167274.049720 kJ/mol
# GULP energy per Si atom -5575.801657 kJ/mol
# Density = 1.228130 g / cm^3
# Si number density = 12.309316 Si / 1000 Ang^3
#
#
#
# Elastic Constant Matrix: (Units=GPa)
#
#
# Indices 1 2 3 4 5 6 
#
# 1 163.1117 28.6269 68.1774 0.0000 2.1663 0.0000
# 2 28.6269 38.9385 27.2798 0.0000 0.0572 0.0000
# 3 68.1774 27.2798 87.2957 0.0000 1.0023 0.0000
# 4 0.0000 0.0000 0.0000 -4.4493 0.0000 0.6380
# 5 2.1663 0.0572 1.0023 0.0000 21.5912 0.0000
# 6 0.0000 0.0000 0.0000 0.6380 0.0000 10.8315
#
#
#
# Elastic Compliance Matrix: (Units=1/GPa)
#
#
# Indices 1 2 3 4 5 6 
#
# 1 0.009259 -0.002234 -0.006526 0.000000 -0.000620 0.000000
# 2 -0.002234 0.033422 -0.008706 0.000000 0.000540 0.000000
# 3 -0.006526 -0.008706 0.019275 0.000000 -0.000217 0.000000
# 4 0.000000 0.000000 0.000000 -0.222874 0.000000 0.013128
# 5 -0.000620 0.000540 -0.000217 0.000000 0.046386 0.000000
# 6 0.000000 0.000000 0.000000 0.013128 0.000000 0.091550
#
#
# Mechanical properties :
#
#
# Convention : Reuss Voigt Hill
#
# Bulk Modulus (GPa) = 37.00317 59.72380 48.36348
# Shear Modulus (GPa) = 238.57959 16.61215 127.59587
#
# Velocity S-wave (km/s) = 13.93704 3.67762 10.19230
# Velocity P-wave (km/s) = 17.00337 8.16442 13.33739
#
# Compressibility (1/GPa) = 0.02702471
#
# Stress axis : x y z
#
# Youngs Moduli (GPa) = 108.00622 29.92006 51.88087
#
# Poissons Ratio (x) = 0.06684 0.33856
# Poissons Ratio (y) = 0.24130 0.45167
# Poissons Ratio (z) = 0.70482 0.26048
#
# Static dielectric constant tensor:
#      x y z
#    x 1.535980 0.000000 0.006650 
#    y 0.000000 1.377880 0.000000 
#    z 0.006650 0.000000 1.376780 
# 
# From -- ./inp_files/81494.got.cif
#   From: 2010.05.17/outbox.cif.g08.bks.cpg/sg10_41_cif.got.tgz:81494.got - 2010.06.03 11:33:40.
