data_PCOD9141827
_publ_section_title
;
Structure prediction by ZEFSAII (Michael W. Deem and Ramdas Pophale) SiO2 
 PCOD9141827
Probable space group: P 2/M
;
_chemical_formula_sum "Si O2"
_cell_formula_units_Z 32
_cell_length_a 30.631646
_cell_length_b 8.444236
_cell_length_c 24.409096
_cell_angle_alpha 90.000000
_cell_angle_beta 16.516286
_cell_angle_gamma 90.000000
_cell_volume 1794.901934
_symmetry_space_group_name_H-M "P 2/M"
_symmetry_group_IT_number 10
_symmetry_cell_setting 'monoclinic'
loop_
_space_group_symop_operation_xyz
x,y,z
-x,y,-z
-x,-y,-z
x,-y,z
loop_
_atom_site_type_symbol
_atom_site_label
_atom_site_fract_x
_atom_site_fract_y
_atom_site_fract_z
Si Si1 0.772431 0.193409 0.017037
Si Si2 0.363520 0.811047 0.028557
Si Si3 0.110051 0.190864 0.243384
Si Si4 0.899511 0.806717 0.172008
Si Si5 0.027560 0.808663 0.793009
Si Si6 0.127699 0.688720 0.391836
Si Si7 0.436114 0.808403 0.394883
Si Si8 0.643865 0.312153 0.629253
O O1 0.595387 0.245373 0.229872
O O2 0.771501 0.000000 0.018838
O O3 0.847678 0.241483 0.868649
O O4 0.878539 0.246693 0.939332
O O5 0.245379 0.756333 0.122394
O O6 0.286217 0.758522 0.178514
O O7 0.370555 0.000000 0.017899
O O8 0.529467 0.742824 0.814562
O O9 0.947581 0.252178 0.461425
O O10 0.107723 0.000000 0.247699
O O11 0.963586 0.756389 0.154312
O O12 0.720523 0.758626 0.386523
O O13 0.902336 0.000000 0.167834
O O14 0.000000 0.750864 0.000000
O O15 0.183786 0.754569 0.575509
O O16 0.027816 0.000000 0.793061
O O17 0.137672 0.500000 0.380072
O O18 0.000000 0.738309 0.500000
O O19 0.423989 0.751992 0.346752
O O20 0.437208 0.000000 0.392001
O O21 0.649427 0.500000 0.620617
#
# Coordination Sequence:
#
# PCOD9141827 Si02
#       8
#     4   4   4   4   4   4   4   4
#     4   9  16  29  49  72  94 125 166 205 240 287
#     4  10  17  28  47  68  92 124 163 203 245 287
#     4   9  16  27  44  65  91 122 160 198 241 292
#     4   8  14  26  47  74 102 131 162 196 235 281
#     4   9  18  32  50  69  96 130 164 199 242 290
#     4   9  17  27  39  63  97 126 157 197 244 290
#     4   9  16  30  50  71  96 127 163 201 240 286
#     4  11  20  30  46  70  98 125 161 205 249 291
#
# _framework density 17.828272999999999
#
# number of rings (size 3 to 8) (size 9 to 14) (size 15 to 20)
#    0.000    2.750    1.250    2.625    0.000    2.000 
#    0.000    1.875    0.000   10.500    0.000    5.250 
#    0.000    8.000    0.000    0.000    0.000    0.000 
#
# Total GULP energy -178330.057909 kJ/mol
# GULP energy per Si atom -5572.814310 kJ/mol
# Density = 1.778769 g / cm^3
# Si number density = 17.828273 Si / 1000 Ang^3
#
#
#
# Elastic Constant Matrix: (Units=GPa)
#
#
# Indices 1 2 3 4 5 6 
#
# 1 76.2656 10.8773 74.3852 0.0000 -7.6317 0.0000
# 2 10.8773 10.3514 18.0059 0.0000 0.3667 0.0000
# 3 74.3852 18.0059 156.8233 0.0000 7.9444 0.0000
# 4 0.0000 0.0000 0.0000 -0.1199 0.0000 -4.3444
# 5 -7.6317 0.3667 7.9444 0.0000 29.5546 0.0000
# 6 0.0000 0.0000 0.0000 -4.3444 0.0000 1.2323
#
#
#
# Elastic Compliance Matrix: (Units=1/GPa)
#
#
# Indices 1 2 3 4 5 6 
#
# 1 0.027793 -0.007133 -0.012908 0.000000 0.010735 0.000000
# 2 -0.007133 0.122693 -0.010679 0.000000 -0.000494 0.000000
# 3 -0.012908 -0.010679 0.014079 0.000000 -0.006985 0.000000
# 4 0.000000 0.000000 0.000000 -0.064785 0.000000 -0.228393
# 5 0.010735 -0.000494 -0.006985 0.000000 0.038491 0.000000
# 6 0.000000 0.000000 0.000000 -0.228393 0.000000 0.006302
#
#
# Mechanical properties :
#
#
# Convention : Reuss Voigt Hill
#
# Bulk Modulus (GPa) = 9.69685 49.99746 29.84716
# Shear Modulus (GPa) = 20.79970 15.47820 18.13895
#
# Velocity S-wave (km/s) = 3.41936 2.94969 3.19317
# Velocity P-wave (km/s) = 4.58696 6.30125 5.51117
#
# Compressibility (1/GPa) = 0.10312625
#
# Stress axis : x y z
#
# Youngs Moduli (GPa) = 35.97994 8.15042 71.02716
#
# Poissons Ratio (x) = 0.05814 0.91681
# Poissons Ratio (y) = 0.25664 0.75849
# Poissons Ratio (z) = 0.46443 0.08704
#
# Static dielectric constant tensor:
#      x y z
#    x 1.602950 0.000000 -0.003810 
#    y 0.000000 1.595180 0.000000 
#    z -0.003810 0.000000 1.624620 
# 
# From -- ./inp_files/86094.got.cif
#   From: 2010.05.17/outbox.cif.g08.bks.cpg/sg10_44_cif.got.tgz:86094.got - 2010.06.03 11:33:40.
