data_PCOD9141737
_publ_section_title
;
Structure prediction by ZEFSAII (Michael W. Deem and Ramdas Pophale) SiO2 
 PCOD9141737
Probable space group: P 2/M
;
_chemical_formula_sum "Si O2"
_cell_formula_units_Z 28
_cell_length_a 17.094312
_cell_length_b 8.497916
_cell_length_c 19.101822
_cell_angle_alpha 90.000000
_cell_angle_beta 142.816361
_cell_angle_gamma 90.000000
_cell_volume 1677.038102
_symmetry_space_group_name_H-M "P 2/M"
_symmetry_group_IT_number 10
_symmetry_cell_setting 'monoclinic'
loop_
_space_group_symop_operation_xyz
x,y,z
-x,y,-z
-x,-y,-z
x,-y,z
loop_
_atom_site_type_symbol
_atom_site_label
_atom_site_fract_x
_atom_site_fract_y
_atom_site_fract_z
Si Si1 0.811668 0.813664 0.908054
Si Si2 0.987384 0.186556 0.758919
Si Si3 0.513213 0.692255 0.090062
Si Si4 0.267480 0.311043 0.006437
Si Si5 0.090514 0.313545 0.157006
Si Si6 0.795371 0.308624 0.337235
Si Si7 0.966632 0.690525 0.589880
O O1 0.722937 0.743872 0.906124
O O2 0.804612 0.741106 0.825340
O O3 0.798464 0.000000 0.895176
O O4 0.956230 0.769385 0.038038
O O5 0.895630 0.263860 0.752657
O O6 0.951657 0.236702 0.655257
O O7 0.983558 0.000000 0.764499
O O8 0.133937 0.245262 0.879021
O O9 0.514002 0.500000 0.091102
O O10 0.390256 0.740918 0.048414
O O11 0.650552 0.745904 0.218943
O O12 0.500000 0.741487 0.000000
O O13 0.258813 0.500000 0.998707
O O14 0.072941 0.500000 0.139218
O O15 0.794258 0.500000 0.336369
O O16 0.857292 0.262074 0.455622
O O17 0.896394 0.263512 0.348216
O O18 0.965706 0.500000 0.595146
#
# Coordination Sequence:
#
# PCOD9141737 Si02
#       7
#     4   4   4   4   4   4   4
#     4  10  17  27  41  60  90 121 148 180 223 269
#     4  11  20  29  42  64  94 122 150 185 228 270
#     4   9  16  26  44  70  95 117 148 190 227 259
#     4  10  18  28  44  65  90 122 157 187 220 266
#     4  10  17  27  43  63  87 115 150 185 221 267
#     4   8  15  28  47  70  91 115 150 191 229 263
#     4   9  16  29  49  68  88 116 152 190 227 268
#
# _framework density 16.696103000000001
#
# number of rings (size 3 to 8) (size 9 to 14) (size 15 to 20)
#    0.000    2.429    0.000    8.571    0.000    2.286 
#    0.000    1.429    0.000    9.429    0.000    1.000 
#    0.000    8.000    0.000    0.000    0.000    0.000 
#
# Total GULP energy -156064.049200 kJ/mol
# GULP energy per Si atom -5573.716043 kJ/mol
# Density = 1.665810 g / cm^3
# Si number density = 16.696103 Si / 1000 Ang^3
#
#
#
# Elastic Constant Matrix: (Units=GPa)
#
#
# Indices 1 2 3 4 5 6 
#
# 1 153.3383 16.7309 55.1544 0.0000 -24.9841 0.0000
# 2 16.7309 36.6976 9.5492 0.0000 -4.1065 0.0000
# 3 55.1544 9.5492 63.1309 0.0000 -10.7424 0.0000
# 4 0.0000 0.0000 0.0000 19.8141 0.0000 0.0079
# 5 -24.9841 -4.1065 -10.7424 0.0000 25.9404 0.0000
# 6 0.0000 0.0000 0.0000 0.0079 0.0000 -16.3265
#
#
#
# Elastic Compliance Matrix: (Units=1/GPa)
#
#
# Indices 1 2 3 4 5 6 
#
# 1 0.010667 -0.002067 -0.007869 0.000000 0.006688 0.000000
# 2 -0.002067 0.028974 -0.002297 0.000000 0.001644 0.000000
# 3 -0.007869 -0.002297 0.023356 0.000000 0.001730 0.000000
# 4 0.000000 0.000000 0.000000 0.050469 0.000000 0.000024
# 5 0.006688 0.001644 0.001730 0.000000 0.045968 0.000000
# 6 0.000000 0.000000 0.000000 0.000024 0.000000 -0.061250
#
#
# Mechanical properties :
#
#
# Convention : Reuss Voigt Hill
#
# Bulk Modulus (GPa) = 25.95236 46.22622 36.08929
# Shear Modulus (GPa) = 36.90213 17.33442 27.11828
#
# Velocity S-wave (km/s) = 4.70640 3.22566 4.03454
# Velocity P-wave (km/s) = 6.71650 6.45136 6.58526
#
# Compressibility (1/GPa) = 0.03853215
#
# Stress axis : x y z
#
# Youngs Moduli (GPa) = 93.74654 34.51383 42.81504
#
# Poissons Ratio (x) = 0.07135 0.33689
# Poissons Ratio (y) = 0.19381 0.09833
# Poissons Ratio (z) = 0.73765 0.07927
#
# Static dielectric constant tensor:
#      x y z
#    x 1.598880 0.000000 -0.017260 
#    y 0.000000 1.563880 0.000000 
#    z -0.017260 0.000000 1.552670 
# 
# From -- ./inp_files/77776.got.cif
#   From: 2010.05.17/outbox.cif.g08.bks.cpg/sg10_39_cif.got.tgz:77776.got - 2010.06.03 11:33:40.
