data_PCOD9141591
_publ_section_title
;
Structure prediction by ZEFSAII (Michael W. Deem and Ramdas Pophale) SiO2 
 PCOD9141591
Probable space group: P 2/M
;
_chemical_formula_sum "Si O2"
_cell_formula_units_Z 24
_cell_length_a 10.523688
_cell_length_b 8.364962
_cell_length_c 23.834309
_cell_angle_alpha 90.000000
_cell_angle_beta 40.972478
_cell_angle_gamma 90.000000
_cell_volume 1375.743027
_symmetry_space_group_name_H-M "P 2/M"
_symmetry_group_IT_number 10
_symmetry_cell_setting 'monoclinic'
loop_
_space_group_symop_operation_xyz
x,y,z
-x,y,-z
-x,-y,-z
x,-y,z
loop_
_atom_site_type_symbol
_atom_site_label
_atom_site_fract_x
_atom_site_fract_y
_atom_site_fract_z
Si Si1 0.159367 0.694817 0.775624
Si Si2 0.521776 0.191569 0.057488
Si Si3 0.060991 0.693491 0.041314
Si Si4 0.496698 0.687681 0.589412
Si Si5 0.214352 0.813273 0.587805
Si Si6 0.119144 0.691249 0.234675
O O1 0.162685 0.500000 0.773921
O O2 0.372914 0.746856 0.684083
O O3 0.085178 0.748218 0.860819
O O4 0.001805 0.743200 0.780824
O O5 0.338220 0.254272 0.153376
O O6 0.519573 0.000000 0.058471
O O7 0.500000 0.246984 0.000000
O O8 0.724219 0.252165 0.014183
O O9 0.057868 0.500000 0.042467
O O10 0.000000 0.749264 0.000000
O O11 0.536444 0.500000 0.581956
O O12 0.341811 0.714063 0.590449
O O13 0.691028 0.773613 0.503753
O O14 0.995077 0.764558 0.674363
O O15 0.242254 0.000000 0.590167
O O16 0.109711 0.500000 0.241183
#
# Coordination Sequence:
#
# PCOD9141591 Si02
#       6
#     4   4   4   4   4   4
#     4   8  15  27  45  69  94 125 164 208 245 285
#     4  11  22  34  50  75 103 133 168 209 256 303
#     4  10  20  35  54  75 100 134 175 213 249 294
#     4   9  15  25  40  60  90 129 167 197 240 297
#     4  10  17  25  38  63  97 125 156 201 251 296
#     4  10  18  30  49  69  95 130 167 204 247 297
#
# _framework density 17.445118000000001
#
# number of rings (size 3 to 8) (size 9 to 14) (size 15 to 20)
#    0.000    2.333    1.667    5.000    0.000    1.000 
#    0.000    0.833    0.000    0.000    0.000    1.167 
#    0.000    9.333    0.000    0.000    0.000    0.000 
#
# Total GULP energy -133746.447555 kJ/mol
# GULP energy per Si atom -5572.768648 kJ/mol
# Density = 1.740541 g / cm^3
# Si number density = 17.445118 Si / 1000 Ang^3
#
#
#
# Elastic Constant Matrix: (Units=GPa)
#
#
# Indices 1 2 3 4 5 6 
#
# 1 64.1578 10.5500 56.1580 0.0000 2.0271 0.0000
# 2 10.5500 24.5588 20.8206 0.0000 1.0366 0.0000
# 3 56.1580 20.8206 206.1978 0.0000 -11.0559 0.0000
# 4 0.0000 0.0000 0.0000 -62.6397 0.0000 49.9430
# 5 2.0271 1.0366 -11.0559 0.0000 14.3642 0.0000
# 6 0.0000 0.0000 0.0000 49.9430 0.0000 -29.8708
#
#
#
# Elastic Compliance Matrix: (Units=1/GPa)
#
#
# Indices 1 2 3 4 5 6 
#
# 1 0.021616 -0.003998 -0.005874 0.000000 -0.007283 0.000000
# 2 -0.003998 0.045948 -0.003857 0.000000 -0.005721 0.000000
# 3 -0.005874 -0.003857 0.007195 0.000000 0.006645 0.000000
# 4 0.000000 0.000000 0.000000 0.047931 0.000000 0.080139
# 5 -0.007283 -0.005721 0.006645 0.000000 0.076173 0.000000
# 6 0.000000 0.000000 0.000000 0.080139 0.000000 0.100512
#
#
# Mechanical properties :
#
#
# Convention : Reuss Voigt Hill
#
# Bulk Modulus (GPa) = 21.14183 52.21907 36.68045
# Shear Modulus (GPa) = 14.59427 -1.80355 6.39536
#
# Velocity S-wave (km/s) = 2.89551 -1.01788 1.91675
# Velocity P-wave (km/s) = 4.82949 5.34947 5.09612
#
# Compressibility (1/GPa) = 0.04729960
#
# Stress axis : x y z
#
# Youngs Moduli (GPa) = 46.26297 21.76380 138.98107
#
# Poissons Ratio (x) = 0.08702 0.81634
# Poissons Ratio (y) = 0.18498 0.53609
# Poissons Ratio (z) = 0.27174 0.08395
#
# Static dielectric constant tensor:
#      x y z
#    x 1.552270 0.000000 0.006610 
#    y 0.000000 1.584790 0.000000 
#    z 0.006610 0.000000 1.662030 
# 
# From -- ./inp_files/68518.got.cif
#   From: 2010.05.17/outbox.cif.g08.bks.cpg/sg10_35_cif.got.tgz:68518.got - 2010.06.03 11:33:40.
