data_PCOD9141138
_publ_section_title
;
Structure prediction by ZEFSAII (Michael W. Deem and Ramdas Pophale) SiO2 
 PCOD9141138
Probable space group: C C
;
_chemical_formula_sum "Si O2"
_cell_formula_units_Z 20
_cell_length_a 4.672606
_cell_length_b 22.314067
_cell_length_c 7.309654
_cell_angle_alpha 90.000000
_cell_angle_beta 110.719498
_cell_angle_gamma 90.000000
_cell_volume 712.847529
_symmetry_space_group_name_H-M "C C"
_symmetry_group_IT_number 9
_symmetry_cell_setting 'monoclinic'
loop_
_space_group_symop_operation_xyz
x,y,z
x,-y,1/2+z
1/2+x,1/2+y,z
1/2+x,1/2-y,1/2+z
loop_
_atom_site_type_symbol
_atom_site_label
_atom_site_fract_x
_atom_site_fract_y
_atom_site_fract_z
Si Si1 0.411010 0.976692 0.781820
Si Si2 0.754516 0.185256 0.803333
Si Si3 0.011339 0.053020 0.880449
Si Si4 0.245230 0.147083 0.401319
Si Si5 0.606061 0.792465 0.694186
O O1 0.465300 0.178298 0.600151
O O2 0.156412 0.028555 0.729864
O O3 0.738581 0.006797 0.863589
O O4 0.327984 0.923525 0.905315
O O5 0.879670 0.118493 0.845271
O O6 0.004453 0.229185 0.765029
O O7 0.653017 0.206061 0.985251
O O8 0.323251 0.051779 0.069104
O O9 0.326268 0.170612 0.216240
O O10 0.897506 0.170260 0.343299
#
# Coordination Sequence:
#
# PCOD9141138 Si02
#       5
#     4   4   4   4   4
#     4  12  26  53  87 132 172 225 295 371 448 541
#     4  12  32  59  92 129 183 239 301 373 445 532
#     4  12  27  51  89 126 178 226 295 367 453 530
#     4  12  30  56  91 126 180 233 301 370 452 527
#     4  12  33  55  87 129 179 239 300 369 442 538
#
# _framework density 28.056495000000002
#
# number of rings (size 3 to 8) (size 9 to 14) (size 15 to 20)
#    0.000    0.000    2.000    4.800    8.400    6.400 
#    0.000    0.000    0.000    0.000    0.000    0.000 
#    0.000    0.000    0.000    0.000    0.000    0.000 
#
# Total GULP energy -55973.105173 kJ/mol
# GULP energy per Si atom -5597.310517 kJ/mol
# Density = 2.799264 g / cm^3
# Si number density = 28.056495 Si / 1000 Ang^3
#
#
#
# Elastic Constant Matrix: (Units=GPa)
#
#
# Indices 1 2 3 4 5 6 
#
# 1 142.9732 28.7929 51.1163 0.0000 -3.7354 0.0000
# 2 28.7929 155.4597 45.4973 0.0000 -5.0665 0.0000
# 3 51.1163 45.4973 170.2752 0.0000 -11.8652 0.0000
# 4 0.0000 0.0000 0.0000 25.4149 0.0000 7.5512
# 5 -3.7354 -5.0665 -11.8652 0.0000 67.1714 0.0000
# 6 0.0000 0.0000 0.0000 7.5512 0.0000 31.9433
#
#
#
# Elastic Compliance Matrix: (Units=1/GPa)
#
#
# Indices 1 2 3 4 5 6 
#
# 1 0.007935 -0.000838 -0.002158 0.000000 -0.000003 0.000000
# 2 -0.000838 0.007069 -0.001623 0.000000 0.000200 0.000000
# 3 -0.002158 -0.001623 0.007024 0.000000 0.000998 0.000000
# 4 0.000000 0.000000 0.000000 0.042319 0.000000 -0.010004
# 5 -0.000003 0.000200 0.000998 0.000000 0.015079 0.000000
# 6 0.000000 0.000000 0.000000 -0.010004 0.000000 0.033670
#
#
# Mechanical properties :
#
#
# Convention : Reuss Voigt Hill
#
# Bulk Modulus (GPa) = 78.19433 79.94677 79.07055
# Shear Modulus (GPa) = 39.49484 47.79269 43.64377
#
# Velocity S-wave (km/s) = 3.75599 4.13176 3.94835
# Velocity P-wave (km/s) = 6.83672 7.16371 7.00212
#
# Compressibility (1/GPa) = 0.01278865
#
# Stress axis : x y z
#
# Youngs Moduli (GPa) = 126.02975 141.45510 142.36724
#
# Poissons Ratio (x) = 0.11855 0.30727
# Poissons Ratio (y) = 0.10562 0.23112
# Poissons Ratio (z) = 0.27200 0.22964
#
# Static dielectric constant tensor:
#      x y z
#    x 2.118160 0.000000 -0.017310 
#    y 0.000000 2.472660 0.000000 
#    z -0.017310 0.000000 2.228850 
# 
# From -- ./inp_files/3765.got.cif
#   From: 2010.05.17/outbox.cif.g08.bks.cpg/sg9_2_cif.got.tgz:3765.got - 2010.06.03 20:04:27.
