data_PCOD9141629
_publ_section_title
;
Structure prediction by ZEFSAII (Michael W. Deem and Ramdas Pophale) SiO2 
 PCOD9141629
Probable space group: P 2/M
;
_chemical_formula_sum "Si O2"
_cell_formula_units_Z 28
_cell_length_a 20.758401
_cell_length_b 11.840008
_cell_length_c 11.974787
_cell_angle_alpha 90.000000
_cell_angle_beta 39.946400
_cell_angle_gamma 90.000000
_cell_volume 1889.715999
_symmetry_space_group_name_H-M "P 2/M"
_symmetry_group_IT_number 10
_symmetry_cell_setting 'monoclinic'
loop_
_space_group_symop_operation_xyz
x,y,z
-x,y,-z
-x,-y,-z
x,-y,z
loop_
_atom_site_type_symbol
_atom_site_label
_atom_site_fract_x
_atom_site_fract_y
_atom_site_fract_z
Si Si1 0.540295 0.500000 0.764232
Si Si2 0.881993 0.135263 0.640693
Si Si3 0.381115 0.739466 0.377987
Si Si4 0.340372 0.500000 0.158698
Si Si5 0.730191 0.131386 0.030688
Si Si6 0.612071 0.863023 0.397471
Si Si7 0.736583 0.259782 0.682713
Si Si8 0.427413 0.869474 0.955710
O O1 0.578580 0.613064 0.654605
O O2 0.594711 0.500000 0.813115
O O3 0.421690 0.500000 0.950386
O O4 0.837065 0.201100 0.594201
O O5 0.000000 0.150424 0.500000
O O6 0.861497 0.000000 0.655003
O O7 0.819682 0.175946 0.833239
O O8 0.368027 0.806532 0.509921
O O9 0.286897 0.737269 0.418167
O O10 0.471537 0.800335 0.191486
O O11 0.276655 0.385530 0.249677
O O12 0.694307 0.177352 0.197156
O O13 0.631782 0.135074 0.083095
O O14 0.755481 0.000000 0.016675
O O15 0.500000 0.836966 0.500000
O O16 0.616544 0.000000 0.401397
O O17 0.648006 0.185942 0.856609
O O18 0.446510 0.000000 0.955631
#
# Coordination Sequence:
#
# PCOD9141629 Si02
#       8
#     2   4   4   2   4   4   4   4
#     4   9  18  30  41  60  91 133 164 181 225 273
#     4   9  18  33  52  72  94 117 145 192 246 284
#     4  11  19  28  43  63  94 126 156 189 222 268
#     4   9  16  30  45  60  91 129 157 188 227 277
#     4   8  15  28  44  63  89 124 155 173 213 279
#     4  10  18  28  43  64  94 129 156 180 218 274
#     4  10  19  29  45  68  89 118 156 193 234 274
#     4  10  17  25  41  66  94 119 146 185 226 270
#
# _framework density 14.817042000000001
#
# number of rings (size 3 to 8) (size 9 to 14) (size 15 to 20)
#    0.000    2.429    2.857    2.143    0.000    2.857 
#    0.000    0.714    0.000    1.714    0.000    4.000 
#    0.000    3.429    0.000    0.000    0.000    0.000 
#
# Total GULP energy -155890.867619 kJ/mol
# GULP energy per Si atom -5567.530986 kJ/mol
# Density = 1.478332 g / cm^3
# Si number density = 14.817042 Si / 1000 Ang^3
#
#
#
# Elastic Constant Matrix: (Units=GPa)
#
#
# Indices 1 2 3 4 5 6 
#
# 1 79.0753 31.8140 37.6669 0.0000 1.5735 0.0000
# 2 31.8140 77.6789 12.5319 0.0000 -6.1778 0.0000
# 3 37.6669 12.5319 39.4639 0.0000 -2.9297 0.0000
# 4 0.0000 0.0000 0.0000 13.8098 0.0000 -0.3399
# 5 1.5735 -6.1778 -2.9297 0.0000 21.4790 0.0000
# 6 0.0000 0.0000 0.0000 -0.3399 0.0000 13.3058
#
#
#
# Elastic Compliance Matrix: (Units=1/GPa)
#
#
# Indices 1 2 3 4 5 6 
#
# 1 0.027644 -0.007992 -0.024415 0.000000 -0.007654 0.000000
# 2 -0.007992 0.016122 0.002925 0.000000 0.005621 0.000000
# 3 -0.024415 0.002925 0.048399 0.000000 0.009232 0.000000
# 4 0.000000 0.000000 0.000000 0.072458 0.000000 0.001851
# 5 -0.007654 0.005621 0.009232 0.000000 0.049994 0.000000
# 6 0.000000 0.000000 0.000000 0.001851 0.000000 0.075203
#
#
# Mechanical properties :
#
#
# Convention : Reuss Voigt Hill
#
# Bulk Modulus (GPa) = 30.11871 40.02708 35.07289
# Shear Modulus (GPa) = 13.89471 17.33261 15.61366
#
# Velocity S-wave (km/s) = 3.06560 3.42391 3.24969
# Velocity P-wave (km/s) = 5.73600 6.53481 6.14839
#
# Compressibility (1/GPa) = 0.03320196
#
# Stress axis : x y z
#
# Youngs Moduli (GPa) = 36.17457 62.02861 20.66138
#
# Poissons Ratio (x) = 0.49570 0.50446
# Poissons Ratio (y) = 0.28909 -0.06044
# Poissons Ratio (z) = 0.88322 -0.18146
#
# Static dielectric constant tensor:
#      x y z
#    x 1.498270 0.000000 0.014420 
#    y 0.000000 1.505720 0.000000 
#    z 0.014420 0.000000 1.494720 
# 
# From -- ./inp_files/55529.got.cif
#   From: 2010.05.17/outbox.cif.g08.bks.cpg/sg10_28_cif.got.tgz:55529.got - 2010.06.03 11:33:40.
