data_PCOD9141509
_publ_section_title
;
Structure prediction by ZEFSAII (Michael W. Deem and Ramdas Pophale) SiO2 
 PCOD9141509
Probable space group: P 2/M
;
_chemical_formula_sum "Si O2"
_cell_formula_units_Z 26
_cell_length_a 8.222638
_cell_length_b 11.959095
_cell_length_c 15.571963
_cell_angle_alpha 90.000000
_cell_angle_beta 129.032278
_cell_angle_gamma 90.000000
_cell_volume 1189.480169
_symmetry_space_group_name_H-M "P 2/M"
_symmetry_group_IT_number 10
_symmetry_cell_setting 'monoclinic'
loop_
_space_group_symop_operation_xyz
x,y,z
-x,y,-z
-x,-y,-z
x,-y,z
loop_
_atom_site_type_symbol
_atom_site_label
_atom_site_fract_x
_atom_site_fract_y
_atom_site_fract_z
Si Si1 0.180859 0.871571 0.354334
Si Si2 0.667084 0.258192 0.760601
Si Si3 0.205864 0.500000 0.509907
Si Si4 0.774039 0.741983 0.468649
Si Si5 0.732681 0.868787 0.146425
Si Si6 0.387967 0.500000 0.238141
Si Si7 0.705295 0.756489 0.965779
Si Si8 0.350918 0.500000 0.032563
O O1 0.254620 0.802185 0.297453
O O2 0.271035 0.834066 0.475051
O O3 0.929339 0.856559 0.273858
O O4 0.226221 0.000000 0.352653
O O5 0.412790 0.259031 0.663429
O O6 0.734778 0.387646 0.783263
O O7 0.743533 0.215101 0.878715
O O8 0.215421 0.623855 0.474049
O O9 0.408869 0.500000 0.636536
O O10 0.000000 0.500000 0.500000
O O11 0.000000 0.757300 0.500000
O O12 0.543163 0.785952 0.106579
O O13 0.668542 0.000000 0.126552
O O14 0.801076 0.833104 0.072550
O O15 0.458043 0.500000 0.162214
O O16 0.752412 0.624802 0.999679
O O17 0.500000 0.500000 0.000000
#
# Coordination Sequence:
#
# PCOD9141509 Si02
#       8
#     4   4   2   4   4   2   4   2
#     4  11  25  40  54  79 113 150 191 232 281 332
#     4  10  21  37  58  81 114 149 180 225 278 338
#     4   8  16  33  55  86 109 138 177 221 273 333
#     4  10  20  38  61  85 111 143 183 232 279 331
#     4  10  21  37  56  80 109 143 192 237 268 321
#     4   8  18  33  54  80 114 145 182 218 269 338
#     4  10  19  36  60  86 112 144 184 225 280 328
#     4  10  16  30  55  90 117 140 171 226 282 329
#
# _framework density 21.858287000000001
#
# number of rings (size 3 to 8) (size 9 to 14) (size 15 to 20)
#    0.000    2.154    1.538    2.308    0.000    5.231 
#    0.000    5.385    0.000    2.769    0.000    0.000 
#    0.000    0.000    0.000    0.000    0.000    0.000 
#
# Total GULP energy -144908.594987 kJ/mol
# GULP energy per Si atom -5573.407500 kJ/mol
# Density = 2.180854 g / cm^3
# Si number density = 21.858287 Si / 1000 Ang^3
#
#
#
# Elastic Constant Matrix: (Units=GPa)
#
#
# Indices 1 2 3 4 5 6 
#
# 1 49.5247 23.7480 10.2922 0.0000 -5.2264 0.0000
# 2 23.7480 84.0458 22.3650 0.0000 -14.3539 0.0000
# 3 10.2922 22.3650 68.2963 0.0000 -14.9020 0.0000
# 4 0.0000 0.0000 0.0000 -53.1543 0.0000 49.5610
# 5 -5.2264 -14.3539 -14.9020 0.0000 36.3641 0.0000
# 6 0.0000 0.0000 0.0000 49.5610 0.0000 -25.7599
#
#
#
# Elastic Compliance Matrix: (Units=1/GPa)
#
#
# Indices 1 2 3 4 5 6 
#
# 1 0.023499 -0.006199 -0.001437 0.000000 0.000342 0.000000
# 2 -0.006199 0.015147 -0.003202 0.000000 0.003776 0.000000
# 3 -0.001437 -0.003202 0.017117 0.000000 0.005544 0.000000
# 4 0.000000 0.000000 0.000000 0.023697 0.000000 0.045593
# 5 0.000342 0.003776 0.005544 0.000000 0.031311 0.000000
# 6 0.000000 0.000000 0.000000 0.045593 0.000000 0.048898
#
#
# Mechanical properties :
#
#
# Convention : Reuss Voigt Hill
#
# Bulk Modulus (GPa) = 29.33681 34.96411 32.15046
# Shear Modulus (GPa) = 25.94598 1.18742 13.56670
#
# Velocity S-wave (km/s) = 3.44904 0.73784 2.49402
# Velocity P-wave (km/s) = 5.41402 4.09346 4.79938
#
# Compressibility (1/GPa) = 0.03408687
#
# Stress axis : x y z
#
# Youngs Moduli (GPa) = 42.55460 66.02024 58.42189
#
# Poissons Ratio (x) = 0.40928 0.08393
# Poissons Ratio (y) = 0.26381 0.18707
# Poissons Ratio (z) = 0.06114 0.21140
#
# Static dielectric constant tensor:
#      x y z
#    x 1.830290 0.000000 0.038030 
#    y 0.000000 1.833100 0.000000 
#    z 0.038030 0.000000 1.780520 
# 
# From -- ./inp_files/61111.got.cif
#   From: 2010.05.17/outbox.cif.g08.bks.cpg/sg10_31_cif.got.tgz:61111.got - 2010.06.03 11:33:40.
