data_PCOD9141376
_publ_section_title
;
Structure prediction by ZEFSAII (Michael W. Deem and Ramdas Pophale) SiO2 
 PCOD9141376
Probable space group: P 2/M
;
_chemical_formula_sum "Si O2"
_cell_formula_units_Z 32
_cell_length_a 22.399353
_cell_length_b 8.592704
_cell_length_c 27.657893
_cell_angle_alpha 90.000000
_cell_angle_beta 158.766555
_cell_angle_gamma 90.000000
_cell_volume 1927.948227
_symmetry_space_group_name_H-M "P 2/M"
_symmetry_group_IT_number 10
_symmetry_cell_setting 'monoclinic'
loop_
_space_group_symop_operation_xyz
x,y,z
-x,y,-z
-x,-y,-z
x,-y,z
loop_
_atom_site_type_symbol
_atom_site_label
_atom_site_fract_x
_atom_site_fract_y
_atom_site_fract_z
Si Si1 0.451732 0.311888 0.116540
Si Si2 0.255586 0.314551 0.193428
Si Si3 0.953776 0.687841 0.410668
Si Si4 0.420847 0.690048 0.890210
Si Si5 0.520073 0.813258 0.711430
Si Si6 0.024067 0.185123 0.091624
Si Si7 0.269999 0.185843 0.600270
Si Si8 0.797631 0.313858 0.994702
O O1 0.462990 0.500000 0.126895
O O2 0.479776 0.261551 0.082717
O O3 0.600704 0.247994 0.261975
O O4 0.277608 0.269072 0.010013
O O5 0.252270 0.500000 0.190672
O O6 0.426901 0.253052 0.300495
O O7 0.194617 0.251138 0.199084
O O8 0.116603 0.251944 0.050876
O O9 0.956793 0.500000 0.412804
O O10 0.769132 0.738783 0.258672
O O11 0.000000 0.739177 0.500000
O O12 0.092369 0.746796 0.478705
O O13 0.421949 0.500000 0.891421
O O14 0.500000 0.743673 0.000000
O O15 0.345885 0.773640 0.604862
O O16 0.538782 0.000000 0.724905
O O17 0.652628 0.741725 0.849000
O O18 0.963447 0.238519 0.098710
O O19 0.023411 0.000000 0.087755
O O20 0.266078 0.000000 0.600683
O O21 0.813299 0.500000 0.003757
#
# Coordination Sequence:
#
# PCOD9141376 Si02
#       8
#     4   4   4   4   4   4   4   4
#     4   9  16  28  44  61  83 110 142 181 222 263
#     4  10  16  22  32  46  67  97 134 171 207 248
#     4  10  18  30  48  67  87 112 146 184 222 262
#     4   9  17  30  48  68  88 113 146 183 223 268
#     4   9  16  25  34  49  73 101 133 168 209 252
#     4  10  16  22  31  44  67  99 134 170 206 248
#     4  10  19  28  42  63  86 111 142 181 220 262
#     4   9  15  22  34  51  71  97 132 173 211 248
#
# _framework density 16.597956
#
# number of rings (size 3 to 8) (size 9 to 14) (size 15 to 20)
#    0.000    2.500    1.250    5.625    0.000    2.250 
#    0.000    0.000    0.000    1.500    0.000    0.000 
#    0.000    0.000    0.000    1.125    0.000   24.750 
#
# Total GULP energy -178144.397491 kJ/mol
# GULP energy per Si atom -5567.012422 kJ/mol
# Density = 1.656018 g / cm^3
# Si number density = 16.597956 Si / 1000 Ang^3
#
#
#
# Elastic Constant Matrix: (Units=GPa)
#
#
# Indices 1 2 3 4 5 6 
#
# 1 166.7304 38.8625 63.0554 0.0000 44.8747 0.0000
# 2 38.8625 59.3607 16.4560 0.0000 12.0873 0.0000
# 3 63.0554 16.4560 50.0085 0.0000 11.8673 0.0000
# 4 0.0000 0.0000 0.0000 9.6037 0.0000 10.7053
# 5 44.8747 12.0873 11.8673 0.0000 25.4722 0.0000
# 6 0.0000 0.0000 0.0000 10.7053 0.0000 19.2195
#
#
#
# Elastic Compliance Matrix: (Units=1/GPa)
#
#
# Indices 1 2 3 4 5 6 
#
# 1 0.021420 -0.003071 -0.019550 0.000000 -0.027170 0.000000
# 2 -0.003071 0.020052 -0.001970 0.000000 -0.003187 0.000000
# 3 -0.019550 -0.001970 0.041487 0.000000 0.016047 0.000000
# 4 0.000000 0.000000 0.000000 0.274664 0.000000 -0.152989
# 5 -0.027170 -0.003187 0.016047 0.000000 0.081160 0.000000
# 6 0.000000 0.000000 0.000000 -0.152989 0.000000 0.137246
#
#
# Mechanical properties :
#
#
# Convention : Reuss Voigt Hill
#
# Bulk Modulus (GPa) = 29.60574 56.98304 43.29439
# Shear Modulus (GPa) = 7.85585 21.37411 14.61498
#
# Velocity S-wave (km/s) = 2.17791 3.59242 2.97059
# Velocity P-wave (km/s) = 4.91936 7.18424 6.15684
#
# Compressibility (1/GPa) = 0.03377723
#
# Stress axis : x y z
#
# Youngs Moduli (GPa) = 46.68600 49.87092 24.10403
#
# Poissons Ratio (x) = 0.15316 0.47123
# Poissons Ratio (y) = 0.14338 0.04748
# Poissons Ratio (z) = 0.91270 0.09823
#
# Static dielectric constant tensor:
#      x y z
#    x 1.637220 0.000000 0.046570 
#    y 0.000000 1.555340 0.000000 
#    z 0.046570 0.000000 1.527800 
# 
# From -- ./inp_files/95757.got.cif
#   From: 2010.05.17/outbox.cif.g08.bks.cpg/sg10_48_cif.got.tgz:95757.got - 2010.06.03 11:33:40.
