data_PCOD9141749
_publ_section_title
;
Structure prediction by ZEFSAII (Michael W. Deem and Ramdas Pophale) SiO2 
 PCOD9141749
Probable space group: P 2/M
;
_chemical_formula_sum "Si O2"
_cell_formula_units_Z 32
_cell_length_a 13.814302
_cell_length_b 8.921636
_cell_length_c 17.602172
_cell_angle_alpha 90.000000
_cell_angle_beta 77.978535
_cell_angle_gamma 90.000000
_cell_volume 2121.824625
_symmetry_space_group_name_H-M "P 2/M"
_symmetry_group_IT_number 10
_symmetry_cell_setting 'monoclinic'
loop_
_space_group_symop_operation_xyz
x,y,z
-x,y,-z
-x,-y,-z
x,-y,z
loop_
_atom_site_type_symbol
_atom_site_label
_atom_site_fract_x
_atom_site_fract_y
_atom_site_fract_z
Si Si1 0.771728 0.318656 0.558508
Si Si2 0.881283 0.327593 0.005672
Si Si3 0.871210 0.318693 0.692876
Si Si4 0.915571 0.820737 0.843421
Si Si5 0.853481 0.179284 0.167658
Si Si6 0.255035 0.325344 0.676889
Si Si7 0.384682 0.820790 0.528690
Si Si8 0.925473 0.674739 0.412471
O O1 0.766309 0.500000 0.550475
O O2 0.786600 0.285268 0.644730
O O3 0.679854 0.246672 0.529907
O O4 0.870701 0.266775 0.496533
O O5 0.848745 0.500000 0.007644
O O6 0.867733 0.245405 0.927769
O O7 0.837647 0.244123 0.085971
O O8 0.000000 0.326785 0.000000
O O9 0.876608 0.500000 0.700621
O O10 0.866369 0.245758 0.776056
O O11 0.973581 0.261965 0.637419
O O12 0.033316 0.779214 0.826051
O O13 0.909950 0.000000 0.845060
O O14 0.776556 0.246414 0.240245
O O15 0.848139 0.000000 0.167592
O O16 0.277923 0.500000 0.685328
O O17 0.340285 0.246963 0.613696
O O18 0.158043 0.317380 0.638692
O O19 0.500000 0.784453 0.500000
O O20 0.372808 0.000000 0.531691
O O21 0.947496 0.500000 0.424605
#
# Coordination Sequence:
#
# PCOD9141749 Si02
#       8
#     4   4   4   4   4   4   4   4
#     4   9  18  30  46  67  86 113 150 188 224 263
#     4   9  17  28  42  58  80 116 160 195 224 260
#     4  10  17  27  43  62  89 120 153 186 218 261
#     4  10  19  28  39  59  89 123 156 188 226 262
#     4  10  18  28  42  62  91 120 150 189 228 266
#     4  10  18  29  48  69  88 116 153 189 223 264
#     4  10  21  36  51  66  89 118 145 183 236 282
#     4   8  14  25  41  60  85 114 146 181 217 255
#
# _framework density 15.081359000000001
#
# number of rings (size 3 to 8) (size 9 to 14) (size 15 to 20)
#    0.000    2.500    1.250    3.000    0.000    5.500 
#    0.000    0.000    0.000    2.250    0.000    0.000 
#    0.000    1.000    0.000   10.500    0.000    5.750 
#
# Total GULP energy -178304.002381 kJ/mol
# GULP energy per Si atom -5572.000074 kJ/mol
# Density = 1.504703 g / cm^3
# Si number density = 15.081359 Si / 1000 Ang^3
#
#
#
# Elastic Constant Matrix: (Units=GPa)
#
#
# Indices 1 2 3 4 5 6 
#
# 1 46.5362 31.6313 50.2726 0.0000 -4.9546 0.0000
# 2 31.6313 60.5683 62.2110 0.0000 -1.7905 0.0000
# 3 50.2726 62.2110 158.9660 0.0000 6.7305 0.0000
# 4 0.0000 0.0000 0.0000 22.7840 0.0000 -3.4878
# 5 -4.9546 -1.7905 6.7305 0.0000 16.0049 0.0000
# 6 0.0000 0.0000 0.0000 -3.4878 0.0000 13.0763
#
#
#
# Elastic Compliance Matrix: (Units=1/GPa)
#
#
# Indices 1 2 3 4 5 6 
#
# 1 0.040638 -0.011576 -0.008959 0.000000 0.015052 0.000000
# 2 -0.011576 0.031888 -0.008977 0.000000 0.003759 0.000000
# 3 -0.008959 -0.008977 0.013029 0.000000 -0.009257 0.000000
# 4 0.000000 0.000000 0.000000 0.045759 0.000000 0.012205
# 5 0.015052 0.003759 -0.009257 0.000000 0.071454 0.000000
# 6 0.000000 0.000000 0.000000 0.012205 0.000000 0.079730
#
#
# Mechanical properties :
#
#
# Convention : Reuss Voigt Hill
#
# Bulk Modulus (GPa) = 37.69307 61.58895 49.64101
# Shear Modulus (GPa) = 14.27084 18.50339 16.38712
#
# Velocity S-wave (km/s) = 3.07947 3.50652 3.29991
# Velocity P-wave (km/s) = 6.13934 7.57104 6.89247
#
# Compressibility (1/GPa) = 0.02653008
#
# Stress axis : x y z
#
# Youngs Moduli (GPa) = 24.60781 31.35981 76.75181
#
# Poissons Ratio (x) = 0.36303 0.68758
# Poissons Ratio (y) = 0.28486 0.68904
# Poissons Ratio (z) = 0.22045 0.28153
#
# Static dielectric constant tensor:
#      x y z
#    x 1.480430 0.000000 0.005860 
#    y 0.000000 1.508240 0.000000 
#    z 0.005860 0.000000 1.509320 
# 
# From -- ./inp_files/66009.got.cif
#   From: 2010.05.17/outbox.cif.g08.bks.cpg/sg10_34_cif.got.tgz:66009.got - 2010.06.03 11:33:40.
