data_PCOD9141119
_publ_section_title
;
Structure prediction by ZEFSAII (Michael W. Deem and Ramdas Pophale) SiO2 
 PCOD9141119
Probable space group: C C
;
_chemical_formula_sum "Si O2"
_cell_formula_units_Z 24
_cell_length_a 9.420251
_cell_length_b 15.482135
_cell_length_c 9.721133
_cell_angle_alpha 90.000000
_cell_angle_beta 38.769041
_cell_angle_gamma 90.000000
_cell_volume 887.791976
_symmetry_space_group_name_H-M "C C"
_symmetry_group_IT_number 9
_symmetry_cell_setting 'monoclinic'
loop_
_space_group_symop_operation_xyz
x,y,z
x,-y,1/2+z
1/2+x,1/2+y,z
1/2+x,1/2-y,1/2+z
loop_
_atom_site_type_symbol
_atom_site_label
_atom_site_fract_x
_atom_site_fract_y
_atom_site_fract_z
Si Si1 0.308480 0.043396 0.896350
Si Si2 0.529261 0.382676 0.110020
Si Si3 0.754646 0.134169 0.279480
Si Si4 0.056917 0.449115 0.484197
Si Si5 0.640211 0.323489 0.311780
Si Si6 0.503547 0.711074 0.348986
O O1 0.462068 0.970044 0.705931
O O2 0.300706 0.124158 0.796876
O O3 0.392882 0.072737 0.980750
O O4 0.084596 0.984911 0.075098
O O5 0.258019 0.380682 0.333847
O O6 0.663383 0.338826 0.133281
O O7 0.583853 0.340463 0.923166
O O8 0.631184 0.045018 0.383610
O O9 0.619218 0.224107 0.369390
O O10 0.915587 0.152401 0.289313
O O11 0.903643 0.132466 0.029835
O O12 0.743976 0.753579 0.103012
#
# Coordination Sequence:
#
# PCOD9141119 Si02
#       6
#     4   4   4   4   4   4
#     4  12  27  47  76 113 155 206 269 339 412 485
#     4  12  30  49  80 118 163 209 274 345 406 498
#     4  12  26  49  82 113 157 212 275 335 416 494
#     4  12  27  48  81 111 154 210 273 340 411 493
#     4  12  27  50  77 114 160 211 272 343 415 490
#     4  12  31  53  84 123 169 220 275 342 418 496
#
# _framework density 27.033358
#
# number of rings (size 3 to 8) (size 9 to 14) (size 15 to 20)
#    0.000    0.000    5.000    3.000   11.667    0.000 
#    0.000    0.000    0.000    0.000    0.000    0.000 
#    0.000    0.000    0.000    0.000    0.000    0.000 
#
# Total GULP energy -67049.151154 kJ/mol
# GULP energy per Si atom -5587.429263 kJ/mol
# Density = 2.697183 g / cm^3
# Si number density = 27.033358 Si / 1000 Ang^3
#
#
#
# Elastic Constant Matrix: (Units=GPa)
#
#
# Indices 1 2 3 4 5 6 
#
# 1 180.3462 57.9346 51.1239 -0.0043 39.8333 0.0026
# 2 57.9346 109.9309 15.2616 -0.0023 8.3522 0.0005
# 3 51.1239 15.2616 120.6271 -0.0042 20.4047 0.0039
# 4 -0.0043 -0.0023 -0.0042 51.3542 0.0054 -10.7114
# 5 39.8333 8.3522 20.4047 0.0054 55.3695 -0.0027
# 6 0.0026 0.0005 0.0039 -10.7114 -0.0027 41.2512
#
#
#
# Elastic Compliance Matrix: (Units=1/GPa)
#
#
# Indices 1 2 3 4 5 6 
#
# 1 0.008440 -0.003773 -0.002313 0.000001 -0.004650 0.000000
# 2 -0.003773 0.011002 0.000031 0.000000 0.001044 0.000000
# 3 -0.002313 0.000031 0.009583 0.000001 -0.001872 -0.000001
# 4 0.000001 0.000000 0.000001 0.020588 -0.000003 0.005346
# 5 -0.004650 0.001044 -0.001872 -0.000003 0.021938 0.000001
# 6 0.000000 0.000000 -0.000001 0.005346 0.000001 0.025630
#
#
# Mechanical properties :
#
#
# Convention : Reuss Voigt Hill
#
# Bulk Modulus (GPa) = 59.12488 73.28272 66.20380
# Shear Modulus (GPa) = 43.50494 48.70058 46.10276
#
# Velocity S-wave (km/s) = 4.01597 4.24901 4.13413
# Velocity P-wave (km/s) = 6.58958 7.15816 6.87975
#
# Compressibility (1/GPa) = 0.01691335
#
# Stress axis : x y z
#
# Youngs Moduli (GPa) = 118.48591 90.89505 104.35057
#
# Poissons Ratio (x) = 0.34299 0.24136
# Poissons Ratio (y) = 0.44710 -0.00321
# Poissons Ratio (z) = 0.27405 -0.00280
#
# Static dielectric constant tensor:
#      x y z
#    x 2.089740 0.000000 -0.179730 
#    y 0.000000 2.055590 0.000000 
#    z -0.179730 0.000000 2.249490 
# 
# From -- ./inp_files/5316.got.cif
#   From: 2010.05.17/outbox.cif.g08.bks.cpg/sg9_3_cif.got.tgz:5316.got - 2010.06.03 20:04:27.
