data_PCOD9141914
_publ_section_title
;
Structure prediction by ZEFSAII (Michael W. Deem and Ramdas Pophale) SiO2 
 PCOD9141914
Probable space group: P 2/M
;
_chemical_formula_sum "Si O2"
_cell_formula_units_Z 32
_cell_length_a 12.220755
_cell_length_b 8.392810
_cell_length_c 20.380775
_cell_angle_alpha 90.000000
_cell_angle_beta 59.134993
_cell_angle_gamma 90.000000
_cell_volume 1794.340657
_symmetry_space_group_name_H-M "P 2/M"
_symmetry_group_IT_number 10
_symmetry_cell_setting 'monoclinic'
loop_
_space_group_symop_operation_xyz
x,y,z
-x,y,-z
-x,-y,-z
x,-y,z
loop_
_atom_site_type_symbol
_atom_site_label
_atom_site_fract_x
_atom_site_fract_y
_atom_site_fract_z
Si Si1 0.586054 0.307554 0.036081
Si Si2 0.885290 0.313407 0.171482
Si Si3 0.886849 0.810901 0.318174
Si Si4 0.846490 0.187147 0.904631
Si Si5 0.605835 0.307127 0.269219
Si Si6 0.152419 0.689957 0.244636
Si Si7 0.607784 0.191552 0.417751
Si Si8 0.576894 0.305531 0.787662
O O1 0.594469 0.500000 0.033207
O O2 0.512655 0.257320 0.124087
O O3 0.500000 0.260185 0.000000
O O4 0.727436 0.240239 0.984741
O O5 0.894935 0.500000 0.153543
O O6 0.886256 0.285032 0.249904
O O7 0.743397 0.254751 0.197031
O O8 0.015118 0.230956 0.108398
O O9 0.753529 0.770488 0.393912
O O10 0.020876 0.767699 0.309365
O O11 0.885936 0.000000 0.303397
O O12 0.832708 0.270953 0.837529
O O13 0.842635 0.000000 0.893981
O O14 0.609678 0.500000 0.268725
O O15 0.592496 0.249902 0.347856
O O16 0.490393 0.254116 0.258595
O O17 0.142528 0.500000 0.254116
O O18 0.279070 0.747186 0.242786
O O19 0.500000 0.254433 0.500000
O O20 0.597889 0.000000 0.419580
O O21 0.579464 0.500000 0.787125
#
# Coordination Sequence:
#
# PCOD9141914 Si02
#       8
#     4   4   4   4   4   4   4   4
#     4  10  18  32  50  67  90 126 167 202 244 291
#     4   9  16  28  47  67  90 122 158 194 238 288
#     4   9  16  27  45  71  98 121 153 197 235 270
#     4  11  20  29  44  68  96 122 158 208 249 278
#     4   9  18  33  52  75  98 122 158 201 238 279
#     4  10  17  29  48  69  94 127 163 196 238 287
#     4   9  18  33  53  76 102 130 156 187 233 286
#     4   9  18  32  50  70  95 126 160 200 243 287
#
# _framework density 17.833850999999999
#
# number of rings (size 3 to 8) (size 9 to 14) (size 15 to 20)
#    0.000    2.500    1.250    3.750    0.000    1.500 
#    0.000    2.500    0.000    4.500    0.000    5.250 
#    0.000    0.000    0.000    0.000    0.000    0.000 
#
# Total GULP energy -178311.454155 kJ/mol
# GULP energy per Si atom -5572.232942 kJ/mol
# Density = 1.779326 g / cm^3
# Si number density = 17.833851 Si / 1000 Ang^3
#
#
#
# Elastic Constant Matrix: (Units=GPa)
#
#
# Indices 1 2 3 4 5 6 
#
# 1 140.2447 10.0056 61.0968 0.0000 -27.1068 0.0000
# 2 10.0056 13.3425 9.5494 0.0000 -5.2644 0.0000
# 3 61.0968 9.5494 82.8811 0.0000 -28.1323 0.0000
# 4 0.0000 0.0000 0.0000 14.4169 0.0000 -7.9306
# 5 -27.1068 -5.2644 -28.1323 0.0000 28.6492 0.0000
# 6 0.0000 0.0000 0.0000 -7.9306 0.0000 11.6605
#
#
#
# Elastic Compliance Matrix: (Units=1/GPa)
#
#
# Indices 1 2 3 4 5 6 
#
# 1 0.010794 -0.002056 -0.006572 0.000000 0.003381 0.000000
# 2 -0.002056 0.083531 -0.005338 0.000000 0.008162 0.000000
# 3 -0.006572 -0.005338 0.022622 0.000000 0.015014 0.000000
# 4 0.000000 0.000000 0.000000 0.110826 0.000000 0.075376
# 5 0.003381 0.008162 0.015014 0.000000 0.054347 0.000000
# 6 0.000000 0.000000 0.000000 0.075376 0.000000 0.137025
#
#
# Mechanical properties :
#
#
# Convention : Reuss Voigt Hill
#
# Bulk Modulus (GPa) = 11.23429 44.19690 27.71559
# Shear Modulus (GPa) = 10.48770 21.33308 15.91039
#
# Velocity S-wave (km/s) = 2.42766 3.46238 2.99012
# Velocity P-wave (km/s) = 3.76446 6.38909 5.24365
#
# Compressibility (1/GPa) = 0.08901321
#
# Stress axis : x y z
#
# Youngs Moduli (GPa) = 92.64633 11.97157 44.20566
#
# Poissons Ratio (x) = 0.02462 0.29053
# Poissons Ratio (y) = 0.19052 0.23598
# Poissons Ratio (z) = 0.60888 0.06391
#
# Static dielectric constant tensor:
#      x y z
#    x 1.652860 0.000000 -0.034440 
#    y 0.000000 1.611640 0.000000 
#    z -0.034440 0.000000 1.592370 
# 
# From -- ./inp_files/83357.got.cif
#   From: 2010.05.17/outbox.cif.g08.bks.cpg/sg10_42_cif.got.tgz:83357.got - 2010.06.03 11:33:40.
