data_PCOD9141458
_publ_section_title
;
Structure prediction by ZEFSAII (Michael W. Deem and Ramdas Pophale) SiO2 
 PCOD9141458
Probable space group: P 2/M
;
_chemical_formula_sum "Si O2"
_cell_formula_units_Z 32
_cell_length_a 8.832744
_cell_length_b 13.684575
_cell_length_c 20.110220
_cell_angle_alpha 90.000000
_cell_angle_beta 136.707550
_cell_angle_gamma 90.000000
_cell_volume 1666.833212
_symmetry_space_group_name_H-M "P 2/M"
_symmetry_group_IT_number 10
_symmetry_cell_setting 'monoclinic'
loop_
_space_group_symop_operation_xyz
x,y,z
-x,y,-z
-x,-y,-z
x,-y,z
loop_
_atom_site_type_symbol
_atom_site_label
_atom_site_fract_x
_atom_site_fract_y
_atom_site_fract_z
Si Si1 0.495356 0.385900 0.909093
Si Si2 0.599811 0.700791 0.662950
Si Si3 0.843620 0.251760 0.051524
Si Si4 0.140845 0.616986 0.479201
Si Si5 0.742131 0.613195 0.845334
Si Si6 0.267582 0.894764 0.088009
Si Si7 0.017402 0.617615 0.716943
Si Si8 0.795306 0.115282 0.780382
O O1 0.477882 0.500000 0.919276
O O2 0.608888 0.382022 0.871290
O O3 0.249390 0.345005 0.819457
O O4 0.671573 0.335478 0.014418
O O5 0.372533 0.672984 0.555598
O O6 0.603673 0.649045 0.737021
O O7 0.809554 0.658001 0.690816
O O8 0.645841 0.816126 0.686680
O O9 0.049373 0.313710 0.087898
O O10 0.968225 0.172140 0.137369
O O11 0.694589 0.189531 0.952181
O O12 0.185338 0.500000 0.493440
O O13 0.011339 0.640610 0.370181
O O14 0.000000 0.639348 0.500000
O O15 0.812084 0.500000 0.858231
O O16 0.311877 0.878438 0.179631
O O17 0.358654 0.000000 0.096615
O O18 0.000000 0.900998 0.000000
O O19 0.016377 0.500000 0.722401
O O20 0.817887 0.000000 0.772106
#
# Coordination Sequence:
#
# PCOD9141458 Si02
#       8
#     4   4   4   4   4   4   4   4
#     4  10  19  30  45  70 106 142 174 211 251 294
#     4  11  20  33  54  75 101 136 171 207 253 309
#     4  10  16  26  47  72  99 135 177 215 253 296
#     4  10  20  35  57  84 109 132 162 202 246 296
#     4  10  18  27  43  71 104 136 170 206 246 296
#     4   8  13  23  41  66  93 120 159 211 256 289
#     4  10  21  35  51  74 105 138 170 203 244 301
#     4   9  18  31  49  74 100 131 174 219 261 302
#
# _framework density 19.198080999999998
#
# number of rings (size 3 to 8) (size 9 to 14) (size 15 to 20)
#    0.000    2.250    0.000    7.125    0.000    4.000 
#    0.000    2.500    0.000   10.875    0.000    3.500 
#    0.000    0.000    0.000    0.000    0.000    0.000 
#
# Total GULP energy -178423.598849 kJ/mol
# GULP energy per Si atom -5575.737464 kJ/mol
# Density = 1.915439 g / cm^3
# Si number density = 19.198081 Si / 1000 Ang^3
#
#
#
# Elastic Constant Matrix: (Units=GPa)
#
#
# Indices 1 2 3 4 5 6 
#
# 1 58.8581 11.5673 36.1239 0.0000 5.9997 0.0000
# 2 11.5673 106.8601 41.6975 0.0000 7.8476 0.0000
# 3 36.1239 41.6975 109.7875 0.0000 6.6478 0.0000
# 4 0.0000 0.0000 0.0000 18.5306 0.0000 -4.9707
# 5 5.9997 7.8476 6.6478 0.0000 31.5857 0.0000
# 6 0.0000 0.0000 0.0000 -4.9707 0.0000 -1.9935
#
#
#
# Elastic Compliance Matrix: (Units=1/GPa)
#
#
# Indices 1 2 3 4 5 6 
#
# 1 0.021543 0.000670 -0.007177 0.000000 -0.002748 0.000000
# 2 0.000670 0.011118 -0.004323 0.000000 -0.001980 0.000000
# 3 -0.007177 -0.004323 0.013132 0.000000 -0.000326 0.000000
# 4 0.000000 0.000000 0.000000 0.032337 0.000000 -0.080629
# 5 -0.002748 -0.001980 -0.000326 0.000000 0.032743 0.000000
# 6 0.000000 0.000000 0.000000 -0.080629 0.000000 -0.300586
#
#
# Mechanical properties :
#
#
# Convention : Reuss Voigt Hill
#
# Bulk Modulus (GPa) = 41.43660 50.47589 45.95624
# Shear Modulus (GPa) = -31.24779 22.03236 -4.60772
#
# Velocity S-wave (km/s) = -4.03879 3.39135 -1.55090
# Velocity P-wave (km/s) = 0.34433 6.45633 4.55882
#
# Compressibility (1/GPa) = 0.02413326
#
# Stress axis : x y z
#
# Youngs Moduli (GPa) = 46.41884 89.94575 76.15241
#
# Poissons Ratio (x) = -0.06028 0.54651
# Poissons Ratio (y) = -0.03111 0.32922
# Poissons Ratio (z) = 0.33313 0.38885
#
# Static dielectric constant tensor:
#      x y z
#    x 1.713210 0.000000 -0.040680 
#    y 0.000000 1.711220 0.000000 
#    z -0.040680 0.000000 1.687820 
# 
# From -- ./inp_files/82834.got.cif
#   From: 2010.05.17/outbox.cif.g08.bks.cpg/sg10_42_cif.got.tgz:82834.got - 2010.06.03 11:33:40.
