data_PCOD9141220
_publ_section_title
;
Structure prediction by ZEFSAII (Michael W. Deem and Ramdas Pophale) SiO2 
 PCOD9141220
Probable space group: C C
;
_chemical_formula_sum "Si O2"
_cell_formula_units_Z 16
_cell_length_a 12.000000
_cell_length_b 9.000000
_cell_length_c 15.000000
_cell_angle_alpha 90.000000
_cell_angle_beta 110.000000
_cell_angle_gamma 90.000000
_cell_volume 1522.302046
_symmetry_space_group_name_H-M "C C"
_symmetry_group_IT_number 9
_symmetry_cell_setting 'monoclinic'
loop_
_space_group_symop_operation_xyz
x,y,z
x,-y,1/2+z
1/2+x,1/2+y,z
1/2+x,1/2-y,1/2+z
loop_
_atom_site_type_symbol
_atom_site_label
_atom_site_fract_x
_atom_site_fract_y
_atom_site_fract_z
Si Si1 0.441010 0.349100 0.095000
Si Si2 0.148526 0.059239 0.100945
Si Si3 0.850557 0.578596 0.780239
Si Si4 0.468727 0.798994 0.137692
Si Si5 0.260129 0.605902 0.068068
Si Si6 0.099309 0.542825 0.379189
Si Si7 0.244706 0.170757 0.941553
Si Si8 0.088158 0.593849 0.181873
O O1 0.544728 0.437071 0.073628
O O2 0.348333 0.466210 0.110423
O O3 0.506837 0.236475 0.179415
O O4 0.364613 0.251466 0.006719
O O5 0.258294 0.007480 0.191977
O O6 0.079236 0.197373 0.132308
O O7 0.200843 0.075192 0.015148
O O8 0.924671 0.690243 0.731300
O O9 0.775488 0.625248 0.847860
O O10 0.959535 0.480720 0.845931
O O11 0.349223 0.734599 0.062178
O O12 0.504651 0.964513 0.120317
O O13 0.186863 0.636809 0.137501
O O14 0.169186 0.563109 0.965669
O O15 0.140840 0.707498 0.411784
O O16 0.137345 0.524034 0.286185
#
# Coordination Sequence:
#
# PCOD9141220 Si02
#       8
#     4   4   4   4   4   4   4   4
#     4  10  22  39  62  90 123 165 206 251 308 368
#     4  11  24  42  65  94 128 168 211 259 315 375
#     4  11  24  41  64  94 127 164 211 262 314 373
#     4  10  22  40  63  91 123 163 209 258 313 372
#     4  10  21  40  61  87 124 159 201 255 312 369
#     4  10  22  38  61  92 121 159 207 255 310 369
#     4  11  22  40  63  92 128 166 211 259 313 374
#     4  11  21  40  63  88 124 162 204 255 311 368
#
# _framework density 10.510398
#
# number of rings (size 3 to 8) (size 9 to 14) (size 15 to 20)
#    0.000    1.500    0.000    6.000    0.000    2.000 
#    0.000   22.500    0.000    0.000    0.000    0.000 
#    0.000    0.000    0.000    0.000    0.000    0.000 
#
# Total GULP energy -89175.813166 kJ/mol
# GULP energy per Si atom -5573.488323 kJ/mol
# Density = 1.048648 g / cm^3
# Si number density = 10.510398 Si / 1000 Ang^3
#
#
#
# Elastic Constant Matrix: (Units=GPa)
#
#
# Indices 1 2 3 4 5 6 
#
# 1 98.5799 18.7526 19.6774 0.0000 4.3779 0.0000
# 2 18.7526 49.0572 -4.0861 0.0000 1.1784 0.0000
# 3 19.6774 -4.0861 57.9346 0.0000 -1.7238 0.0000
# 4 0.0000 0.0000 0.0000 19.8654 0.0000 -7.6994
# 5 4.3779 1.1784 -1.7238 0.0000 38.2945 0.0000
# 6 0.0000 0.0000 0.0000 -7.6994 0.0000 26.7790
#
#
#
# Elastic Compliance Matrix: (Units=1/GPa)
#
#
# Indices 1 2 3 4 5 6 
#
# 1 0.012042 -0.004942 -0.004481 0.000000 -0.001426 0.000000
# 2 -0.004942 0.022545 0.003269 0.000000 0.000018 0.000000
# 3 -0.004481 0.003269 0.019051 0.000000 0.001269 0.000000
# 4 0.000000 0.000000 0.000000 0.056652 0.000000 0.016288
# 5 -0.001426 0.000018 0.001269 0.000000 0.026333 0.000000
# 6 0.000000 0.000000 0.000000 0.016288 0.000000 0.042026
#
#
# Mechanical properties :
#
#
# Convention : Reuss Voigt Hill
#
# Bulk Modulus (GPa) = 24.19511 30.47330 27.33421
# Shear Modulus (GPa) = 24.42196 28.40298 26.41247
#
# Velocity S-wave (km/s) = 3.41222 3.67983 3.54855
# Velocity P-wave (km/s) = 5.20186 5.70816 5.46088
#
# Compressibility (1/GPa) = 0.04133066
#
# Stress axis : x y z
#
# Youngs Moduli (GPa) = 83.04279 44.35496 52.49020
#
# Poissons Ratio (x) = 0.21921 0.23521
# Poissons Ratio (y) = 0.41041 -0.17160
# Poissons Ratio (z) = 0.37212 -0.14501
#
# Static dielectric constant tensor:
#      x y z
#    x 1.748230 0.000000 0.012380 
#    y 0.000000 1.843100 0.000000 
#    z 0.012380 0.000000 1.795810 
# 
# From -- ./inp_files/24359.got.cif
#   From: 2010.05.17/outbox.ucp.g08.bks.cvg/sg9_13_cif.got.tgz:24359.got - 2010.06.11 13:03:20.
