data_PCOD9141843
_publ_section_title
;
Structure prediction by ZEFSAII (Michael W. Deem and Ramdas Pophale) SiO2 
 PCOD9141843
Probable space group: P 2/M
;
_chemical_formula_sum "Si O2"
_cell_formula_units_Z 32
_cell_length_a 28.447983
_cell_length_b 7.554914
_cell_length_c 14.874416
_cell_angle_alpha 90.000000
_cell_angle_beta 151.216448
_cell_angle_gamma 90.000000
_cell_volume 1539.285243
_symmetry_space_group_name_H-M "P 2/M"
_symmetry_group_IT_number 10
_symmetry_cell_setting 'monoclinic'
loop_
_space_group_symop_operation_xyz
x,y,z
-x,y,-z
-x,-y,-z
x,-y,z
loop_
_atom_site_type_symbol
_atom_site_label
_atom_site_fract_x
_atom_site_fract_y
_atom_site_fract_z
Si Si1 0.839425 0.785156 0.996059
Si Si2 0.107615 0.215757 0.211533
Si Si3 0.795268 0.702204 0.290934
Si Si4 0.943789 0.213130 0.683217
Si Si5 0.898549 0.794922 0.290016
Si Si6 0.645225 0.701959 0.184846
Si Si7 0.563614 0.204748 0.234397
Si Si8 0.279635 0.782921 0.367348
O O1 0.855151 0.720224 0.124330
O O2 0.942019 0.744346 0.118731
O O3 0.830863 0.000000 0.984826
O O4 0.751053 0.724715 0.784051
O O5 0.115260 0.270718 0.327912
O O6 0.192571 0.273872 0.288145
O O7 0.108520 0.000000 0.211502
O O8 0.000000 0.270483 0.000000
O O9 0.765730 0.500000 0.224026
O O10 0.896312 0.708346 0.515274
O O11 0.818569 0.788467 0.234794
O O12 0.717684 0.781844 0.231629
O O13 0.937470 0.000000 0.665506
O O14 0.000000 0.717074 0.500000
O O15 0.922449 0.000000 0.308792
O O16 0.676275 0.500000 0.252256
O O17 0.633592 0.787947 0.263469
O O18 0.536669 0.702935 0.960616
O O19 0.620941 0.274210 0.417351
O O20 0.538524 0.000000 0.207119
O O21 0.281590 0.000000 0.371289
#
# Coordination Sequence:
#
# PCOD9141843 Si02
#       8
#     4   4   4   4   4   4   4   4
#     4   9  16  28  46  71 104 134 162 200 248 303
#     4   9  14  21  39  69 101 131 159 190 229 282
#     4  11  23  35  50  72 100 134 171 215 260 300
#     4  10  17  28  48  72 100 133 169 203 240 296
#     4  10  19  33  53  76  99 132 175 213 254 301
#     4  10  21  37  54  73 102 139 172 205 257 311
#     4  10  19  32  55  84 107 128 165 213 254 296
#     4   9  16  26  43  74 108 133 160 200 251 301
#
# _framework density 20.788869999999999
#
# number of rings (size 3 to 8) (size 9 to 14) (size 15 to 20)
#    0.000    2.250    2.500    2.625    0.000    3.250 
#    0.000    0.000    0.000    4.125    0.000    5.250 
#    0.000    0.000    0.000    0.000    0.000    0.000 
#
# Total GULP energy -178547.644314 kJ/mol
# GULP energy per Si atom -5579.613885 kJ/mol
# Density = 2.074155 g / cm^3
# Si number density = 20.788870 Si / 1000 Ang^3
#
#
#
# Elastic Constant Matrix: (Units=GPa)
#
#
# Indices 1 2 3 4 5 6 
#
# 1 82.6044 -2.8926 35.4858 0.0000 -24.9504 0.0000
# 2 -2.8926 49.2555 2.0780 0.0000 -1.6640 0.0000
# 3 35.4858 2.0780 118.3591 0.0000 -31.7666 0.0000
# 4 0.0000 0.0000 0.0000 -7.0960 0.0000 25.3737
# 5 -24.9504 -1.6640 -31.7666 0.0000 37.3358 0.0000
# 6 0.0000 0.0000 0.0000 25.3737 0.0000 -11.1709
#
#
#
# Elastic Compliance Matrix: (Units=1/GPa)
#
#
# Indices 1 2 3 4 5 6 
#
# 1 0.015782 0.001318 -0.002473 0.000000 0.008501 0.000000
# 2 0.001318 0.020445 -0.000354 0.000000 0.001491 0.000000
# 3 -0.002473 -0.000354 0.011338 0.000000 0.007978 0.000000
# 4 0.000000 0.000000 0.000000 0.019787 0.000000 0.044944
# 5 0.008501 0.001491 0.007978 0.000000 0.039320 0.000000
# 6 0.000000 0.000000 0.000000 0.044944 0.000000 0.012569
#
#
# Mechanical properties :
#
#
# Convention : Reuss Voigt Hill
#
# Bulk Modulus (GPa) = 22.44800 35.50682 28.97741
# Shear Modulus (GPa) = 36.46762 18.18362 27.32562
#
# Velocity S-wave (km/s) = 4.19285 2.96071 3.62945
# Velocity P-wave (km/s) = 5.85333 5.36699 5.61543
#
# Compressibility (1/GPa) = 0.04454739
#
# Stress axis : x y z
#
# Youngs Moduli (GPa) = 63.36200 48.91161 88.20016
#
# Poissons Ratio (x) = -0.06448 0.21814
# Poissons Ratio (y) = -0.08354 0.03123
# Poissons Ratio (z) = 0.15671 0.01732
#
# Static dielectric constant tensor:
#      x y z
#    x 1.750010 0.000000 -0.015440 
#    y 0.000000 1.770150 0.000000 
#    z -0.015440 0.000000 1.765480 
# 
# From -- ./inp_files/72571.got.cif
#   From: 2010.05.17/outbox.cif.g08.bks.cpg/sg10_37_cif.got.tgz:72571.got - 2010.06.03 11:33:40.
