data_PCOD9141365
_publ_section_title
;
Structure prediction by ZEFSAII (Michael W. Deem and Ramdas Pophale) SiO2 
 PCOD9141365
Probable space group: P 2/M
;
_chemical_formula_sum "Si O2"
_cell_formula_units_Z 32
_cell_length_a 21.281900
_cell_length_b 8.871919
_cell_length_c 10.211630
_cell_angle_alpha 90.000000
_cell_angle_beta 98.690169
_cell_angle_gamma 90.000000
_cell_volume 1905.936472
_symmetry_space_group_name_H-M "P 2/M"
_symmetry_group_IT_number 10
_symmetry_cell_setting 'monoclinic'
loop_
_space_group_symop_operation_xyz
x,y,z
-x,y,-z
-x,-y,-z
x,-y,z
loop_
_atom_site_type_symbol
_atom_site_label
_atom_site_fract_x
_atom_site_fract_y
_atom_site_fract_z
Si Si1 0.940101 0.817626 0.132175
Si Si2 0.068282 0.319530 0.164139
Si Si3 0.198320 0.824954 0.885785
Si Si4 0.800930 0.176267 0.795354
Si Si5 0.460699 0.321616 0.852864
Si Si6 0.331716 0.680666 0.233503
Si Si7 0.329031 0.319320 0.926385
Si Si8 0.538520 0.179239 0.642782
O O1 0.872885 0.779168 0.179353
O O2 0.005459 0.752129 0.210482
O O3 0.943520 0.000000 0.120635
O O4 0.934870 0.743972 0.985981
O O5 0.065171 0.500000 0.162832
O O6 0.136308 0.260990 0.236009
O O7 0.259917 0.735213 0.859241
O O8 0.206990 0.000000 0.855930
O O9 0.197860 0.812690 0.044763
O O10 0.734152 0.250099 0.735391
O O11 0.803635 0.000000 0.763054
O O12 0.459766 0.500000 0.818384
O O13 0.389024 0.268080 0.860040
O O14 0.496499 0.231666 0.752276
O O15 0.500000 0.308726 0.000000
O O16 0.328524 0.500000 0.236579
O O17 0.393539 0.739797 0.326713
O O18 0.338302 0.727032 0.081676
O O19 0.330262 0.500000 0.926336
O O20 0.500000 0.218478 0.500000
O O21 0.548420 0.000000 0.649646
#
# Coordination Sequence:
#
# PCOD9141365 Si02
#       8
#     4   4   4   4   4   4   4   4
#     4   9  15  23  32  44  69 107 145 184 228 273
#     4  10  16  21  31  49  71 102 145 188 226 271
#     4   8  15  24  35  53  78 109 145 182 224 277
#     4   9  16  26  38  55  80 110 145 186 230 277
#     4  10  19  35  54  74  97 123 159 202 246 291
#     4  10  18  31  49  68  90 118 153 195 240 284
#     4   9  17  28  45  67  90 114 146 194 238 280
#     4  11  24  38  51  72 100 129 162 199 242 294
#
# _framework density 16.789646999999999
#
# number of rings (size 3 to 8) (size 9 to 14) (size 15 to 20)
#    0.000    2.500    1.250    4.125    0.000    5.750 
#    0.000    0.000    0.000    0.000    0.000    0.000 
#    0.000    0.000    0.000    1.125    0.000   21.500 
#
# Total GULP energy -178231.799298 kJ/mol
# GULP energy per Si atom -5569.743728 kJ/mol
# Density = 1.675143 g / cm^3
# Si number density = 16.789647 Si / 1000 Ang^3
#
#
#
# Elastic Constant Matrix: (Units=GPa)
#
#
# Indices 1 2 3 4 5 6 
#
# 1 176.2399 58.9709 22.0702 0.0000 28.6861 0.0000
# 2 58.9709 67.3665 17.2860 0.0000 12.9996 0.0000
# 3 22.0702 17.2860 22.7274 0.0000 8.5950 0.0000
# 4 0.0000 0.0000 0.0000 10.1230 0.0000 3.4676
# 5 28.6861 12.9996 8.5950 0.0000 9.9304 0.0000
# 6 0.0000 0.0000 0.0000 3.4676 0.0000 38.8269
#
#
#
# Elastic Compliance Matrix: (Units=1/GPa)
#
#
# Indices 1 2 3 4 5 6 
#
# 1 0.012148 -0.005700 0.004442 0.000000 -0.031476 0.000000
# 2 -0.005700 0.023522 -0.010313 0.000000 -0.005400 0.000000
# 3 0.004442 -0.010313 0.070282 0.000000 -0.060161 0.000000
# 4 0.000000 0.000000 0.000000 0.101902 0.000000 -0.009101
# 5 -0.031476 -0.005400 -0.060161 0.000000 0.250766 0.000000
# 6 0.000000 0.000000 0.000000 -0.009101 0.000000 0.026568
#
#
# Mechanical properties :
#
#
# Convention : Reuss Voigt Hill
#
# Bulk Modulus (GPa) = 12.07590 51.44313 31.75952
# Shear Modulus (GPa) = 9.32949 22.97651 16.15300
#
# Velocity S-wave (km/s) = 2.35982 3.70333 3.10511
# Velocity P-wave (km/s) = 3.82532 6.99946 5.64028
#
# Compressibility (1/GPa) = 0.08280954
#
# Stress axis : x y z
#
# Youngs Moduli (GPa) = 82.31503 42.51275 14.22842
#
# Poissons Ratio (x) = 0.24234 -0.06320
# Poissons Ratio (y) = 0.46923 0.14674
# Poissons Ratio (z) = -0.36563 0.43844
#
# Static dielectric constant tensor:
#      x y z
#    x 1.619450 0.000000 0.017840 
#    y 0.000000 1.560410 0.000000 
#    z 0.017840 0.000000 1.535280 
# 
# From -- ./inp_files/54507.got.cif
#   From: 2010.05.17/outbox.cif.g08.bks.cpg/sg10_28_cif.got.tgz:54507.got - 2010.06.03 11:33:40.
