data_PCOD9141319
_publ_section_title
;
Structure prediction by ZEFSAII (Michael W. Deem and Ramdas Pophale) SiO2 
 PCOD9141319
Probable space group: P 2/M
;
_chemical_formula_sum "Si O2"
_cell_formula_units_Z 24
_cell_length_a 21.962262
_cell_length_b 8.125132
_cell_length_c 6.988384
_cell_angle_alpha 90.000000
_cell_angle_beta 52.996381
_cell_angle_gamma 90.000000
_cell_volume 995.891895
_symmetry_space_group_name_H-M "P 2/M"
_symmetry_group_IT_number 10
_symmetry_cell_setting 'monoclinic'
loop_
_space_group_symop_operation_xyz
x,y,z
-x,y,-z
-x,-y,-z
x,-y,z
loop_
_atom_site_type_symbol
_atom_site_label
_atom_site_fract_x
_atom_site_fract_y
_atom_site_fract_z
Si Si1 0.820600 0.684740 0.984521
Si Si2 0.331247 0.174396 0.805541
Si Si3 0.692757 0.810917 0.686247
Si Si4 0.144697 0.799960 0.507355
Si Si5 0.592433 0.500000 0.856286
Si Si6 0.020649 0.190600 0.232260
Si Si7 0.588665 0.500000 0.313338
O O1 0.793257 0.500000 0.068499
O O2 0.840070 0.708865 0.721934
O O3 0.900080 0.716278 0.939079
O O4 0.750559 0.808605 0.141415
O O5 0.378729 0.333341 0.664983
O O6 0.368250 0.000000 0.692316
O O7 0.317757 0.180488 0.061160
O O8 0.782618 0.764304 0.497035
O O9 0.636329 0.669381 0.716228
O O10 0.679340 0.000000 0.646212
O O11 0.057454 0.757682 0.724303
O O12 0.145281 0.000000 0.474312
O O13 0.500000 0.500000 0.000000
O O14 0.606120 0.500000 0.057200
O O15 0.000000 0.197145 0.500000
O O16 0.036088 0.000000 0.156646
O O17 0.500000 0.500000 0.500000
#
# Coordination Sequence:
#
# PCOD9141319 Si02
#       7
#     4   4   4   4   2   4   2
#     4  10  15  19  29  49  74 104 143 177 206 247
#     4   9  16  28  43  59  82 112 144 178 216 258
#     4   8  15  27  42  59  81 111 145 178 212 257
#     4   8  14  22  31  45  69 105 144 176 209 247
#     4  10  20  32  48  69  89 113 143 178 224 268
#     4   8  13  20  27  40  67 103 141 176 206 241
#     4  10  20  34  50  69  89 111 145 184 220 264
#
# _framework density 24.099001999999999
#
# number of rings (size 3 to 8) (size 9 to 14) (size 15 to 20)
#    0.000    3.167    0.833    3.500    3.500    3.667 
#    0.000    0.000    0.000    0.000    0.000    0.000 
#    0.000    0.000    0.000    3.000    0.000   16.500 
#
# Total GULP energy -134034.644662 kJ/mol
# GULP energy per Si atom -5584.776861 kJ/mol
# Density = 2.404415 g / cm^3
# Si number density = 24.099002 Si / 1000 Ang^3
#
#
#
# Elastic Constant Matrix: (Units=GPa)
#
#
# Indices 1 2 3 4 5 6 
#
# 1 130.5345 47.2488 36.8879 0.0000 -8.4300 0.0000
# 2 47.2488 173.9956 69.3344 0.0000 -47.7475 0.0000
# 3 36.8879 69.3344 90.7970 0.0000 -39.0613 0.0000
# 4 0.0000 0.0000 0.0000 -136.4975 0.0000 -34.3008
# 5 -8.4300 -47.7475 -39.0613 0.0000 56.7137 0.0000
# 6 0.0000 0.0000 0.0000 -34.3008 0.0000 9.1959
#
#
#
# Elastic Compliance Matrix: (Units=1/GPa)
#
#
# Indices 1 2 3 4 5 6 
#
# 1 0.009115 -0.001808 -0.003402 0.000000 -0.002511 0.000000
# 2 -0.001808 0.009208 -0.004373 0.000000 0.004472 0.000000
# 3 -0.003402 -0.004373 0.019801 0.000000 0.009450 0.000000
# 4 0.000000 0.000000 0.000000 -0.003782 0.000000 -0.014105
# 5 -0.002511 0.004472 0.009450 0.000000 0.027533 0.000000
# 6 0.000000 0.000000 0.000000 -0.014105 0.000000 0.056131
#
#
# Mechanical properties :
#
#
# Convention : Reuss Voigt Hill
#
# Bulk Modulus (GPa) = 52.75412 78.02993 65.39202
# Shear Modulus (GPa) = 34.84527 2.00616 18.42571
#
# Velocity S-wave (km/s) = 3.80665 0.91338 2.76811
# Velocity P-wave (km/s) = 6.42331 5.79323 6.11639
#
# Compressibility (1/GPa) = 0.01895587
#
# Stress axis : x y z
#
# Youngs Moduli (GPa) = 109.71301 108.60124 50.50324
#
# Poissons Ratio (x) = 0.19640 0.17183
# Poissons Ratio (y) = 0.19841 0.22085
# Poissons Ratio (z) = 0.37328 0.47492
#
# Static dielectric constant tensor:
#      x y z
#    x 1.895850 0.000000 -0.015180 
#    y 0.000000 1.871470 0.000000 
#    z -0.015180 0.000000 1.850230 
# 
# From -- ./inp_files/57243.got.cif
#   From: 2010.05.17/outbox.cif.g08.bks.cpg/sg10_29_cif.got.tgz:57243.got - 2010.06.03 11:33:40.
