data_PCOD9141829
_publ_section_title
;
Structure prediction by ZEFSAII (Michael W. Deem and Ramdas Pophale) SiO2 
 PCOD9141829
Probable space group: P 2/M
;
_chemical_formula_sum "Si O2"
_cell_formula_units_Z 32
_cell_length_a 30.147658
_cell_length_b 9.276927
_cell_length_c 24.026990
_cell_angle_alpha 90.000000
_cell_angle_beta 16.239529
_cell_angle_gamma 90.000000
_cell_volume 1879.219171
_symmetry_space_group_name_H-M "P 2/M"
_symmetry_group_IT_number 10
_symmetry_cell_setting 'monoclinic'
loop_
_space_group_symop_operation_xyz
x,y,z
-x,y,-z
-x,-y,-z
x,-y,z
loop_
_atom_site_type_symbol
_atom_site_label
_atom_site_fract_x
_atom_site_fract_y
_atom_site_fract_z
Si Si1 0.779449 0.171128 0.012158
Si Si2 0.368136 0.829197 0.027776
Si Si3 0.097573 0.169648 0.259898
Si Si4 0.919032 0.829322 0.155061
Si Si5 0.011206 0.671372 0.814715
Si Si6 0.135710 0.665814 0.384745
Si Si7 0.436938 0.830498 0.384933
Si Si8 0.631456 0.328427 0.646854
O O1 0.592315 0.202266 0.233400
O O2 0.799572 0.000000 0.998194
O O3 0.850344 0.202400 0.865476
O O4 0.871433 0.260726 0.947203
O O5 0.246471 0.806924 0.122226
O O6 0.281232 0.756942 0.184980
O O7 0.387939 0.000000 0.011297
O O8 0.531301 0.752204 0.814653
O O9 0.950497 0.262445 0.458894
O O10 0.058239 0.000000 0.311323
O O11 0.979276 0.742878 0.135983
O O12 0.728444 0.811853 0.383722
O O13 0.951067 0.000000 0.124588
O O14 0.000000 0.783995 0.000000
O O15 0.995926 0.500000 0.838083
O O16 0.180274 0.701632 0.580741
O O17 0.179292 0.500000 0.342053
O O18 0.000000 0.668403 0.500000
O O19 0.429334 0.733721 0.339019
O O20 0.449099 0.000000 0.353080
O O21 0.606643 0.500000 0.679843
#
# Coordination Sequence:
#
# PCOD9141829 Si02
#       8
#     4   4   4   4   4   4   4   4
#     4  10  19  33  52  75 103 136 171 212 254 300
#     4  10  17  28  47  70  97 129 169 215 260 303
#     4   9  17  29  45  68  97 130 167 207 257 305
#     4   9  18  35  60  84 105 134 171 209 249 296
#     4  10  22  36  51  76 107 139 170 206 253 305
#     4   9  17  27  40  65  98 131 167 208 256 306
#     4   9  17  32  53  78 104 131 169 211 252 298
#     4  10  19  31  48  72 101 131 169 213 258 305
#
# _framework density 17.028348000000001
#
# number of rings (size 3 to 8) (size 9 to 14) (size 15 to 20)
#    0.000    2.500    1.250    1.500    0.000    4.750 
#    0.000    0.625    0.000    4.500    0.000    5.250 
#    0.000    0.000    0.000    0.000    0.000    0.000 
#
# Total GULP energy -178478.808305 kJ/mol
# GULP energy per Si atom -5577.462760 kJ/mol
# Density = 1.698959 g / cm^3
# Si number density = 17.028348 Si / 1000 Ang^3
#
#
#
# Elastic Constant Matrix: (Units=GPa)
#
#
# Indices 1 2 3 4 5 6 
#
# 1 62.7720 37.1305 42.9205 0.0000 -7.2325 0.0000
# 2 37.1305 60.2887 50.4810 0.0000 -0.5076 0.0000
# 3 42.9205 50.4810 87.5595 0.0000 6.6092 0.0000
# 4 0.0000 0.0000 0.0000 24.4527 0.0000 3.6914
# 5 -7.2325 -0.5076 6.6092 0.0000 23.6463 0.0000
# 6 0.0000 0.0000 0.0000 3.6914 0.0000 8.3006
#
#
#
# Elastic Compliance Matrix: (Units=1/GPa)
#
#
# Indices 1 2 3 4 5 6 
#
# 1 0.029928 -0.010277 -0.009623 0.000000 0.011623 0.000000
# 2 -0.010277 0.036446 -0.016137 0.000000 0.002149 0.000000
# 3 -0.009623 -0.016137 0.026243 0.000000 -0.010625 0.000000
# 4 0.000000 0.000000 0.000000 0.043838 0.000000 -0.019496
# 5 0.011623 0.002149 -0.010625 0.000000 0.048861 0.000000
# 6 0.000000 0.000000 0.000000 -0.019496 0.000000 0.129143
#
#
# Mechanical properties :
#
#
# Convention : Reuss Voigt Hill
#
# Bulk Modulus (GPa) = 48.67549 52.40934 50.54242
# Shear Modulus (GPa) = 12.71028 16.61914 14.66471
#
# Velocity S-wave (km/s) = 2.73503 3.12744 2.93779
# Velocity P-wave (km/s) = 6.21457 6.62463 6.42287
#
# Compressibility (1/GPa) = 0.02054422
#
# Stress axis : x y z
#
# Youngs Moduli (GPa) = 33.41302 27.43767 38.10498
#
# Poissons Ratio (x) = 0.28198 0.36668
# Poissons Ratio (y) = 0.34339 0.61490
# Poissons Ratio (z) = 0.32153 0.44276
#
# Static dielectric constant tensor:
#      x y z
#    x 1.542320 0.000000 -0.003830 
#    y 0.000000 1.566340 0.000000 
#    z -0.003830 0.000000 1.580910 
# 
# From -- ./inp_files/86807.got.cif
#   From: 2010.05.17/outbox.cif.g08.bks.cpg/sg10_44_cif.got.tgz:86807.got - 2010.06.03 11:33:40.
