data_PCOD9141051
_publ_section_title
;
Structure prediction by ZEFSAII (Michael W. Deem and Ramdas Pophale) SiO2 
 PCOD9141051
Probable space group: C C
;
_chemical_formula_sum "Si O2"
_cell_formula_units_Z 32
_cell_length_a 18.110805
_cell_length_b 12.654330
_cell_length_c 12.829577
_cell_angle_alpha 90.000000
_cell_angle_beta 151.775141
_cell_angle_gamma 90.000000
_cell_volume 1390.557501
_symmetry_space_group_name_H-M "C C"
_symmetry_group_IT_number 9
_symmetry_cell_setting 'monoclinic'
loop_
_space_group_symop_operation_xyz
x,y,z
x,-y,1/2+z
1/2+x,1/2+y,z
1/2+x,1/2-y,1/2+z
loop_
_atom_site_type_symbol
_atom_site_label
_atom_site_fract_x
_atom_site_fract_y
_atom_site_fract_z
Si Si1 0.428090 0.388415 0.113410
Si Si2 0.436152 0.094285 0.405972
Si Si3 0.801708 0.082838 0.838325
Si Si4 0.740823 0.778864 0.574468
Si Si5 0.400440 0.211901 0.577103
Si Si6 0.292636 0.104410 0.807216
Si Si7 0.459072 0.515236 0.352025
Si Si8 0.268579 0.184460 0.994032
O O1 0.490759 0.467742 0.278971
O O2 0.581989 0.332150 0.259695
O O3 0.333123 0.464319 0.918522
O O4 0.315572 0.303797 0.026778
O O5 0.619848 0.111957 0.616007
O O6 0.385179 0.141498 0.454832
O O7 0.404373 0.970033 0.379037
O O8 0.339379 0.145122 0.191175
O O9 0.888966 0.169266 0.016932
O O10 0.874504 0.074902 0.814538
O O11 0.776605 0.707324 0.516603
O O12 0.768246 0.713112 0.713700
O O13 0.851120 0.881151 0.709567
O O14 0.563027 0.811587 0.336229
O O15 0.342644 0.121187 0.988303
O O16 0.124604 0.047942 0.603948
#
# Coordination Sequence:
#
# PCOD9141051 Si02
#       8
#     4   4   4   4   4   4   4   4
#     4  12  26  50  75 109 150 200 245 313 385 448
#     4  12  30  47  76 115 150 204 249 316 379 453
#     4  12  27  49  77 108 149 197 250 307 381 446
#     4  12  26  47  79 111 147 197 255 312 368 446
#     4  12  26  49  77 109 149 195 257 312 368 447
#     4  12  28  48  76 111 153 201 252 310 377 450
#     4  12  25  48  76 108 149 197 246 306 378 447
#     4  12  30  48  74 113 155 197 250 314 382 465
#
# _framework density 23.012353000000001
#
# number of rings (size 3 to 8) (size 9 to 14) (size 15 to 20)
#    0.000    0.000    6.250    1.500   10.500    0.000 
#    0.000    0.000    0.000    0.000    0.000    0.000 
#    0.000    0.000    0.000    0.000    0.000    0.000 
#
# Total GULP energy -89576.266063 kJ/mol
# GULP energy per Si atom -5598.516629 kJ/mol
# Density = 2.295998 g / cm^3
# Si number density = 23.012353 Si / 1000 Ang^3
#
#
#
# Elastic Constant Matrix: (Units=GPa)
#
#
# Indices 1 2 3 4 5 6 
#
# 1 74.2770 -1.7659 9.2842 0.0000 -10.9126 0.0000
# 2 -1.7659 63.8371 9.4625 0.0000 -3.1259 0.0000
# 3 9.2842 9.4625 57.0579 0.0000 0.9173 0.0000
# 4 0.0000 0.0000 0.0000 30.3460 0.0000 -3.6996
# 5 -10.9126 -3.1259 0.9173 0.0000 42.5748 0.0000
# 6 0.0000 0.0000 0.0000 -3.6996 0.0000 48.5665
#
#
#
# Elastic Compliance Matrix: (Units=1/GPa)
#
#
# Indices 1 2 3 4 5 6 
#
# 1 0.014365 0.000963 -0.002558 0.000000 0.003808 0.000000
# 2 0.000963 0.016190 -0.002866 0.000000 0.001497 0.000000
# 3 -0.002558 -0.002866 0.018438 0.000000 -0.001263 0.000000
# 4 0.000000 0.000000 0.000000 0.033262 0.000000 0.002534
# 5 0.003808 0.001497 -0.001263 0.000000 0.024601 0.000000
# 6 0.000000 0.000000 0.000000 0.002534 0.000000 0.020783
#
#
# Mechanical properties :
#
#
# Convention : Reuss Voigt Hill
#
# Bulk Modulus (GPa) = 24.95582 25.45927 25.20755
# Shear Modulus (GPa) = 33.35150 36.17689 34.76419
#
# Velocity S-wave (km/s) = 3.81108 3.96923 3.89096
# Velocity P-wave (km/s) = 5.49853 5.66513 5.58245
#
# Compressibility (1/GPa) = 0.04007081
#
# Stress axis : x y z
#
# Youngs Moduli (GPa) = 69.61248 61.76801 54.23616
#
# Poissons Ratio (x) = -0.05949 0.13876
# Poissons Ratio (y) = -0.06704 0.15542
# Poissons Ratio (z) = 0.17809 0.17701
#
# Static dielectric constant tensor:
#      x y z
#    x 1.873880 0.000000 -0.028870 
#    y 0.000000 1.857640 0.000000 
#    z -0.028870 0.000000 1.824710 
# 
# From -- ./inp_files/9115.got.cif
#   From: 2010.05.17/outbox.cif.g08.bks.cpg/sg9_5_cif.got.tgz:9115.got - 2010.06.03 20:04:27.
