data_PCOD9141195
_publ_section_title
;
Structure prediction by ZEFSAII (Michael W. Deem and Ramdas Pophale) SiO2 
 PCOD9141195
Probable space group: C C
;
_chemical_formula_sum "Si O2"
_cell_formula_units_Z 32
_cell_length_a 7.322707
_cell_length_b 6.606296
_cell_length_c 24.065093
_cell_angle_alpha 90.000000
_cell_angle_beta 116.509144
_cell_angle_gamma 90.000000
_cell_volume 1041.774805
_symmetry_space_group_name_H-M "C C"
_symmetry_group_IT_number 9
_symmetry_cell_setting 'monoclinic'
loop_
_space_group_symop_operation_xyz
x,y,z
x,-y,1/2+z
1/2+x,1/2+y,z
1/2+x,1/2-y,1/2+z
loop_
_atom_site_type_symbol
_atom_site_label
_atom_site_fract_x
_atom_site_fract_y
_atom_site_fract_z
Si Si1 0.750000 0.292925 0.079270
Si Si2 0.364685 0.654718 0.603843
Si Si3 0.041609 0.987526 0.726109
Si Si4 0.537844 0.792926 0.973435
Si Si5 0.423159 0.345281 0.948861
Si Si6 0.428276 0.021897 0.700342
Si Si7 0.359568 0.978104 0.852363
Si Si8 0.246235 0.487526 0.326595
O O1 0.550712 0.268753 0.091412
O O2 0.868032 0.477760 0.126169
O O3 0.879270 0.090992 0.096938
O O4 0.648192 0.315682 0.005054
O O5 0.406846 0.658324 0.676116
O O6 0.139652 0.684317 0.547651
O O7 0.940664 0.768257 0.712481
O O8 0.241295 0.965550 0.714436
O O9 0.136467 0.040028 0.799051
O O10 0.347180 0.731743 0.840224
O O11 0.737132 0.768753 0.961292
O O12 0.419812 0.977761 0.926535
O O13 0.380998 0.341676 0.876589
O O14 0.408575 0.590992 0.955766
O O15 0.651377 0.959973 0.753653
O O16 0.546549 0.034449 0.838269
#
# Coordination Sequence:
#
# PCOD9141195 Si02
#       8
#     4   4   4   4   4   4   4   4
#     4   9  17  30  48  72 102 135 172 214 260 311
#     4   9  17  30  48  72 102 135 172 214 260 311
#     4   8  13  22  39  64  93 126 164 206 252 302
#     4   9  17  30  48  72 102 135 172 214 260 311
#     4   9  17  30  48  72 102 135 172 214 260 311
#     4   8  13  22  39  64  93 126 164 206 252 302
#     4   8  13  22  39  64  93 126 164 206 252 302
#     4   8  13  22  39  64  93 126 164 206 252 302
#
# _framework density 30.716812000000001
#
# number of rings (size 3 to 8) (size 9 to 14) (size 15 to 20)
#    0.000    3.500    0.000    0.000    0.000    0.000 
#    0.000    5.000    0.000    1.500    0.000    0.000 
#    0.000   88.000    0.000    0.000    0.000   21.000 
#
# Total GULP energy -89660.073914 kJ/mol
# GULP energy per Si atom -5603.754620 kJ/mol
# Density = 3.064690 g / cm^3
# Si number density = 30.716812 Si / 1000 Ang^3
#
#
#
# Elastic Constant Matrix: (Units=GPa)
#
#
# Indices 1 2 3 4 5 6 
#
# 1 122.3465 75.8882 18.1496 0.0000 -7.2089 0.0000
# 2 75.8882 -97.5844 -57.1831 0.0000 -21.1091 0.0000
# 3 18.1496 -57.1831 246.7729 0.0000 21.7113 0.0000
# 4 0.0000 0.0000 0.0000 76.4170 0.0000 16.8706
# 5 -7.2089 -21.1091 21.7113 0.0000 41.7788 0.0000
# 6 0.0000 0.0000 0.0000 16.8706 0.0000 55.9450
#
#
#
# Elastic Compliance Matrix: (Units=1/GPa)
#
#
# Indices 1 2 3 4 5 6 
#
# 1 0.005917 0.003860 0.000207 0.000000 0.002864 0.000000
# 2 0.003860 -0.006005 -0.001537 0.000000 -0.001569 0.000000
# 3 0.000207 -0.001537 0.003925 0.000000 -0.002781 0.000000
# 4 0.000000 0.000000 0.000000 0.014019 0.000000 -0.004228
# 5 0.002864 -0.001569 -0.002781 0.000000 0.025082 0.000000
# 6 0.000000 0.000000 0.000000 -0.004228 0.000000 0.019150
#
#
# Mechanical properties :
#
#
# Convention : Reuss Voigt Hill
#
# Bulk Modulus (GPa) = 112.38232 38.36051 75.37142
# Shear Modulus (GPa) = 83.34222 50.47352 66.90787
#
# Velocity S-wave (km/s) = 5.21453 4.05802 4.67220
# Velocity P-wave (km/s) = 8.53939 5.87131 7.32780
#
# Compressibility (1/GPa) = 0.00889820
#
# Stress axis : x y z
#
# Youngs Moduli (GPa) = 169.00579 -166.52484 254.74635
#
# Poissons Ratio (x) = 0.64286 -0.05284
# Poissons Ratio (y) = -0.65243 0.39165
# Poissons Ratio (z) = -0.03506 -0.25602
#
# Static dielectric constant tensor:
#      x y z
#    x 2.046020 0.000000 -0.001590 
#    y 0.000000 2.594690 0.000000 
#    z -0.001590 0.000000 2.757050 
# 
# From -- ./inp_files/32304.got.cif
#   From: 2010.05.17/outbox.cif.g08.bks.cpg/sg9_17_cif.got.tgz:32304.got - 2010.06.03 20:04:27.
