data_PCOD9141577
_publ_section_title
;
Structure prediction by ZEFSAII (Michael W. Deem and Ramdas Pophale) SiO2 
 PCOD9141577
Probable space group: P 2/M
;
_chemical_formula_sum "Si O2"
_cell_formula_units_Z 28
_cell_length_a 9.190316
_cell_length_b 8.646909
_cell_length_c 30.156573
_cell_angle_alpha 90.000000
_cell_angle_beta 140.511972
_cell_angle_gamma 90.000000
_cell_volume 1523.960595
_symmetry_space_group_name_H-M "P 2/M"
_symmetry_group_IT_number 10
_symmetry_cell_setting 'monoclinic'
loop_
_space_group_symop_operation_xyz
x,y,z
-x,y,-z
-x,-y,-z
x,-y,z
loop_
_atom_site_type_symbol
_atom_site_label
_atom_site_fract_x
_atom_site_fract_y
_atom_site_fract_z
Si Si1 0.307126 0.682619 0.993536
Si Si2 0.595179 0.685236 0.705162
Si Si3 0.766346 0.687135 0.568749
Si Si4 0.965258 0.183288 0.849972
Si Si5 0.067464 0.312088 0.295662
Si Si6 0.093197 0.814972 0.570084
Si Si7 0.690898 0.687135 0.144060
O O1 0.258486 0.500000 0.985590
O O2 0.079815 0.766517 0.923249
O O3 0.500000 0.700452 0.000000
O O4 0.439200 0.738129 0.068915
O O5 0.602703 0.500000 0.709293
O O6 0.718276 0.752510 0.777860
O O7 0.746612 0.734562 0.697849
O O8 0.339102 0.742148 0.638253
O O9 0.500000 0.726024 0.500000
O O10 0.786143 0.500000 0.571172
O O11 0.859528 0.739800 0.638598
O O12 0.915034 0.760590 0.565074
O O13 0.133228 0.257074 0.852411
O O14 0.967936 0.000000 0.846818
O O15 0.069290 0.500000 0.296751
O O16 0.815692 0.264379 0.218817
O O17 0.000000 0.765662 0.500000
O O18 0.114200 0.000000 0.575162
O O19 0.686654 0.500000 0.141839
#
# Coordination Sequence:
#
# PCOD9141577 Si02
#       7
#     4   4   4   4   4   4   4
#     4   8  13  22  36  56  87 128 170 207 245 291
#     4  10  19  34  55  75  99 133 172 210 248 294
#     4  10  20  35  56  80 103 130 168 208 246 295
#     4  10  17  24  38  64  98 130 162 204 253 300
#     4   8  15  29  50  75 100 128 167 214 255 291
#     4  11  24  39  54  76 106 135 164 202 249 298
#     4   8  14  25  40  60  91 131 171 209 248 292
#
# _framework density 18.373179
#
# number of rings (size 3 to 8) (size 9 to 14) (size 15 to 20)
#    0.000    2.714    0.000    4.714    0.000    5.143 
#    0.000    3.571    0.000    0.000    0.000    1.000 
#    0.000    8.000    0.000    0.000    0.000    0.000 
#
# Total GULP energy -155991.816516 kJ/mol
# GULP energy per Si atom -5571.136304 kJ/mol
# Density = 1.833136 g / cm^3
# Si number density = 18.373179 Si / 1000 Ang^3
#
#
#
# Elastic Constant Matrix: (Units=GPa)
#
#
# Indices 1 2 3 4 5 6 
#
# 1 47.3058 3.0063 49.4280 0.0000 -3.9452 0.0000
# 2 3.0063 -15.7939 28.1284 0.0000 -2.2362 0.0000
# 3 49.4280 28.1284 214.1375 0.0000 -5.7610 0.0000
# 4 0.0000 0.0000 0.0000 71.1259 0.0000 52.0985
# 5 -3.9452 -2.2362 -5.7610 0.0000 18.5634 0.0000
# 6 0.0000 0.0000 0.0000 52.0985 0.0000 61.4207
#
#
#
# Elastic Compliance Matrix: (Units=1/GPa)
#
#
# Indices 1 2 3 4 5 6 
#
# 1 0.027608 -0.005205 -0.005595 0.000000 0.003504 0.000000
# 2 -0.005205 -0.050019 0.007644 0.000000 -0.004759 0.000000
# 3 -0.005595 0.007644 0.004992 0.000000 0.001281 0.000000
# 4 0.000000 0.000000 0.000000 0.037127 0.000000 -0.031492
# 5 0.003504 -0.004759 0.001281 0.000000 0.054438 0.000000
# 6 0.000000 0.000000 0.000000 -0.031492 0.000000 0.042993
#
#
# Mechanical properties :
#
#
# Convention : Reuss Voigt Hill
#
# Bulk Modulus (GPa) = -42.13848 45.19718 1.52935
# Shear Modulus (GPa) = 43.27527 41.22777 42.25152
#
# Velocity S-wave (km/s) = 4.85846 4.74213 4.80065
# Velocity P-wave (km/s) = 2.91346 7.39166 5.61805
#
# Compressibility (1/GPa) = -0.02373128
#
# Stress axis : x y z
#
# Youngs Moduli (GPa) = 36.22200 -19.99230 200.33461
#
# Poissons Ratio (x) = -0.10406 1.12077
# Poissons Ratio (y) = 0.18853 -1.53130
# Poissons Ratio (z) = 0.20264 0.15282
#
# Static dielectric constant tensor:
#      x y z
#    x 1.627970 0.000000 -0.021410 
#    y 0.000000 1.610940 0.000000 
#    z -0.021410 0.000000 1.696880 
# 
# From -- ./inp_files/94546.got.cif
#   From: 2010.05.17/outbox.cif.g08.bks.cpg/sg10_48_cif.got.tgz:94546.got - 2010.06.03 11:33:40.
