data_PCOD9141463
_publ_section_title
;
Structure prediction by ZEFSAII (Michael W. Deem and Ramdas Pophale) SiO2 
 PCOD9141463
Probable space group: P 2/M
;
_chemical_formula_sum "Si O2"
_cell_formula_units_Z 24
_cell_length_a 18.303520
_cell_length_b 14.276578
_cell_length_c 9.571270
_cell_angle_alpha 90.000000
_cell_angle_beta 154.571317
_cell_angle_gamma 90.000000
_cell_volume 1073.933783
_symmetry_space_group_name_H-M "P 2/M"
_symmetry_group_IT_number 10
_symmetry_cell_setting 'monoclinic'
loop_
_space_group_symop_operation_xyz
x,y,z
-x,y,-z
-x,-y,-z
x,-y,z
loop_
_atom_site_type_symbol
_atom_site_label
_atom_site_fract_x
_atom_site_fract_y
_atom_site_fract_z
Si Si1 0.620318 0.211489 0.385035
Si Si2 0.867985 0.106449 0.639765
Si Si3 0.023013 0.398491 0.705239
Si Si4 0.136988 0.199696 0.935324
Si Si5 0.376451 0.891323 0.148748
Si Si6 0.187378 0.390780 0.393895
O O1 0.688838 0.145330 0.380995
O O2 0.441728 0.180624 0.142927
O O3 0.675765 0.315910 0.428600
O O4 0.741004 0.182660 0.723023
O O5 0.952263 0.168450 0.666041
O O6 0.859200 0.000000 0.579573
O O7 0.000000 0.110471 0.000000
O O8 0.091056 0.500000 0.870069
O O9 0.143948 0.310821 0.932090
O O10 0.000000 0.403022 0.500000
O O11 0.857116 0.382851 0.517284
O O12 0.200858 0.144398 0.911629
O O13 0.500000 0.887800 0.500000
O O14 0.375261 0.000000 0.100809
O O15 0.231251 0.500000 0.442269
O O16 0.000000 0.370659 0.000000
#
# Coordination Sequence:
#
# PCOD9141463 Si02
#       6
#     4   4   4   4   4   4
#     4  10  16  27  45  74 101 130 163 198 249 296
#     4   9  15  23  41  68  95 121 160 205 239 281
#     4  10  20  33  51  75 101 131 167 208 255 302
#     4  10  17  29  46  70 100 132 166 200 247 296
#     4   9  18  29  44  70 107 139 162 199 250 299
#     4  10  17  29  50  75 101 127 161 209 258 295
#
# _framework density 22.347746999999998
#
# number of rings (size 3 to 8) (size 9 to 14) (size 15 to 20)
#    0.000    2.333    3.333    1.500    0.000    4.000 
#    0.000    0.833    0.000    6.000    0.000    4.667 
#    0.000    0.000    0.000    0.000    0.000    0.000 
#
# Total GULP energy -133806.133351 kJ/mol
# GULP energy per Si atom -5575.255556 kJ/mol
# Density = 2.229688 g / cm^3
# Si number density = 22.347747 Si / 1000 Ang^3
#
#
#
# Elastic Constant Matrix: (Units=GPa)
#
#
# Indices 1 2 3 4 5 6 
#
# 1 165.6413 58.8117 37.1348 0.0000 8.5535 0.0000
# 2 58.8117 133.6396 6.0774 0.0000 22.3028 0.0000
# 3 37.1348 6.0774 38.2405 0.0000 -6.1852 0.0000
# 4 0.0000 0.0000 0.0000 -220.2279 0.0000 79.7830
# 5 8.5535 22.3028 -6.1852 0.0000 31.0887 0.0000
# 6 0.0000 0.0000 0.0000 79.7830 0.0000 14.7915
#
#
#
# Elastic Compliance Matrix: (Units=1/GPa)
#
#
# Indices 1 2 3 4 5 6 
#
# 1 0.009310 -0.003381 -0.008809 0.000000 -0.001888 0.000000
# 2 -0.003381 0.009950 0.000721 0.000000 -0.006064 0.000000
# 3 -0.008809 0.000721 0.036058 0.000000 0.009080 0.000000
# 4 0.000000 0.000000 0.000000 -0.001537 0.000000 0.008291
# 5 -0.001888 -0.006064 0.009080 0.000000 0.038843 0.000000
# 6 0.000000 0.000000 0.000000 0.008291 0.000000 0.022886
#
#
# Mechanical properties :
#
#
# Convention : Reuss Voigt Hill
#
# Bulk Modulus (GPa) = 30.88236 60.17436 45.52836
# Shear Modulus (GPa) = 33.50274 -19.16970 7.16652
#
# Velocity S-wave (km/s) = 3.87609 -2.93198 1.79270
# Velocity P-wave (km/s) = 5.82075 3.93989 4.97011
#
# Compressibility (1/GPa) = 0.03238094
#
# Stress axis : x y z
#
# Youngs Moduli (GPa) = 107.41022 100.50099 27.73273
#
# Poissons Ratio (x) = 0.33984 0.24430
# Poissons Ratio (y) = 0.36320 -0.02001
# Poissons Ratio (z) = 0.94617 -0.07251
#
# Static dielectric constant tensor:
#      x y z
#    x 1.897940 0.000000 -0.118400 
#    y 0.000000 1.818950 0.000000 
#    z -0.118400 0.000000 2.010910 
# 
# From -- ./inp_files/29660.got.cif
#   From: 2010.05.17/outbox.cif.g08.bks.cpg/sg10_15_cif.got.tgz:29660.got - 2010.06.03 11:33:40.
