data_PCOD9141284
_publ_section_title
;
Structure prediction by ZEFSAII (Michael W. Deem and Ramdas Pophale) SiO2 
 PCOD9141284
Probable space group: C C
;
_chemical_formula_sum "Si O2"
_cell_formula_units_Z 14
_cell_length_a 9.000000
_cell_length_b 12.000000
_cell_length_c 24.000000
_cell_angle_alpha 90.000000
_cell_angle_beta 150.000000
_cell_angle_gamma 90.000000
_cell_volume 1296.000000
_symmetry_space_group_name_H-M "C C"
_symmetry_group_IT_number 9
_symmetry_cell_setting 'monoclinic'
loop_
_space_group_symop_operation_xyz
x,y,z
x,-y,1/2+z
1/2+x,1/2+y,z
1/2+x,1/2-y,1/2+z
loop_
_atom_site_type_symbol
_atom_site_label
_atom_site_fract_x
_atom_site_fract_y
_atom_site_fract_z
Si Si1 0.738130 0.912360 0.607910
Si Si2 0.785111 0.518255 0.715948
Si Si3 0.291071 0.219557 0.171775
Si Si4 0.794408 0.164063 0.920397
Si Si5 0.877739 0.344190 0.122838
Si Si6 0.316554 0.350860 0.763423
Si Si7 0.125444 0.009556 0.945995
O O1 0.762382 0.783373 0.594422
O O2 0.764822 0.898589 0.684470
O O3 0.407709 0.962891 0.498777
O O4 0.972156 0.992279 0.649054
O O5 0.821061 0.592349 0.667305
O O6 0.876754 0.391871 0.732643
O O7 0.029470 0.572896 0.836114
O O8 0.556243 0.224173 0.209918
O O9 0.183779 0.312409 0.183773
O O10 0.000568 0.184673 0.040923
O O11 0.612193 0.276976 0.852799
O O12 0.998172 0.119542 0.935596
O O13 0.709152 0.424004 0.023729
O O14 0.387731 0.451738 0.828401
#
# Coordination Sequence:
#
# PCOD9141284 Si02
#       7
#     4   4   4   4   4   4   4
#     4  11  27  46  74 109 144 194 253 307 374 453
#     4  11  24  46  73 107 152 190 250 307 369 449
#     4  11  24  46  72 108 148 192 249 303 373 447
#     4  12  24  44  76 107 144 195 245 304 374 451
#     4  11  24  47  72 103 148 193 237 313 368 442
#     4  12  25  47  71 109 146 195 252 307 381 443
#     4  12  26  48  72 105 148 193 240 315 375 445
#
# _framework density 10.802469
#
# number of rings (size 3 to 8) (size 9 to 14) (size 15 to 20)
#    0.000    0.571    7.143    0.000    2.000    3.429 
#    5.143    0.000    0.000    0.000    0.000    0.000 
#    0.000    0.000    0.000    0.000    0.000    0.000 
#
# Total GULP energy -77959.774156 kJ/mol
# GULP energy per Si atom -5568.555297 kJ/mol
# Density = 1.077788 g / cm^3
# Si number density = 10.802469 Si / 1000 Ang^3
#
#
#
# Elastic Constant Matrix: (Units=GPa)
#
#
# Indices 1 2 3 4 5 6 
#
# 1 182.0179 27.1574 28.1634 0.0000 26.2524 0.0001
# 2 27.1574 84.0722 14.8977 0.0002 5.6760 0.0001
# 3 28.1634 14.8977 49.4295 0.0003 15.9439 0.0001
# 4 0.0000 0.0002 0.0003 41.2136 0.0000 4.1389
# 5 26.2524 5.6760 15.9439 0.0000 47.8207 0.0000
# 6 0.0001 0.0001 0.0001 4.1389 0.0000 59.5841
#
#
#
# Elastic Compliance Matrix: (Units=1/GPa)
#
#
# Indices 1 2 3 4 5 6 
#
# 1 0.006458 -0.001487 -0.002403 0.000000 -0.002568 0.000000
# 2 -0.001487 0.012911 -0.003152 0.000000 0.000335 0.000000
# 3 -0.002403 -0.003152 0.024655 0.000000 -0.006527 0.000000
# 4 0.000000 0.000000 0.000000 0.024434 0.000000 -0.001697
# 5 -0.002568 0.000335 -0.006527 0.000000 0.024457 0.000000
# 6 0.000000 0.000000 0.000000 -0.001697 0.000000 0.016901
#
#
# Mechanical properties :
#
#
# Convention : Reuss Voigt Hill
#
# Bulk Modulus (GPa) = 33.40027 50.66188 42.03108
# Shear Modulus (GPa) = 37.34661 46.07709 41.71185
#
# Velocity S-wave (km/s) = 4.16217 4.62314 4.39870
# Velocity P-wave (km/s) = 6.21219 7.21096 6.73013
#
# Compressibility (1/GPa) = 0.02993988
#
# Stress axis : x y z
#
# Youngs Moduli (GPa) = 154.84729 77.45467 40.55903
#
# Poissons Ratio (x) = 0.11517 0.09747
# Poissons Ratio (y) = 0.23024 0.12784
# Poissons Ratio (z) = 0.37214 0.24414
#
# Static dielectric constant tensor:
#      x y z
#    x 1.866130 0.000000 0.018310 
#    y 0.000000 1.824920 0.000000 
#    z 0.018310 0.000000 1.871060 
# 
# From -- ./inp_files/35036.got.cif
#   From: 2010.05.17/outbox.ucp.g08.bks.cvg/sg9_18_cif.got.tgz:35036.got - 2010.06.11 13:03:20.
