data_PCOD9141255
_publ_section_title
;
Structure prediction by ZEFSAII (Michael W. Deem and Ramdas Pophale) SiO2 
 PCOD9141255
Probable space group: C C
;
_chemical_formula_sum "Si O2"
_cell_formula_units_Z 16
_cell_length_a 12.000000
_cell_length_b 12.000000
_cell_length_c 21.000000
_cell_angle_alpha 90.000000
_cell_angle_beta 30.000000
_cell_angle_gamma 90.000000
_cell_volume 1512.000000
_symmetry_space_group_name_H-M "C C"
_symmetry_group_IT_number 9
_symmetry_cell_setting 'monoclinic'
loop_
_space_group_symop_operation_xyz
x,y,z
x,-y,1/2+z
1/2+x,1/2+y,z
1/2+x,1/2-y,1/2+z
loop_
_atom_site_type_symbol
_atom_site_label
_atom_site_fract_x
_atom_site_fract_y
_atom_site_fract_z
Si Si1 0.037900 0.486813 0.692850
Si Si2 0.155638 0.041042 0.135318
Si Si3 0.124197 0.287800 0.313612
Si Si4 0.448445 0.120972 0.103127
Si Si5 0.369904 0.351135 0.318760
Si Si6 0.933271 0.527062 0.380360
Si Si7 0.251404 0.310013 0.673180
Si Si8 0.129455 0.275194 0.081160
O O1 0.868293 0.479594 0.837435
O O2 0.241618 0.411304 0.624125
O O3 0.084780 0.612311 0.644100
O O4 0.943060 0.430349 0.676164
O O5 0.940582 0.975869 0.265603
O O6 0.340117 0.046614 0.100387
O O7 0.110623 0.166686 0.135502
O O8 0.247691 0.977822 0.026566
O O9 0.299250 0.231125 0.180536
O O10 0.232931 0.294171 0.329642
O O11 0.072120 0.414158 0.321090
O O12 0.887935 0.224014 0.430892
O O13 0.702759 0.146591 0.960430
O O14 0.597629 0.285837 0.219238
O O15 0.098049 0.631831 0.303637
O O16 0.466950 0.256196 0.601191
#
# Coordination Sequence:
#
# PCOD9141255 Si02
#       8
#     4   4   4   4   4   4   4   4
#     4  10  24  46  71 108 150 192 247 314 380 449
#     4  11  25  45  74 108 140 201 251 310 380 457
#     4  11  23  45  72 103 141 199 246 302 379 459
#     4  12  25  47  72 109 147 193 253 311 381 451
#     4  12  25  46  74 105 148 194 250 312 378 459
#     4   9  21  45  69 107 140 196 246 307 382 451
#     4  10  24  46  72 110 147 194 244 309 388 443
#     4  11  23  48  74 108 151 195 251 317 382 457
#
# _framework density 10.582011
#
# number of rings (size 3 to 8) (size 9 to 14) (size 15 to 20)
#    0.750    0.500    3.750    2.250    3.500    0.000 
#    9.000    3.750    0.000    0.000    0.000    0.000 
#    0.000    0.000    0.000    0.000    0.000    0.000 
#
# Total GULP energy -89228.647502 kJ/mol
# GULP energy per Si atom -5576.790469 kJ/mol
# Density = 1.055793 g / cm^3
# Si number density = 10.582011 Si / 1000 Ang^3
#
#
#
# Elastic Constant Matrix: (Units=GPa)
#
#
# Indices 1 2 3 4 5 6 
#
# 1 156.3835 9.1468 23.8582 -0.0007 -1.6279 -0.0001
# 2 9.1468 59.8450 25.1163 -0.0008 -3.6280 -0.0001
# 3 23.8582 25.1163 65.8387 -0.0025 -1.9736 -0.0002
# 4 -0.0007 -0.0008 -0.0025 21.0749 0.0002 4.4722
# 5 -1.6279 -3.6280 -1.9736 0.0002 33.9684 0.0002
# 6 -0.0001 -0.0001 -0.0002 4.4722 0.0002 39.9232
#
#
#
# Elastic Compliance Matrix: (Units=1/GPa)
#
#
# Indices 1 2 3 4 5 6 
#
# 1 0.006770 0.000004 -0.002449 0.000000 0.000183 0.000000
# 2 0.000004 0.019992 -0.007577 0.000000 0.001695 0.000000
# 3 -0.002449 -0.007577 0.018972 0.000002 0.000176 0.000000
# 4 0.000000 0.000000 0.000002 0.048605 0.000000 -0.005445
# 5 0.000183 0.001695 0.000176 0.000000 0.029639 0.000000
# 6 0.000000 0.000000 0.000000 -0.005445 0.000000 0.025658
#
#
# Mechanical properties :
#
#
# Convention : Reuss Voigt Hill
#
# Bulk Modulus (GPa) = 38.92688 44.25664 41.59176
# Shear Modulus (GPa) = 28.05134 33.92302 30.98718
#
# Velocity S-wave (km/s) = 3.64459 4.00792 3.83056
# Velocity P-wave (km/s) = 6.01195 6.50957 6.26571
#
# Compressibility (1/GPa) = 0.02568919
#
# Stress axis : x y z
#
# Youngs Moduli (GPa) = 147.71333 50.01972 52.70886
#
# Poissons Ratio (x) = -0.00022 0.12911
# Poissons Ratio (y) = -0.00064 0.39940
# Poissons Ratio (z) = 0.36181 0.37902
#
# Static dielectric constant tensor:
#      x y z
#    x 1.779870 0.000000 0.013920 
#    y 0.000000 1.801440 0.000000 
#    z 0.013920 0.000000 1.771730 
# 
# From -- ./inp_files/33365.got.cif
#   From: 2010.05.17/outbox.ucp.g08.bks.cvg/sg9_17_cif.got.tgz:33365.got - 2010.06.11 13:03:20.
