data_PCOD9141977
_publ_section_title
;
Structure prediction by ZEFSAII (Michael W. Deem and Ramdas Pophale) SiO2 
 PCOD9141977
Probable space group: P 2/M
;
_chemical_formula_sum "Si O2"
_cell_formula_units_Z 26
_cell_length_a 22.705135
_cell_length_b 8.634967
_cell_length_c 8.408134
_cell_angle_alpha 90.000000
_cell_angle_beta 47.630014
_cell_angle_gamma 90.000000
_cell_volume 1217.912982
_symmetry_space_group_name_H-M "P 2/M"
_symmetry_group_IT_number 10
_symmetry_cell_setting 'monoclinic'
loop_
_space_group_symop_operation_xyz
x,y,z
-x,y,-z
-x,-y,-z
x,-y,z
loop_
_atom_site_type_symbol
_atom_site_label
_atom_site_fract_x
_atom_site_fract_y
_atom_site_fract_z
Si Si1 0.035776 0.686207 0.265773
Si Si2 0.662934 0.817365 0.280319
Si Si3 0.183976 0.816342 0.836877
Si Si4 0.500000 0.754727 0.500000
Si Si5 0.440118 0.180993 0.971863
Si Si6 0.732357 0.819433 0.803739
Si Si7 0.880669 0.315903 0.371116
O O1 0.041214 0.500000 0.248476
O O2 0.968654 0.737542 0.261770
O O3 0.000000 0.730224 0.500000
O O4 0.122258 0.753352 0.078211
O O5 0.724776 0.768089 0.301615
O O6 0.587870 0.704775 0.395418
O O7 0.635198 0.000000 0.353633
O O8 0.711604 0.818643 0.027713
O O9 0.149313 0.760023 0.734880
O O10 0.185142 0.000000 0.844162
O O11 0.527383 0.815831 0.270913
O O12 0.430519 0.000000 0.028624
O O13 0.500000 0.245087 0.000000
O O14 0.349001 0.242997 0.132168
O O15 0.812221 0.726815 0.621899
O O16 0.744377 0.000000 0.734119
O O17 0.884603 0.500000 0.344554
#
# Coordination Sequence:
#
# PCOD9141977 Si02
#       7
#     4   4   4   2   4   4   4
#     4  10  22  41  62  82 108 147 192 231 276 340
#     4   9  18  32  53  83 115 146 183 231 286 336
#     4  11  23  36  56  87 117 146 183 232 286 335
#     4  10  17  30  50  78 119 152 183 236 289 342
#     4   9  17  27  47  79 111 145 184 229 285 342
#     4   9  18  34  54  82 112 140 183 236 282 330
#     4  11  23  38  57  81 112 150 189 228 278 340
#
# _framework density 21.347994
#
# number of rings (size 3 to 8) (size 9 to 14) (size 15 to 20)
#    0.000    2.154    0.000    4.615    2.154    3.385 
#    0.000    0.769    0.000    0.462    0.000    4.308 
#    0.000    0.000    0.000    0.000    0.000    0.000 
#
# Total GULP energy -144792.911004 kJ/mol
# GULP energy per Si atom -5568.958116 kJ/mol
# Density = 2.129941 g / cm^3
# Si number density = 21.347994 Si / 1000 Ang^3
#
#
#
# Elastic Constant Matrix: (Units=GPa)
#
#
# Indices 1 2 3 4 5 6 
#
# 1 151.5399 28.4822 12.0805 0.0000 -19.7494 0.0000
# 2 28.4822 41.5689 7.7199 0.0000 -19.2260 0.0000
# 3 12.0805 7.7199 54.8647 0.0000 -16.8866 0.0000
# 4 0.0000 0.0000 0.0000 -24.6200 0.0000 67.3223
# 5 -19.7494 -19.2260 -16.8866 0.0000 36.3962 0.0000
# 6 0.0000 0.0000 0.0000 67.3223 0.0000 -81.5940
#
#
#
# Elastic Compliance Matrix: (Units=1/GPa)
#
#
# Indices 1 2 3 4 5 6 
#
# 1 0.007682 -0.004437 -0.000590 0.000000 0.001551 0.000000
# 2 -0.004437 0.034427 0.001154 0.000000 0.016314 0.000000
# 3 -0.000590 0.001154 0.021329 0.000000 0.010185 0.000000
# 4 0.000000 0.000000 0.000000 0.032334 0.000000 0.026679
# 5 0.001551 0.016314 0.010185 0.000000 0.041660 0.000000
# 6 0.000000 0.000000 0.000000 0.026679 0.000000 0.009757
#
#
# Mechanical properties :
#
#
# Convention : Reuss Voigt Hill
#
# Bulk Modulus (GPa) = 17.95547 38.28210 28.11878
# Shear Modulus (GPa) = 28.81857 -0.65085 14.08386
#
# Velocity S-wave (km/s) = 3.67814 -0.55276 2.57130
# Velocity P-wave (km/s) = 5.14465 4.19094 4.69209
#
# Compressibility (1/GPa) = 0.05569334
#
# Stress axis : x y z
#
# Youngs Moduli (GPa) = 130.17508 29.04672 46.88435
#
# Poissons Ratio (x) = 0.12887 0.02765
# Poissons Ratio (y) = 0.57753 -0.05410
# Poissons Ratio (z) = 0.07677 -0.03352
#
# Static dielectric constant tensor:
#      x y z
#    x 1.836290 0.000000 0.012450 
#    y 0.000000 1.766970 0.000000 
#    z 0.012450 0.000000 1.817380 
# 
# From -- ./inp_files/34199.got.cif
#   From: 2010.05.17/outbox.cif.g08.bks.cpg/sg10_18_cif.got.tgz:34199.got - 2010.06.03 11:33:40.
