data_PCOD9141837
_publ_section_title
;
Structure prediction by ZEFSAII (Michael W. Deem and Ramdas Pophale) SiO2 
 PCOD9141837
Probable space group: P 2/M
;
_chemical_formula_sum "Si O2"
_cell_formula_units_Z 28
_cell_length_a 20.127477
_cell_length_b 7.413276
_cell_length_c 13.221382
_cell_angle_alpha 90.000000
_cell_angle_beta 48.194641
_cell_angle_gamma 90.000000
_cell_volume 1470.529379
_symmetry_space_group_name_H-M "P 2/M"
_symmetry_group_IT_number 10
_symmetry_cell_setting 'monoclinic'
loop_
_space_group_symop_operation_xyz
x,y,z
-x,y,-z
-x,-y,-z
x,-y,z
loop_
_atom_site_type_symbol
_atom_site_label
_atom_site_fract_x
_atom_site_fract_y
_atom_site_fract_z
Si Si1 0.899431 0.711907 0.115440
Si Si2 0.778713 0.790690 0.429628
Si Si3 0.597716 0.779779 0.520094
Si Si4 0.894368 0.779646 0.496809
Si Si5 0.400885 0.780512 0.717092
Si Si6 0.210703 0.217730 0.977138
Si Si7 0.099297 0.219805 0.281868
O O1 0.907569 0.500000 0.127990
O O2 0.843932 0.786853 0.266311
O O3 0.844216 0.737123 0.068356
O O4 0.000000 0.785012 0.000000
O O5 0.683029 0.713185 0.494971
O O6 0.828880 0.713367 0.476003
O O7 0.761975 0.000000 0.470849
O O8 0.498815 0.723254 0.654513
O O9 0.607601 0.728617 0.392257
O O10 0.599419 0.000000 0.519618
O O11 0.872141 0.725331 0.634158
O O12 0.996428 0.725490 0.371700
O O13 0.894280 0.000000 0.494950
O O14 0.312493 0.718462 0.863629
O O15 0.400813 0.000000 0.719357
O O16 0.213085 0.000000 0.979400
O O17 0.160303 0.282977 0.128173
O O18 0.100232 0.000000 0.279771
#
# Coordination Sequence:
#
# PCOD9141837 Si02
#       7
#     4   4   4   4   4   4   4
#     4  11  23  33  40  59  94 122 135 167 226 267
#     4  10  17  28  48  67  82 111 153 181 201 251
#     4   8  13  22  38  62  88 109 135 175 217 251
#     4   8  14  24  39  62  88 109 136 181 224 246
#     4   8  13  22  38  62  88 109 135 175 217 251
#     4  10  17  28  48  67  82 111 153 181 201 251
#     4   8  14  24  39  62  88 109 136 181 224 246
#
# _framework density 19.040761
#
# number of rings (size 3 to 8) (size 9 to 14) (size 15 to 20)
#    0.000    3.000    1.429    3.000    0.000    2.286 
#    0.000    0.000    0.000    3.429    0.000   10.000 
#    0.000    0.000    0.000    2.571    0.000    3.143 
#
# Total GULP energy -156173.682776 kJ/mol
# GULP energy per Si atom -5577.631528 kJ/mol
# Density = 1.899742 g / cm^3
# Si number density = 19.040761 Si / 1000 Ang^3
#
#
#
# Elastic Constant Matrix: (Units=GPa)
#
#
# Indices 1 2 3 4 5 6 
#
# 1 192.3323 0.0317 88.6373 0.0000 -6.7810 0.0000
# 2 0.0317 60.6866 -7.8542 0.0000 -1.1664 0.0000
# 3 88.6373 -7.8542 91.4272 0.0000 -2.2146 0.0000
# 4 0.0000 0.0000 0.0000 -20.8502 0.0000 -7.4988
# 5 -6.7810 -1.1664 -2.2146 0.0000 26.9089 0.0000
# 6 0.0000 0.0000 0.0000 -7.4988 0.0000 -38.5738
#
#
#
# Elastic Compliance Matrix: (Units=1/GPa)
#
#
# Indices 1 2 3 4 5 6 
#
# 1 0.009553 -0.001181 -0.009324 0.000000 0.001589 0.000000
# 2 -0.001181 0.016828 0.002606 0.000000 0.000646 0.000000
# 3 -0.009324 0.002606 0.020187 0.000000 -0.000575 0.000000
# 4 0.000000 0.000000 0.000000 -0.051566 0.000000 0.010025
# 5 0.001589 0.000646 -0.000575 0.000000 0.037543 0.000000
# 6 0.000000 0.000000 0.000000 0.010025 0.000000 -0.027873
#
#
# Mechanical properties :
#
#
# Convention : Reuss Voigt Hill
#
# Bulk Modulus (GPa) = 32.49845 56.23063 44.36454
# Shear Modulus (GPa) = 162.72505 11.07238 86.89871
#
# Velocity S-wave (km/s) = 9.25456 2.41407 6.76294
# Velocity P-wave (km/s) = 11.45866 6.11278 9.18333
#
# Compressibility (1/GPa) = 0.03077070
#
# Stress axis : x y z
#
# Youngs Moduli (GPa) = 104.68351 59.42304 49.53626
#
# Poissons Ratio (x) = 0.07019 0.46188
# Poissons Ratio (y) = 0.12365 -0.12912
# Poissons Ratio (z) = 0.97608 -0.15489
#
# Static dielectric constant tensor:
#      x y z
#    x 1.660010 0.000000 -0.021240 
#    y 0.000000 1.709240 0.000000 
#    z -0.021240 0.000000 1.638860 
# 
# From -- ./inp_files/54688.got.cif
#   From: 2010.05.17/outbox.cif.g08.bks.cpg/sg10_28_cif.got.tgz:54688.got - 2010.06.03 11:33:40.
