data_PCOD9141600
_publ_section_title
;
Structure prediction by ZEFSAII (Michael W. Deem and Ramdas Pophale) SiO2 
 PCOD9141600
Probable space group: P 2/M
;
_chemical_formula_sum "Si O2"
_cell_formula_units_Z 32
_cell_length_a 13.934457
_cell_length_b 8.618706
_cell_length_c 27.636522
_cell_angle_alpha 90.000000
_cell_angle_beta 139.690022
_cell_angle_gamma 90.000000
_cell_volume 2147.176860
_symmetry_space_group_name_H-M "P 2/M"
_symmetry_group_IT_number 10
_symmetry_cell_setting 'monoclinic'
loop_
_space_group_symop_operation_xyz
x,y,z
-x,y,-z
-x,-y,-z
x,-y,z
loop_
_atom_site_type_symbol
_atom_site_label
_atom_site_fract_x
_atom_site_fract_y
_atom_site_fract_z
Si Si1 0.214869 0.185570 0.613240
Si Si2 0.775363 0.815434 0.919815
Si Si3 0.532723 0.313411 0.763481
Si Si4 0.296035 0.812292 0.464540
Si Si5 0.367795 0.186549 0.383941
Si Si6 0.243904 0.313416 0.237343
Si Si7 0.996668 0.314530 0.072727
Si Si8 0.088965 0.684903 0.465834
O O1 0.367991 0.251273 0.692601
O O2 0.185347 0.251509 0.548050
O O3 0.073560 0.241701 0.589905
O O4 0.218319 0.000000 0.612534
O O5 0.614146 0.756524 0.841898
O O6 0.883642 0.733445 0.922312
O O7 0.786044 0.000000 0.918930
O O8 0.843654 0.764430 0.997551
O O9 0.534395 0.500000 0.766843
O O10 0.632150 0.265726 0.754826
O O11 0.458554 0.767347 0.547650
O O12 0.297339 0.767717 0.408455
O O13 0.169262 0.735817 0.447724
O O14 0.284680 0.000000 0.463145
O O15 0.286181 0.250642 0.305777
O O16 0.365591 0.000000 0.381434
O O17 0.245904 0.500000 0.239223
O O18 0.081940 0.266678 0.154495
O O19 0.978671 0.500000 0.065192
O O20 0.078506 0.500000 0.465503
#
# Coordination Sequence:
#
# PCOD9141600 Si02
#       8
#     4   4   4   4   4   4   4   4
#     4  11  21  33  48  66  87 114 146 183 218 256
#     4  10  17  25  39  60  82 110 147 182 213 256
#     4  10  19  31  44  62  89 119 147 180 218 260
#     4   9  18  33  47  63  86 115 147 181 220 261
#     4   9  18  30  46  64  86 114 146 182 220 258
#     4   9  18  28  41  61  87 116 147 180 217 257
#     4   9  16  27  39  54  81 117 147 178 218 258
#     4  11  21  33  48  66  87 115 146 180 220 262
#
# _framework density 14.903292
#
# number of rings (size 3 to 8) (size 9 to 14) (size 15 to 20)
#    0.000    2.250    0.000    7.875    0.000    6.000 
#    0.000    1.250    0.000    0.000    0.000    0.000 
#    0.000    1.000    0.000   10.500    0.000    6.000 
#
# Total GULP energy -178386.037995 kJ/mol
# GULP energy per Si atom -5574.563687 kJ/mol
# Density = 1.486937 g / cm^3
# Si number density = 14.903292 Si / 1000 Ang^3
#
#
#
# Elastic Constant Matrix: (Units=GPa)
#
#
# Indices 1 2 3 4 5 6 
#
# 1 57.6884 14.5135 43.1233 0.0000 -0.4580 0.0000
# 2 14.5135 43.1867 27.3421 0.0000 2.9501 0.0000
# 3 43.1233 27.3421 149.3981 0.0000 4.9845 0.0000
# 4 0.0000 0.0000 0.0000 20.6560 0.0000 -3.9193
# 5 -0.4580 2.9501 4.9845 0.0000 19.7668 0.0000
# 6 0.0000 0.0000 0.0000 -3.9193 0.0000 15.8023
#
#
#
# Elastic Compliance Matrix: (Units=1/GPa)
#
#
# Indices 1 2 3 4 5 6 
#
# 1 0.022814 -0.004097 -0.005923 0.000000 0.002634 0.000000
# 2 -0.004097 0.027072 -0.003665 0.000000 -0.003211 0.000000
# 3 -0.005923 -0.003665 0.009137 0.000000 -0.001894 0.000000
# 4 0.000000 0.000000 0.000000 0.050803 0.000000 0.012600
# 5 0.002634 -0.003211 -0.001894 0.000000 0.051608 0.000000
# 6 0.000000 0.000000 0.000000 0.012600 0.000000 0.066407
#
#
# Mechanical properties :
#
#
# Convention : Reuss Voigt Hill
#
# Bulk Modulus (GPa) = 31.59259 46.69235 39.14247
# Shear Modulus (GPa) = 18.81386 22.26463 20.53925
#
# Velocity S-wave (km/s) = 3.55688 3.86935 3.71640
# Velocity P-wave (km/s) = 6.17357 7.16664 6.68856
#
# Compressibility (1/GPa) = 0.03165299
#
# Stress axis : x y z
#
# Youngs Moduli (GPa) = 43.83301 36.93896 109.44285
#
# Poissons Ratio (x) = 0.15133 0.64826
# Poissons Ratio (y) = 0.17957 0.40110
# Poissons Ratio (z) = 0.25963 0.13538
#
# Static dielectric constant tensor:
#      x y z
#    x 1.471630 0.000000 0.001240 
#    y 0.000000 1.498380 0.000000 
#    z 0.001240 0.000000 1.526980 
# 
# From -- ./inp_files/88562.got.cif
#   From: 2010.05.17/outbox.cif.g08.bks.cpg/sg10_45_cif.got.tgz:88562.got - 2010.06.03 11:33:40.
