data_PCOD9141098
_publ_section_title
;
Structure prediction by ZEFSAII (Michael W. Deem and Ramdas Pophale) SiO2 
 PCOD9141098
Probable space group: C C
;
_chemical_formula_sum "Si O2"
_cell_formula_units_Z 20
_cell_length_a 7.378571
_cell_length_b 25.279032
_cell_length_c 4.842302
_cell_angle_alpha 90.000000
_cell_angle_beta 112.081385
_cell_angle_gamma 90.000000
_cell_volume 836.952255
_symmetry_space_group_name_H-M "C C"
_symmetry_group_IT_number 9
_symmetry_cell_setting 'monoclinic'
loop_
_space_group_symop_operation_xyz
x,y,z
x,-y,1/2+z
1/2+x,1/2+y,z
1/2+x,1/2-y,1/2+z
loop_
_atom_site_type_symbol
_atom_site_label
_atom_site_fract_x
_atom_site_fract_y
_atom_site_fract_z
Si Si1 0.752930 0.900227 0.638740
Si Si2 0.889489 0.533926 0.132411
Si Si3 0.497175 0.199210 0.812218
Si Si4 0.224716 0.796208 0.669084
Si Si5 0.016338 0.104992 0.810007
O O1 0.593989 0.939461 0.673806
O O2 0.638444 0.846485 0.500750
O O3 0.855556 0.920558 0.420197
O O4 0.922871 0.890575 0.957386
O O5 0.873429 0.519479 0.443350
O O6 0.714228 0.571841 0.939233
O O7 0.355991 0.178261 0.487347
O O8 0.619290 0.246380 0.745413
O O9 0.365761 0.218368 0.994188
O O10 0.069242 0.837533 0.461543
#
# Coordination Sequence:
#
# PCOD9141098 Si02
#       5
#     4   4   4   4   4
#     4  12  27  49  79 110 154 197 251 313 379 449
#     4  12  28  50  80 110 150 194 252 318 382 444
#     4  12  26  47  74 110 157 202 255 312 373 452
#     4  12  26  47  74 110 157 202 255 312 373 452
#     4  12  27  49  79 110 154 197 251 313 379 449
#
# _framework density 23.896227
#
# number of rings (size 3 to 8) (size 9 to 14) (size 15 to 20)
#    0.000    0.000    2.000    7.200    2.800    8.000 
#    0.000    0.000    0.000    0.000    0.000    0.000 
#    0.000    0.000    0.000    0.000    0.000    0.000 
#
# Total GULP energy -56145.523083 kJ/mol
# GULP energy per Si atom -5614.552308 kJ/mol
# Density = 2.384184 g / cm^3
# Si number density = 23.896227 Si / 1000 Ang^3
#
#
#
# Elastic Constant Matrix: (Units=GPa)
#
#
# Indices 1 2 3 4 5 6 
#
# 1 114.3862 2.2108 24.4831 0.0000 -17.7206 0.0000
# 2 2.2108 50.1112 16.0336 0.0000 10.6771 0.0000
# 3 24.4831 16.0336 112.7609 0.0000 -2.1577 0.0000
# 4 0.0000 0.0000 0.0000 23.3839 0.0000 -6.5640
# 5 -17.7206 10.6771 -2.1577 0.0000 50.2795 0.0000
# 6 0.0000 0.0000 0.0000 -6.5640 0.0000 32.4290
#
#
#
# Elastic Compliance Matrix: (Units=1/GPa)
#
#
# Indices 1 2 3 4 5 6 
#
# 1 0.009708 -0.000535 -0.001966 0.000000 0.003451 0.000000
# 2 -0.000535 0.022041 -0.003114 0.000000 -0.005003 0.000000
# 3 -0.001966 -0.003114 0.009745 0.000000 0.000387 0.000000
# 4 0.000000 0.000000 0.000000 0.045341 0.000000 0.009177
# 5 0.003451 -0.005003 0.000387 0.000000 0.022184 0.000000
# 6 0.000000 0.000000 0.000000 0.009177 0.000000 0.032694
#
#
# Mechanical properties :
#
#
# Convention : Reuss Voigt Hill
#
# Bulk Modulus (GPa) = 33.03986 40.30146 36.67066
# Shear Modulus (GPa) = 30.66916 36.85388 33.76152
#
# Velocity S-wave (km/s) = 3.58639 3.93141 3.76285
# Velocity P-wave (km/s) = 5.56830 6.12452 5.85302
#
# Compressibility (1/GPa) = 0.03026647
#
# Stress axis : x y z
#
# Youngs Moduli (GPa) = 103.00812 45.36919 102.61367
#
# Poissons Ratio (x) = 0.02425 0.20172
# Poissons Ratio (y) = 0.05506 0.31951
# Poissons Ratio (z) = 0.20249 0.14127
#
# Static dielectric constant tensor:
#      x y z
#    x 1.897810 0.000000 0.007180 
#    y 0.000000 1.901670 0.000000 
#    z 0.007180 0.000000 1.867800 
# 
# From -- ./inp_files/627.got.cif
#   From: 2010.05.17/outbox.cif.g08.bks.cpg/sg9_1_cif.got.tgz:627.got - 2010.06.03 20:04:27.
