data_PCOD9141039
_publ_section_title
;
Structure prediction by ZEFSAII (Michael W. Deem and Ramdas Pophale) SiO2 
 PCOD9141039
Probable space group: C C
;
_chemical_formula_sum "Si O2"
_cell_formula_units_Z 28
_cell_length_a 4.956739
_cell_length_b 14.276699
_cell_length_c 15.543375
_cell_angle_alpha 90.000000
_cell_angle_beta 104.276979
_cell_angle_gamma 90.000000
_cell_volume 1065.968690
_symmetry_space_group_name_H-M "C C"
_symmetry_group_IT_number 9
_symmetry_cell_setting 'monoclinic'
loop_
_space_group_symop_operation_xyz
x,y,z
x,-y,1/2+z
1/2+x,1/2+y,z
1/2+x,1/2-y,1/2+z
loop_
_atom_site_type_symbol
_atom_site_label
_atom_site_fract_x
_atom_site_fract_y
_atom_site_fract_z
Si Si1 0.956150 0.518588 0.729990
Si Si2 0.826437 0.583851 0.398440
Si Si3 0.289887 0.288316 0.873715
Si Si4 0.918129 0.933909 0.651400
Si Si5 0.095551 0.242108 0.109451
Si Si6 0.175015 0.201176 0.686939
Si Si7 0.888750 0.611174 0.993992
O O1 0.897510 0.464162 0.812681
O O2 0.688499 0.493422 0.649443
O O3 0.901626 0.627199 0.738233
O O4 0.243385 0.486268 0.711322
O O5 0.545047 0.641547 0.382631
O O6 0.074674 0.661088 0.423578
O O7 0.799987 0.492054 0.456561
O O8 0.152122 0.269967 0.768802
O O9 0.391648 0.187942 0.918373
O O10 0.042540 0.831628 0.684481
O O11 0.684883 0.909693 0.562449
O O12 0.347350 0.313084 0.143142
O O13 0.794962 0.287843 0.097351
O O14 0.194928 0.168455 0.045898
#
# Coordination Sequence:
#
# PCOD9141039 Si02
#       7
#     4   4   4   4   4   4   4
#     4  12  25  49  79 116 150 207 264 321 389 469
#     4  12  29  49  81 111 155 205 260 315 393 465
#     4  12  29  49  81 111 155 205 260 315 393 465
#     4  12  25  47  76 106 157 197 251 322 389 452
#     4  12  25  47  76 106 157 197 251 322 389 452
#     4  12  25  49  79 116 150 207 264 321 389 469
#     4  12  30  52  76 116 164 196 256 330 396 444
#
# _framework density 26.267185999999999
#
# number of rings (size 3 to 8) (size 9 to 14) (size 15 to 20)
#    0.000    0.000    4.286    5.143    4.000    3.429 
#    0.000    0.000    0.000    0.000    0.000    0.000 
#    0.000    0.000    0.000    0.000    0.000    0.000 
#
# Total GULP energy -78107.971852 kJ/mol
# GULP energy per Si atom -5579.140847 kJ/mol
# Density = 2.620740 g / cm^3
# Si number density = 26.267186 Si / 1000 Ang^3
#
#
#
# Elastic Constant Matrix: (Units=GPa)
#
#
# Indices 1 2 3 4 5 6 
#
# 1 151.4496 19.9429 9.3142 0.0000 -15.5205 0.0000
# 2 19.9429 52.4055 4.6654 0.0000 5.0585 0.0000
# 3 9.3142 4.6654 85.5838 0.0000 -3.8619 0.0000
# 4 0.0000 0.0000 0.0000 34.3405 0.0000 -0.9351
# 5 -15.5205 5.0585 -3.8619 0.0000 26.0976 0.0000
# 6 0.0000 0.0000 0.0000 -0.9351 0.0000 50.6371
#
#
#
# Elastic Compliance Matrix: (Units=1/GPa)
#
#
# Indices 1 2 3 4 5 6 
#
# 1 0.007592 -0.003345 -0.000414 0.000000 0.005102 0.000000
# 2 -0.003345 0.021051 -0.001065 0.000000 -0.006227 0.000000
# 3 -0.000414 -0.001065 0.011865 0.000000 0.001716 0.000000
# 4 0.000000 0.000000 0.000000 0.029135 0.000000 0.000538
# 5 0.005102 -0.006227 0.001716 0.000000 0.042813 0.000000
# 6 0.000000 0.000000 0.000000 0.000538 0.000000 0.019758
#
#
# Mechanical properties :
#
#
# Convention : Reuss Voigt Hill
#
# Bulk Modulus (GPa) = 32.40279 39.69823 36.05051
# Shear Modulus (GPa) = 32.86323 39.24945 36.05634
#
# Velocity S-wave (km/s) = 3.54095 3.86973 3.70898
# Velocity P-wave (km/s) = 5.39262 5.92558 5.66537
#
# Compressibility (1/GPa) = 0.03086154
#
# Stress axis : x y z
#
# Youngs Moduli (GPa) = 131.72536 47.50461 84.28192
#
# Poissons Ratio (x) = 0.15888 0.03486
# Poissons Ratio (y) = 0.44057 0.08972
# Poissons Ratio (z) = 0.05449 0.05057
#
# Static dielectric constant tensor:
#      x y z
#    x 2.110380 0.000000 0.017140 
#    y 0.000000 2.511340 0.000000 
#    z 0.017140 0.000000 2.166110 
# 
# From -- ./inp_files/21753.got.cif
#   From: 2010.05.17/outbox.cif.g08.bks.cpg/sg9_11_cif.got.tgz:21753.got - 2010.06.03 20:04:27.
