data_PCOD9141481
_publ_section_title
;
Structure prediction by ZEFSAII (Michael W. Deem and Ramdas Pophale) SiO2 
 PCOD9141481
Probable space group: P 2/M
;
_chemical_formula_sum "Si O2"
_cell_formula_units_Z 32
_cell_length_a 18.392896
_cell_length_b 12.991296
_cell_length_c 9.448668
_cell_angle_alpha 90.000000
_cell_angle_beta 108.838704
_cell_angle_gamma 90.000000
_cell_volume 2136.792251
_symmetry_space_group_name_H-M "P 2/M"
_symmetry_group_IT_number 10
_symmetry_cell_setting 'monoclinic'
loop_
_space_group_symop_operation_xyz
x,y,z
-x,y,-z
-x,-y,-z
x,-y,z
loop_
_atom_site_type_symbol
_atom_site_label
_atom_site_fract_x
_atom_site_fract_y
_atom_site_fract_z
Si Si1 0.150207 0.875827 0.431268
Si Si2 0.455110 0.884237 0.121425
Si Si3 0.995863 0.125398 0.835584
Si Si4 0.418454 0.381897 0.867282
Si Si5 0.851980 0.875605 0.240666
Si Si6 0.676692 0.879461 0.446399
Si Si7 0.539960 0.268967 0.382558
Si Si8 0.316280 0.188130 0.875172
O O1 0.081635 0.837465 0.289784
O O2 0.134080 0.852229 0.585244
O O3 0.237831 0.845144 0.453877
O O4 0.150744 0.000000 0.421577
O O5 0.483593 0.803112 0.253615
O O6 0.471703 0.000000 0.180485
O O7 0.500000 0.869149 0.000000
O O8 0.366845 0.870036 0.023402
O O9 0.073228 0.153290 0.801119
O O10 0.993291 0.000000 0.832150
O O11 0.000000 0.158857 0.000000
O O12 0.394866 0.500000 0.871233
O O13 0.432501 0.354907 0.711216
O O14 0.355769 0.300044 0.883533
O O15 0.500000 0.367985 0.000000
O O16 0.773529 0.819131 0.147983
O O17 0.839860 0.000000 0.221111
O O18 0.611378 0.805498 0.464760
O O19 0.673953 0.865977 0.273085
O O20 0.665251 0.000000 0.472255
O O21 0.500000 0.306401 0.500000
#
# Coordination Sequence:
#
# PCOD9141481 Si02
#       8
#     4   4   4   4   4   4   4   4
#     4   8  14  25  40  55  76 111 152 185 210 244
#     4  11  18  28  46  64  90 127 155 182 215 258
#     4   9  16  26  37  55  86 120 151 178 208 247
#     4  10  19  35  54  67  82 111 152 197 243 274
#     4   9  16  25  42  63  86 116 147 180 213 259
#     4   9  16  27  43  62  88 121 154 186 218 258
#     4  11  21  32  43  65  95 121 154 187 226 273
#     4  10  16  29  46  69  85 109 152 196 226 261
#
# _framework density 14.975720000000001
#
# number of rings (size 3 to 8) (size 9 to 14) (size 15 to 20)
#    0.000    2.375    3.750    2.625    0.000    2.750 
#    2.250    0.000    0.000    0.000    0.000    0.000 
#    0.000   18.500    0.000    0.000    0.000   10.125 
#
# Total GULP energy -178270.387809 kJ/mol
# GULP energy per Si atom -5570.949619 kJ/mol
# Density = 1.494163 g / cm^3
# Si number density = 14.975720 Si / 1000 Ang^3
#
#
#
# Elastic Constant Matrix: (Units=GPa)
#
#
# Indices 1 2 3 4 5 6 
#
# 1 91.7295 9.7879 46.9458 0.0000 21.1246 0.0000
# 2 9.7879 49.4925 7.7388 0.0000 5.1211 0.0000
# 3 46.9458 7.7388 60.0624 0.0000 17.8453 0.0000
# 4 0.0000 0.0000 0.0000 7.3274 0.0000 2.0102
# 5 21.1246 5.1211 17.8453 0.0000 23.9848 0.0000
# 6 0.0000 0.0000 0.0000 2.0102 0.0000 8.8648
#
#
#
# Elastic Compliance Matrix: (Units=1/GPa)
#
#
# Indices 1 2 3 4 5 6 
#
# 1 0.019182 -0.001060 -0.012715 0.000000 -0.007208 0.000000
# 2 -0.001060 0.020862 -0.001045 0.000000 -0.002744 0.000000
# 3 -0.012715 -0.001045 0.029949 0.000000 -0.010861 0.000000
# 4 0.000000 0.000000 0.000000 0.145527 0.000000 -0.033000
# 5 -0.007208 -0.002744 -0.010861 0.000000 0.056709 0.000000
# 6 0.000000 0.000000 0.000000 -0.033000 0.000000 0.120288
#
#
# Mechanical properties :
#
#
# Convention : Reuss Voigt Hill
#
# Bulk Modulus (GPa) = 24.78003 36.69216 30.73610
# Shear Modulus (GPa) = 11.47827 17.15621 14.31724
#
# Velocity S-wave (km/s) = 2.77150 3.38835 3.09533
# Velocity P-wave (km/s) = 5.17922 6.31365 5.77436
#
# Compressibility (1/GPa) = 0.04035508
#
# Stress axis : x y z
#
# Youngs Moduli (GPa) = 52.13251 47.93438 33.39003
#
# Poissons Ratio (x) = 0.05079 0.42455
# Poissons Ratio (y) = 0.05524 0.03488
# Poissons Ratio (z) = 0.66285 0.05007
#
# Static dielectric constant tensor:
#      x y z
#    x 1.516420 0.000000 0.010180 
#    y 0.000000 1.474580 0.000000 
#    z 0.010180 0.000000 1.505770 
# 
# From -- ./inp_files/32587.got.cif
#   From: 2010.05.17/outbox.cif.g08.bks.cpg/sg10_17_cif.got.tgz:32587.got - 2010.06.03 11:33:40.
