data_PCOD9141962
_publ_section_title
;
Structure prediction by ZEFSAII (Michael W. Deem and Ramdas Pophale) SiO2 
 PCOD9141962
Probable space group: P 2/M
;
_chemical_formula_sum "Si O2"
_cell_formula_units_Z 26
_cell_length_a 11.611267
_cell_length_b 20.629285
_cell_length_c 7.912600
_cell_angle_alpha 90.000000
_cell_angle_beta 39.600700
_cell_angle_gamma 90.000000
_cell_volume 1208.141540
_symmetry_space_group_name_H-M "P 2/M"
_symmetry_group_IT_number 10
_symmetry_cell_setting 'monoclinic'
loop_
_space_group_symop_operation_xyz
x,y,z
-x,y,-z
-x,-y,-z
x,-y,z
loop_
_atom_site_type_symbol
_atom_site_label
_atom_site_fract_x
_atom_site_fract_y
_atom_site_fract_z
Si Si1 0.259339 0.155233 0.111068
Si Si2 0.000000 0.384736 0.000000
Si Si3 0.356660 0.289717 0.897802
Si Si4 0.337037 0.571956 0.820351
Si Si5 0.429941 0.072126 0.388544
Si Si6 0.761904 0.273024 0.361207
Si Si7 0.097280 0.861766 0.660226
O O1 0.186059 0.133887 0.373925
O O2 0.114998 0.132427 0.132854
O O3 0.263267 0.233546 0.109636
O O4 0.452602 0.125342 0.845215
O O5 0.850377 0.424829 0.070371
O O6 0.888890 0.335139 0.245839
O O7 0.328846 0.366336 0.953561
O O8 0.570433 0.278257 0.668729
O O9 0.290138 0.275524 0.779706
O O10 0.500000 0.583811 0.500000
O O11 0.363656 0.500000 0.862207
O O12 0.500000 0.075394 0.500000
O O13 0.217069 0.087336 0.626796
O O14 0.464492 0.000000 0.281464
O O15 0.860070 0.207906 0.305827
#
# Coordination Sequence:
#
# PCOD9141962 Si02
#       7
#     4   2   4   4   4   4   4
#     4  11  24  39  61  87 120 151 195 237 287 339
#     4  10  17  30  48  78 109 150 188 240 289 338
#     4  10  18  34  54  83 111 151 188 243 288 339
#     4  10  18  29  46  75 112 149 189 238 292 340
#     4  11  25  43  63  88 120 154 190 232 283 340
#     4  10  18  31  55  81 112 145 192 236 290 331
#     4  11  23  39  60  90 115 152 193 238 289 340
#
# _framework density 21.520658000000001
#
# number of rings (size 3 to 8) (size 9 to 14) (size 15 to 20)
#    0.000    1.538    4.615    3.462    0.000    3.692 
#    0.000    3.077    0.000    0.000    0.000   15.077 
#    0.000    0.000    0.000    0.000    0.000    0.000 
#
# Total GULP energy -145202.210781 kJ/mol
# GULP energy per Si atom -5584.700415 kJ/mol
# Density = 2.147168 g / cm^3
# Si number density = 21.520658 Si / 1000 Ang^3
#
#
#
# Elastic Constant Matrix: (Units=GPa)
#
#
# Indices 1 2 3 4 5 6 
#
# 1 80.0965 17.2265 20.8643 0.0000 -30.6253 0.0000
# 2 17.2265 110.3373 1.2045 0.0000 -0.1597 0.0000
# 3 20.8643 1.2045 45.2003 0.0000 -22.2634 0.0000
# 4 0.0000 0.0000 0.0000 4.4556 0.0000 2.1283
# 5 -30.6253 -0.1597 -22.2634 0.0000 37.8548 0.0000
# 6 0.0000 0.0000 0.0000 2.1283 0.0000 -32.7102
#
#
#
# Elastic Compliance Matrix: (Units=1/GPa)
#
#
# Indices 1 2 3 4 5 6 
#
# 1 0.019067 -0.002939 -0.001592 0.000000 0.014477 0.000000
# 2 -0.002939 0.009519 -0.000068 0.000000 -0.002377 0.000000
# 3 -0.001592 -0.000068 0.031290 0.000000 0.017114 0.000000
# 4 0.000000 0.000000 0.000000 0.217672 0.000000 0.014163
# 5 0.014477 -0.002377 0.017114 0.000000 0.048184 0.000000
# 6 0.000000 0.000000 0.000000 0.014163 0.000000 -0.029650
#
#
# Mechanical properties :
#
#
# Convention : Reuss Voigt Hill
#
# Bulk Modulus (GPa) = 19.73244 34.91384 27.32314
# Shear Modulus (GPa) = 15.51963 15.00929 15.26446
#
# Velocity S-wave (km/s) = 2.68834 2.64377 2.66615
# Velocity P-wave (km/s) = 4.33880 5.05747 4.71185
#
# Compressibility (1/GPa) = 0.05067798
#
# Stress axis : x y z
#
# Youngs Moduli (GPa) = 52.44676 105.05086 31.95895
#
# Poissons Ratio (x) = 0.30869 0.05089
# Poissons Ratio (y) = 0.15411 0.00218
# Poissons Ratio (z) = 0.08352 0.00716
#
# Static dielectric constant tensor:
#      x y z
#    x 1.804520 0.000000 -0.007280 
#    y 0.000000 1.790870 0.000000 
#    z -0.007280 0.000000 1.789300 
# 
# From -- ./inp_files/26014.got.cif
#   From: 2010.05.17/outbox.cif.g08.bks.cpg/sg10_14_cif.got.tgz:26014.got - 2010.06.03 11:33:40.
