data_PCOD9141585
_publ_section_title
;
Structure prediction by ZEFSAII (Michael W. Deem and Ramdas Pophale) SiO2 
 PCOD9141585
Probable space group: P 2/M
;
_chemical_formula_sum "Si O2"
_cell_formula_units_Z 30
_cell_length_a 14.548129
_cell_length_b 7.824778
_cell_length_c 17.980985
_cell_angle_alpha 90.000000
_cell_angle_beta 129.774807
_cell_angle_gamma 90.000000
_cell_volume 1573.161093
_symmetry_space_group_name_H-M "P 2/M"
_symmetry_group_IT_number 10
_symmetry_cell_setting 'monoclinic'
loop_
_space_group_symop_operation_xyz
x,y,z
-x,y,-z
-x,-y,-z
x,-y,z
loop_
_atom_site_type_symbol
_atom_site_label
_atom_site_fract_x
_atom_site_fract_y
_atom_site_fract_z
Si Si1 0.254622 0.307947 0.199298
Si Si2 0.000000 0.752864 0.000000
Si Si3 0.591194 0.296527 0.483963
Si Si4 0.686309 0.292041 0.066243
Si Si5 0.064543 0.298452 0.875943
Si Si6 0.824976 0.192953 0.686236
Si Si7 0.444273 0.708872 0.856743
Si Si8 0.490410 0.707967 0.719138
O O1 0.281640 0.500000 0.241003
O O2 0.131484 0.317096 0.090360
O O3 0.235443 0.199429 0.263132
O O4 0.367763 0.252024 0.209835
O O5 0.034641 0.811085 0.934189
O O6 0.500000 0.227997 0.500000
O O7 0.571270 0.500000 0.470519
O O8 0.726374 0.265565 0.579653
O O9 0.563009 0.229951 0.386718
O O10 0.688175 0.500000 0.067758
O O11 0.813904 0.240484 0.099943
O O12 0.652904 0.235559 0.132484
O O13 0.574627 0.242155 0.956489
O O14 0.074939 0.500000 0.904844
O O15 0.950410 0.288286 0.762718
O O16 0.851953 0.000000 0.679258
O O17 0.442111 0.500000 0.855248
O O18 0.433054 0.769349 0.766348
O O19 0.480643 0.500000 0.715406
#
# Coordination Sequence:
#
# PCOD9141585 Si02
#       8
#     4   2   4   4   4   4   4   4
#     4  10  17  29  45  67  94 125 157 189 224 274
#     4  10  17  24  43  68  93 122 161 192 213 260
#     4  10  18  32  50  69  91 120 156 195 238 281
#     4   8  14  24  42  69 104 130 147 182 234 280
#     4  10  18  30  47  69  95 129 162 192 227 277
#     4  11  22  33  45  65  92 126 160 194 235 281
#     4   8  13  23  41  73 104 122 146 188 237 278
#     4   9  16  25  44  67  92 121 151 188 231 278
#
# _framework density 19.069883999999998
#
# number of rings (size 3 to 8) (size 9 to 14) (size 15 to 20)
#    0.000    2.533    1.333    4.800    0.000    2.400 
#    0.000    5.333    0.000    0.800    0.000    9.333 
#    0.000    0.000    0.000    0.000    0.000    0.000 
#
# Total GULP energy -167002.869946 kJ/mol
# GULP energy per Si atom -5566.762332 kJ/mol
# Density = 1.902648 g / cm^3
# Si number density = 19.069884 Si / 1000 Ang^3
#
#
#
# Elastic Constant Matrix: (Units=GPa)
#
#
# Indices 1 2 3 4 5 6 
#
# 1 157.2458 8.5047 79.6419 0.0000 -8.0665 0.0000
# 2 8.5047 30.2750 8.2754 0.0000 -3.0411 0.0000
# 3 79.6419 8.2754 131.9428 0.0000 -13.0178 0.0000
# 4 0.0000 0.0000 0.0000 -46.3537 0.0000 -6.1770
# 5 -8.0665 -3.0411 -13.0178 0.0000 30.4593 0.0000
# 6 0.0000 0.0000 0.0000 -6.1770 0.0000 4.8419
#
#
#
# Elastic Compliance Matrix: (Units=1/GPa)
#
#
# Indices 1 2 3 4 5 6 
#
# 1 0.009195 -0.001086 -0.005484 0.000000 -0.000017 0.000000
# 2 -0.001086 0.033928 -0.001218 0.000000 0.002579 0.000000
# 3 -0.005484 -0.001218 0.011286 0.000000 0.003250 0.000000
# 4 0.000000 0.000000 0.000000 -0.018439 0.000000 -0.023523
# 5 -0.000017 0.002579 0.003250 0.000000 0.034473 0.000000
# 6 0.000000 0.000000 0.000000 -0.023523 0.000000 0.176520
#
#
# Mechanical properties :
#
#
# Convention : Reuss Voigt Hill
#
# Bulk Modulus (GPa) = 25.75099 56.92307 41.33703
# Shear Modulus (GPa) = 18.15006 12.65895 15.40451
#
# Velocity S-wave (km/s) = 3.08842 2.57926 2.84525
# Velocity P-wave (km/s) = 5.12353 6.22773 5.70242
#
# Compressibility (1/GPa) = 0.03883346
#
# Stress axis : x y z
#
# Youngs Moduli (GPa) = 108.75916 29.47453 88.60549
#
# Poissons Ratio (x) = 0.03200 0.48587
# Poissons Ratio (y) = 0.11808 0.10793
# Poissons Ratio (z) = 0.59639 0.03590
#
# Static dielectric constant tensor:
#      x y z
#    x 1.660290 0.000000 -0.011990 
#    y 0.000000 1.701380 0.000000 
#    z -0.011990 0.000000 1.659920 
# 
# From -- ./inp_files/77562.got.cif
#   From: 2010.05.17/outbox.cif.g08.bks.cpg/sg10_39_cif.got.tgz:77562.got - 2010.06.03 11:33:40.
