data_PCOD9141068
_publ_section_title
;
Structure prediction by ZEFSAII (Michael W. Deem and Ramdas Pophale) SiO2 
 PCOD9141068
Probable space group: C C
;
_chemical_formula_sum "Si O2"
_cell_formula_units_Z 24
_cell_length_a 8.264659
_cell_length_b 13.753205
_cell_length_c 17.965075
_cell_angle_alpha 90.000000
_cell_angle_beta 150.200908
_cell_angle_gamma 90.000000
_cell_volume 1014.797777
_symmetry_space_group_name_H-M "C C"
_symmetry_group_IT_number 9
_symmetry_cell_setting 'monoclinic'
loop_
_space_group_symop_operation_xyz
x,y,z
x,-y,1/2+z
1/2+x,1/2+y,z
1/2+x,1/2-y,1/2+z
loop_
_atom_site_type_symbol
_atom_site_label
_atom_site_fract_x
_atom_site_fract_y
_atom_site_fract_z
Si Si1 0.353350 0.268010 0.530010
Si Si2 0.385009 0.084410 0.200273
Si Si3 0.263899 0.897513 0.241136
Si Si4 0.722393 0.927364 0.146123
Si Si5 0.205155 0.915527 0.456233
Si Si6 0.915499 0.209740 0.477870
O O1 0.611742 0.353766 0.634145
O O2 0.521487 0.173555 0.560228
O O3 0.028012 0.313850 0.363591
O O4 0.248866 0.237653 0.570704
O O5 0.251939 0.074588 0.063270
O O6 0.701001 0.152853 0.331613
O O7 0.432728 0.987213 0.266833
O O8 0.049484 0.924275 0.227577
O O9 0.992736 0.860461 0.075877
O O10 0.854581 0.943481 0.283227
O O11 0.481728 0.015032 0.031924
O O12 0.254595 0.805735 0.447565
#
# Coordination Sequence:
#
# PCOD9141068 Si02
#       6
#     4   4   4   4   4   4
#     4  12  25  50  76 113 152 197 251 314 380 449
#     4  12  28  50  78 113 153 200 258 315 380 457
#     4  12  28  49  79 113 151 205 253 314 384 452
#     4  12  29  51  79 113 156 203 255 317 382 456
#     4  12  28  51  77 113 154 199 260 313 381 457
#     4  12  26  49  77 113 152 198 255 313 385 453
#
# _framework density 23.650033000000001
#
# number of rings (size 3 to 8) (size 9 to 14) (size 15 to 20)
#    0.000    0.000    3.333    5.000   14.000    1.333 
#    0.000    0.000    0.000    0.000    0.000    0.000 
#    0.000    0.000    0.000    0.000    0.000    0.000 
#
# Total GULP energy -67208.413268 kJ/mol
# GULP energy per Si atom -5600.701106 kJ/mol
# Density = 2.359620 g / cm^3
# Si number density = 23.650033 Si / 1000 Ang^3
#
#
#
# Elastic Constant Matrix: (Units=GPa)
#
#
# Indices 1 2 3 4 5 6 
#
# 1 99.5700 30.3320 19.4625 0.0010 -10.1412 0.0011
# 2 30.3320 121.5995 59.2597 0.0026 -3.7565 0.0014
# 3 19.4625 59.2597 98.6258 0.0124 -4.8097 0.0069
# 4 0.0010 0.0026 0.0124 50.3712 0.0046 9.0220
# 5 -10.1412 -3.7565 -4.8097 0.0046 33.8139 0.0014
# 6 0.0011 0.0014 0.0069 9.0220 0.0014 20.5338
#
#
#
# Elastic Compliance Matrix: (Units=1/GPa)
#
#
# Indices 1 2 3 4 5 6 
#
# 1 0.011201 -0.002397 -0.000623 0.000000 0.003004 0.000000
# 2 -0.002397 0.012145 -0.006841 0.000001 -0.000343 0.000001
# 3 -0.000623 -0.006841 0.014427 -0.000003 0.001105 -0.000003
# 4 0.000000 0.000001 -0.000003 0.021548 -0.000003 -0.009468
# 5 0.003004 -0.000343 0.001105 -0.000003 0.030594 -0.000001
# 6 0.000000 0.000001 -0.000003 -0.009468 -0.000001 0.052860
#
#
# Mechanical properties :
#
#
# Convention : Reuss Voigt Hill
#
# Bulk Modulus (GPa) = 55.40363 59.76707 57.58535
# Shear Modulus (GPa) = 29.67088 34.99319 32.33203
#
# Velocity S-wave (km/s) = 3.54585 3.85076 3.70145
# Velocity P-wave (km/s) = 6.34361 6.71547 6.53218
#
# Compressibility (1/GPa) = 0.01804936
#
# Stress axis : x y z
#
# Youngs Moduli (GPa) = 89.27469 82.33826 69.31596
#
# Poissons Ratio (x) = 0.19740 0.04321
# Poissons Ratio (y) = 0.21403 0.47419
# Poissons Ratio (z) = 0.05565 0.56328
#
# Static dielectric constant tensor:
#      x y z
#    x 1.905670 0.000000 0.021370 
#    y 0.000000 1.912470 0.000000 
#    z 0.021370 0.000000 1.883280 
# 
# From -- ./inp_files/4773.got.cif
#   From: 2010.05.17/outbox.cif.g08.bks.cpg/sg9_3_cif.got.tgz:4773.got - 2010.06.03 20:04:27.
