data_PCOD9141717
_publ_section_title
;
Structure prediction by ZEFSAII (Michael W. Deem and Ramdas Pophale) SiO2 
 PCOD9141717
Probable space group: P 2/M
;
_chemical_formula_sum "Si O2"
_cell_formula_units_Z 28
_cell_length_a 19.064822
_cell_length_b 9.083246
_cell_length_c 17.730192
_cell_angle_alpha 90.000000
_cell_angle_beta 23.673270
_cell_angle_gamma 90.000000
_cell_volume 1232.806880
_symmetry_space_group_name_H-M "P 2/M"
_symmetry_group_IT_number 10
_symmetry_cell_setting 'monoclinic'
loop_
_space_group_symop_operation_xyz
x,y,z
-x,y,-z
-x,-y,-z
x,-y,z
loop_
_atom_site_type_symbol
_atom_site_label
_atom_site_fract_x
_atom_site_fract_y
_atom_site_fract_z
Si Si1 0.030444 0.834033 0.724571
Si Si2 0.160235 0.335027 0.735889
Si Si3 0.455808 0.334385 0.716960
Si Si4 0.365301 0.167985 0.950509
Si Si5 0.871068 0.177706 0.533508
Si Si6 0.305540 0.166066 0.728982
Si Si7 0.758140 0.323354 0.785613
O O1 0.048296 0.730374 0.778233
O O2 0.151615 0.795161 0.533117
O O3 0.834690 0.834921 0.884038
O O4 0.075808 0.000000 0.703912
O O5 0.106345 0.500000 0.808608
O O6 0.355948 0.339953 0.508122
O O7 0.180414 0.235824 0.789811
O O8 0.400077 0.500000 0.791070
O O9 0.327252 0.262659 0.782215
O O10 0.466653 0.237897 0.781101
O O11 0.364289 0.264775 0.026946
O O12 0.418429 0.000000 0.914473
O O13 0.735646 0.244655 0.726715
O O14 0.051286 0.262609 0.375989
O O15 0.889991 0.000000 0.524937
O O16 0.500000 0.161592 0.500000
O O17 0.254754 0.000000 0.798655
O O18 0.754967 0.500000 0.782396
#
# Coordination Sequence:
#
# PCOD9141717 Si02
#       7
#     4   4   4   4   4   4   4
#     4   9  19  33  50  73 101 131 165 203 243 290
#     4  10  20  33  52  76 102 130 161 201 247 292
#     4  10  20  34  52  76 102 128 162 203 246 293
#     4  10  20  34  51  73 101 133 166 203 247 292
#     4   9  16  28  45  67  96 129 165 204 242 285
#     4   9  17  31  52  74  96 127 166 203 239 285
#     4  10  17  26  44  70  97 127 163 203 245 289
#
# _framework density 22.712399000000001
#
# number of rings (size 3 to 8) (size 9 to 14) (size 15 to 20)
#    0.000    2.429    0.000    5.143    0.000    6.857 
#    0.000    0.714    0.000    5.143    0.000    6.000 
#    0.000    0.000    0.000    0.000    0.000    0.000 
#
# Total GULP energy -156491.226154 kJ/mol
# GULP energy per Si atom -5588.972363 kJ/mol
# Density = 2.266070 g / cm^3
# Si number density = 22.712399 Si / 1000 Ang^3
#
#
#
# Elastic Constant Matrix: (Units=GPa)
#
#
# Indices 1 2 3 4 5 6 
#
# 1 41.8660 17.4364 62.0726 0.0000 -38.1213 0.0000
# 2 17.4364 128.3885 44.7577 0.0000 -22.2216 0.0000
# 3 62.0726 44.7577 49.7665 0.0000 41.2475 0.0000
# 4 0.0000 0.0000 0.0000 22.5521 0.0000 11.3998
# 5 -38.1213 -22.2216 41.2475 0.0000 -24.3614 0.0000
# 6 0.0000 0.0000 0.0000 11.3998 0.0000 26.0778
#
#
#
# Elastic Compliance Matrix: (Units=1/GPa)
#
#
# Indices 1 2 3 4 5 6 
#
# 1 0.012052 -0.004257 0.000503 0.000000 -0.014124 0.000000
# 2 -0.004257 0.008250 -0.000580 0.000000 -0.001846 0.000000
# 3 0.000503 -0.000580 0.008406 0.000000 0.013974 0.000000
# 4 0.000000 0.000000 0.000000 0.056919 0.000000 -0.024882
# 5 -0.014124 -0.001846 0.013974 0.000000 0.006398 0.000000
# 6 0.000000 0.000000 0.000000 -0.024882 0.000000 0.049224
#
#
# Mechanical properties :
#
#
# Convention : Reuss Voigt Hill
#
# Bulk Modulus (GPa) = 49.90073 52.06161 50.98117
# Shear Modulus (GPa) = 31.92928 11.23732 21.58330
#
# Velocity S-wave (km/s) = 3.75348 2.22675 3.08602
# Velocity P-wave (km/s) = 6.38774 5.43903 5.93238
#
# Compressibility (1/GPa) = 0.02003979
#
# Stress axis : x y z
#
# Youngs Moduli (GPa) = 82.97516 121.21715 118.96437
#
# Poissons Ratio (x) = 0.51599 -0.05984
# Poissons Ratio (y) = 0.35321 0.06900
# Poissons Ratio (z) = -0.04174 0.07031
#
# Static dielectric constant tensor:
#      x y z
#    x 1.817310 0.000000 -0.034770 
#    y 0.000000 1.784290 0.000000 
#    z -0.034770 0.000000 1.933070 
# 
# From -- ./inp_files/79245.got.cif
#   From: 2010.05.17/outbox.cif.g08.bks.cpg/sg10_40_cif.got.tgz:79245.got - 2010.06.03 11:33:40.
