data_PCOD9141294
_publ_section_title
;
Structure prediction by ZEFSAII (Michael W. Deem and Ramdas Pophale) SiO2 
 PCOD9141294
Probable space group: P 2/M
;
_chemical_formula_sum "Si O2"
_cell_formula_units_Z 16
_cell_length_a 7.514599
_cell_length_b 10.988202
_cell_length_c 9.046252
_cell_angle_alpha 90.000000
_cell_angle_beta 118.400365
_cell_angle_gamma 90.000000
_cell_volume 657.065755
_symmetry_space_group_name_H-M "P 2/M"
_symmetry_group_IT_number 10
_symmetry_cell_setting 'monoclinic'
loop_
_space_group_symop_operation_xyz
x,y,z
-x,y,-z
-x,-y,-z
x,-y,z
loop_
_atom_site_type_symbol
_atom_site_label
_atom_site_fract_x
_atom_site_fract_y
_atom_site_fract_z
Si Si1 0.581965 0.500000 0.361551
Si Si2 0.964385 0.233211 0.757404
Si Si3 0.650704 0.766342 0.414198
Si Si4 0.303569 0.140385 0.077200
Si Si5 0.856442 0.500000 0.807013
O O1 0.500000 0.500000 0.500000
O O2 0.686645 0.627344 0.374838
O O3 0.362838 0.500000 0.202206
O O4 0.859673 0.185154 0.566159
O O5 0.839469 0.167318 0.838478
O O6 0.902050 0.375654 0.739273
O O7 0.195482 0.214743 0.901214
O O8 0.500000 0.763741 0.500000
O O9 0.523168 0.829409 0.233764
O O10 0.297290 0.000000 0.032217
O O11 0.000000 0.500000 0.000000
#
# Coordination Sequence:
#
# PCOD9141294 Si02
#       5
#     2   4   4   4   2
#     4  10  12  22  28  36  40  38  49  60  65  73
#     4  10  16  22  29  35  39  44  50  58  65  69
#     4   9  15  22  30  34  39  45  49  58  66  67
#     4  10  18  23  25  32  41  48  55  55  56  68
#     4  12  14  20  32  36  38  42  47  59  70  69
#
# _framework density 24.350684000000001
#
# number of rings (size 3 to 8) (size 9 to 14) (size 15 to 20)
#    0.000    2.000   10.000    1.500    0.000    5.500 
#    0.000    0.000    0.000    0.000    0.000    0.000 
#    0.000    0.000    0.000    0.000    0.000    0.000 
#
# Total GULP energy -89150.859091 kJ/mol
# GULP energy per Si atom -5571.928693 kJ/mol
# Density = 2.429526 g / cm^3
# Si number density = 24.350684 Si / 1000 Ang^3
#
#
#
# Elastic Constant Matrix: (Units=GPa)
#
#
# Indices 1 2 3 4 5 6 
#
# 1 69.2376 -6.8980 33.1686 0.0000 -32.0381 0.0000
# 2 -6.8980 111.8250 34.2115 0.0000 7.2811 0.0000
# 3 33.1686 34.2115 243.6600 0.0000 79.9812 0.0000
# 4 0.0000 0.0000 0.0000 36.7455 0.0000 11.9903
# 5 -32.0381 7.2811 79.9812 0.0000 -3.1372 0.0000
# 6 0.0000 0.0000 0.0000 11.9903 0.0000 -10.2071
#
#
#
# Elastic Compliance Matrix: (Units=1/GPa)
#
#
# Indices 1 2 3 4 5 6 
#
# 1 0.007868 0.000423 0.002660 0.000000 -0.011547 0.000000
# 2 0.000423 0.009321 -0.000752 0.000000 -0.001871 0.000000
# 3 0.002660 -0.000752 0.001424 0.000000 0.007384 0.000000
# 4 0.000000 0.000000 0.000000 0.019673 0.000000 0.023110
# 5 -0.011547 -0.001871 0.007384 0.000000 -0.016908 0.000000
# 6 0.000000 0.000000 0.000000 0.023110 0.000000 -0.070824
#
#
# Mechanical properties :
#
#
# Convention : Reuss Voigt Hill
#
# Bulk Modulus (GPa) = 42.96620 60.63187 51.79904
# Shear Modulus (GPa) = -107.87391 28.96293 -39.45549
#
# Velocity S-wave (km/s) = -6.66306 3.45252 -4.02967
# Velocity P-wave (km/s) = 6.44298 6.39114 0.57676
#
# Compressibility (1/GPa) = 0.02327411
#
# Stress axis : x y z
#
# Youngs Moduli (GPa) = 127.10419 107.28909 702.41286
#
# Poissons Ratio (x) = -0.04543 -1.86844
# Poissons Ratio (y) = -0.05381 0.52841
# Poissons Ratio (z) = -0.33810 0.08071
#
# Static dielectric constant tensor:
#      x y z
#    x 1.537170 0.000000 -0.599520 
#    y 0.000000 2.134280 0.000000 
#    z -0.599520 0.000000 1.019780 
# 
# From -- ./inp_files/45712.got.cif
#   From: 2010.05.17/outbox.cif.g08.bks.cpg/sg10_23_cif.got.tgz:45712.got - 2010.06.03 11:33:40.
