data_PCOD9141767
_publ_section_title
;
Structure prediction by ZEFSAII (Michael W. Deem and Ramdas Pophale) SiO2 
 PCOD9141767
Probable space group: P 2/M
;
_chemical_formula_sum "Si O2"
_cell_formula_units_Z 32
_cell_length_a 27.546302
_cell_length_b 8.932636
_cell_length_c 22.413920
_cell_angle_alpha 90.000000
_cell_angle_beta 19.766450
_cell_angle_gamma 90.000000
_cell_volume 1865.166335
_symmetry_space_group_name_H-M "P 2/M"
_symmetry_group_IT_number 10
_symmetry_cell_setting 'monoclinic'
loop_
_space_group_symop_operation_xyz
x,y,z
-x,y,-z
-x,-y,-z
x,-y,z
loop_
_atom_site_type_symbol
_atom_site_label
_atom_site_fract_x
_atom_site_fract_y
_atom_site_fract_z
Si Si1 0.172529 0.319177 0.000985
Si Si2 0.545701 0.179228 0.380452
Si Si3 0.357689 0.820544 0.032916
Si Si4 0.325085 0.826934 0.201045
Si Si5 0.673452 0.678967 0.679071
Si Si6 0.697040 0.322101 0.024557
Si Si7 0.149715 0.682117 0.641323
Si Si8 0.598651 0.679757 0.564239
O O1 0.184420 0.500000 0.982156
O O2 0.300027 0.246154 0.815983
O O3 0.199821 0.283878 0.039349
O O4 0.014633 0.269818 0.164031
O O5 0.500000 0.222560 0.500000
O O6 0.435878 0.241968 0.458051
O O7 0.550771 0.000000 0.370858
O O8 0.517393 0.750478 0.847732
O O9 0.280104 0.764516 0.063205
O O10 0.370064 0.000000 0.019118
O O11 0.286706 0.776495 0.178466
O O12 0.275916 0.730857 0.314139
O O13 0.282624 0.000000 0.258446
O O14 0.500000 0.822749 0.000000
O O15 0.658548 0.500000 0.694726
O O16 0.780267 0.726150 0.502789
O O17 0.706157 0.500000 0.002889
O O18 0.536488 0.290712 0.235507
O O19 0.149373 0.500000 0.642319
O O20 0.256390 0.729561 0.570684
O O21 0.602232 0.500000 0.551344
#
# Coordination Sequence:
#
# PCOD9141767 Si02
#       8
#     4   4   4   4   4   4   4   4
#     4   9  19  35  55  76 101 132 164 201 246 294
#     4  10  21  37  55  77 106 135 164 200 238 281
#     4  10  18  27  42  64  94 129 164 205 249 293
#     4   8  16  28  38  58  92 126 163 205 247 292
#     4  10  17  27  45  68  95 125 159 202 252 297
#     4   9  16  28  47  72  96 122 162 209 248 288
#     4   9  17  32  52  76 104 129 159 206 254 293
#     4   9  17  32  54  78 102 129 165 205 243 290
#
# _framework density 17.156647
#
# number of rings (size 3 to 8) (size 9 to 14) (size 15 to 20)
#    0.000    2.750    1.250    2.625    0.000    5.750 
#    0.000    2.500    0.000    4.500    0.000    5.250 
#    0.000    0.000    0.000    0.000    0.000    0.000 
#
# Total GULP energy -178334.049036 kJ/mol
# GULP energy per Si atom -5572.939032 kJ/mol
# Density = 1.711760 g / cm^3
# Si number density = 17.156647 Si / 1000 Ang^3
#
#
#
# Elastic Constant Matrix: (Units=GPa)
#
#
# Indices 1 2 3 4 5 6 
#
# 1 152.1206 43.6034 65.2359 0.0000 6.3332 0.0000
# 2 43.6034 30.1188 21.7819 0.0000 3.6903 0.0000
# 3 65.2359 21.7819 77.0378 0.0000 -11.4412 0.0000
# 4 0.0000 0.0000 0.0000 11.6785 0.0000 8.1747
# 5 6.3332 3.6903 -11.4412 0.0000 24.7259 0.0000
# 6 0.0000 0.0000 0.0000 8.1747 0.0000 30.9033
#
#
#
# Elastic Compliance Matrix: (Units=1/GPa)
#
#
# Indices 1 2 3 4 5 6 
#
# 1 0.014966 -0.013914 -0.009664 0.000000 -0.006228 0.000000
# 2 -0.013914 0.058645 -0.005981 0.000000 -0.007956 0.000000
# 3 -0.009664 -0.005981 0.025079 0.000000 0.014972 0.000000
# 4 0.000000 0.000000 0.000000 0.105085 0.000000 -0.027798
# 5 -0.006228 -0.007956 0.014972 0.000000 0.050154 0.000000
# 6 0.000000 0.000000 0.000000 -0.027798 0.000000 0.039712
#
#
# Mechanical properties :
#
#
# Convention : Reuss Voigt Hill
#
# Bulk Modulus (GPa) = 25.27010 57.83551 41.55280
# Shear Modulus (GPa) = 13.66312 22.03861 17.85086
#
# Velocity S-wave (km/s) = 2.82507 3.58795 3.22912
# Velocity P-wave (km/s) = 5.04008 7.13779 6.17861
#
# Compressibility (1/GPa) = 0.03957246
#
# Stress axis : x y z
#
# Youngs Moduli (GPa) = 66.82034 17.05167 39.87458
#
# Poissons Ratio (x) = 0.23725 0.38534
# Poissons Ratio (y) = 0.92973 0.23848
# Poissons Ratio (z) = 0.64574 0.10198
#
# Static dielectric constant tensor:
#      x y z
#    x 1.603210 0.000000 -0.011500 
#    y 0.000000 1.572550 0.000000 
#    z -0.011500 0.000000 1.564160 
# 
# From -- ./inp_files/91220.got.cif
#   From: 2010.05.17/outbox.cif.g08.bks.cpg/sg10_46_cif.got.tgz:91220.got - 2010.06.03 11:33:40.
