data_PCOD9141699
_publ_section_title
;
Structure prediction by ZEFSAII (Michael W. Deem and Ramdas Pophale) SiO2 
 PCOD9141699
Probable space group: P 2/M
;
_chemical_formula_sum "Si O2"
_cell_formula_units_Z 28
_cell_length_a 23.174031
_cell_length_b 7.587651
_cell_length_c 7.408123
_cell_angle_alpha 90.000000
_cell_angle_beta 89.930540
_cell_angle_gamma 90.000000
_cell_volume 1302.617163
_symmetry_space_group_name_H-M "P 2/M"
_symmetry_group_IT_number 10
_symmetry_cell_setting 'monoclinic'
loop_
_space_group_symop_operation_xyz
x,y,z
-x,y,-z
-x,-y,-z
x,-y,z
loop_
_atom_site_type_symbol
_atom_site_label
_atom_site_fract_x
_atom_site_fract_y
_atom_site_fract_z
Si Si1 0.060190 0.196669 0.763193
Si Si2 0.814507 0.788278 0.789613
Si Si3 0.062318 0.699441 0.170332
Si Si4 0.500094 0.784884 0.793622
Si Si5 0.184417 0.783810 0.797168
Si Si6 0.407518 0.784884 0.500458
Si Si7 0.724187 0.784316 0.496032
O O1 0.122504 0.277980 0.719721
O O2 0.997809 0.278176 0.725959
O O3 0.058827 0.000000 0.688411
O O4 0.062363 0.190380 0.984366
O O5 0.879050 0.740625 0.725455
O O6 0.762818 0.725119 0.664857
O O7 0.811695 0.000000 0.790613
O O8 0.809570 0.726528 0.995980
O O9 0.064812 0.500000 0.105313
O O10 0.444379 0.731365 0.676138
O O11 0.555880 0.731380 0.676021
O O12 0.500093 0.000000 0.796983
O O13 0.500000 0.724116 0.000000
O O14 0.238900 0.731799 0.678644
O O15 0.181535 0.000000 0.795893
O O16 0.341693 0.724116 0.501426
O O17 0.406942 0.000000 0.500523
O O18 0.722810 0.000000 0.498428
#
# Coordination Sequence:
#
# PCOD9141699 Si02
#       7
#     4   4   4   4   4   4   4
#     4   9  15  26  44  64  87 113 144 184 228 270
#     4   9  17  29  44  61  83 112 145 182 225 267
#     4  10  17  26  43  65  87 112 145 184 226 270
#     4   8  13  21  32  48  75 110 142 171 207 251
#     4   8  15  26  40  59  79 102 138 181 222 263
#     4   8  14  22  32  50  75 105 143 179 208 245
#     4   9  16  26  40  58  81 109 145 187 220 251
#
# _framework density 21.495187999999999
#
# number of rings (size 3 to 8) (size 9 to 14) (size 15 to 20)
#    0.000    3.286    0.000    4.286    0.000    1.143 
#    0.000    6.429    0.000    8.571    0.000    0.000 
#    0.000    0.000    0.000    2.571    0.000   33.714 
#
# Total GULP energy -156153.049643 kJ/mol
# GULP energy per Si atom -5576.894630 kJ/mol
# Density = 2.144626 g / cm^3
# Si number density = 21.495188 Si / 1000 Ang^3
#
#
#
# Elastic Constant Matrix: (Units=GPa)
#
#
# Indices 1 2 3 4 5 6 
#
# 1 265.0296 5.7346 105.8286 0.0000 -1.8601 0.0000
# 2 5.7346 53.6136 1.6357 0.0000 0.1612 0.0000
# 3 105.8286 1.6357 139.6223 0.0000 -0.8449 0.0000
# 4 0.0000 0.0000 0.0000 -28.9411 0.0000 -9.4823
# 5 -1.8601 0.1612 -0.8449 0.0000 20.2906 0.0000
# 6 0.0000 0.0000 0.0000 -9.4823 0.0000 -32.1196
#
#
#
# Elastic Compliance Matrix: (Units=1/GPa)
#
#
# Indices 1 2 3 4 5 6 
#
# 1 0.005424 -0.000456 -0.004104 0.000000 0.000330 0.000000
# 2 -0.000456 0.018697 0.000125 0.000000 -0.000185 0.000000
# 3 -0.004104 0.000125 0.010272 0.000000 0.000051 0.000000
# 4 0.000000 0.000000 0.000000 -0.038253 0.000000 0.011293
# 5 0.000330 -0.000185 0.000051 0.000000 0.049318 0.000000
# 6 0.000000 0.000000 0.000000 0.011293 0.000000 -0.034468
#
#
# Mechanical properties :
#
#
# Convention : Reuss Voigt Hill
#
# Bulk Modulus (GPa) = 39.17832 76.07370 57.62601
# Shear Modulus (GPa) = 176.25932 14.85042 95.55487
#
# Velocity S-wave (km/s) = 9.06518 2.63130 6.67462
# Velocity P-wave (km/s) = 11.30646 6.68577 9.28804
#
# Compressibility (1/GPa) = 0.02552432
#
# Stress axis : x y z
#
# Youngs Moduli (GPa) = 184.36329 53.48312 97.35548
#
# Poissons Ratio (x) = 0.02439 0.39954
# Poissons Ratio (y) = 0.08406 -0.01221
# Poissons Ratio (z) = 0.75661 -0.00671
#
# Static dielectric constant tensor:
#      x y z
#    x 1.771990 0.000000 0.002590 
#    y 0.000000 1.769910 0.000000 
#    z 0.002590 0.000000 1.783030 
# 
# From -- ./inp_files/33483.got.cif
#   From: 2010.05.17/outbox.cif.g08.bks.cpg/sg10_17_cif.got.tgz:33483.got - 2010.06.03 11:33:40.
