data_PCOD9141217
_publ_section_title
;
Structure prediction by ZEFSAII (Michael W. Deem and Ramdas Pophale) SiO2 
 PCOD9141217
Probable space group: C C
;
_chemical_formula_sum "Si O2"
_cell_formula_units_Z 16
_cell_length_a 21.000000
_cell_length_b 12.000000
_cell_length_c 9.000000
_cell_angle_alpha 90.000000
_cell_angle_beta 130.000000
_cell_angle_gamma 90.000000
_cell_volume 1737.388797
_symmetry_space_group_name_H-M "C C"
_symmetry_group_IT_number 9
_symmetry_cell_setting 'monoclinic'
loop_
_space_group_symop_operation_xyz
x,y,z
x,-y,1/2+z
1/2+x,1/2+y,z
1/2+x,1/2-y,1/2+z
loop_
_atom_site_type_symbol
_atom_site_label
_atom_site_fract_x
_atom_site_fract_y
_atom_site_fract_z
Si Si1 0.801840 0.077083 0.418600
Si Si2 0.203975 0.216355 0.669268
Si Si3 0.310468 0.021267 0.698845
Si Si4 0.385069 0.151072 0.522346
Si Si5 0.521183 0.665248 0.303540
Si Si6 0.768267 0.153994 0.712808
Si Si7 0.990834 0.059710 0.592727
Si Si8 0.660707 0.660132 0.939830
O O1 0.747596 0.163362 0.238430
O O2 0.791359 0.109557 0.579097
O O3 0.898683 0.087646 0.515315
O O4 0.771650 0.952587 0.327396
O O5 0.273616 0.124109 0.737693
O O6 0.119567 0.196511 0.448907
O O7 0.174084 0.197446 0.791520
O O8 0.344016 0.082066 0.599308
O O9 0.229930 0.937926 0.565194
O O10 0.380520 0.944636 0.885639
O O11 0.467089 0.220824 0.698680
O O12 0.330966 0.253425 0.373776
O O13 0.500132 0.604116 0.433886
O O14 0.502263 0.572891 0.146452
O O15 0.684825 0.230465 0.572116
O O16 0.066379 0.115391 0.801428
#
# Coordination Sequence:
#
# PCOD9141217 Si02
#       8
#     4   4   4   4   4   4   4   4
#     4  11  22  40  61  93 125 164 199 253 313 364
#     4  10  21  38  62  88 127 163 199 250 306 365
#     4  11  20  39  65  89 119 163 206 249 310 360
#     4  11  24  40  63  92 123 158 208 258 301 372
#     4  11  23  40  59  96 125 160 206 259 303 359
#     4  10  23  39  63  90 127 160 203 251 308 370
#     4  11  21  37  65  92 126 156 209 258 298 357
#     4   9  20  39  60  94 122 158 208 256 295 359
#
# _framework density 9.2092220000000005
#
# number of rings (size 3 to 8) (size 9 to 14) (size 15 to 20)
#    0.000    1.500    3.750    1.500    1.750    0.000 
#    0.000    5.000    0.000    0.000    0.000    0.000 
#    0.000    0.000    0.000    0.000    0.000    0.000 
#
# Total GULP energy -89136.172195 kJ/mol
# GULP energy per Si atom -5571.010762 kJ/mol
# Density = 0.918826 g / cm^3
# Si number density = 9.209222 Si / 1000 Ang^3
#
#
#
# Elastic Constant Matrix: (Units=GPa)
#
#
# Indices 1 2 3 4 5 6 
#
# 1 47.4147 37.4980 23.3074 0.0000 7.1350 0.0000
# 2 37.4980 156.7819 49.8589 0.0000 3.0628 0.0000
# 3 23.3074 49.8589 85.7319 0.0000 4.7719 0.0000
# 4 0.0000 0.0000 0.0000 58.1649 0.0000 -1.7256
# 5 7.1350 3.0628 4.7719 0.0000 25.5123 0.0000
# 6 0.0000 0.0000 0.0000 -1.7256 0.0000 33.9894
#
#
#
# Elastic Compliance Matrix: (Units=1/GPa)
#
#
# Indices 1 2 3 4 5 6 
#
# 1 0.028355 -0.005298 -0.004266 0.000000 -0.006496 0.000000
# 2 -0.005298 0.008816 -0.003749 0.000000 0.001125 0.000000
# 3 -0.004266 -0.003749 0.015070 0.000000 -0.001176 0.000000
# 4 0.000000 0.000000 0.000000 0.017218 0.000000 0.000874
# 5 -0.006496 0.001125 -0.001176 0.000000 0.041098 0.000000
# 6 0.000000 0.000000 0.000000 0.000874 0.000000 0.029465
#
#
# Mechanical properties :
#
#
# Convention : Reuss Voigt Hill
#
# Bulk Modulus (GPa) = 39.04087 56.80632 47.92359
# Shear Modulus (GPa) = 28.54083 35.48428 32.01255
#
# Velocity S-wave (km/s) = 3.94074 4.39402 4.17354
# Velocity P-wave (km/s) = 6.47677 7.52677 7.02143
#
# Compressibility (1/GPa) = 0.02561418
#
# Stress axis : x y z
#
# Youngs Moduli (GPa) = 35.26697 113.43249 66.35773
#
# Poissons Ratio (x) = 0.60100 0.28307
# Poissons Ratio (y) = 0.18685 0.24879
# Poissons Ratio (z) = 0.15044 0.42528
#
# Static dielectric constant tensor:
#      x y z
#    x 1.631930 0.000000 0.002380 
#    y 0.000000 1.646600 0.000000 
#    z 0.002380 0.000000 1.696310 
# 
# From -- ./inp_files/9114.got.cif
#   From: 2010.05.17/outbox.ucp.g08.bks.cvg/sg9_5_cif.got.tgz:9114.got - 2010.06.11 13:03:20.
