data_PCOD9141851
_publ_section_title
;
Structure prediction by ZEFSAII (Michael W. Deem and Ramdas Pophale) SiO2 
 PCOD9141851
Probable space group: P 2/M
;
_chemical_formula_sum "Si O2"
_cell_formula_units_Z 28
_cell_length_a 16.231115
_cell_length_b 7.403160
_cell_length_c 11.097490
_cell_angle_alpha 90.000000
_cell_angle_beta 90.165391
_cell_angle_gamma 90.000000
_cell_volume 1333.485948
_symmetry_space_group_name_H-M "P 2/M"
_symmetry_group_IT_number 10
_symmetry_cell_setting 'monoclinic'
loop_
_space_group_symop_operation_xyz
x,y,z
-x,y,-z
-x,-y,-z
x,-y,z
loop_
_atom_site_type_symbol
_atom_site_label
_atom_site_fract_x
_atom_site_fract_y
_atom_site_fract_z
Si Si1 0.582129 0.703699 0.445213
Si Si2 0.218924 0.211092 0.906755
Si Si3 0.371347 0.218894 0.043666
Si Si4 0.247413 0.281362 0.634239
Si Si5 0.966159 0.296584 0.122669
Si Si6 0.941779 0.279236 0.389250
Si Si7 0.481086 0.781459 0.811360
O O1 0.500000 0.792857 0.500000
O O2 0.587424 0.500000 0.496685
O O3 0.674666 0.782583 0.444860
O O4 0.558244 0.696685 0.305159
O O5 0.280352 0.281866 0.009589
O O6 0.258850 0.225386 0.773848
O O7 0.131819 0.305668 0.896473
O O8 0.202955 0.000000 0.929431
O O9 0.426631 0.263510 0.927526
O O10 0.367588 0.000000 0.048349
O O11 0.424980 0.275440 0.158627
O O12 0.249517 0.500000 0.631127
O O13 0.154484 0.224539 0.598132
O O14 0.001773 0.500000 0.127944
O O15 0.974458 0.217815 0.257570
O O16 0.000000 0.209602 0.000000
O O17 0.941547 0.500000 0.385493
O O18 0.000000 0.224114 0.500000
O O19 0.479354 0.000000 0.798294
#
# Coordination Sequence:
#
# PCOD9141851 Si02
#       7
#     4   4   4   4   4   4   4
#     4  10  20  32  44  64  97 129 157 197 245 285
#     4  10  17  28  49  73  94 119 155 195 236 283
#     4   8  15  27  46  69  91 115 149 197 236 270
#     4   9  17  30  47  66  90 121 158 198 236 280
#     4   9  18  32  48  70 100 128 156 194 237 284
#     4   8  14  27  49  71  87 114 159 198 230 277
#     4   9  16  30  48  65  88 120 158 192 229 276
#
# _framework density 20.997596000000001
#
# number of rings (size 3 to 8) (size 9 to 14) (size 15 to 20)
#    0.000    3.000    1.429    2.143    0.000    0.571 
#    0.000    4.286    0.000   10.286    0.000    0.000 
#    0.000    0.000    0.000    0.000    0.000    0.000 
#
# Total GULP energy -155928.670130 kJ/mol
# GULP energy per Si atom -5568.881076 kJ/mol
# Density = 2.094980 g / cm^3
# Si number density = 20.997596 Si / 1000 Ang^3
#
#
#
# Elastic Constant Matrix: (Units=GPa)
#
#
# Indices 1 2 3 4 5 6 
#
# 1 111.3186 -0.2194 64.1167 0.0000 4.5365 0.0000
# 2 -0.2194 74.5523 3.0313 0.0000 -0.4065 0.0000
# 3 64.1167 3.0313 80.6184 0.0000 3.6018 0.0000
# 4 0.0000 0.0000 0.0000 5.8008 0.0000 5.4977
# 5 4.5365 -0.4065 3.6018 0.0000 46.0021 0.0000
# 6 0.0000 0.0000 0.0000 5.4977 0.0000 -7.0897
#
#
#
# Elastic Compliance Matrix: (Units=1/GPa)
#
#
# Indices 1 2 3 4 5 6 
#
# 1 0.016619 0.000583 -0.013212 0.000000 -0.000599 0.000000
# 2 0.000583 0.013456 -0.000976 0.000000 0.000138 0.000000
# 3 -0.013212 -0.000976 0.022971 0.000000 -0.000504 0.000000
# 4 0.000000 0.000000 0.000000 0.099365 0.000000 0.077052
# 5 -0.000599 0.000138 -0.000504 0.000000 0.021838 0.000000
# 6 0.000000 0.000000 0.000000 0.077052 0.000000 -0.081300
#
#
# Mechanical properties :
#
#
# Convention : Reuss Voigt Hill
#
# Bulk Modulus (GPa) = 38.70654 44.48294 41.59474
# Shear Modulus (GPa) = 38.82905 22.24668 30.53786
#
# Velocity S-wave (km/s) = 4.30491 3.25851 3.81773
# Velocity P-wave (km/s) = 6.57142 5.94878 6.26783
#
# Compressibility (1/GPa) = 0.02583543
#
# Stress axis : x y z
#
# Youngs Moduli (GPa) = 60.17332 74.31882 43.53295
#
# Poissons Ratio (x) = -0.04332 0.57516
# Poissons Ratio (y) = -0.03507 0.04247
# Poissons Ratio (z) = 0.79502 0.07251
#
# Static dielectric constant tensor:
#      x y z
#    x 1.792850 0.000000 -0.011370 
#    y 0.000000 1.787570 0.000000 
#    z -0.011370 0.000000 1.748030 
# 
# From -- ./inp_files/48787.got.cif
#   From: 2010.05.17/outbox.cif.g08.bks.cpg/sg10_25_cif.got.tgz:48787.got - 2010.06.03 11:33:40.
