data_PCOD9141339
_publ_section_title
;
Structure prediction by ZEFSAII (Michael W. Deem and Ramdas Pophale) SiO2 
 PCOD9141339
Probable space group: P 2/M
;
_chemical_formula_sum "Si O2"
_cell_formula_units_Z 30
_cell_length_a 12.313683
_cell_length_b 8.224222
_cell_length_c 16.040396
_cell_angle_alpha 90.000000
_cell_angle_beta 100.334747
_cell_angle_gamma 90.000000
_cell_volume 1598.064447
_symmetry_space_group_name_H-M "P 2/M"
_symmetry_group_IT_number 10
_symmetry_cell_setting 'monoclinic'
loop_
_space_group_symop_operation_xyz
x,y,z
-x,y,-z
-x,-y,-z
x,-y,z
loop_
_atom_site_type_symbol
_atom_site_label
_atom_site_fract_x
_atom_site_fract_y
_atom_site_fract_z
Si Si1 0.049441 0.190543 0.093726
Si Si2 0.765825 0.691232 0.767739
Si Si3 0.905341 0.312991 0.222079
Si Si4 0.750936 0.189661 0.476512
Si Si5 0.500000 0.249358 0.500000
Si Si6 0.532602 0.194636 0.688126
Si Si7 0.087092 0.191132 0.362720
Si Si8 0.705649 0.804941 0.286405
O O1 0.159658 0.278757 0.140864
O O2 0.959285 0.211586 0.154734
O O3 0.075078 0.000000 0.087997
O O4 0.000000 0.251888 0.000000
O O5 0.764609 0.500000 0.748270
O O6 0.643023 0.760406 0.751345
O O7 0.828177 0.785777 0.702148
O O8 0.921315 0.500000 0.202587
O O9 0.779547 0.273113 0.225562
O O10 0.976208 0.274563 0.315237
O O11 0.627357 0.190610 0.499167
O O12 0.845814 0.259585 0.548996
O O13 0.744300 0.258145 0.382815
O O14 0.778780 0.000000 0.471565
O O15 0.523238 0.297343 0.600505
O O16 0.425109 0.223290 0.729373
O O17 0.531822 0.000000 0.663558
O O18 0.063861 0.000000 0.371354
O O19 0.722555 0.000000 0.285488
#
# Coordination Sequence:
#
# PCOD9141339 Si02
#       8
#     4   4   4   4   2   4   4   4
#     4  10  21  39  65  90 106 127 168 220 268 319
#     4  11  21  32  50  80 117 146 171 212 273 332
#     4  11  22  36  53  75 109 143 169 208 267 331
#     4   9  16  26  47  73  97 132 184 237 270 298
#     4  10  15  26  49  76 101 134 189 242 273 296
#     4  10  18  31  54  77 104 143 191 236 267 304
#     4  10  18  31  52  73  98 136 185 233 268 307
#     4   9  19  34  52  74 100 141 191 229 261 304
#
# _framework density 18.77271
#
# number of rings (size 3 to 8) (size 9 to 14) (size 15 to 20)
#    0.000    2.000    1.333    6.800    0.000    2.133 
#    0.000    4.333    0.000    0.800    0.000    5.600 
#    0.000    0.000    0.000    0.000    0.000    0.000 
#
# Total GULP energy -167017.138799 kJ/mol
# GULP energy per Si atom -5567.237960 kJ/mol
# Density = 1.872998 g / cm^3
# Si number density = 18.772710 Si / 1000 Ang^3
#
#
#
# Elastic Constant Matrix: (Units=GPa)
#
#
# Indices 1 2 3 4 5 6 
#
# 1 100.6539 1.8618 37.7828 0.0000 3.5779 0.0000
# 2 1.8618 24.0181 -5.3190 0.0000 0.6336 0.0000
# 3 37.7828 -5.3190 56.0342 0.0000 12.9399 0.0000
# 4 0.0000 0.0000 0.0000 -76.7878 0.0000 68.8437
# 5 3.5779 0.6336 12.9399 0.0000 20.5577 0.0000
# 6 0.0000 0.0000 0.0000 68.8437 0.0000 53.7261
#
#
#
# Elastic Compliance Matrix: (Units=1/GPa)
#
#
# Indices 1 2 3 4 5 6 
#
# 1 0.013864 -0.003564 -0.010712 0.000000 0.004439 0.000000
# 2 -0.003564 0.043805 0.007874 0.000000 -0.005686 0.000000
# 3 -0.010712 0.007874 0.029769 0.000000 -0.017116 0.000000
# 4 0.000000 0.000000 0.000000 -0.006061 0.000000 0.007766
# 5 0.004439 -0.005686 -0.017116 0.000000 0.058820 0.000000
# 6 0.000000 0.000000 0.000000 0.007766 0.000000 0.008662
#
#
# Mechanical properties :
#
#
# Convention : Reuss Voigt Hill
#
# Bulk Modulus (GPa) = 13.39839 27.70637 20.55238
# Shear Modulus (GPa) = 26.80376 9.25791 18.03083
#
# Velocity S-wave (km/s) = 3.78273 2.22312 3.10253
# Velocity P-wave (km/s) = 5.12166 4.62392 4.87914
#
# Compressibility (1/GPa) = 0.07463581
#
# Stress axis : x y z
#
# Youngs Moduli (GPa) = 72.12893 22.82827 33.59192
#
# Poissons Ratio (x) = 0.08136 0.35983
# Poissons Ratio (y) = 0.25707 -0.26452
# Poissons Ratio (z) = 0.77263 -0.17976
#
# Static dielectric constant tensor:
#      x y z
#    x 1.665300 0.000000 0.016710 
#    y 0.000000 1.687930 0.000000 
#    z 0.016710 0.000000 1.654190 
# 
# From -- ./inp_files/63442.got.cif
#   From: 2010.05.17/outbox.cif.g08.bks.cpg/sg10_32_cif.got.tgz:63442.got - 2010.06.03 11:33:40.
