data_PCOD9141626
_publ_section_title
;
Structure prediction by ZEFSAII (Michael W. Deem and Ramdas Pophale) SiO2 
 PCOD9141626
Probable space group: P 2/M
;
_chemical_formula_sum "Si O2"
_cell_formula_units_Z 28
_cell_length_a 22.192910
_cell_length_b 8.357799
_cell_length_c 11.721203
_cell_angle_alpha 90.000000
_cell_angle_beta 130.347360
_cell_angle_gamma 90.000000
_cell_volume 1656.949910
_symmetry_space_group_name_H-M "P 2/M"
_symmetry_group_IT_number 10
_symmetry_cell_setting 'monoclinic'
loop_
_space_group_symop_operation_xyz
x,y,z
-x,y,-z
-x,-y,-z
x,-y,z
loop_
_atom_site_type_symbol
_atom_site_label
_atom_site_fract_x
_atom_site_fract_y
_atom_site_fract_z
Si Si1 0.458753 0.194835 0.122008
Si Si2 0.905927 0.687374 0.002221
Si Si3 0.424013 0.806581 0.334253
Si Si4 0.770877 0.690763 0.527808
Si Si5 0.735994 0.693225 0.744941
Si Si6 0.622438 0.806544 0.209707
Si Si7 0.069130 0.186282 0.219685
O O1 0.432791 0.250304 0.214608
O O2 0.548230 0.242433 0.198691
O O3 0.458715 0.000000 0.122551
O O4 0.401948 0.243441 0.948168
O O5 0.910558 0.500000 0.034238
O O6 0.980390 0.774104 0.150926
O O7 0.816120 0.746125 0.908885
O O8 0.917624 0.712582 0.880102
O O9 0.500000 0.752544 0.500000
O O10 0.343333 0.752599 0.294085
O O11 0.424954 0.000000 0.334176
O O12 0.779979 0.500000 0.541648
O O13 0.742883 0.745106 0.620700
O O14 0.703685 0.738477 0.356559
O O15 0.856750 0.767923 0.611349
O O16 0.736693 0.500000 0.745657
O O17 0.626490 0.000000 0.216970
O O18 0.073194 0.000000 0.194776
#
# Coordination Sequence:
#
# PCOD9141626 Si02
#       7
#     4   4   4   4   4   4   4
#     4   8  16  30  47  68  91 116 147 188 232 264
#     4   9  16  28  42  59  89 122 149 182 225 265
#     4  10  19  30  46  68  92 118 151 187 221 261
#     4  10  19  30  43  64  94 121 149 187 229 266
#     4   9  19  31  43  62  90 124 153 180 220 266
#     4   9  16  30  50  66  86 117 152 187 225 271
#     4  10  17  25  41  65  89 116 151 183 219 270
#
# _framework density 16.898520000000001
#
# number of rings (size 3 to 8) (size 9 to 14) (size 15 to 20)
#    0.000    2.714    0.000    5.571    0.000    4.857 
#    0.000    2.857    0.000    0.000    0.000    1.000 
#    0.000    8.000    0.000    0.000    0.000    0.000 
#
# Total GULP energy -155991.502634 kJ/mol
# GULP energy per Si atom -5571.125094 kJ/mol
# Density = 1.686006 g / cm^3
# Si number density = 16.898520 Si / 1000 Ang^3
#
#
#
# Elastic Constant Matrix: (Units=GPa)
#
#
# Indices 1 2 3 4 5 6 
#
# 1 86.5042 11.1684 64.6062 0.0000 23.0054 0.0000
# 2 11.1684 17.5505 18.9575 0.0000 4.6448 0.0000
# 3 64.6062 18.9575 131.5083 0.0000 35.2345 0.0000
# 4 0.0000 0.0000 0.0000 32.0427 0.0000 4.3750
# 5 23.0054 4.6448 35.2345 0.0000 32.1397 0.0000
# 6 0.0000 0.0000 0.0000 4.3750 0.0000 27.6199
#
#
#
# Elastic Compliance Matrix: (Units=1/GPa)
#
#
# Indices 1 2 3 4 5 6 
#
# 1 0.018841 -0.002499 -0.007616 0.000000 -0.004775 0.000000
# 2 -0.002499 0.067856 -0.009070 0.000000 0.001926 0.000000
# 3 -0.007616 -0.009070 0.015350 0.000000 -0.010066 0.000000
# 4 0.000000 0.000000 0.000000 0.031898 0.000000 -0.005053
# 5 -0.004775 0.001926 -0.010066 0.000000 0.045289 0.000000
# 6 0.000000 0.000000 0.000000 -0.005053 0.000000 0.037006
#
#
# Mechanical properties :
#
#
# Convention : Reuss Voigt Hill
#
# Bulk Modulus (GPa) = 15.70432 47.22523 31.46478
# Shear Modulus (GPa) = 18.12664 27.74919 22.93791
#
# Velocity S-wave (km/s) = 3.27873 4.05669 3.68828
# Velocity P-wave (km/s) = 4.86281 7.06748 6.06614
#
# Compressibility (1/GPa) = 0.06367675
#
# Stress axis : x y z
#
# Youngs Moduli (GPa) = 53.07538 14.73704 65.14595
#
# Poissons Ratio (x) = 0.03683 0.49618
# Poissons Ratio (y) = 0.13263 0.59088
# Poissons Ratio (z) = 0.40424 0.13367
#
# Static dielectric constant tensor:
#      x y z
#    x 1.568650 0.000000 0.025370 
#    y 0.000000 1.583510 0.000000 
#    z 0.025370 0.000000 1.592280 
# 
# From -- ./inp_files/54960.got.cif
#   From: 2010.05.17/outbox.cif.g08.bks.cpg/sg10_28_cif.got.tgz:54960.got - 2010.06.03 11:33:40.
