data_PCOD9141655
_publ_section_title
;
Structure prediction by ZEFSAII (Michael W. Deem and Ramdas Pophale) SiO2 
 PCOD9141655
Probable space group: P 2/M
;
_chemical_formula_sum "Si O2"
_cell_formula_units_Z 32
_cell_length_a 17.861254
_cell_length_b 8.775096
_cell_length_c 13.931371
_cell_angle_alpha 90.000000
_cell_angle_beta 101.714718
_cell_angle_gamma 90.000000
_cell_volume 2138.041272
_symmetry_space_group_name_H-M "P 2/M"
_symmetry_group_IT_number 10
_symmetry_cell_setting 'monoclinic'
loop_
_space_group_symop_operation_xyz
x,y,z
-x,y,-z
-x,-y,-z
x,-y,z
loop_
_atom_site_type_symbol
_atom_site_label
_atom_site_fract_x
_atom_site_fract_y
_atom_site_fract_z
Si Si1 0.159701 0.814909 0.924786
Si Si2 0.008225 0.175984 0.118339
Si Si3 0.166618 0.682274 0.141039
Si Si4 0.674878 0.678338 0.741510
Si Si5 0.447133 0.184146 0.782471
Si Si6 0.683942 0.183379 0.122194
Si Si7 0.410867 0.678058 0.076800
Si Si8 0.469871 0.816419 0.389384
O O1 0.229355 0.765257 0.874929
O O2 0.074786 0.767322 0.868955
O O3 0.158262 0.000000 0.930295
O O4 0.173554 0.753072 0.036028
O O5 0.084177 0.269683 0.160321
O O6 0.019140 0.000000 0.150064
O O7 0.000000 0.177762 0.000000
O O8 0.171268 0.500000 0.132818
O O9 0.238065 0.733654 0.224809
O O10 0.675277 0.500000 0.715329
O O11 0.639470 0.690441 0.839399
O O12 0.615959 0.764148 0.657505
O O13 0.362761 0.231491 0.795169
O O14 0.508257 0.248145 0.874704
O O15 0.475953 0.235083 0.685089
O O16 0.451107 0.000000 0.785416
O O17 0.685655 0.000000 0.122388
O O18 0.633497 0.238644 0.019366
O O19 0.420191 0.500000 0.056266
O O20 0.500000 0.761569 0.500000
O O21 0.471300 0.000000 0.390340
#
# Coordination Sequence:
#
# PCOD9141655 Si02
#       8
#     4   4   4   4   4   4   4   4
#     4   9  17  27  38  53  77 110 142 167 195 231
#     4   8  15  26  37  52  75 105 139 169 197 231
#     4  10  17  26  39  57  80 105 137 170 198 231
#     4   9  18  29  41  60  83 107 135 165 200 241
#     4   9  18  30  42  58  78 102 134 167 200 241
#     4  10  18  27  40  56  78 109 140 166 194 232
#     4  10  18  28  39  55  81 109 136 167 199 229
#     4   9  18  32  48  63  79 101 131 168 208 247
#
# _framework density 14.96697
#
# number of rings (size 3 to 8) (size 9 to 14) (size 15 to 20)
#    0.000    2.750    1.250    1.875    0.000    6.000 
#    0.000    0.000    0.000    0.000    0.000    0.000 
#    0.000    1.000    0.000   12.500    0.000    2.000 
#
# Total GULP energy -178176.966944 kJ/mol
# GULP energy per Si atom -5568.030217 kJ/mol
# Density = 1.493290 g / cm^3
# Si number density = 14.966970 Si / 1000 Ang^3
#
#
#
# Elastic Constant Matrix: (Units=GPa)
#
#
# Indices 1 2 3 4 5 6 
#
# 1 149.0253 20.6753 44.9654 0.0000 12.6368 0.0000
# 2 20.6753 6.1860 9.1520 0.0000 3.3765 0.0000
# 3 44.9654 9.1520 52.1964 0.0000 10.0314 0.0000
# 4 0.0000 0.0000 0.0000 3.7092 0.0000 -2.9677
# 5 12.6368 3.3765 10.0314 0.0000 13.0266 0.0000
# 6 0.0000 0.0000 0.0000 -2.9677 0.0000 9.1698
#
#
#
# Elastic Compliance Matrix: (Units=1/GPa)
#
#
# Indices 1 2 3 4 5 6 
#
# 1 0.013414 -0.037686 -0.005075 0.000000 0.000664 0.000000
# 2 -0.037686 0.335995 -0.019644 0.000000 -0.035404 0.000000
# 3 -0.005075 -0.019644 0.029401 0.000000 -0.012626 0.000000
# 4 0.000000 0.000000 0.000000 0.363811 0.000000 0.117744
# 5 0.000664 -0.035404 -0.012626 0.000000 0.095021 0.000000
# 6 0.000000 0.000000 0.000000 0.117744 0.000000 0.147160
#
#
# Mechanical properties :
#
#
# Convention : Reuss Voigt Hill
#
# Bulk Modulus (GPa) = 3.93699 39.66591 21.80145
# Shear Modulus (GPa) = 4.18662 14.02213 9.10438
#
# Velocity S-wave (km/s) = 1.67431 3.06416 2.46905
# Velocity P-wave (km/s) = 2.52466 6.25129 4.76720
#
# Compressibility (1/GPa) = 0.25400110
#
# Stress axis : x y z
#
# Youngs Moduli (GPa) = 74.55040 2.97623 34.01187
#
# Poissons Ratio (x) = 0.11216 0.17262
# Poissons Ratio (y) = 2.80949 0.66812
# Poissons Ratio (z) = 0.37837 0.05846
#
# Static dielectric constant tensor:
#      x y z
#    x 1.554500 0.000000 -0.009100 
#    y 0.000000 1.502130 0.000000 
#    z -0.009100 0.000000 1.462390 
# 
# From -- ./inp_files/68197.got.cif
#   From: 2010.05.17/outbox.cif.g08.bks.cpg/sg10_35_cif.got.tgz:68197.got - 2010.06.03 11:33:40.
