data_PCOD9141327
_publ_section_title
;
Structure prediction by ZEFSAII (Michael W. Deem and Ramdas Pophale) SiO2 
 PCOD9141327
Probable space group: P 2/M
;
_chemical_formula_sum "Si O2"
_cell_formula_units_Z 28
_cell_length_a 13.733027
_cell_length_b 14.651519
_cell_length_c 9.482029
_cell_angle_alpha 90.000000
_cell_angle_beta 44.064125
_cell_angle_gamma 90.000000
_cell_volume 1326.857381
_symmetry_space_group_name_H-M "P 2/M"
_symmetry_group_IT_number 10
_symmetry_cell_setting 'monoclinic'
loop_
_space_group_symop_operation_xyz
x,y,z
-x,y,-z
-x,-y,-z
x,-y,z
loop_
_atom_site_type_symbol
_atom_site_label
_atom_site_fract_x
_atom_site_fract_y
_atom_site_fract_z
Si Si1 0.897869 0.790265 0.402790
Si Si2 0.496253 0.105805 0.758955
Si Si3 0.841136 0.607017 0.101997
Si Si4 0.687416 0.787600 0.369655
Si Si5 0.994870 0.598698 0.336258
Si Si6 0.887746 0.103744 0.986337
Si Si7 0.276598 0.103280 0.219853
O O1 0.791852 0.813267 0.388802
O O2 0.897896 0.682269 0.403604
O O3 0.842326 0.828570 0.606571
O O4 0.044029 0.832528 0.202482
O O5 0.542399 0.182280 0.596418
O O6 0.608253 0.106291 0.773238
O O7 0.498320 0.000000 0.702575
O O8 0.353822 0.123372 0.993543
O O9 0.805233 0.500000 0.169825
O O10 0.733272 0.685071 0.270067
O O11 0.000000 0.624694 0.000000
O O12 0.867146 0.613143 0.904778
O O13 0.742166 0.857107 0.194140
O O14 0.940023 0.500000 0.347605
O O15 0.000000 0.597710 0.500000
O O16 0.876342 0.000000 0.951121
O O17 0.000000 0.104954 0.000000
O O18 0.222319 0.000000 0.273698
#
# Coordination Sequence:
#
# PCOD9141327 Si02
#       7
#     4   4   4   4   4   4   4
#     4  10  16  25  41  61  86 115 147 179 213 258
#     4   8  14  23  36  59  91 119 147 180 212 251
#     4  10  17  28  44  64  88 113 144 180 221 269
#     4  10  15  23  39  64  89 115 142 177 216 258
#     4  10  20  32  45  63  88 117 149 183 221 268
#     4   9  15  21  33  59  88 111 136 171 212 253
#     4   8  14  24  38  58  86 122 152 175 210 256
#
# _framework density 21.102495000000001
#
# number of rings (size 3 to 8) (size 9 to 14) (size 15 to 20)
#    0.000    2.714    2.857    2.143    0.000    3.429 
#    0.000    0.000    0.000    2.571    0.000    5.000 
#    0.000    5.714    0.000    0.000    0.000    0.000 
#
# Total GULP energy -156024.313149 kJ/mol
# GULP energy per Si atom -5572.296898 kJ/mol
# Density = 2.105446 g / cm^3
# Si number density = 21.102495 Si / 1000 Ang^3
#
#
#
# Elastic Constant Matrix: (Units=GPa)
#
#
# Indices 1 2 3 4 5 6 
#
# 1 39.1672 -0.3487 18.9666 0.0000 11.5750 0.0000
# 2 -0.3487 123.2488 87.6290 0.0000 -6.1278 0.0000
# 3 18.9666 87.6290 160.4889 0.0000 6.7393 0.0000
# 4 0.0000 0.0000 0.0000 588.7107 0.0000 939.2097
# 5 11.5750 -6.1278 6.7393 0.0000 37.5295 0.0000
# 6 0.0000 0.0000 0.0000 939.2097 0.0000 1616.5949
#
#
#
# Elastic Compliance Matrix: (Units=1/GPa)
#
#
# Indices 1 2 3 4 5 6 
#
# 1 0.030343 0.003278 -0.005043 0.000000 -0.007918 0.000000
# 2 0.003278 0.014087 -0.008195 0.000000 0.002761 0.000000
# 3 -0.005043 -0.008195 0.011378 0.000000 -0.001826 0.000000
# 4 0.000000 0.000000 0.000000 0.023230 0.000000 -0.013496
# 5 -0.007918 0.002761 -0.001826 0.000000 0.029866 0.000000
# 6 0.000000 0.000000 0.000000 -0.013496 0.000000 0.008459
#
#
# Mechanical properties :
#
#
# Convention : Reuss Voigt Hill
#
# Bulk Modulus (GPa) = 27.86505 59.48875 43.67690
# Shear Modulus (GPa) = 33.50185 463.01090 248.25638
#
# Velocity S-wave (km/s) = 3.98876 14.82858 10.85811
# Velocity P-wave (km/s) = 5.86915 17.92858 13.33943
#
# Compressibility (1/GPa) = 0.03588725
#
# Stress axis : x y z
#
# Youngs Moduli (GPa) = 32.95678 70.98934 87.88820
#
# Poissons Ratio (x) = -0.23269 0.44324
# Poissons Ratio (y) = -0.10803 0.72022
# Poissons Ratio (z) = 0.16621 0.58174
#
# Static dielectric constant tensor:
#      x y z
#    x 1.928310 0.000000 0.046820 
#    y 0.000000 1.743190 0.000000 
#    z 0.046820 0.000000 1.794570 
# 
# From -- ./inp_files/32776.got.cif
#   From: 2010.05.17/outbox.cif.g08.bks.cpg/sg10_17_cif.got.tgz:32776.got - 2010.06.03 11:33:40.
