data_PCOD9141288
_publ_section_title
;
Structure prediction by ZEFSAII (Michael W. Deem and Ramdas Pophale) SiO2 
 PCOD9141288
Probable space group: C C
;
_chemical_formula_sum "Si O2"
_cell_formula_units_Z 16
_cell_length_a 12.000000
_cell_length_b 15.000000
_cell_length_c 9.000000
_cell_angle_alpha 90.000000
_cell_angle_beta 110.000000
_cell_angle_gamma 90.000000
_cell_volume 1522.302046
_symmetry_space_group_name_H-M "C C"
_symmetry_group_IT_number 9
_symmetry_cell_setting 'monoclinic'
loop_
_space_group_symop_operation_xyz
x,y,z
x,-y,1/2+z
1/2+x,1/2+y,z
1/2+x,1/2-y,1/2+z
loop_
_atom_site_type_symbol
_atom_site_label
_atom_site_fract_x
_atom_site_fract_y
_atom_site_fract_z
Si Si1 0.634520 0.936360 0.618420
Si Si2 0.858115 0.439755 0.583211
Si Si3 0.782875 0.612079 0.725655
Si Si4 0.306661 0.298988 0.862274
Si Si5 0.997411 0.097818 0.076630
Si Si6 0.725202 0.892820 0.339194
Si Si7 0.040436 0.092286 0.452915
Si Si8 0.710006 0.278322 0.623826
O O1 0.497271 0.927835 0.606959
O O2 0.716557 0.861714 0.732461
O O3 0.644990 0.918490 0.446174
O O4 0.691562 0.031074 0.700461
O O5 0.843629 0.536822 0.651101
O O6 0.784143 0.430047 0.393928
O O7 0.802793 0.362830 0.666474
O O8 0.837705 0.709988 0.781449
O O9 0.658587 0.630875 0.584160
O O10 0.425576 0.353003 0.953308
O O11 0.244196 0.269790 0.986045
O O12 0.025604 0.091609 0.266626
O O13 0.079383 0.178653 0.058450
O O14 0.859390 0.104703 0.967341
O O15 0.038484 0.007844 0.014229
O O16 0.712702 0.795381 0.256540
#
# Coordination Sequence:
#
# PCOD9141288 Si02
#       8
#     4   4   4   4   4   4   4   4
#     4  12  26  50  76 104 155 199 244 305 375 446
#     4  11  26  49  73 111 148 199 238 312 377 445
#     4  11  26  46  76 108 148 195 252 303 379 436
#     4  11  27  46  75 114 144 201 243 312 374 444
#     4  12  26  47  77 110 148 199 251 313 372 442
#     4  12  26  50  74 110 150 198 256 304 373 449
#     4  12  26  48  79 105 154 194 257 310 370 451
#     4  11  29  44  74 114 147 193 249 309 378 437
#
# _framework density 10.510398
#
# number of rings (size 3 to 8) (size 9 to 14) (size 15 to 20)
#    0.000    0.500    3.750    2.250   10.500    1.000 
#    0.000    0.000    0.000    0.000    0.000    0.000 
#    0.000    0.000    0.000    0.000    0.000    0.000 
#
# Total GULP energy -89483.330084 kJ/mol
# GULP energy per Si atom -5592.708130 kJ/mol
# Density = 1.048648 g / cm^3
# Si number density = 10.510398 Si / 1000 Ang^3
#
#
#
# Elastic Constant Matrix: (Units=GPa)
#
#
# Indices 1 2 3 4 5 6 
#
# 1 107.5782 43.6856 36.3489 0.0000 -2.6343 0.0000
# 2 43.6856 125.0674 47.1948 0.0000 -2.0560 0.0000
# 3 36.3489 47.1948 108.1970 0.0000 3.0855 0.0000
# 4 0.0000 0.0000 0.0000 56.2616 0.0000 -0.3534
# 5 -2.6343 -2.0560 3.0855 0.0000 34.8771 0.0000
# 6 0.0000 0.0000 0.0000 -0.3534 0.0000 44.4586
#
#
#
# Elastic Compliance Matrix: (Units=1/GPa)
#
#
# Indices 1 2 3 4 5 6 
#
# 1 0.011398 -0.003007 -0.002544 0.000000 0.000909 0.000000
# 2 -0.003007 0.010395 -0.003544 0.000000 0.000699 0.000000
# 3 -0.002544 -0.003544 0.011684 0.000000 -0.001435 0.000000
# 4 0.000000 0.000000 0.000000 0.017775 0.000000 0.000141
# 5 0.000909 0.000699 -0.001435 0.000000 0.028909 0.000000
# 6 0.000000 0.000000 0.000000 0.000141 0.000000 0.022494
#
#
# Mechanical properties :
#
#
# Convention : Reuss Voigt Hill
#
# Bulk Modulus (GPa) = 65.41010 66.14457 65.77734
# Shear Modulus (GPa) = 39.70175 41.36034 40.53104
#
# Velocity S-wave (km/s) = 4.35062 4.44057 4.39582
# Velocity P-wave (km/s) = 7.51143 7.60435 7.55803
#
# Compressibility (1/GPa) = 0.01528816
#
# Stress axis : x y z
#
# Youngs Moduli (GPa) = 87.73314 96.20292 85.58900
#
# Poissons Ratio (x) = 0.28924 0.21772
# Poissons Ratio (y) = 0.26377 0.30333
# Poissons Ratio (z) = 0.22317 0.34094
#
# Static dielectric constant tensor:
#      x y z
#    x 1.776870 0.000000 -0.020680 
#    y 0.000000 1.758320 0.000000 
#    z -0.020680 0.000000 1.741950 
# 
# From -- ./inp_files/7616.got.cif
#   From: 2010.05.17/outbox.ucp.g08.bks.cvg/sg9_4_cif.got.tgz:7616.got - 2010.06.11 13:03:20.
