data_PCOD9141740
_publ_section_title
;
Structure prediction by ZEFSAII (Michael W. Deem and Ramdas Pophale) SiO2 
 PCOD9141740
Probable space group: P 2/M
;
_chemical_formula_sum "Si O2"
_cell_formula_units_Z 32
_cell_length_a 22.092306
_cell_length_b 7.572144
_cell_length_c 13.203239
_cell_angle_alpha 90.000000
_cell_angle_beta 54.021505
_cell_angle_gamma 90.000000
_cell_volume 1787.378078
_symmetry_space_group_name_H-M "P 2/M"
_symmetry_group_IT_number 10
_symmetry_cell_setting 'monoclinic'
loop_
_space_group_symop_operation_xyz
x,y,z
-x,y,-z
-x,-y,-z
x,-y,z
loop_
_atom_site_type_symbol
_atom_site_label
_atom_site_fract_x
_atom_site_fract_y
_atom_site_fract_z
Si Si1 0.587122 0.215598 0.027086
Si Si2 0.415688 0.215262 0.200022
Si Si3 0.841584 0.203360 0.293232
Si Si4 0.318514 0.783185 0.485021
Si Si5 0.679306 0.212182 0.127028
Si Si6 0.414113 0.784137 0.586553
Si Si7 0.163775 0.703186 0.933970
Si Si8 0.002098 0.787075 0.115175
O O1 0.501698 0.267070 0.137390
O O2 0.645136 0.276993 0.054876
O O3 0.588056 0.000000 0.025595
O O4 0.602746 0.271843 0.896425
O O5 0.358524 0.273743 0.342452
O O6 0.414977 0.000000 0.201385
O O7 0.766158 0.280755 0.414168
O O8 0.833942 0.200911 0.177645
O O9 0.923728 0.279707 0.237633
O O10 0.843572 0.000000 0.325075
O O11 0.368729 0.729936 0.531634
O O12 0.317177 0.000000 0.487002
O O13 0.628992 0.275506 0.270593
O O14 0.764943 0.253505 0.068055
O O15 0.672959 0.000000 0.131866
O O16 0.500000 0.726962 0.500000
O O17 0.414269 0.000000 0.587370
O O18 0.167110 0.500000 0.902474
O O19 0.085075 0.737008 0.067801
O O20 0.998879 0.000000 0.119317
O O21 0.000000 0.728153 0.000000
#
# Coordination Sequence:
#
# PCOD9141740 Si02
#       8
#     4   4   4   4   4   4   4   4
#     4   8  14  23  37  59  88 116 138 173 217 249
#     4   8  13  22  36  61  91 110 135 177 220 246
#     4   9  16  28  43  62  85 113 142 170 208 254
#     4   9  14  21  36  58  85 112 137 169 205 245
#     4  10  17  27  42  60  86 115 144 172 206 251
#     4   9  15  21  34  58  83 108 140 171 198 237
#     4  11  20  28  40  60  86 113 142 174 210 249
#     4   8  15  27  43  59  81 110 140 170 207 254
#
# _framework density 17.903320999999998
#
# number of rings (size 3 to 8) (size 9 to 14) (size 15 to 20)
#    0.000    3.000    1.250    3.375    0.000    5.250 
#    0.000    0.000    0.000    0.375    0.000    3.500 
#    0.000    7.000    0.000    0.000    0.000    0.000 
#
# Total GULP energy -178314.542452 kJ/mol
# GULP energy per Si atom -5572.329452 kJ/mol
# Density = 1.786257 g / cm^3
# Si number density = 17.903321 Si / 1000 Ang^3
#
#
#
# Elastic Constant Matrix: (Units=GPa)
#
#
# Indices 1 2 3 4 5 6 
#
# 1 161.8153 0.9000 94.0106 0.0000 -26.2209 0.0000
# 2 0.9000 40.1925 2.7985 0.0000 -0.4133 0.0000
# 3 94.0106 2.7985 113.8058 0.0000 -20.4098 0.0000
# 4 0.0000 0.0000 0.0000 -16.6708 0.0000 16.0059
# 5 -26.2209 -0.4133 -20.4098 0.0000 26.8260 0.0000
# 6 0.0000 0.0000 0.0000 16.0059 0.0000 -42.3414
#
#
#
# Elastic Compliance Matrix: (Units=1/GPa)
#
#
# Indices 1 2 3 4 5 6 
#
# 1 0.012449 0.000427 -0.009392 0.000000 0.005029 0.000000
# 2 0.000427 0.024938 -0.000952 0.000000 0.000077 0.000000
# 3 -0.009392 -0.000952 0.017277 0.000000 0.003950 0.000000
# 4 0.000000 0.000000 0.000000 -0.094160 0.000000 -0.035594
# 5 0.005029 0.000077 0.003950 0.000000 0.045199 0.000000
# 6 0.000000 0.000000 0.000000 -0.035594 0.000000 -0.037073
#
#
# Mechanical properties :
#
#
# Convention : Reuss Voigt Hill
#
# Bulk Modulus (GPa) = 28.71146 56.80353 42.75749
# Shear Modulus (GPa) = 66021.58369 8.10306 33014.84337
#
# Velocity S-wave (km/s) = 192.24147 2.12975 135.94359
# Velocity P-wave (km/s) = 222.01752 6.15180 157.05035
#
# Compressibility (1/GPa) = 0.03482930
#
# Stress axis : x y z
#
# Youngs Moduli (GPa) = 80.32677 40.09976 57.87926
#
# Poissons Ratio (x) = -0.01712 0.54362
# Poissons Ratio (y) = -0.03429 0.05510
# Poissons Ratio (z) = 0.75446 0.03818
#
# Static dielectric constant tensor:
#      x y z
#    x 1.622380 0.000000 -0.030430 
#    y 0.000000 1.655250 0.000000 
#    z -0.030430 0.000000 1.603270 
# 
# From -- ./inp_files/54783.got.cif
#   From: 2010.05.17/outbox.cif.g08.bks.cpg/sg10_28_cif.got.tgz:54783.got - 2010.06.03 11:33:40.
