data_PCOD9141743
_publ_section_title
;
Structure prediction by ZEFSAII (Michael W. Deem and Ramdas Pophale) SiO2 
 PCOD9141743
Probable space group: P 2/M
;
_chemical_formula_sum "Si O2"
_cell_formula_units_Z 27
_cell_length_a 8.877827
_cell_length_b 30.136730
_cell_length_c 5.272523
_cell_angle_alpha 90.000000
_cell_angle_beta 59.661872
_cell_angle_gamma 90.000000
_cell_volume 1217.480697
_symmetry_space_group_name_H-M "P 2/M"
_symmetry_group_IT_number 10
_symmetry_cell_setting 'monoclinic'
loop_
_space_group_symop_operation_xyz
x,y,z
-x,y,-z
-x,-y,-z
x,-y,z
loop_
_atom_site_type_symbol
_atom_site_label
_atom_site_fract_x
_atom_site_fract_y
_atom_site_fract_z
Si Si1 0.379721 0.000000 0.847403
Si Si2 0.000000 0.500000 0.500000
Si Si3 0.195504 0.273741 0.745267
Si Si4 0.288942 0.901056 0.911173
Si Si5 0.787077 0.627406 0.178325
Si Si6 0.693978 0.574943 0.762623
Si Si7 0.689349 0.234865 0.851485
Si Si8 0.689580 0.863420 0.616468
O O1 0.500000 0.000000 0.500000
O O2 0.278007 0.953850 0.908803
O O3 0.500000 0.000000 0.000000
O O4 0.154000 0.538452 0.348988
O O5 0.274838 0.322231 0.721249
O O6 0.197304 0.261074 0.449263
O O7 0.267439 0.237454 0.887090
O O8 0.000000 0.278243 0.000000
O O9 0.495461 0.885769 0.756347
O O10 0.224154 0.873690 0.725443
O O11 0.209749 0.887256 0.243995
O O12 0.710912 0.596590 0.468166
O O13 0.731189 0.611309 0.948673
O O14 0.000000 0.624794 0.000000
O O15 0.500000 0.557857 0.000000
O O16 0.675609 0.186561 0.730252
O O17 0.500000 0.256261 0.000000
#
# Coordination Sequence:
#
# PCOD9141743 Si02
#       8
#     2   1   4   4   4   4   4   4
#     4  12  16  24  38  64  94 160 202 234 294 404
#     4  12  26  50  72 112 152 186 230 274 352 400
#     4  11  26  43  65  90 130 170 215 265 333 383
#     4  10  17  27  42  65 109 153 195 241 312 394
#     4  11  23  48  70  95 133 185 219 276 347 396
#     4  12  26  44  76 106 143 184 232 279 332 403
#     4  12  23  37  62  91 120 161 216 268 314 384
#     4  10  18  29  45  69 107 147 193 237 322 367
#
# _framework density 22.176942
#
# number of rings (size 3 to 8) (size 9 to 14) (size 15 to 20)
#    0.000    0.889    5.926    3.333    2.074    7.111 
#    0.000    1.481    0.000    0.000    0.000    0.000 
#    0.000    0.000    0.000   77.333    0.000    0.148 
#
# Total GULP energy -150313.461592 kJ/mol
# GULP energy per Si atom -5567.165244 kJ/mol
# Density = 2.212647 g / cm^3
# Si number density = 22.176942 Si / 1000 Ang^3
#
#
#
# Elastic Constant Matrix: (Units=GPa)
#
#
# Indices 1 2 3 4 5 6 
#
# 1 56.1570 6.8358 33.2216 0.0000 0.4771 0.0000
# 2 6.8358 105.7706 17.2446 0.0000 -2.0405 0.0000
# 3 33.2216 17.2446 117.6207 0.0000 16.4208 0.0000
# 4 0.0000 0.0000 0.0000 -49.4186 0.0000 -35.2695
# 5 0.4771 -2.0405 16.4208 0.0000 54.7171 0.0000
# 6 0.0000 0.0000 0.0000 -35.2695 0.0000 -15.0406
#
#
#
# Elastic Compliance Matrix: (Units=1/GPa)
#
#
# Indices 1 2 3 4 5 6 
#
# 1 0.021543 -0.000338 -0.006270 0.000000 0.001681 0.000000
# 2 -0.000338 0.009727 -0.001442 0.000000 0.000798 0.000000
# 3 -0.006270 -0.001442 0.010943 0.000000 -0.003283 0.000000
# 4 0.000000 0.000000 0.000000 0.030042 0.000000 -0.070448
# 5 0.001681 0.000798 -0.003283 0.000000 0.019276 0.000000
# 6 0.000000 0.000000 0.000000 -0.070448 0.000000 0.098709
#
#
# Mechanical properties :
#
#
# Convention : Reuss Voigt Hill
#
# Bulk Modulus (GPa) = 38.29509 43.79471 41.04490
# Shear Modulus (GPa) = 23.25102 12.86798 18.05950
#
# Velocity S-wave (km/s) = 3.24146 2.41143 2.85675
# Velocity P-wave (km/s) = 5.59597 5.24825 5.42490
#
# Compressibility (1/GPa) = 0.02611301
#
# Stress axis : x y z
#
# Youngs Moduli (GPa) = 46.41818 102.80903 91.38559
#
# Poissons Ratio (x) = 0.03471 0.57299
# Poissons Ratio (y) = 0.01567 0.13179
# Poissons Ratio (z) = 0.29104 0.14827
#
# Static dielectric constant tensor:
#      x y z
#    x 1.821280 0.000000 0.115350 
#    y 0.000000 2.380940 0.000000 
#    z 0.115350 0.000000 1.823310 
# 
# From -- ./inp_files/5446.got.cif
#   From: 2010.05.17/outbox.cif.g08.bks.cpg/sg10_3_cif.got.tgz:5446.got - 2010.06.03 11:33:40.
