data_PCOD9141562
_publ_section_title
;
Structure prediction by ZEFSAII (Michael W. Deem and Ramdas Pophale) SiO2 
 PCOD9141562
Probable space group: P 2/M
;
_chemical_formula_sum "Si O2"
_cell_formula_units_Z 24
_cell_length_a 17.371299
_cell_length_b 7.780046
_cell_length_c 10.617147
_cell_angle_alpha 90.000000
_cell_angle_beta 114.968662
_cell_angle_gamma 90.000000
_cell_volume 1300.794491
_symmetry_space_group_name_H-M "P 2/M"
_symmetry_group_IT_number 10
_symmetry_cell_setting 'monoclinic'
loop_
_space_group_symop_operation_xyz
x,y,z
-x,y,-z
-x,-y,-z
x,-y,z
loop_
_atom_site_type_symbol
_atom_site_label
_atom_site_fract_x
_atom_site_fract_y
_atom_site_fract_z
Si Si1 0.275999 0.210382 0.566033
Si Si2 0.906989 0.805636 0.589236
Si Si3 0.541214 0.789584 0.397896
Si Si4 0.442914 0.210143 0.080056
Si Si5 0.912399 0.305492 0.311960
Si Si6 0.733528 0.207159 0.147197
O O1 0.185943 0.270444 0.446901
O O2 0.361308 0.264501 0.554952
O O3 0.281126 0.261029 0.716997
O O4 0.273137 0.000000 0.563133
O O5 0.907856 0.806601 0.436135
O O6 0.995984 0.720332 0.687492
O O7 0.909728 0.000000 0.638043
O O8 0.500000 0.733026 0.500000
O O9 0.485984 0.734166 0.239375
O O10 0.541450 0.000000 0.397665
O O11 0.443028 0.000000 0.080658
O O12 0.500000 0.262252 0.000000
O O13 0.346167 0.266327 0.990082
O O14 0.908140 0.500000 0.355237
O O15 0.827721 0.267402 0.175490
O O16 0.733726 0.000000 0.145909
#
# Coordination Sequence:
#
# PCOD9141562 Si02
#       6
#     4   4   4   4   4   4
#     4   8  13  21  34  54  78 108 138 165 199 245
#     4   9  15  24  38  55  79 112 144 168 201 254
#     4   9  15  22  34  58  89 111 132 172 217 246
#     4   9  14  22  38  58  80 111 146 171 199 251
#     4  10  17  24  35  56  85 109 133 173 220 251
#     4   9  15  24  39  57  80 111 145 170 198 248
#
# _framework density 18.450264000000001
#
# number of rings (size 3 to 8) (size 9 to 14) (size 15 to 20)
#    0.000    3.000    1.667    4.000    0.000    0.000 
#    0.000    0.000    0.000    0.500    0.000    1.167 
#    0.000   33.333    0.000    0.000    0.000    0.000 
#
# Total GULP energy -133636.901510 kJ/mol
# GULP energy per Si atom -5568.204230 kJ/mol
# Density = 1.840827 g / cm^3
# Si number density = 18.450264 Si / 1000 Ang^3
#
#
#
# Elastic Constant Matrix: (Units=GPa)
#
#
# Indices 1 2 3 4 5 6 
#
# 1 169.4529 9.6196 91.1162 0.0000 47.0043 0.0000
# 2 9.6196 32.7503 5.4373 0.0000 3.3520 0.0000
# 3 91.1162 5.4373 91.0175 0.0000 25.0300 0.0000
# 4 0.0000 0.0000 0.0000 -13.0228 0.0000 -4.0250
# 5 47.0043 3.3520 25.0300 0.0000 39.1829 0.0000
# 6 0.0000 0.0000 0.0000 -4.0250 0.0000 -21.1368
#
#
#
# Elastic Compliance Matrix: (Units=1/GPa)
#
#
# Indices 1 2 3 4 5 6 
#
# 1 0.015857 -0.001430 -0.012849 0.000000 -0.010693 0.000000
# 2 -0.001430 0.031071 -0.000200 0.000000 -0.000814 0.000000
# 3 -0.012849 -0.000200 0.023799 0.000000 0.000228 0.000000
# 4 0.000000 0.000000 0.000000 -0.081590 0.000000 0.015537
# 5 -0.010693 -0.000814 0.000228 0.000000 0.038272 0.000000
# 6 0.000000 0.000000 0.000000 0.015537 0.000000 -0.050270
#
#
# Mechanical properties :
#
#
# Convention : Reuss Voigt Hill
#
# Bulk Modulus (GPa) = 23.94157 56.17412 40.05784
# Shear Modulus (GPa) = 249.73954 13.47449 131.60701
#
# Velocity S-wave (km/s) = 11.64698 2.70536 8.45491
# Velocity P-wave (km/s) = 13.92386 6.34594 10.82000
#
# Compressibility (1/GPa) = 0.04176836
#
# Stress axis : x y z
#
# Youngs Moduli (GPa) = 63.06216 32.18458 42.01896
#
# Poissons Ratio (x) = 0.04603 0.53989
# Poissons Ratio (y) = 0.09019 0.00842
# Poissons Ratio (z) = 0.81026 0.00645
#
# Static dielectric constant tensor:
#      x y z
#    x 1.669340 0.000000 0.056960 
#    y 0.000000 1.647900 0.000000 
#    z 0.056960 0.000000 1.615980 
# 
# From -- ./inp_files/48887.got.cif
#   From: 2010.05.17/outbox.cif.g08.bks.cpg/sg10_25_cif.got.tgz:48887.got - 2010.06.03 11:33:40.
