data_PCOD9141810
_publ_section_title
;
Structure prediction by ZEFSAII (Michael W. Deem and Ramdas Pophale) SiO2 
 PCOD9141810
Probable space group: P 2/M
;
_chemical_formula_sum "Si O2"
_cell_formula_units_Z 32
_cell_length_a 27.911588
_cell_length_b 7.634143
_cell_length_c 19.205103
_cell_angle_alpha 90.000000
_cell_angle_beta 156.912173
_cell_angle_gamma 90.000000
_cell_volume 1604.739291
_symmetry_space_group_name_H-M "P 2/M"
_symmetry_group_IT_number 10
_symmetry_cell_setting 'monoclinic'
loop_
_space_group_symop_operation_xyz
x,y,z
-x,y,-z
-x,-y,-z
x,-y,z
loop_
_atom_site_type_symbol
_atom_site_label
_atom_site_fract_x
_atom_site_fract_y
_atom_site_fract_z
Si Si1 0.551067 0.798837 0.490963
Si Si2 0.178585 0.304353 0.156845
Si Si3 0.901233 0.207365 0.104381
Si Si4 0.238570 0.290974 0.384164
Si Si5 0.568946 0.785006 0.161633
Si Si6 0.166731 0.792577 0.443785
Si Si7 0.681450 0.785460 0.906914
Si Si8 0.512242 0.210529 0.796186
O O1 0.500000 0.806136 0.500000
O O2 0.674388 0.691837 0.653101
O O3 0.437729 0.732075 0.295756
O O4 0.580344 0.000000 0.508691
O O5 0.125603 0.500000 0.087970
O O6 0.169944 0.222460 0.222930
O O7 0.134889 0.223859 0.025578
O O8 0.037134 0.282668 0.294016
O O9 0.906760 0.000000 0.125392
O O10 0.800078 0.277804 0.023357
O O11 0.228193 0.500000 0.367352
O O12 0.181586 0.228067 0.380390
O O13 0.384213 0.250710 0.584778
O O14 0.709470 0.724479 0.355549
O O15 0.504766 0.726988 0.147581
O O16 0.569613 0.000000 0.163027
O O17 0.500000 0.729001 0.000000
O O18 0.164365 0.000000 0.454692
O O19 0.636297 0.730604 0.923372
O O20 0.686524 0.000000 0.912598
O O21 0.517375 0.000000 0.805097
#
# Coordination Sequence:
#
# PCOD9141810 Si02
#       8
#     4   4   4   4   4   4   4   4
#     4  10  17  28  45  63  86 122 163 203 240 266
#     4  11  22  31  42  65  94 126 161 199 245 279
#     4  10  20  34  48  64  89 125 168 201 227 267
#     4  10  20  32  46  65  94 125 154 199 244 273
#     4   8  14  27  50  78  99 114 141 186 236 280
#     4   9  19  34  52  70  89 121 160 192 227 282
#     4   9  16  27  46  68  90 120 158 199 231 262
#     4   9  16  28  49  73  94 121 156 188 227 279
#
# _framework density 19.940933999999999
#
# number of rings (size 3 to 8) (size 9 to 14) (size 15 to 20)
#    0.000    2.500    2.500    1.500    0.000    2.750 
#    0.000    3.125    0.000    6.750    0.000    5.250 
#    0.000    0.000    0.000   10.125    0.000   11.250 
#
# Total GULP energy -178297.847972 kJ/mol
# GULP energy per Si atom -5571.807749 kJ/mol
# Density = 1.989555 g / cm^3
# Si number density = 19.940934 Si / 1000 Ang^3
#
#
#
# Elastic Constant Matrix: (Units=GPa)
#
#
# Indices 1 2 3 4 5 6 
#
# 1 114.5054 -1.5592 90.7776 0.0000 -0.3028 0.0000
# 2 -1.5592 39.7215 4.6262 0.0000 -1.7388 0.0000
# 3 90.7776 4.6262 116.7961 0.0000 13.4339 0.0000
# 4 0.0000 0.0000 0.0000 -13.1196 0.0000 7.4045
# 5 -0.3028 -1.7388 13.4339 0.0000 25.5016 0.0000
# 6 0.0000 0.0000 0.0000 7.4045 0.0000 -22.5876
#
#
#
# Elastic Compliance Matrix: (Units=1/GPa)
#
#
# Indices 1 2 3 4 5 6 
#
# 1 0.026204 0.004114 -0.021926 0.000000 0.012142 0.000000
# 2 0.004114 0.026076 -0.004727 0.000000 0.004317 0.000000
# 3 -0.021926 -0.004727 0.027525 0.000000 -0.015083 0.000000
# 4 0.000000 0.000000 0.000000 -0.093525 0.000000 -0.030659
# 5 0.012142 0.004317 -0.015083 0.000000 0.047597 0.000000
# 6 0.000000 0.000000 0.000000 -0.030659 0.000000 -0.054322
#
#
# Mechanical properties :
#
#
# Convention : Reuss Voigt Hill
#
# Bulk Modulus (GPa) = 28.79543 50.96803 39.88173
# Shear Modulus (GPa) = 138.08775 9.77077 73.92926
#
# Velocity S-wave (km/s) = 8.33059 2.21596 6.09546
# Velocity P-wave (km/s) = 10.34424 5.67118 8.34163
#
# Compressibility (1/GPa) = 0.03472773
#
# Stress axis : x y z
#
# Youngs Moduli (GPa) = 38.16249 38.34908 36.32999
#
# Poissons Ratio (x) = -0.15776 0.79657
# Poissons Ratio (y) = -0.15699 0.17172
# Poissons Ratio (z) = 0.83675 0.18126
#
# Static dielectric constant tensor:
#      x y z
#    x 1.765760 0.000000 0.020580 
#    y 0.000000 1.780990 0.000000 
#    z 0.020580 0.000000 1.694420 
# 
# From -- ./inp_files/87223.got.cif
#   From: 2010.05.17/outbox.cif.g08.bks.cpg/sg10_44_cif.got.tgz:87223.got - 2010.06.03 11:33:40.
