data_PCOD9141210
_publ_section_title
;
Structure prediction by ZEFSAII (Michael W. Deem and Ramdas Pophale) SiO2 
 PCOD9141210
Probable space group: C C
;
_chemical_formula_sum "Si O2"
_cell_formula_units_Z 12
_cell_length_a 15.000000
_cell_length_b 9.000000
_cell_length_c 9.000000
_cell_angle_alpha 90.000000
_cell_angle_beta 80.000000
_cell_angle_gamma 90.000000
_cell_volume 1196.541420
_symmetry_space_group_name_H-M "C C"
_symmetry_group_IT_number 9
_symmetry_cell_setting 'monoclinic'
loop_
_space_group_symop_operation_xyz
x,y,z
x,-y,1/2+z
1/2+x,1/2+y,z
1/2+x,1/2-y,1/2+z
loop_
_atom_site_type_symbol
_atom_site_label
_atom_site_fract_x
_atom_site_fract_y
_atom_site_fract_z
Si Si1 0.882380 0.385538 0.740000
Si Si2 0.579005 0.043071 0.638778
Si Si3 0.062080 0.871671 0.658957
Si Si4 0.161158 0.334859 0.818281
Si Si5 0.994616 0.135112 0.855721
Si Si6 0.764934 0.609830 0.977385
O O1 0.815691 0.483035 0.865433
O O2 0.829233 0.360027 0.600572
O O3 0.979223 0.470059 0.683553
O O4 0.914199 0.232875 0.810464
O O5 0.576113 0.205439 0.714014
O O6 0.605254 0.077179 0.461767
O O7 0.662047 0.949264 0.683516
O O8 0.998374 0.862764 0.532017
O O9 0.162620 0.924350 0.571587
O O10 0.008935 0.971461 0.790197
O O11 0.090479 0.210888 0.783037
O O12 0.243867 0.250237 0.873387
#
# Coordination Sequence:
#
# PCOD9141210 Si02
#       6
#     4   4   4   4   4   4
#     4  11  20  37  59  85 112 145 189 240 280 323
#     4   9  19  36  58  81 112 151 189 222 275 345
#     4  10  20  38  57  81 113 153 188 225 278 344
#     4   9  19  37  57  82 110 150 189 221 276 345
#     4   9  20  35  57  84 111 148 189 223 277 343
#     4  10  20  35  58  85 112 145 188 239 282 322
#
# _framework density 10.028905
#
# number of rings (size 3 to 8) (size 9 to 14) (size 15 to 20)
#    0.000    2.667    0.000    5.000    0.000    4.000 
#    0.000   10.000    0.000    8.000    0.000    0.000 
#    0.000    0.000    0.000    0.000    0.000    0.000 
#
# Total GULP energy -66835.162423 kJ/mol
# GULP energy per Si atom -5569.596869 kJ/mol
# Density = 1.000608 g / cm^3
# Si number density = 10.028905 Si / 1000 Ang^3
#
#
#
# Elastic Constant Matrix: (Units=GPa)
#
#
# Indices 1 2 3 4 5 6 
#
# 1 99.5583 14.1802 20.4071 0.0000 30.9872 0.0000
# 2 14.1802 44.2022 -0.2995 0.0000 26.0857 0.0000
# 3 20.4071 -0.2995 7.6829 0.0000 31.5680 0.0000
# 4 0.0000 0.0000 0.0000 31.1574 0.0000 6.8290
# 5 30.9872 26.0857 31.5680 0.0000 38.9936 0.0000
# 6 0.0000 0.0000 0.0000 6.8290 0.0000 35.4030
#
#
#
# Elastic Compliance Matrix: (Units=1/GPa)
#
#
# Indices 1 2 3 4 5 6 
#
# 1 0.013133 0.000236 -0.003721 0.000000 -0.007582 0.000000
# 2 0.000236 0.019082 -0.022928 0.000000 0.005609 0.000000
# 3 -0.003721 -0.022928 -0.027500 0.000000 0.040558 0.000000
# 4 0.000000 0.000000 0.000000 0.033512 0.000000 -0.006464
# 5 -0.007582 0.005609 0.040558 0.000000 -0.004916 0.000000
# 6 0.000000 0.000000 0.000000 -0.006464 0.000000 0.029493
#
#
# Mechanical properties :
#
#
# Convention : Reuss Voigt Hill
#
# Bulk Modulus (GPa) = -20.78556 24.44655 1.83050
# Shear Modulus (GPa) = 50.20388 28.92118 39.56253
#
# Velocity S-wave (km/s) = 5.00839 3.80134 4.44602
# Velocity P-wave (km/s) = 4.80207 5.61083 5.22213
#
# Compressibility (1/GPa) = -0.04811033
#
# Stress axis : x y z
#
# Youngs Moduli (GPa) = 76.14166 52.40449 -36.36372
#
# Poissons Ratio (x) = -0.01237 -0.13532
# Poissons Ratio (y) = -0.01798 -0.83375
# Poissons Ratio (z) = 0.28334 1.20153
#
# Static dielectric constant tensor:
#      x y z
#    x 1.688100 0.000000 0.004400 
#    y 0.000000 1.786110 0.000000 
#    z 0.004400 0.000000 1.717040 
# 
# From -- ./inp_files/8701.got.cif
#   From: 2010.05.17/outbox.ucp.g08.bks.cvg/sg9_5_cif.got.tgz:8701.got - 2010.06.11 13:03:20.
