data_PCOD9141689
_publ_section_title
;
Structure prediction by ZEFSAII (Michael W. Deem and Ramdas Pophale) SiO2 
 PCOD9141689
Probable space group: P 2/M
;
_chemical_formula_sum "Si O2"
_cell_formula_units_Z 32
_cell_length_a 12.012515
_cell_length_b 8.325337
_cell_length_c 18.774600
_cell_angle_alpha 90.000000
_cell_angle_beta 88.943881
_cell_angle_gamma 90.000000
_cell_volume 1877.295654
_symmetry_space_group_name_H-M "P 2/M"
_symmetry_group_IT_number 10
_symmetry_cell_setting 'monoclinic'
loop_
_space_group_symop_operation_xyz
x,y,z
-x,y,-z
-x,-y,-z
x,-y,z
loop_
_atom_site_type_symbol
_atom_site_label
_atom_site_fract_x
_atom_site_fract_y
_atom_site_fract_z
Si Si1 0.372500 0.805766 0.505794
Si Si2 0.643381 0.691440 0.218951
Si Si3 0.385204 0.303768 0.232490
Si Si4 0.001062 0.694451 0.583364
Si Si5 0.383123 0.813416 0.928930
Si Si6 0.767310 0.807902 0.355811
Si Si7 0.631383 0.312526 0.923670
Si Si8 0.758590 0.693648 0.631538
O O1 0.500000 0.751868 0.500000
O O2 0.314048 0.752299 0.579342
O O3 0.305042 0.743415 0.439086
O O4 0.370633 0.000000 0.504423
O O5 0.641096 0.500000 0.210366
O O6 0.515291 0.745581 0.237104
O O7 0.678250 0.768966 0.143203
O O8 0.723393 0.737157 0.282501
O O9 0.385466 0.500000 0.232247
O O10 0.337867 0.252947 0.155738
O O11 0.309919 0.247749 0.298931
O O12 0.004971 0.500000 0.583738
O O13 0.886257 0.747582 0.621889
O O14 0.000000 0.744998 0.500000
O O15 0.109159 0.758025 0.622448
O O16 0.497063 0.710447 0.925049
O O17 0.414144 0.000000 0.927586
O O18 0.327382 0.774579 0.005461
O O19 0.761010 0.000000 0.351515
O O20 0.658068 0.500000 0.929281
O O21 0.760142 0.500000 0.635146
#
# Coordination Sequence:
#
# PCOD9141689 Si02
#       8
#     4   4   4   4   4   4   4   4
#     4  10  21  34  47  68  98 128 156 191 241 294
#     4  10  19  32  49  70  99 129 161 198 242 289
#     4   8  16  29  47  72  98 127 160 200 240 282
#     4  10  20  35  53  72  92 121 163 209 246 283
#     4  10  17  26  42  67  98 130 164 194 233 283
#     4  11  22  34  50  70  95 126 161 201 245 290
#     4   9  15  26  43  65  96 131 166 196 233 280
#     4  10  19  33  52  71  93 123 164 204 240 280
#
# _framework density 17.045795999999999
#
# number of rings (size 3 to 8) (size 9 to 14) (size 15 to 20)
#    0.000    2.250    1.250    4.500    0.000    1.500 
#    0.000    3.125    0.000    0.000    0.000    0.875 
#    0.000    7.000    0.000    0.000    0.000    0.000 
#
# Total GULP energy -178415.549014 kJ/mol
# GULP energy per Si atom -5575.485907 kJ/mol
# Density = 1.700700 g / cm^3
# Si number density = 17.045796 Si / 1000 Ang^3
#
#
#
# Elastic Constant Matrix: (Units=GPa)
#
#
# Indices 1 2 3 4 5 6 
#
# 1 84.5929 11.9930 43.9490 0.0000 18.3888 0.0000
# 2 11.9930 19.5636 17.1588 0.0000 2.8156 0.0000
# 3 43.9490 17.1588 149.6229 0.0000 26.0867 0.0000
# 4 0.0000 0.0000 0.0000 124.8275 0.0000 60.8797
# 5 18.3888 2.8156 26.0867 0.0000 6.5543 0.0000
# 6 0.0000 0.0000 0.0000 60.8797 0.0000 31.7557
#
#
#
# Elastic Compliance Matrix: (Units=1/GPa)
#
#
# Indices 1 2 3 4 5 6 
#
# 1 0.092715 -0.041632 0.064611 0.000000 -0.499399 0.000000
# 2 -0.041632 0.075575 -0.036406 0.000000 0.229236 0.000000
# 3 0.064611 -0.036406 0.067824 0.000000 -0.435582 0.000000
# 4 0.000000 0.000000 0.000000 0.123254 0.000000 -0.236293
# 5 -0.499399 0.229236 -0.435582 0.000000 3.188891 0.000000
# 6 0.000000 0.000000 0.000000 -0.236293 0.000000 0.484495
#
#
# Mechanical properties :
#
#
# Convention : Reuss Voigt Hill
#
# Bulk Modulus (GPa) = 4.77871 44.44235 24.61053
# Shear Modulus (GPa) = 1.21084 44.67271 22.94178
#
# Velocity S-wave (km/s) = 0.84373 5.12488 3.67262
# Velocity P-wave (km/s) = 1.93874 7.81972 5.69679
#
# Compressibility (1/GPa) = 0.20926151
#
# Stress axis : x y z
#
# Youngs Moduli (GPa) = 10.78573 13.23180 14.74409
#
# Poissons Ratio (x) = 0.55086 -0.95263
# Poissons Ratio (y) = 0.44903 0.53677
# Poissons Ratio (z) = -0.69688 0.48171
#
# Static dielectric constant tensor:
#      x y z
#    x 1.550210 0.000000 -0.016280 
#    y 0.000000 1.584650 0.000000 
#    z -0.016280 0.000000 1.610750 
# 
# From -- ./inp_files/75981.got.cif
#   From: 2010.05.17/outbox.cif.g08.bks.cpg/sg10_38_cif.got.tgz:75981.got - 2010.06.03 11:33:40.
