data_PCOD9141536
_publ_section_title
;
Structure prediction by ZEFSAII (Michael W. Deem and Ramdas Pophale) SiO2 
 PCOD9141536
Probable space group: P 2/M
;
_chemical_formula_sum "Si O2"
_cell_formula_units_Z 21
_cell_length_a 9.026057
_cell_length_b 24.019623
_cell_length_c 5.248950
_cell_angle_alpha 90.000000
_cell_angle_beta 74.095477
_cell_angle_gamma 90.000000
_cell_volume 1094.422965
_symmetry_space_group_name_H-M "P 2/M"
_symmetry_group_IT_number 10
_symmetry_cell_setting 'monoclinic'
loop_
_space_group_symop_operation_xyz
x,y,z
-x,y,-z
-x,-y,-z
x,-y,z
loop_
_atom_site_type_symbol
_atom_site_label
_atom_site_fract_x
_atom_site_fract_y
_atom_site_fract_z
Si Si1 0.341244 0.586119 0.913933
Si Si2 0.896918 0.500000 0.796818
Si Si3 0.182870 0.182133 0.917878
Si Si4 0.393173 0.000000 0.300006
Si Si5 0.183795 0.890507 0.417940
Si Si6 0.393530 0.290012 0.800621
Si Si7 0.500000 0.500000 0.500000
O O1 0.311163 0.649928 0.862280
O O2 0.378375 0.548472 0.652434
O O3 0.500000 0.582783 0.000000
O O4 0.212114 0.554204 0.134638
O O5 0.000000 0.500000 0.500000
O O6 0.000000 0.500000 0.000000
O O7 0.217728 0.141900 0.663570
O O8 0.277296 0.238698 0.848311
O O9 0.217800 0.149835 0.163451
O O10 0.000000 0.193695 0.000000
O O11 0.500000 0.000000 0.500000
O O12 0.284656 0.054244 0.351836
O O13 0.500000 0.000000 0.000000
O O14 0.000000 0.903286 0.500000
O O15 0.500000 0.290624 0.500000
O O16 0.500000 0.284149 0.000000
#
# Coordination Sequence:
#
# PCOD9141536 Si02
#       7
#     4   2   4   2   4   4   1
#     4  10  23  39  64  85 120 163 205 242 304 377
#     4  11  26  39  60  90 121 151 194 254 309 352
#     4  10  22  40  63  87 123 164 205 248 307 361
#     4  12  25  38  61  96 128 154 204 264 315 340
#     4  10  22  42  63  86 120 171 207 241 299 379
#     4  11  23  39  61  93 119 155 205 252 303 363
#     4  10  16  36  64  80 110 156 204 240 284 360
#
# _framework density 19.188193999999999
#
# number of rings (size 3 to 8) (size 9 to 14) (size 15 to 20)
#    0.000    1.524    0.952    3.714    5.333    5.333 
#    0.000    6.667    0.000    0.000    0.000    0.000 
#    0.000    0.000    0.000    0.000    0.000    0.000 
#
# Total GULP energy -117141.068890 kJ/mol
# GULP energy per Si atom -5578.146138 kJ/mol
# Density = 1.914452 g / cm^3
# Si number density = 19.188194 Si / 1000 Ang^3
#
#
#
# Elastic Constant Matrix: (Units=GPa)
#
#
# Indices 1 2 3 4 5 6 
#
# 1 57.0831 72.8167 53.6221 0.0000 -14.2356 0.0000
# 2 72.8167 198.5869 84.1645 0.0000 -39.3594 0.0000
# 3 53.6221 84.1645 178.8836 0.0000 -18.3886 0.0000
# 4 0.0000 0.0000 0.0000 -43.8860 0.0000 -58.1226
# 5 -14.2356 -39.3594 -18.3886 0.0000 29.7556 0.0000
# 6 0.0000 0.0000 0.0000 -58.1226 0.0000 -78.3688
#
#
#
# Elastic Compliance Matrix: (Units=1/GPa)
#
#
# Indices 1 2 3 4 5 6 
#
# 1 0.037375 -0.011341 -0.005950 0.000000 -0.000797 0.000000
# 2 -0.011341 0.011432 -0.001049 0.000000 0.009048 0.000000
# 3 -0.005950 -0.001049 0.007936 0.000000 0.000670 0.000000
# 4 0.000000 0.000000 0.000000 -1.283394 0.000000 0.951835
# 5 -0.000797 0.009048 0.000670 0.000000 0.045608 0.000000
# 6 0.000000 0.000000 0.000000 0.951835 0.000000 -0.718692
#
#
# Mechanical properties :
#
#
# Convention : Reuss Voigt Hill
#
# Bulk Modulus (GPa) = 49.84065 95.08449 72.46257
# Shear Modulus (GPa) = -2.69343 -3.56984 -3.13163
#
# Velocity S-wave (km/s) = -1.18606 -1.36546 -1.27891
# Velocity P-wave (km/s) = 4.91481 6.86842 5.97204
#
# Compressibility (1/GPa) = 0.02006395
#
# Stress axis : x y z
#
# Youngs Moduli (GPa) = 26.75566 87.47502 126.00543
#
# Poissons Ratio (x) = 0.99206 0.74968
# Poissons Ratio (y) = 0.30344 0.13218
# Poissons Ratio (z) = 0.15919 0.09176
#
# Static dielectric constant tensor:
#      x y z
#    x 1.674620 0.000000 0.030130 
#    y 0.000000 1.630000 0.000000 
#    z 0.030130 0.000000 1.685180 
# 
# From -- ./inp_files/4719.got.cif
#   From: 2010.05.17/outbox.cif.g08.bks.cpg/sg10_3_cif.got.tgz:4719.got - 2010.06.03 11:33:40.
