data_PCOD9141733
_publ_section_title
;
Structure prediction by ZEFSAII (Michael W. Deem and Ramdas Pophale) SiO2 
 PCOD9141733
Probable space group: P 2/M
;
_chemical_formula_sum "Si O2"
_cell_formula_units_Z 32
_cell_length_a 26.164795
_cell_length_b 8.926012
_cell_length_c 17.238743
_cell_angle_alpha 90.000000
_cell_angle_beta 157.969350
_cell_angle_gamma 90.000000
_cell_volume 1510.185834
_symmetry_space_group_name_H-M "P 2/M"
_symmetry_group_IT_number 10
_symmetry_cell_setting 'monoclinic'
loop_
_space_group_symop_operation_xyz
x,y,z
-x,y,-z
-x,-y,-z
x,-y,z
loop_
_atom_site_type_symbol
_atom_site_label
_atom_site_fract_x
_atom_site_fract_y
_atom_site_fract_z
Si Si1 0.241550 0.270496 0.999047
Si Si2 0.771558 0.824111 0.472331
Si Si3 0.262699 0.319890 0.194511
Si Si4 0.929715 0.333185 0.560171
Si Si5 0.974586 0.324531 0.876412
Si Si6 0.447339 0.331208 0.593204
Si Si7 0.780970 0.320042 0.197929
Si Si8 0.527245 0.678741 0.199191
O O1 0.215968 0.216042 0.874216
O O2 0.091308 0.339406 0.800713
O O3 0.266382 0.218290 0.122529
O O4 0.390932 0.340343 0.193732
O O5 0.854639 0.775556 0.513248
O O6 0.859317 0.762506 0.668053
O O7 0.622330 0.752145 0.269278
O O8 0.760118 0.000000 0.459999
O O9 0.288448 0.500000 0.210540
O O10 0.371429 0.267483 0.411747
O O11 0.115222 0.313843 0.026739
O O12 0.873836 0.500000 0.495879
O O13 0.895238 0.295306 0.422902
O O14 0.935164 0.500000 0.824305
O O15 0.000000 0.272763 0.000000
O O16 0.390818 0.500000 0.518817
O O17 0.430252 0.263108 0.654587
O O18 0.788900 0.500000 0.185484
O O19 0.634731 0.297843 0.033212
O O20 0.548230 0.500000 0.227732
#
# Coordination Sequence:
#
# PCOD9141733 Si02
#       8
#     4   4   4   4   4   4   4   4
#     4  11  18  29  52  86 122 148 182 234 290 343
#     4  12  25  39  57  82 115 153 195 240 287 339
#     4  10  17  26  46  82 120 150 178 220 278 334
#     4  11  21  36  58  85 116 150 189 235 293 348
#     4  10  20  36  59  87 117 153 195 235 280 335
#     4   9  17  28  49  84 121 150 179 225 281 340
#     4   9  19  33  56  87 114 144 186 243 299 345
#     4   9  18  37  59  81 112 149 191 239 291 343
#
# _framework density 21.189444000000002
#
# number of rings (size 3 to 8) (size 9 to 14) (size 15 to 20)
#    0.000    1.875    1.250    5.625    0.000    4.750 
#    0.000    3.125    0.000    4.500    0.000    0.875 
#    0.000    0.000    0.000    0.000    0.000    0.000 
#
# Total GULP energy -178179.787483 kJ/mol
# GULP energy per Si atom -5568.118359 kJ/mol
# Density = 2.114122 g / cm^3
# Si number density = 21.189444 Si / 1000 Ang^3
#
#
#
# Elastic Constant Matrix: (Units=GPa)
#
#
# Indices 1 2 3 4 5 6 
#
# 1 67.9423 13.3159 17.2512 0.0000 19.8073 0.0000
# 2 13.3159 24.8897 11.4809 0.0000 4.4401 0.0000
# 3 17.2512 11.4809 92.6877 0.0000 -4.2286 0.0000
# 4 0.0000 0.0000 0.0000 -10.6036 0.0000 1.2067
# 5 19.8073 4.4401 -4.2286 0.0000 33.5774 0.0000
# 6 0.0000 0.0000 0.0000 1.2067 0.0000 -8.7359
#
#
#
# Elastic Compliance Matrix: (Units=1/GPa)
#
#
# Indices 1 2 3 4 5 6 
#
# 1 0.020355 -0.007269 -0.003412 0.000000 -0.011476 0.000000
# 2 -0.007269 0.046591 -0.004530 0.000000 -0.002444 0.000000
# 3 -0.003412 -0.004530 0.012174 0.000000 0.004145 0.000000
# 4 0.000000 0.000000 0.000000 -0.095813 0.000000 -0.013235
# 5 -0.011476 -0.002444 0.004145 0.000000 0.037397 0.000000
# 6 0.000000 0.000000 0.000000 -0.013235 0.000000 -0.116298
#
#
# Mechanical properties :
#
#
# Convention : Reuss Voigt Hill
#
# Bulk Modulus (GPa) = 20.53396 29.95731 25.24563
# Shear Modulus (GPa) = -102.16448 12.41235 -44.87607
#
# Velocity S-wave (km/s) = -6.95122 2.42291 -4.60700
# Velocity P-wave (km/s) = 7.39691 4.68998 4.04465
#
# Compressibility (1/GPa) = 0.04869981
#
# Stress axis : x y z
#
# Youngs Moduli (GPa) = 49.12851 21.46316 82.14176
#
# Poissons Ratio (x) = 0.15601 0.28024
# Poissons Ratio (y) = 0.35711 0.37208
# Poissons Ratio (z) = 0.16761 0.09722
#
# Static dielectric constant tensor:
#      x y z
#    x 1.796950 0.000000 -0.024880 
#    y 0.000000 1.739660 0.000000 
#    z -0.024880 0.000000 1.766820 
# 
# From -- ./inp_files/80549.got.cif
#   From: 2010.05.17/outbox.cif.g08.bks.cpg/sg10_41_cif.got.tgz:80549.got - 2010.06.03 11:33:40.
