data_PCOD9141551
_publ_section_title
;
Structure prediction by ZEFSAII (Michael W. Deem and Ramdas Pophale) SiO2 
 PCOD9141551
Probable space group: P 2/M
;
_chemical_formula_sum "Si O2"
_cell_formula_units_Z 28
_cell_length_a 23.233605
_cell_length_b 8.758869
_cell_length_c 12.616713
_cell_angle_alpha 90.000000
_cell_angle_beta 135.305145
_cell_angle_gamma 90.000000
_cell_volume 1805.803695
_symmetry_space_group_name_H-M "P 2/M"
_symmetry_group_IT_number 10
_symmetry_cell_setting 'monoclinic'
loop_
_space_group_symop_operation_xyz
x,y,z
-x,y,-z
-x,-y,-z
x,-y,z
loop_
_atom_site_type_symbol
_atom_site_label
_atom_site_fract_x
_atom_site_fract_y
_atom_site_fract_z
Si Si1 0.989365 0.684455 0.158159
Si Si2 0.289346 0.316242 0.501432
Si Si3 0.957152 0.817641 0.552206
Si Si4 0.131283 0.685444 0.178437
Si Si5 0.551180 0.818163 0.215464
Si Si6 0.220310 0.317605 0.646856
Si Si7 0.605637 0.316919 0.058567
O O1 0.989683 0.500000 0.165178
O O2 0.998298 0.751874 0.285785
O O3 0.068207 0.728841 0.189741
O O4 0.910081 0.732869 0.986091
O O5 0.299899 0.500000 0.510943
O O6 0.222673 0.265743 0.327471
O O7 0.377950 0.238582 0.613067
O O8 0.248277 0.282268 0.562638
O O9 0.863034 0.764866 0.433631
O O10 0.000000 0.764591 0.500000
O O11 0.960585 0.000000 0.560473
O O12 0.132018 0.500000 0.179450
O O13 0.580333 0.749831 0.140286
O O14 0.548838 0.000000 0.207135
O O15 0.459531 0.752664 0.108522
O O16 0.206860 0.500000 0.632884
O O17 0.298091 0.280654 0.823531
O O18 0.596967 0.500000 0.050338
#
# Coordination Sequence:
#
# PCOD9141551 Si02
#       7
#     4   4   4   4   4   4   4
#     4   9  16  30  49  66  82 108 147 185 219 258
#     4   9  15  26  42  61  86 114 141 171 212 258
#     4  11  23  34  43  60  89 120 148 182 223 261
#     4   8  14  26  47  68  86 108 141 183 221 258
#     4  10  17  23  34  57  85 113 142 170 203 247
#     4   9  17  29  46  62  77 107 150 185 216 255
#     4   9  16  27  40  54  76 108 143 177 214 254
#
# _framework density 15.505561999999999
#
# number of rings (size 3 to 8) (size 9 to 14) (size 15 to 20)
#    0.000    2.714    1.429    4.714    0.000    4.000 
#    0.000    2.143    0.000    0.000    0.000    0.000 
#    0.000    1.143    0.000   12.857    0.000    6.714 
#
# Total GULP energy -155881.820056 kJ/mol
# GULP energy per Si atom -5567.207859 kJ/mol
# Density = 1.547027 g / cm^3
# Si number density = 15.505562 Si / 1000 Ang^3
#
#
#
# Elastic Constant Matrix: (Units=GPa)
#
#
# Indices 1 2 3 4 5 6 
#
# 1 42.0711 22.4093 51.8259 0.0000 -0.5536 0.0000
# 2 22.4093 39.4842 43.8403 0.0000 8.2345 0.0000
# 3 51.8259 43.8403 166.4499 0.0000 23.9311 0.0000
# 4 0.0000 0.0000 0.0000 5.0892 0.0000 0.4689
# 5 -0.5536 8.2345 23.9311 0.0000 20.5668 0.0000
# 6 0.0000 0.0000 0.0000 0.4689 0.0000 15.6634
#
#
#
# Elastic Compliance Matrix: (Units=1/GPa)
#
#
# Indices 1 2 3 4 5 6 
#
# 1 0.053120 -0.018515 -0.015533 0.000000 0.026917 0.000000
# 2 -0.018515 0.042529 -0.003503 0.000000 -0.013451 0.000000
# 3 -0.015533 -0.003503 0.013961 0.000000 -0.015260 0.000000
# 4 0.000000 0.000000 0.000000 0.197038 0.000000 -0.005898
# 5 0.026917 -0.013451 -0.015260 0.000000 0.072488 0.000000
# 6 0.000000 0.000000 0.000000 -0.005898 0.000000 0.064020
#
#
# Mechanical properties :
#
#
# Convention : Reuss Voigt Hill
#
# Bulk Modulus (GPa) = 28.97863 53.79514 41.38688
# Shear Modulus (GPa) = 9.43823 16.92585 13.18204
#
# Velocity S-wave (km/s) = 2.46986 3.30752 2.91889
# Velocity P-wave (km/s) = 5.18299 7.02536 6.17329
#
# Compressibility (1/GPa) = 0.03450819
#
# Stress axis : x y z
#
# Youngs Moduli (GPa) = 18.82528 23.51314 71.62988
#
# Poissons Ratio (x) = 0.43536 1.11261
# Poissons Ratio (y) = 0.34856 0.25090
# Poissons Ratio (z) = 0.29241 0.08236
#
# Static dielectric constant tensor:
#      x y z
#    x 1.486010 0.000000 0.032810 
#    y 0.000000 1.515960 0.000000 
#    z 0.032810 0.000000 1.574690 
# 
# From -- ./inp_files/54964.got.cif
#   From: 2010.05.17/outbox.cif.g08.bks.cpg/sg10_28_cif.got.tgz:54964.got - 2010.06.03 11:33:40.
