data_PCOD9141240
_publ_section_title
;
Structure prediction by ZEFSAII (Michael W. Deem and Ramdas Pophale) SiO2 
 PCOD9141240
Probable space group: C C
;
_chemical_formula_sum "Si O2"
_cell_formula_units_Z 16
_cell_length_a 12.000000
_cell_length_b 9.000000
_cell_length_c 15.000000
_cell_angle_alpha 90.000000
_cell_angle_beta 70.000000
_cell_angle_gamma 90.000000
_cell_volume 1522.302046
_symmetry_space_group_name_H-M "C C"
_symmetry_group_IT_number 9
_symmetry_cell_setting 'monoclinic'
loop_
_space_group_symop_operation_xyz
x,y,z
x,-y,1/2+z
1/2+x,1/2+y,z
1/2+x,1/2-y,1/2+z
loop_
_atom_site_type_symbol
_atom_site_label
_atom_site_fract_x
_atom_site_fract_y
_atom_site_fract_z
Si Si1 0.467810 0.416175 0.592880
Si Si2 0.841060 0.385003 0.121603
Si Si3 0.618004 0.376132 0.926155
Si Si4 0.572334 0.521956 0.745427
Si Si5 0.760388 0.157105 0.656160
Si Si6 0.982641 0.577878 0.767691
Si Si7 0.872672 0.729034 0.306228
Si Si8 0.399371 0.165492 0.983302
O O1 0.408858 0.265351 0.572665
O O2 0.569550 0.490477 0.502574
O O3 0.527255 0.417845 0.675674
O O4 0.349898 0.518171 0.631814
O O5 0.696726 0.398139 0.178019
O O6 0.902882 0.401415 0.201617
O O7 0.879723 0.511585 0.040859
O O8 0.600293 0.434434 0.829279
O O9 0.753748 0.314810 0.896109
O O10 0.524014 0.245360 0.975010
O O11 0.457263 0.627072 0.796663
O O12 0.622166 0.119081 0.714051
O O13 0.815669 0.255006 0.722187
O O14 0.790894 0.235977 0.553160
O O15 0.966960 0.402909 0.789387
O O16 0.917622 0.651064 0.871736
#
# Coordination Sequence:
#
# PCOD9141240 Si02
#       8
#     4   4   4   4   4   4   4   4
#     4  10  26  43  69 101 141 182 233 295 348 420
#     4  12  26  45  67 110 140 183 244 292 354 432
#     4  11  23  48  68 104 140 184 239 285 358 429
#     4  11  25  46  73  98 146 184 235 296 348 420
#     4  10  22  49  67 102 143 185 236 289 354 426
#     4  12  24  42  76  99 146 185 231 296 353 419
#     4  11  23  45  72 103 140 188 229 299 352 411
#     4  11  25  44  74 103 144 191 233 292 365 419
#
# _framework density 10.510398
#
# number of rings (size 3 to 8) (size 9 to 14) (size 15 to 20)
#    0.000    1.000    3.750    1.500    5.250    0.000 
#    4.500    0.000    0.000    0.000    0.000    0.000 
#    0.000    0.000    0.000    0.000    0.000    0.000 
#
# Total GULP energy -89277.285077 kJ/mol
# GULP energy per Si atom -5579.830317 kJ/mol
# Density = 1.048648 g / cm^3
# Si number density = 10.510398 Si / 1000 Ang^3
#
#
#
# Elastic Constant Matrix: (Units=GPa)
#
#
# Indices 1 2 3 4 5 6 
#
# 1 145.7017 41.6208 52.5151 0.0000 -35.1621 0.0000
# 2 41.6208 93.6862 31.8076 0.0000 -24.5409 0.0000
# 3 52.5151 31.8076 130.4600 0.0000 -30.6820 0.0000
# 4 0.0000 0.0000 0.0000 34.1585 0.0000 -7.4094
# 5 -35.1621 -24.5409 -30.6820 0.0000 50.9208 0.0000
# 6 0.0000 0.0000 0.0000 -7.4094 0.0000 42.8060
#
#
#
# Elastic Compliance Matrix: (Units=1/GPa)
#
#
# Indices 1 2 3 4 5 6 
#
# 1 0.009289 -0.002333 -0.002244 0.000000 0.003938 0.000000
# 2 -0.002333 0.013201 -0.001354 0.000000 0.003935 0.000000
# 3 -0.002244 -0.001354 0.009764 0.000000 0.003681 0.000000
# 4 0.000000 0.000000 0.000000 0.030417 0.000000 0.005265
# 5 0.003938 0.003935 0.003681 0.000000 0.026472 0.000000
# 6 0.000000 0.000000 0.000000 0.005265 0.000000 0.024273
#
#
# Mechanical properties :
#
#
# Convention : Reuss Voigt Hill
#
# Bulk Modulus (GPa) = 49.03972 69.08166 59.06069
# Shear Modulus (GPa) = 37.85690 41.83733 39.84712
#
# Velocity S-wave (km/s) = 4.24834 4.46610 4.35858
# Velocity P-wave (km/s) = 6.88798 7.71554 7.31347
#
# Compressibility (1/GPa) = 0.02039163
#
# Stress axis : x y z
#
# Youngs Moduli (GPa) = 107.65423 75.75197 102.41245
#
# Poissons Ratio (x) = 0.17675 0.22984
# Poissons Ratio (y) = 0.25119 0.13865
# Poissons Ratio (z) = 0.24160 0.10255
#
# Static dielectric constant tensor:
#      x y z
#    x 1.720780 0.000000 0.027480 
#    y 0.000000 1.874600 0.000000 
#    z 0.027480 0.000000 1.778640 
# 
# From -- ./inp_files/24202.got.cif
#   From: 2010.05.17/outbox.ucp.g08.bks.cvg/sg9_13_cif.got.tgz:24202.got - 2010.06.11 13:03:20.
