data_PCOD9141732
_publ_section_title
;
Structure prediction by ZEFSAII (Michael W. Deem and Ramdas Pophale) SiO2 
 PCOD9141732
Probable space group: P 2/M
;
_chemical_formula_sum "Si O2"
_cell_formula_units_Z 32
_cell_length_a 16.196595
_cell_length_b 7.620458
_cell_length_c 15.362470
_cell_angle_alpha 90.000000
_cell_angle_beta 61.201854
_cell_angle_gamma 90.000000
_cell_volume 1661.612276
_symmetry_space_group_name_H-M "P 2/M"
_symmetry_group_IT_number 10
_symmetry_cell_setting 'monoclinic'
loop_
_space_group_symop_operation_xyz
x,y,z
-x,y,-z
-x,-y,-z
x,-y,z
loop_
_atom_site_type_symbol
_atom_site_label
_atom_site_fract_x
_atom_site_fract_y
_atom_site_fract_z
Si Si1 0.763804 0.702472 0.098428
Si Si2 0.225230 0.209435 0.358627
Si Si3 0.397305 0.710627 0.152113
Si Si4 0.930965 0.786610 0.696900
Si Si5 0.386569 0.284964 0.962836
Si Si6 0.937664 0.787241 0.891544
Si Si7 0.148549 0.785742 0.577489
Si Si8 0.149830 0.207079 0.769798
O O1 0.739657 0.500000 0.120866
O O2 0.685462 0.780839 0.073514
O O3 0.778095 0.771432 0.188333
O O4 0.863173 0.719525 0.998295
O O5 0.325943 0.239828 0.263983
O O6 0.145085 0.278799 0.333378
O O7 0.208634 0.276799 0.464711
O O8 0.211381 0.000000 0.369351
O O9 0.399922 0.500000 0.147007
O O10 0.505377 0.768165 0.109449
O O11 0.363151 0.771824 0.073651
O O12 0.909814 0.735166 0.807193
O O13 0.038549 0.737134 0.620937
O O14 0.929300 0.000000 0.696848
O O15 0.383196 0.500000 0.964595
O O16 0.045510 0.725782 0.848866
O O17 0.935440 0.000000 0.899006
O O18 0.176470 0.724661 0.660357
O O19 0.152714 0.000000 0.575355
O O20 0.135522 0.000000 0.765323
#
# Coordination Sequence:
#
# PCOD9141732 Si02
#       8
#     4   4   4   4   4   4   4   4
#     4  11  20  29  45  68  89 111 147 191 227 255
#     4  10  17  26  46  74  95 111 143 189 225 252
#     4   9  17  33  52  66  87 119 147 171 215 277
#     4   8  14  25  43  67  93 121 150 177 209 256
#     4   8  17  33  50  66  87 118 149 175 212 272
#     4   9  17  29  44  64  92 123 151 176 209 262
#     4   8  15  28  45  64  90 124 154 178 210 257
#     4   9  18  32  46  61  87 125 159 179 206 257
#
# _framework density 19.258403000000001
#
# number of rings (size 3 to 8) (size 9 to 14) (size 15 to 20)
#    0.000    3.000    0.000    4.125    0.000    3.500 
#    0.000    3.750    0.000    3.750    0.000    5.250 
#    0.000    0.000    0.000    0.000    0.000    0.000 
#
# Total GULP energy -178443.699299 kJ/mol
# GULP energy per Si atom -5576.365603 kJ/mol
# Density = 1.921457 g / cm^3
# Si number density = 19.258403 Si / 1000 Ang^3
#
#
#
# Elastic Constant Matrix: (Units=GPa)
#
#
# Indices 1 2 3 4 5 6 
#
# 1 101.1884 1.7458 64.5046 0.0000 27.6825 0.0000
# 2 1.7458 30.2634 -3.7271 0.0000 2.9198 0.0000
# 3 64.5046 -3.7271 141.9474 0.0000 12.2141 0.0000
# 4 0.0000 0.0000 0.0000 13.1454 0.0000 -3.9701
# 5 27.6825 2.9198 12.2141 0.0000 18.0585 0.0000
# 6 0.0000 0.0000 0.0000 -3.9701 0.0000 12.8198
#
#
#
# Elastic Compliance Matrix: (Units=1/GPa)
#
#
# Indices 1 2 3 4 5 6 
#
# 1 0.023226 0.000611 -0.007928 0.000000 -0.030341 0.000000
# 2 0.000611 0.033859 0.001235 0.000000 -0.007247 0.000000
# 3 -0.007928 0.001235 0.010248 0.000000 0.005022 0.000000
# 4 0.000000 0.000000 0.000000 0.083921 0.000000 0.025990
# 5 -0.030341 -0.007247 0.005022 0.000000 0.099662 0.000000
# 6 0.000000 0.000000 0.000000 0.025990 0.000000 0.086053
#
#
# Mechanical properties :
#
#
# Convention : Reuss Voigt Hill
#
# Bulk Modulus (GPa) = 18.12592 44.27175 31.19884
# Shear Modulus (GPa) = 13.60459 22.86314 18.23386
#
# Velocity S-wave (km/s) = 2.66075 3.44928 3.08035
# Velocity P-wave (km/s) = 4.34417 6.23711 5.37463
#
# Compressibility (1/GPa) = 0.05516961
#
# Stress axis : x y z
#
# Youngs Moduli (GPa) = 43.05462 29.53405 97.58209
#
# Poissons Ratio (x) = -0.01805 0.77362
# Poissons Ratio (y) = -0.02631 -0.12050
# Poissons Ratio (z) = 0.34133 -0.03647
#
# Static dielectric constant tensor:
#      x y z
#    x 1.680460 0.000000 0.026010 
#    y 0.000000 1.731820 0.000000 
#    z 0.026010 0.000000 1.670150 
# 
# From -- ./inp_files/66544.got.cif
#   From: 2010.05.17/outbox.cif.g08.bks.cpg/sg10_34_cif.got.tgz:66544.got - 2010.06.03 11:33:40.
