data_PCOD9141228
_publ_section_title
;
Structure prediction by ZEFSAII (Michael W. Deem and Ramdas Pophale) SiO2 
 PCOD9141228
Probable space group: C C
;
_chemical_formula_sum "Si O2"
_cell_formula_units_Z 16
_cell_length_a 15.000000
_cell_length_b 12.000000
_cell_length_c 9.000000
_cell_angle_alpha 90.000000
_cell_angle_beta 120.000000
_cell_angle_gamma 90.000000
_cell_volume 1402.961154
_symmetry_space_group_name_H-M "C C"
_symmetry_group_IT_number 9
_symmetry_cell_setting 'monoclinic'
loop_
_space_group_symop_operation_xyz
x,y,z
x,-y,1/2+z
1/2+x,1/2+y,z
1/2+x,1/2-y,1/2+z
loop_
_atom_site_type_symbol
_atom_site_label
_atom_site_fract_x
_atom_site_fract_y
_atom_site_fract_z
Si Si1 0.701000 0.722404 0.507890
Si Si2 0.214290 0.553935 0.427637
Si Si3 0.866373 0.547469 0.120110
Si Si4 0.224798 0.039483 0.279523
Si Si5 0.554549 0.387713 0.116414
Si Si6 0.543755 0.127297 0.708179
Si Si7 0.844724 0.896560 0.755255
Si Si8 0.036817 0.716425 0.370657
O O1 0.730135 0.642409 0.396822
O O2 0.652277 0.666037 0.612195
O O3 0.602999 0.795629 0.374139
O O4 0.804351 0.789992 0.631626
O O5 0.132240 0.470354 0.276704
O O6 0.294728 0.495714 0.610440
O O7 0.280429 0.603432 0.352062
O O8 0.144089 0.650104 0.438937
O O9 0.772413 0.557415 0.158042
O O10 0.941729 0.438227 0.178908
O O11 0.944247 0.646085 0.220770
O O12 0.807254 0.547973 0.915922
O O13 0.104622 0.008184 0.185367
O O14 0.538007 0.325872 0.262726
O O15 0.460621 0.395357 0.918897
O O16 0.522715 0.198246 0.538847
#
# Coordination Sequence:
#
# PCOD9141228 Si02
#       8
#     4   4   4   4   4   4   4   4
#     4  11  27  47  72 101 151 188 249 301 370 443
#     4  10  21  44  72 101 142 182 248 302 359 431
#     4  11  25  43  77 102 144 188 249 305 377 431
#     4  12  27  49  67 105 150 195 234 316 372 440
#     4  12  29  43  73 105 150 190 245 301 376 446
#     4  10  23  44  73 109 134 189 250 311 357 443
#     4  11  25  46  72 105 143 197 237 302 373 442
#     4  11  23  42  72 110 136 187 248 306 356 444
#
# _framework density 11.404450000000001
#
# number of rings (size 3 to 8) (size 9 to 14) (size 15 to 20)
#    0.000    1.000    5.000    0.000    8.750    0.000 
#    0.000    0.000    0.000    0.000    0.000    0.000 
#    0.000    0.000    0.000    0.000    0.000    0.000 
#
# Total GULP energy -89209.100957 kJ/mol
# GULP energy per Si atom -5575.568810 kJ/mol
# Density = 1.137849 g / cm^3
# Si number density = 11.404450 Si / 1000 Ang^3
#
#
#
# Elastic Constant Matrix: (Units=GPa)
#
#
# Indices 1 2 3 4 5 6 
#
# 1 59.4186 39.7916 11.7895 0.0000 11.8285 0.0000
# 2 39.7916 52.6381 29.8819 0.0000 13.1422 0.0000
# 3 11.7895 29.8819 104.3255 0.0000 38.6801 0.0000
# 4 0.0000 0.0000 0.0000 35.2574 0.0000 -2.3434
# 5 11.8285 13.1422 38.6801 0.0000 56.2984 0.0000
# 6 0.0000 0.0000 0.0000 -2.3434 0.0000 26.2560
#
#
#
# Elastic Compliance Matrix: (Units=1/GPa)
#
#
# Indices 1 2 3 4 5 6 
#
# 1 0.036748 -0.030122 0.006348 0.000000 -0.005050 0.000000
# 2 -0.030122 0.047429 -0.011302 0.000000 0.003022 0.000000
# 3 0.006348 -0.011302 0.015594 0.000000 -0.009409 0.000000
# 4 0.000000 0.000000 0.000000 0.028532 0.000000 0.002547
# 5 -0.005050 0.003022 -0.009409 0.000000 0.024583 0.000000
# 6 0.000000 0.000000 0.000000 0.002547 0.000000 0.038314
#
#
# Mechanical properties :
#
#
# Convention : Reuss Voigt Hill
#
# Bulk Modulus (GPa) = 33.76178 42.14534 37.95356
# Shear Modulus (GPa) = 18.43493 32.55699 25.49596
#
# Velocity S-wave (km/s) = 2.84603 3.78217 3.34699
# Velocity P-wave (km/s) = 5.06300 6.13113 5.62249
#
# Compressibility (1/GPa) = 0.02961929
#
# Stress axis : x y z
#
# Youngs Moduli (GPa) = 27.21257 21.08396 64.12824
#
# Poissons Ratio (x) = 0.63509 -0.40705
# Poissons Ratio (y) = 0.81969 0.72475
# Poissons Ratio (z) = -0.17273 0.23828
#
# Static dielectric constant tensor:
#      x y z
#    x 1.824490 0.000000 0.015480 
#    y 0.000000 2.015450 0.000000 
#    z 0.015480 0.000000 1.842480 
# 
# From -- ./inp_files/9326.got.cif
#   From: 2010.05.17/outbox.ucp.g08.bks.cvg/sg9_5_cif.got.tgz:9326.got - 2010.06.11 13:03:20.
