data_PCOD9141192
_publ_section_title
;
Structure prediction by ZEFSAII (Michael W. Deem and Ramdas Pophale) SiO2 
 PCOD9141192
Probable space group: C C
;
_chemical_formula_sum "Si O2"
_cell_formula_units_Z 12
_cell_length_a 7.311856
_cell_length_b 7.342346
_cell_length_c 9.572557
_cell_angle_alpha 90.000000
_cell_angle_beta 112.364834
_cell_angle_gamma 90.000000
_cell_volume 475.257246
_symmetry_space_group_name_H-M "C C"
_symmetry_group_IT_number 9
_symmetry_cell_setting 'monoclinic'
loop_
_space_group_symop_operation_xyz
x,y,z
x,-y,1/2+z
1/2+x,1/2+y,z
1/2+x,1/2-y,1/2+z
loop_
_atom_site_type_symbol
_atom_site_label
_atom_site_fract_x
_atom_site_fract_y
_atom_site_fract_z
Si Si1 0.216010 0.883097 0.452790
Si Si2 0.280453 0.693463 0.931744
Si Si3 0.136241 0.389819 0.692966
O O1 0.232794 0.764792 0.317358
O O2 0.405479 0.847803 0.604162
O O3 0.011365 0.828168 0.464776
O O4 0.219188 0.096408 0.417768
O O5 0.164948 0.577531 0.782654
O O6 0.231956 0.608908 0.068472
#
# Coordination Sequence:
#
# PCOD9141192 Si02
#       3
#     4   4   4
#     4  12  32  54  92 130 180 236 298 372 450 534
#     4  12  32  54  92 130 180 236 298 372 450 534
#     4  12  32  56  84 136 176 234 308 368 452 536
#
# _framework density 25.249483999999999
#
# number of rings (size 3 to 8) (size 9 to 14) (size 15 to 20)
#    0.000    0.000    0.000    4.000   28.000    0.000 
#    0.000    0.000    0.000    0.000    0.000    0.000 
#    0.000    0.000    0.000    0.000    0.000    0.000 
#
# Total GULP energy -33776.459849 kJ/mol
# GULP energy per Si atom -5629.409975 kJ/mol
# Density = 2.519202 g / cm^3
# Si number density = 25.249484 Si / 1000 Ang^3
#
#
#
# Elastic Constant Matrix: (Units=GPa)
#
#
# Indices 1 2 3 4 5 6 
#
# 1 126.7739 -14.3575 19.9124 0.0000 -11.7372 0.0000
# 2 -14.3575 160.3668 46.1465 0.0000 -14.8524 0.0000
# 3 19.9124 46.1465 127.0730 0.0000 12.8045 0.0000
# 4 0.0000 0.0000 0.0000 47.6375 0.0000 5.9678
# 5 -11.7372 -14.8524 12.8045 0.0000 48.3025 0.0000
# 6 0.0000 0.0000 0.0000 5.9678 0.0000 31.5629
#
#
#
# Elastic Compliance Matrix: (Units=1/GPa)
#
#
# Indices 1 2 3 4 5 6 
#
# 1 0.008761 0.001764 -0.002345 0.000000 0.003293 0.000000
# 2 0.001764 0.007734 -0.003460 0.000000 0.003724 0.000000
# 3 -0.002345 -0.003460 0.009923 0.000000 -0.004265 0.000000
# 4 0.000000 0.000000 0.000000 0.021501 0.000000 -0.004065
# 5 0.003293 0.003724 -0.004265 0.000000 0.023779 0.000000
# 6 0.000000 0.000000 0.000000 -0.004065 0.000000 0.032451
#
#
# Mechanical properties :
#
#
# Convention : Reuss Voigt Hill
#
# Bulk Modulus (GPa) = 54.53835 57.51293 56.02564
# Shear Modulus (GPa) = 42.24926 49.66807 45.95867
#
# Velocity S-wave (km/s) = 4.09500 4.44000 4.27099
# Velocity P-wave (km/s) = 6.63366 7.00801 6.82340
#
# Compressibility (1/GPa) = 0.01833572
#
# Stress axis : x y z
#
# Youngs Moduli (GPa) = 114.14023 129.29345 100.77190
#
# Poissons Ratio (x) = -0.22811 0.23635
# Poissons Ratio (y) = -0.20137 0.34872
# Poissons Ratio (z) = 0.26770 0.44741
#
# Static dielectric constant tensor:
#      x y z
#    x 1.968970 0.000000 0.002920 
#    y 0.000000 1.954560 0.000000 
#    z 0.002920 0.000000 1.931780 
# 
# From -- ./inp_files/4572.got.cif
#   From: 2010.05.17/outbox.cif.g08.bks.cpg/sg9_3_cif.got.tgz:4572.got - 2010.06.03 20:04:27.
