data_PCOD9141763
_publ_section_title
;
Structure prediction by ZEFSAII (Michael W. Deem and Ramdas Pophale) SiO2 
 PCOD9141763
Probable space group: P 2/M
;
_chemical_formula_sum "Si O2"
_cell_formula_units_Z 32
_cell_length_a 31.963512
_cell_length_b 7.407554
_cell_length_c 22.275935
_cell_angle_alpha 90.000000
_cell_angle_beta 19.453947
_cell_angle_gamma 90.000000
_cell_volume 1756.602497
_symmetry_space_group_name_H-M "P 2/M"
_symmetry_group_IT_number 10
_symmetry_cell_setting 'monoclinic'
loop_
_space_group_symop_operation_xyz
x,y,z
-x,y,-z
-x,-y,-z
x,-y,z
loop_
_atom_site_type_symbol
_atom_site_label
_atom_site_fract_x
_atom_site_fract_y
_atom_site_fract_z
Si Si1 0.955664 0.720977 0.206722
Si Si2 0.719563 0.279023 0.442823
Si Si3 0.028283 0.720311 0.557475
Si Si4 0.585429 0.784441 0.829157
Si Si5 0.118374 0.712940 0.563604
Si Si6 0.878142 0.714835 0.121858
Si Si7 0.199801 0.279691 0.214437
Si Si8 0.482337 0.712957 0.835694
O O1 0.957783 0.500000 0.204090
O O2 0.829889 0.771280 0.340220
O O3 0.940800 0.785280 0.294731
O O4 0.075421 0.782918 0.005546
O O5 0.718469 0.500000 0.443402
O O6 0.762643 0.217082 0.318325
O O7 0.588135 0.214727 0.647398
O O8 0.029732 0.500000 0.556299
O O9 0.063385 0.786345 0.575925
O O10 0.132781 0.774907 0.367217
O O11 0.893470 0.774473 0.713061
O O12 0.730785 0.730295 0.638513
O O13 0.530619 0.730392 0.838687
O O14 0.582243 0.000000 0.835570
O O15 0.500000 0.715790 0.000000
O O16 0.090586 0.500000 0.601105
O O17 0.858802 0.500000 0.141198
O O18 0.000000 0.737435 0.000000
O O19 0.201796 0.500000 0.212166
O O20 0.342006 0.213660 0.018680
O O21 0.473994 0.500000 0.834344
#
# Coordination Sequence:
#
# PCOD9141763 Si02
#       8
#     4   4   4   4   4   4   4   4
#     4   8  12  19  32  55  81 101 126 160 193 231
#     4   8  12  19  32  55  81 101 126 160 193 231
#     4   8  14  24  38  58  81 101 126 167 213 242
#     4  11  23  33  39  54  85 116 134 155 199 253
#     4  10  17  27  45  64  79 101 138 175 198 227
#     4   7  10  16  28  48  79 107 121 148 195 232
#     4   8  14  24  38  58  81 101 126 167 213 242
#     4  10  17  27  45  64  79 101 138 175 198 227
#
# _framework density 18.216984
#
# number of rings (size 3 to 8) (size 9 to 14) (size 15 to 20)
#    0.000    3.250    1.250    3.375    0.000    2.000 
#    0.000    0.000    0.000    0.750    0.000    6.125 
#    0.000    7.000    0.000    0.000    0.000    2.500 
#
# Total GULP energy -178330.144526 kJ/mol
# GULP energy per Si atom -5572.817016 kJ/mol
# Density = 1.817552 g / cm^3
# Si number density = 18.216984 Si / 1000 Ang^3
#
#
#
# Elastic Constant Matrix: (Units=GPa)
#
#
# Indices 1 2 3 4 5 6 
#
# 1 145.9458 1.4082 107.6223 0.0000 20.6080 0.0000
# 2 1.4082 56.4134 4.0562 0.0000 3.3305 0.0000
# 3 107.6223 4.0562 180.4247 0.0000 22.6809 0.0000
# 4 0.0000 0.0000 0.0000 -25.8168 0.0000 2.6564
# 5 20.6080 3.3305 22.6809 0.0000 29.9928 0.0000
# 6 0.0000 0.0000 0.0000 2.6564 0.0000 -27.9484
#
#
#
# Elastic Compliance Matrix: (Units=1/GPa)
#
#
# Indices 1 2 3 4 5 6 
#
# 1 0.012524 0.000390 -0.007063 0.000000 -0.003307 0.000000
# 2 0.000390 0.017860 -0.000388 0.000000 -0.001958 0.000000
# 3 -0.007063 -0.000388 0.010110 0.000000 -0.002749 0.000000
# 4 0.000000 0.000000 0.000000 -0.039117 0.000000 -0.003718
# 5 -0.003307 -0.001958 -0.002749 0.000000 0.037910 0.000000
# 6 0.000000 0.000000 0.000000 -0.003718 0.000000 -0.036134
#
#
# Mechanical properties :
#
#
# Convention : Reuss Voigt Hill
#
# Bulk Modulus (GPa) = 37.91997 67.66193 52.79095
# Shear Modulus (GPa) = 191.82416 13.22535 102.52476
#
# Velocity S-wave (km/s) = 10.27269 2.69734 7.51012
# Velocity P-wave (km/s) = 12.71083 6.85009 10.21002
#
# Compressibility (1/GPa) = 0.02637133
#
# Stress axis : x y z
#
# Youngs Moduli (GPa) = 79.84903 55.99094 98.91180
#
# Poissons Ratio (x) = -0.02186 0.69865
# Poissons Ratio (y) = -0.03118 0.03841
# Poissons Ratio (z) = 0.56400 0.02174
#
# Static dielectric constant tensor:
#      x y z
#    x 1.622090 0.000000 0.029080 
#    y 0.000000 1.671100 0.000000 
#    z 0.029080 0.000000 1.645150 
# 
# From -- ./inp_files/87171.got.cif
#   From: 2010.05.17/outbox.cif.g08.bks.cpg/sg10_44_cif.got.tgz:87171.got - 2010.06.03 11:33:40.
