data_PCOD9141790
_publ_section_title
;
Structure prediction by ZEFSAII (Michael W. Deem and Ramdas Pophale) SiO2 
 PCOD9141790
Probable space group: P 2/M
;
_chemical_formula_sum "Si O2"
_cell_formula_units_Z 32
_cell_length_a 14.991137
_cell_length_b 18.357321
_cell_length_c 21.021043
_cell_angle_alpha 90.000000
_cell_angle_beta 162.402115
_cell_angle_gamma 90.000000
_cell_volume 1748.985215
_symmetry_space_group_name_H-M "P 2/M"
_symmetry_group_IT_number 10
_symmetry_cell_setting 'monoclinic'
loop_
_space_group_symop_operation_xyz
x,y,z
-x,y,-z
-x,-y,-z
x,-y,z
loop_
_atom_site_type_symbol
_atom_site_label
_atom_site_fract_x
_atom_site_fract_y
_atom_site_fract_z
Si Si1 0.571967 0.815602 0.116518
Si Si2 0.262945 0.778737 0.591092
Si Si3 0.700508 0.585738 0.548196
Si Si4 0.688153 0.679955 0.802737
Si Si5 0.650850 0.917241 0.281867
Si Si6 0.837733 0.581751 0.253864
Si Si7 0.604196 0.678756 0.195413
Si Si8 0.848915 0.586627 0.037053
O O1 0.504693 0.875536 0.123342
O O2 0.424484 0.736706 0.029420
O O3 0.916428 0.792877 0.348225
O O4 0.500000 0.846797 0.000000
O O5 0.437294 0.735104 0.656084
O O6 0.388065 0.860125 0.687550
O O7 0.310587 0.732080 0.688378
O O8 0.617205 0.500000 0.494166
O O9 0.436051 0.634535 0.341505
O O10 0.946190 0.593307 0.658740
O O11 0.854312 0.604382 0.720248
O O12 0.772813 0.625554 0.918706
O O13 0.000000 0.717623 0.000000
O O14 0.000000 0.918436 0.500000
O O15 0.557624 0.000000 0.229093
O O16 0.897228 0.500000 0.318405
O O17 0.851301 0.639451 0.320218
O O18 0.500000 0.584724 0.000000
O O19 0.408630 0.614597 0.091074
O O20 0.842406 0.500000 0.024540
#
# Coordination Sequence:
#
# PCOD9141790 Si02
#       8
#     4   4   4   4   4   4   4   4
#     4  10  19  28  48  79 109 141 165 195 240 301
#     4   9  20  35  50  75 104 135 174 209 250 303
#     4  10  21  35  53  75 101 133 172 220 272 319
#     4  11  24  40  56  71  95 131 180 234 277 311
#     4   8  15  31  53  79 113 144 163 186 231 297
#     4  10  17  27  48  74 100 132 165 202 256 319
#     4  10  17  28  47  71 103 138 167 204 249 309
#     4  10  21  36  53  74  98 130 176 223 273 326
#
# _framework density 18.296323999999998
#
# number of rings (size 3 to 8) (size 9 to 14) (size 15 to 20)
#    0.000    2.250    1.250    3.000    1.750    2.750 
#    0.000    1.250    0.000    7.875    0.000    0.000 
#    0.000    1.000    0.000    0.000    0.000    0.000 
#
# Total GULP energy -178375.630134 kJ/mol
# GULP energy per Si atom -5574.238442 kJ/mol
# Density = 1.825468 g / cm^3
# Si number density = 18.296324 Si / 1000 Ang^3
#
#
#
# Elastic Constant Matrix: (Units=GPa)
#
#
# Indices 1 2 3 4 5 6 
#
# 1 46.9001 26.7539 8.0149 0.0000 -8.5948 0.0000
# 2 26.7539 108.9737 18.8495 0.0000 -10.8932 0.0000
# 3 8.0149 18.8495 48.8270 0.0000 -3.3046 0.0000
# 4 0.0000 0.0000 0.0000 9.7491 0.0000 -3.0802
# 5 -8.5948 -10.8932 -3.3046 0.0000 27.5046 0.0000
# 6 0.0000 0.0000 0.0000 -3.0802 0.0000 7.9237
#
#
#
# Elastic Compliance Matrix: (Units=1/GPa)
#
#
# Indices 1 2 3 4 5 6 
#
# 1 0.025775 -0.005459 -0.001739 0.000000 0.005683 0.000000
# 2 -0.005459 0.011328 -0.003316 0.000000 0.002382 0.000000
# 3 -0.001739 -0.003316 0.022100 0.000000 0.000799 0.000000
# 4 0.000000 0.000000 0.000000 0.116935 0.000000 0.045456
# 5 0.005683 0.002382 0.000799 0.000000 0.039173 0.000000
# 6 0.000000 0.000000 0.000000 0.045456 0.000000 0.143874
#
#
# Mechanical properties :
#
#
# Convention : Reuss Voigt Hill
#
# Bulk Modulus (GPa) = 26.19476 34.65970 30.42723
# Shear Modulus (GPa) = 12.72467 19.10765 15.91616
#
# Velocity S-wave (km/s) = 2.64005 3.23514 2.95262
# Velocity P-wave (km/s) = 4.86222 5.73929 5.31887
#
# Compressibility (1/GPa) = 0.03817558
#
# Stress axis : x y z
#
# Youngs Moduli (GPa) = 38.79792 88.27315 45.24868
#
# Poissons Ratio (x) = 0.48188 0.07868
# Poissons Ratio (y) = 0.21180 0.15004
# Poissons Ratio (z) = 0.06746 0.29271
#
# Static dielectric constant tensor:
#      x y z
#    x 1.669000 0.000000 -0.020050 
#    y 0.000000 1.632560 0.000000 
#    z -0.020050 0.000000 1.697470 
# 
# From -- ./inp_files/85505.got.cif
#   From: 2010.05.17/outbox.cif.g08.bks.cpg/sg10_43_cif.got.tgz:85505.got - 2010.06.03 11:33:40.
