data_PCOD9141135
_publ_section_title
;
Structure prediction by ZEFSAII (Michael W. Deem and Ramdas Pophale) SiO2 
 PCOD9141135
Probable space group: C C
;
_chemical_formula_sum "Si O2"
_cell_formula_units_Z 20
_cell_length_a 5.175828
_cell_length_b 31.276649
_cell_length_c 5.133465
_cell_angle_alpha 90.000000
_cell_angle_beta 86.854517
_cell_angle_gamma 90.000000
_cell_volume 829.766443
_symmetry_space_group_name_H-M "C C"
_symmetry_group_IT_number 9
_symmetry_cell_setting 'monoclinic'
loop_
_space_group_symop_operation_xyz
x,y,z
x,-y,1/2+z
1/2+x,1/2+y,z
1/2+x,1/2-y,1/2+z
loop_
_atom_site_type_symbol
_atom_site_label
_atom_site_fract_x
_atom_site_fract_y
_atom_site_fract_z
Si Si1 0.528890 0.791098 0.340540
Si Si2 0.019180 0.805565 0.678185
Si Si3 0.037922 0.584671 0.986419
Si Si4 0.658196 0.859567 0.974156
Si Si5 0.538955 0.471617 0.435435
O O1 0.790759 0.803097 0.476043
O O2 0.513060 0.740120 0.322471
O O3 0.530124 0.813990 0.059247
O O4 0.285467 0.808441 0.511591
O O5 0.944752 0.844613 0.870486
O O6 0.047331 0.613170 0.244344
O O7 0.126503 0.612618 0.734134
O O8 0.254712 0.547859 0.994063
O O9 0.756917 0.564315 0.963395
O O10 0.572499 0.508586 0.647940
#
# Coordination Sequence:
#
# PCOD9141135 Si02
#       5
#     4   4   4   4   4
#     4  12  27  46  73 104 148 207 262 309 363 429
#     4  12  27  46  73 104 148 207 262 309 363 429
#     4  12  28  47  78 116 149 190 239 310 380 427
#     4  12  28  49  73 114 158 192 254 318 363 431
#     4  12  26  52  81 110 147 190 239 292 373 478
#
# _framework density 24.103166999999999
#
# number of rings (size 3 to 8) (size 9 to 14) (size 15 to 20)
#    0.000    0.000    4.000    4.800    2.800    3.200 
#    0.000    0.000    0.000    0.000    0.000    0.000 
#    0.000    0.000    0.000    0.000    0.000    0.000 
#
# Total GULP energy -56114.018674 kJ/mol
# GULP energy per Si atom -5611.401867 kJ/mol
# Density = 2.404831 g / cm^3
# Si number density = 24.103167 Si / 1000 Ang^3
#
#
#
# Elastic Constant Matrix: (Units=GPa)
#
#
# Indices 1 2 3 4 5 6 
#
# 1 97.0371 -8.5865 22.6940 0.0000 -10.2166 0.0000
# 2 -8.5865 55.8072 10.0766 0.0000 7.6212 0.0000
# 3 22.6940 10.0766 114.1387 0.0000 -0.7804 0.0000
# 4 0.0000 0.0000 0.0000 69.1713 0.0000 -2.2503
# 5 -10.2166 7.6212 -0.7804 0.0000 36.4961 0.0000
# 6 0.0000 0.0000 0.0000 -2.2503 0.0000 49.8820
#
#
#
# Elastic Compliance Matrix: (Units=1/GPa)
#
#
# Indices 1 2 3 4 5 6 
#
# 1 0.011312 0.001798 -0.002389 0.000000 0.002740 0.000000
# 2 0.001798 0.019048 -0.002063 0.000000 -0.003519 0.000000
# 3 -0.002389 -0.002063 0.009418 0.000000 -0.000037 0.000000
# 4 0.000000 0.000000 0.000000 0.014478 0.000000 0.000653
# 5 0.002740 -0.003519 -0.000037 0.000000 0.028901 0.000000
# 6 0.000000 0.000000 0.000000 0.000653 0.000000 0.020077
#
#
# Mechanical properties :
#
#
# Convention : Reuss Voigt Hill
#
# Bulk Modulus (GPa) = 29.01152 35.03900 32.02526
# Shear Modulus (GPa) = 41.65515 47.29647 44.47581
#
# Velocity S-wave (km/s) = 4.16168 4.43454 4.30027
# Velocity P-wave (km/s) = 5.92919 6.38661 6.16214
#
# Compressibility (1/GPa) = 0.03446907
#
# Stress axis : x y z
#
# Youngs Moduli (GPa) = 88.40475 52.49775 106.17775
#
# Poissons Ratio (x) = -0.09437 0.25366
# Poissons Ratio (y) = -0.15892 0.21906
# Poissons Ratio (z) = 0.21120 0.10831
#
# Static dielectric constant tensor:
#      x y z
#    x 1.897130 0.000000 0.025250 
#    y 0.000000 1.919340 0.000000 
#    z 0.025250 0.000000 1.906430 
# 
# From -- ./inp_files/324.got.cif
#   From: 2010.05.17/outbox.cif.g08.bks.cpg/sg9_1_cif.got.tgz:324.got - 2010.06.03 20:04:27.
