data_PCOD9141513
_publ_section_title
;
Structure prediction by ZEFSAII (Michael W. Deem and Ramdas Pophale) SiO2 
 PCOD9141513
Probable space group: P 2/M
;
_chemical_formula_sum "Si O2"
_cell_formula_units_Z 32
_cell_length_a 10.715539
_cell_length_b 15.243944
_cell_length_c 15.432630
_cell_angle_alpha 90.000000
_cell_angle_beta 33.835024
_cell_angle_gamma 90.000000
_cell_volume 1403.631966
_symmetry_space_group_name_H-M "P 2/M"
_symmetry_group_IT_number 10
_symmetry_cell_setting 'monoclinic'
loop_
_space_group_symop_operation_xyz
x,y,z
-x,y,-z
-x,-y,-z
x,-y,z
loop_
_atom_site_type_symbol
_atom_site_label
_atom_site_fract_x
_atom_site_fract_y
_atom_site_fract_z
Si Si1 0.409712 0.604785 0.451827
Si Si2 0.551151 0.902337 0.368848
Si Si3 0.793975 0.726314 0.184378
Si Si4 0.446282 0.401580 0.135952
Si Si5 0.955515 0.904432 0.394495
Si Si6 0.699215 0.904979 0.955773
Si Si7 0.041201 0.290511 0.345194
Si Si8 0.813846 0.271424 0.928816
O O1 0.500000 0.614747 0.500000
O O2 0.380759 0.500000 0.454297
O O3 0.607943 0.652001 0.284150
O O4 0.184566 0.658314 0.553510
O O5 0.500000 0.884198 0.500000
O O6 0.688721 0.822693 0.249878
O O7 0.309884 0.905255 0.462645
O O8 0.654897 0.000000 0.303527
O O9 0.930688 0.715061 0.194471
O O10 0.000000 0.720963 0.000000
O O11 0.442545 0.500000 0.170277
O O12 0.213371 0.354164 0.294571
O O13 0.500000 0.406704 0.000000
O O14 0.651115 0.346163 0.055040
O O15 0.011557 0.807938 0.398888
O O16 0.071890 0.905438 0.232157
O O17 0.029530 0.000000 0.389204
O O18 0.716413 0.823488 0.009786
O O19 0.668418 0.000000 0.015414
O O20 0.500000 0.894659 0.000000
O O21 0.185850 0.272564 0.174808
#
# Coordination Sequence:
#
# PCOD9141513 Si02
#       8
#     4   4   4   4   4   4   4   4
#     4  11  22  37  59  84 109 145 194 248 299 343
#     4  10  19  34  58  85 113 148 192 240 287 334
#     4  12  25  39  55  80 119 161 198 234 287 351
#     4   9  18  30  49  81 111 140 176 231 302 349
#     4   9  16  25  45  76 110 143 172 212 270 333
#     4   9  16  27  47  82 118 143 177 231 294 343
#     4  10  16  31  57  83 114 137 180 241 290 345
#     4  10  19  32  51  76 113 150 185 232 283 344
#
# _framework density 22.797999999999998
#
# number of rings (size 3 to 8) (size 9 to 14) (size 15 to 20)
#    0.000    2.000    2.500    4.125    0.000    3.000 
#    0.000    0.000    0.000    0.750    0.000    1.750 
#    0.000    6.000    0.000    0.000    0.000    0.000 
#
# Total GULP energy -178432.380317 kJ/mol
# GULP energy per Si atom -5576.011885 kJ/mol
# Density = 2.274611 g / cm^3
# Si number density = 22.798000 Si / 1000 Ang^3
#
#
#
# Elastic Constant Matrix: (Units=GPa)
#
#
# Indices 1 2 3 4 5 6 
#
# 1 19.9075 31.5041 17.3434 0.0000 -6.7005 0.0000
# 2 31.5041 241.8999 77.2100 0.0000 -29.3034 0.0000
# 3 17.3434 77.2100 93.7218 0.0000 -22.2897 0.0000
# 4 0.0000 0.0000 0.0000 390.7803 0.0000 -88.5101
# 5 -6.7005 -29.3034 -22.2897 0.0000 43.2555 0.0000
# 6 0.0000 0.0000 0.0000 -88.5101 0.0000 12.8650
#
#
#
# Elastic Compliance Matrix: (Units=1/GPa)
#
#
# Indices 1 2 3 4 5 6 
#
# 1 0.066783 -0.006282 -0.006536 0.000000 0.002721 0.000000
# 2 -0.006282 0.006301 -0.003698 0.000000 0.001390 0.000000
# 3 -0.006536 -0.003698 0.016057 0.000000 0.004757 0.000000
# 4 0.000000 0.000000 0.000000 -0.004584 0.000000 -0.031536
# 5 0.002721 0.001390 0.004757 0.000000 0.026933 0.000000
# 6 0.000000 0.000000 0.000000 -0.031536 0.000000 -0.139234
#
#
# Mechanical properties :
#
#
# Convention : Reuss Voigt Hill
#
# Bulk Modulus (GPa) = 17.82214 67.51603 42.66909
# Shear Modulus (GPa) = 208.42294 104.67828 156.55061
#
# Velocity S-wave (km/s) = 9.57184 6.78345 8.29564
# Velocity P-wave (km/s) = 11.40151 9.54111 10.51255
#
# Compressibility (1/GPa) = 0.05610997
#
# Stress axis : x y z
#
# Youngs Moduli (GPa) = 14.97378 158.71463 62.27875
#
# Poissons Ratio (x) = 0.99700 0.40706
# Poissons Ratio (y) = 0.09406 0.23028
# Poissons Ratio (z) = 0.09787 0.58686
#
# Static dielectric constant tensor:
#      x y z
#    x 2.108580 0.000000 0.000850 
#    y 0.000000 1.901530 0.000000 
#    z 0.000850 0.000000 1.842580 
# 
# From -- ./inp_files/76995.got.cif
#   From: 2010.05.17/outbox.cif.g08.bks.cpg/sg10_39_cif.got.tgz:76995.got - 2010.06.03 11:33:40.
