data_PCOD9141889
_publ_section_title
;
Structure prediction by ZEFSAII (Michael W. Deem and Ramdas Pophale) SiO2 
 PCOD9141889
Probable space group: P 2/M
;
_chemical_formula_sum "Si O2"
_cell_formula_units_Z 28
_cell_length_a 10.765035
_cell_length_b 17.496591
_cell_length_c 19.096652
_cell_angle_alpha 90.000000
_cell_angle_beta 21.533837
_cell_angle_gamma 90.000000
_cell_volume 1320.237614
_symmetry_space_group_name_H-M "P 2/M"
_symmetry_group_IT_number 10
_symmetry_cell_setting 'monoclinic'
loop_
_space_group_symop_operation_xyz
x,y,z
-x,y,-z
-x,-y,-z
x,-y,z
loop_
_atom_site_type_symbol
_atom_site_label
_atom_site_fract_x
_atom_site_fract_y
_atom_site_fract_z
Si Si1 0.347349 0.090333 0.242679
Si Si2 0.150183 0.086730 0.137523
Si Si3 0.404612 0.500000 0.272292
Si Si4 0.182971 0.181090 0.575925
Si Si5 0.756787 0.500000 0.801158
Si Si6 0.598065 0.667370 0.726474
Si Si7 0.629712 0.825266 0.218794
Si Si8 0.771483 0.668021 0.794674
O O1 0.387531 0.120002 0.299961
O O2 0.081341 0.139795 0.338451
O O3 0.272658 0.000000 0.277618
O O4 0.705956 0.103489 0.014563
O O5 0.886660 0.141477 0.313529
O O6 0.022165 0.000000 0.207119
O O7 0.500000 0.089365 0.000000
O O8 0.435911 0.500000 0.171857
O O9 0.530571 0.583319 0.229877
O O10 0.000000 0.500000 0.500000
O O11 0.533010 0.171806 0.351041
O O12 0.058122 0.267983 0.647545
O O13 0.931318 0.582636 0.712473
O O14 0.500000 0.500000 0.000000
O O15 0.434325 0.738608 0.773747
O O16 0.579248 0.675559 0.820714
O O17 0.000000 0.670247 0.500000
O O18 0.000000 0.847081 0.000000
O O19 0.500000 0.677125 0.000000
#
# Coordination Sequence:
#
# PCOD9141889 Si02
#       8
#     4   4   2   4   2   4   4   4
#     4  10  20  37  60  81 100 128 168 215 263 311
#     4   8  16  31  55  84 103 118 158 217 265 307
#     4   8  16  26  53  78  99 129 167 215 257 294
#     4  11  19  33  56  80 102 132 173 212 258 304
#     4   8  16  26  40  80 118 128 146 202 270 312
#     4  10  17  35  54  78 104 134 174 214 256 299
#     4  12  25  37  48  71 110 146 176 211 249 300
#     4  10  17  28  54  83 107 130 164 212 261 307
#
# _framework density 21.208303999999998
#
# number of rings (size 3 to 8) (size 9 to 14) (size 15 to 20)
#    0.000    2.143    2.857    3.000    0.000    2.000 
#    0.000    1.071    0.000    1.714    0.000    0.000 
#    0.000    6.857    0.000    0.000    0.000    0.000 
#
# Total GULP energy -156198.831222 kJ/mol
# GULP energy per Si atom -5578.529687 kJ/mol
# Density = 2.116003 g / cm^3
# Si number density = 21.208304 Si / 1000 Ang^3
#
#
#
# Elastic Constant Matrix: (Units=GPa)
#
#
# Indices 1 2 3 4 5 6 
#
# 1 56.4294 18.7637 21.6593 0.0000 27.8612 0.0000
# 2 18.7637 107.0854 27.9305 0.0000 9.8103 0.0000
# 3 21.6593 27.9305 83.9160 0.0000 22.8449 0.0000
# 4 0.0000 0.0000 0.0000 45.3799 0.0000 50.9972
# 5 27.8612 9.8103 22.8449 0.0000 38.3897 0.0000
# 6 0.0000 0.0000 0.0000 50.9972 0.0000 47.8162
#
#
#
# Elastic Compliance Matrix: (Units=1/GPa)
#
#
# Indices 1 2 3 4 5 6 
#
# 1 0.028729 -0.002957 -0.001146 0.000000 -0.019412 0.000000
# 2 -0.002957 0.010546 -0.003100 0.000000 0.001295 0.000000
# 3 -0.001146 -0.003100 0.015277 0.000000 -0.007467 0.000000
# 4 0.000000 0.000000 0.000000 -0.110988 0.000000 0.118371
# 5 -0.019412 0.001295 -0.007467 0.000000 0.044249 0.000000
# 6 0.000000 0.000000 0.000000 0.118371 0.000000 -0.105333
#
#
# Mechanical properties :
#
#
# Convention : Reuss Voigt Hill
#
# Bulk Modulus (GPa) = 24.90854 42.68197 33.79526
# Shear Modulus (GPa) = -55.72187 38.25564 -8.73312
#
# Velocity S-wave (km/s) = -5.13134 4.25173 -2.03143
# Velocity P-wave (km/s) = 4.83087 6.65370 3.23531
#
# Compressibility (1/GPa) = 0.04014687
#
# Stress axis : x y z
#
# Youngs Moduli (GPa) = 34.80823 94.82081 65.45773
#
# Poissons Ratio (x) = 0.28034 0.07504
# Poissons Ratio (y) = 0.10291 0.20290
# Poissons Ratio (z) = 0.03990 0.29392
#
# Static dielectric constant tensor:
#      x y z
#    x 1.773230 0.000000 0.021460 
#    y 0.000000 1.783440 0.000000 
#    z 0.021460 0.000000 1.784720 
# 
# From -- ./inp_files/30220.got.cif
#   From: 2010.05.17/outbox.cif.g08.bks.cpg/sg10_16_cif.got.tgz:30220.got - 2010.06.03 11:33:40.
