data_PCOD9141480
_publ_section_title
;
Structure prediction by ZEFSAII (Michael W. Deem and Ramdas Pophale) SiO2 
 PCOD9141480
Probable space group: P 2/M
;
_chemical_formula_sum "Si O2"
_cell_formula_units_Z 24
_cell_length_a 9.785484
_cell_length_b 13.377005
_cell_length_c 16.455169
_cell_angle_alpha 90.000000
_cell_angle_beta 148.342574
_cell_angle_gamma 90.000000
_cell_volume 1130.498264
_symmetry_space_group_name_H-M "P 2/M"
_symmetry_group_IT_number 10
_symmetry_cell_setting 'monoclinic'
loop_
_space_group_symop_operation_xyz
x,y,z
-x,y,-z
-x,-y,-z
x,-y,z
loop_
_atom_site_type_symbol
_atom_site_label
_atom_site_fract_x
_atom_site_fract_y
_atom_site_fract_z
Si Si1 0.211112 0.810731 0.545008
Si Si2 0.483375 0.389906 0.687484
Si Si3 0.345542 0.886620 0.337532
Si Si4 0.024383 0.691243 0.146652
Si Si5 0.503738 0.385876 0.910716
Si Si6 0.061993 0.345288 0.353185
O O1 0.336519 0.708852 0.647593
O O2 0.444742 0.877032 0.629443
O O3 0.000000 0.853091 0.500000
O O4 0.073562 0.767948 0.393647
O O5 0.461972 0.500000 0.715958
O O6 0.777562 0.363882 0.813065
O O7 0.321968 0.393147 0.520879
O O8 0.500000 0.861955 0.500000
O O9 0.125780 0.804655 0.207142
O O10 0.250159 0.000000 0.296122
O O11 0.722723 0.673586 0.972330
O O12 0.054837 0.647140 0.253218
O O13 0.598388 0.500000 0.964337
O O14 0.500000 0.340719 0.000000
O O15 0.198469 0.387910 0.737551
#
# Coordination Sequence:
#
# PCOD9141480 Si02
#       6
#     4   4   4   4   4   4
#     4   9  19  32  47  71 100 130 163 198 242 290
#     4   9  17  26  44  67  95 125 161 200 230 274
#     4  10  18  32  54  76  96 121 159 209 257 289
#     4  10  16  29  45  72  99 124 160 200 249 284
#     4   9  17  26  42  69 103 135 160 192 236 287
#     4   9  17  28  44  68 101 129 162 195 236 284
#
# _framework density 21.229576999999999
#
# number of rings (size 3 to 8) (size 9 to 14) (size 15 to 20)
#    1.000    1.667    1.667    1.500    0.000    3.333 
#    0.000    0.000    0.000    9.500    0.000    7.000 
#    0.000    0.000    0.000    0.000    0.000    0.000 
#
# Total GULP energy -133615.928887 kJ/mol
# GULP energy per Si atom -5567.330370 kJ/mol
# Density = 2.118126 g / cm^3
# Si number density = 21.229577 Si / 1000 Ang^3
#
#
#
# Elastic Constant Matrix: (Units=GPa)
#
#
# Indices 1 2 3 4 5 6 
#
# 1 93.4503 -3.4454 19.6247 0.0000 17.3053 0.0000
# 2 -3.4454 83.3881 25.9286 0.0000 12.6579 0.0000
# 3 19.6247 25.9286 111.4814 0.0000 28.9093 0.0000
# 4 0.0000 0.0000 0.0000 13.7261 0.0000 3.9295
# 5 17.3053 12.6579 28.9093 0.0000 34.8951 0.0000
# 6 0.0000 0.0000 0.0000 3.9295 0.0000 -1.4438
#
#
#
# Elastic Compliance Matrix: (Units=1/GPa)
#
#
# Indices 1 2 3 4 5 6 
#
# 1 0.012040 0.001686 -0.001025 0.000000 -0.005734 0.000000
# 2 0.001686 0.013382 -0.002463 0.000000 -0.003650 0.000000
# 3 -0.001025 -0.002463 0.011921 0.000000 -0.008474 0.000000
# 4 0.000000 0.000000 0.000000 0.040949 0.000000 0.111446
# 5 -0.005734 -0.003650 -0.008474 0.000000 0.039846 0.000000
# 6 0.000000 0.000000 0.000000 0.111446 0.000000 -0.389289
#
#
# Mechanical properties :
#
#
# Convention : Reuss Voigt Hill
#
# Bulk Modulus (GPa) = 29.63801 41.39285 35.51543
# Shear Modulus (GPa) = -19.50815 25.84959 3.17072
#
# Velocity S-wave (km/s) = -3.03465 3.49323 1.22343
# Velocity P-wave (km/s) = 1.30853 5.98417 4.33143
#
# Compressibility (1/GPa) = 0.03374046
#
# Stress axis : x y z
#
# Youngs Moduli (GPa) = 83.05624 74.72938 83.88639
#
# Poissons Ratio (x) = -0.12603 0.08597
# Poissons Ratio (y) = -0.14007 0.20658
# Poissons Ratio (z) = 0.08512 0.18403
#
# Static dielectric constant tensor:
#      x y z
#    x 1.858990 0.000000 -0.035780 
#    y 0.000000 1.759710 0.000000 
#    z -0.035780 0.000000 1.781100 
# 
# From -- ./inp_files/92869.got.cif
#   From: 2010.05.17/outbox.cif.g08.bks.cpg/sg10_47_cif.got.tgz:92869.got - 2010.06.03 11:33:40.
