data_PCOD9141602
_publ_section_title
;
Structure prediction by ZEFSAII (Michael W. Deem and Ramdas Pophale) SiO2 
 PCOD9141602
Probable space group: P 2/M
;
_chemical_formula_sum "Si O2"
_cell_formula_units_Z 28
_cell_length_a 29.850131
_cell_length_b 7.533005
_cell_length_c 15.050701
_cell_angle_alpha 90.000000
_cell_angle_beta 27.674414
_cell_angle_gamma 90.000000
_cell_volume 1571.835272
_symmetry_space_group_name_H-M "P 2/M"
_symmetry_group_IT_number 10
_symmetry_cell_setting 'monoclinic'
loop_
_space_group_symop_operation_xyz
x,y,z
-x,y,-z
-x,-y,-z
x,-y,z
loop_
_atom_site_type_symbol
_atom_site_label
_atom_site_fract_x
_atom_site_fract_y
_atom_site_fract_z
Si Si1 0.133377 0.782399 0.342727
Si Si2 0.772233 0.283581 0.383033
Si Si3 0.082876 0.787962 0.237281
Si Si4 0.915351 0.715436 0.283762
Si Si5 0.255998 0.204095 0.283503
Si Si6 0.606056 0.294443 0.803656
Si Si7 0.872177 0.287801 0.038260
O O1 0.133015 0.726800 0.240401
O O2 0.221366 0.720841 0.249741
O O3 0.028749 0.724501 0.565036
O O4 0.135210 0.000000 0.343048
O O5 0.766443 0.500000 0.394491
O O6 0.867155 0.237994 0.274343
O O7 0.679299 0.217499 0.601026
O O8 0.790870 0.223570 0.249751
O O9 0.134833 0.747448 0.053892
O O10 0.076875 0.000000 0.254859
O O11 0.914481 0.500000 0.290981
O O12 0.841735 0.786526 0.486576
O O13 0.022963 0.778654 0.113558
O O14 0.336996 0.290687 0.202827
O O15 0.285231 0.000000 0.220833
O O16 0.591982 0.500000 0.802562
O O17 0.500000 0.213599 0.000000
O O18 0.874607 0.500000 0.043946
#
# Coordination Sequence:
#
# PCOD9141602 Si02
#       7
#     4   4   4   4   4   4   4
#     4   8  15  27  42  58  81 117 150 173 205 249
#     4   8  15  27  42  59  82 112 141 169 207 257
#     4   9  16  28  42  56  82 119 152 175 201 245
#     4   9  16  26  39  57  84 118 147 168 197 247
#     4  10  17  27  45  66  86 110 142 178 213 247
#     4   9  18  33  50  66  84 109 140 173 214 263
#     4  10  17  25  39  61  86 113 144 176 208 240
#
# _framework density 17.813572000000001
#
# number of rings (size 3 to 8) (size 9 to 14) (size 15 to 20)
#    0.000    3.000    1.429    2.571    0.000    2.000 
#    0.000    5.714    0.000    4.286    0.000    1.000 
#    0.000    8.000    0.000    0.000    0.000    0.000 
#
# Total GULP energy -155966.298244 kJ/mol
# GULP energy per Si atom -5570.224937 kJ/mol
# Density = 1.777303 g / cm^3
# Si number density = 17.813572 Si / 1000 Ang^3
#
#
#
# Elastic Constant Matrix: (Units=GPa)
#
#
# Indices 1 2 3 4 5 6 
#
# 1 113.4351 -4.4570 75.0529 0.0000 20.1520 0.0000
# 2 -4.4570 40.7547 2.0861 0.0000 -0.4661 0.0000
# 3 75.0529 2.0861 92.2121 0.0000 7.7389 0.0000
# 4 0.0000 0.0000 0.0000 6.7577 0.0000 5.2356
# 5 20.1520 -0.4661 7.7389 0.0000 25.8253 0.0000
# 6 0.0000 0.0000 0.0000 5.2356 0.0000 14.3155
#
#
#
# Elastic Compliance Matrix: (Units=1/GPa)
#
#
# Indices 1 2 3 4 5 6 
#
# 1 0.022780 0.003248 -0.017569 0.000000 -0.012452 0.000000
# 2 0.003248 0.025039 -0.003114 0.000000 -0.001150 0.000000
# 3 -0.017569 -0.003114 0.024690 0.000000 0.006255 0.000000
# 4 0.000000 0.000000 0.000000 0.206491 0.000000 -0.075520
# 5 -0.012452 -0.001150 0.006255 0.000000 0.046543 0.000000
# 6 0.000000 0.000000 0.000000 -0.075520 0.000000 0.097474
#
#
# Mechanical properties :
#
#
# Convention : Reuss Voigt Hill
#
# Bulk Modulus (GPa) = 26.56840 43.52955 35.04897
# Shear Modulus (GPa) = 10.62849 20.96102 15.79476
#
# Velocity S-wave (km/s) = 2.44529 3.43401 2.98093
# Velocity P-wave (km/s) = 4.78745 6.34133 5.61837
#
# Compressibility (1/GPa) = 0.03763870
#
# Stress axis : x y z
#
# Youngs Moduli (GPa) = 43.89829 39.93846 40.50211
#
# Poissons Ratio (x) = -0.12973 0.71160
# Poissons Ratio (y) = -0.14259 0.12611
# Poissons Ratio (z) = 0.77127 0.12436
#
# Static dielectric constant tensor:
#      x y z
#    x 1.639670 0.000000 0.029780 
#    y 0.000000 1.678270 0.000000 
#    z 0.029780 0.000000 1.613090 
# 
# From -- ./inp_files/65732.got.cif
#   From: 2010.05.17/outbox.cif.g08.bks.cpg/sg10_33_cif.got.tgz:65732.got - 2010.06.03 11:33:40.
