data_PCOD9141988
_publ_section_title
;
Structure prediction by ZEFSAII (Michael W. Deem and Ramdas Pophale) SiO2 
 PCOD9141988
Probable space group: P 2/M
;
_chemical_formula_sum "Si O2"
_cell_formula_units_Z 20
_cell_length_a 8.445723
_cell_length_b 15.062039
_cell_length_c 8.471161
_cell_angle_alpha 90.000000
_cell_angle_beta 49.722433
_cell_angle_gamma 90.000000
_cell_volume 822.135490
_symmetry_space_group_name_H-M "P 2/M"
_symmetry_group_IT_number 10
_symmetry_cell_setting 'monoclinic'
loop_
_space_group_symop_operation_xyz
x,y,z
-x,y,-z
-x,-y,-z
x,-y,z
loop_
_atom_site_type_symbol
_atom_site_label
_atom_site_fract_x
_atom_site_fract_y
_atom_site_fract_z
Si Si1 0.677362 0.099307 0.770037
Si Si2 0.540425 0.252997 0.658498
Si Si3 0.286105 0.600818 0.238823
Si Si4 0.948538 0.901240 0.221396
Si Si5 0.090255 0.708764 0.095193
O O1 0.662486 0.163523 0.631542
O O2 0.881344 0.094454 0.745633
O O3 0.616429 0.000000 0.764524
O O4 0.500000 0.134098 0.000000
O O5 0.500000 0.255525 0.500000
O O6 0.665105 0.336986 0.644390
O O7 0.317397 0.256014 0.892829
O O8 0.231996 0.500000 0.313388
O O9 0.500000 0.598103 0.000000
O O10 0.125316 0.649417 0.226137
O O11 0.837568 0.000000 0.316784
O O12 0.939775 0.792254 0.224324
O O13 0.000000 0.909912 0.000000
O O14 0.000000 0.658900 0.000000
#
# Coordination Sequence:
#
# PCOD9141988 Si02
#       5
#     4   4   4   4   4
#     4  10  17  30  52  75 100 136 180 212 241 297
#     4  11  21  34  51  78 110 135 167 211 262 305
#     4   9  18  35  57  77  99 132 176 215 251 305
#     4   9  16  27  50  78 100 127 171 215 248 290
#     4  10  19  34  56  78 101 134 176 212 250 302
#
# _framework density 24.326892000000001
#
# number of rings (size 3 to 8) (size 9 to 14) (size 15 to 20)
#    0.000    2.200    4.000    0.600    0.000    1.200 
#    0.000    1.000    0.000    1.200    0.000    7.000 
#    0.000    0.000    0.000    0.000    0.000    0.000 
#
# Total GULP energy -111453.625538 kJ/mol
# GULP energy per Si atom -5572.681277 kJ/mol
# Density = 2.427152 g / cm^3
# Si number density = 24.326892 Si / 1000 Ang^3
#
#
#
# Elastic Constant Matrix: (Units=GPa)
#
#
# Indices 1 2 3 4 5 6 
#
# 1 119.6360 71.1686 60.6169 0.0000 37.3726 0.0000
# 2 71.1686 202.2226 47.6882 0.0000 54.4308 0.0000
# 3 60.6169 47.6882 118.2624 0.0000 35.8911 0.0000
# 4 0.0000 0.0000 0.0000 24.8998 0.0000 24.7304
# 5 37.3726 54.4308 35.8911 0.0000 67.0272 0.0000
# 6 0.0000 0.0000 0.0000 24.7304 0.0000 23.6079
#
#
#
# Elastic Compliance Matrix: (Units=1/GPa)
#
#
# Indices 1 2 3 4 5 6 
#
# 1 0.013331 -0.002865 -0.004929 0.000000 -0.002467 0.000000
# 2 -0.002865 0.007086 -0.000152 0.000000 -0.004076 0.000000
# 3 -0.004929 -0.000152 0.012146 0.000000 -0.003632 0.000000
# 4 0.000000 0.000000 0.000000 -0.993707 0.000000 1.040952
# 5 -0.002467 -0.004076 -0.003632 0.000000 0.021549 0.000000
# 6 0.000000 0.000000 0.000000 1.040952 0.000000 -1.048084
#
#
# Mechanical properties :
#
#
# Convention : Reuss Voigt Hill
#
# Bulk Modulus (GPa) = 59.98532 88.78538 74.38535
# Shear Modulus (GPa) = -2.54294 40.48348 18.97027
#
# Velocity S-wave (km/s) = -1.02352 4.08382 2.79553
# Velocity P-wave (km/s) = 4.82854 7.66895 6.40810
#
# Compressibility (1/GPa) = 0.01667075
#
# Stress axis : x y z
#
# Youngs Moduli (GPa) = 75.01167 141.11812 82.33340
#
# Poissons Ratio (x) = 0.40435 0.40582
# Poissons Ratio (y) = 0.21493 0.01251
# Poissons Ratio (z) = 0.36973 0.02144
#
# Static dielectric constant tensor:
#      x y z
#    x 1.966720 0.000000 -0.150000 
#    y 0.000000 1.911030 0.000000 
#    z -0.150000 0.000000 2.172210 
# 
# From -- ./inp_files/18381.got.cif
#   From: 2010.05.17/outbox.cif.g08.bks.cpg/sg10_10_cif.got.tgz:18381.got - 2010.06.03 11:33:40.
