data_PCOD9141187
_publ_section_title
;
Structure prediction by ZEFSAII (Michael W. Deem and Ramdas Pophale) SiO2 
 PCOD9141187
Probable space group: C C
;
_chemical_formula_sum "Si O2"
_cell_formula_units_Z 24
_cell_length_a 7.045741
_cell_length_b 13.270105
_cell_length_c 9.761963
_cell_angle_alpha 90.000000
_cell_angle_beta 67.952938
_cell_angle_gamma 90.000000
_cell_volume 845.979337
_symmetry_space_group_name_H-M "C C"
_symmetry_group_IT_number 9
_symmetry_cell_setting 'monoclinic'
loop_
_space_group_symop_operation_xyz
x,y,z
x,-y,1/2+z
1/2+x,1/2+y,z
1/2+x,1/2-y,1/2+z
loop_
_atom_site_type_symbol
_atom_site_label
_atom_site_fract_x
_atom_site_fract_y
_atom_site_fract_z
Si Si1 0.765000 0.368519 0.441250
Si Si2 0.231704 0.401226 0.703321
Si Si3 0.013018 0.802387 0.158516
Si Si4 0.432891 0.472928 0.378099
Si Si5 0.385117 0.941119 0.995780
Si Si6 0.581975 0.788833 0.147125
O O1 0.665228 0.448749 0.360857
O O2 0.305152 0.464357 0.552043
O O3 0.568062 0.307151 0.549410
O O4 0.846781 0.441978 0.536446
O O5 0.146226 0.288492 0.687236
O O6 0.023076 0.445029 0.823856
O O7 0.383478 0.433976 0.791005
O O8 0.395073 0.629031 0.801880
O O9 0.433937 0.802150 0.317269
O O10 0.176311 0.876610 0.042458
O O11 0.018119 0.619413 0.569261
O O12 0.321481 0.724851 0.616301
#
# Coordination Sequence:
#
# PCOD9141187 Si02
#       6
#     4   4   4   4   4   4
#     4  12  30  58  90 131 192 251 309 395 480 553
#     4  12  30  53  95 132 187 243 319 385 471 558
#     4  12  28  58  92 133 185 242 316 391 470 559
#     4  12  29  56  88 136 181 245 311 388 467 557
#     4  12  30  56  86 138 181 243 308 382 483 550
#     4  12  31  57  91 142 182 246 319 393 467 573
#
# _framework density 28.369489999999999
#
# number of rings (size 3 to 8) (size 9 to 14) (size 15 to 20)
#    0.000    0.000    1.667    5.000   16.333    0.000 
#    3.000    0.000    0.000    0.000    0.000    0.000 
#    0.000    0.000    0.000    0.000    0.000    0.000 
#
# Total GULP energy -67168.411284 kJ/mol
# GULP energy per Si atom -5597.367607 kJ/mol
# Density = 2.830492 g / cm^3
# Si number density = 28.369490 Si / 1000 Ang^3
#
#
#
# Elastic Constant Matrix: (Units=GPa)
#
#
# Indices 1 2 3 4 5 6 
#
# 1 138.8816 67.7706 37.8521 0.0000 -16.4855 0.0000
# 2 67.7706 193.3188 66.0388 0.0000 -7.0562 0.0000
# 3 37.8521 66.0388 201.3746 0.0000 -15.8157 0.0000
# 4 0.0000 0.0000 0.0000 52.6899 0.0000 6.2445
# 5 -16.4855 -7.0562 -15.8157 0.0000 43.5925 0.0000
# 6 0.0000 0.0000 0.0000 6.2445 0.0000 63.4183
#
#
#
# Elastic Compliance Matrix: (Units=1/GPa)
#
#
# Indices 1 2 3 4 5 6 
#
# 1 0.009093 -0.002902 -0.000540 0.000000 0.002773 0.000000
# 2 -0.002902 0.006754 -0.001719 0.000000 -0.000628 0.000000
# 3 -0.000540 -0.001719 0.005757 0.000000 0.001606 0.000000
# 4 0.000000 0.000000 0.000000 0.019203 0.000000 -0.001891
# 5 0.002773 -0.000628 0.001606 0.000000 0.024470 0.000000
# 6 0.000000 0.000000 0.000000 -0.001891 0.000000 0.015955
#
#
# Mechanical properties :
#
#
# Convention : Reuss Voigt Hill
#
# Bulk Modulus (GPa) = 88.62712 97.43311 93.03011
# Shear Modulus (GPa) = 52.45837 56.06770 54.26304
#
# Velocity S-wave (km/s) = 4.30480 4.45043 4.37822
# Velocity P-wave (km/s) = 7.48441 7.79918 7.64342
#
# Compressibility (1/GPa) = 0.01128323
#
# Stress axis : x y z
#
# Youngs Moduli (GPa) = 109.97782 148.05154 173.69677
#
# Poissons Ratio (x) = 0.42965 0.09374
# Poissons Ratio (y) = 0.31916 0.29856
# Poissons Ratio (z) = 0.05935 0.25448
#
# Static dielectric constant tensor:
#      x y z
#    x 2.484100 0.000000 0.124240 
#    y 0.000000 2.388170 0.000000 
#    z 0.124240 0.000000 2.222910 
# 
# From -- ./inp_files/22967.got.cif
#   From: 2010.05.17/outbox.cif.g08.bks.cpg/sg9_12_cif.got.tgz:22967.got - 2010.06.03 20:04:27.
