data_PCOD9141445
_publ_section_title
;
Structure prediction by ZEFSAII (Michael W. Deem and Ramdas Pophale) SiO2 
 PCOD9141445
Probable space group: P 2/M
;
_chemical_formula_sum "Si O2"
_cell_formula_units_Z 30
_cell_length_a 5.101184
_cell_length_b 26.470006
_cell_length_c 14.576013
_cell_angle_alpha 90.000000
_cell_angle_beta 57.442504
_cell_angle_gamma 90.000000
_cell_volume 1658.880175
_symmetry_space_group_name_H-M "P 2/M"
_symmetry_group_IT_number 10
_symmetry_cell_setting 'monoclinic'
loop_
_space_group_symop_operation_xyz
x,y,z
-x,y,-z
-x,-y,-z
x,-y,z
loop_
_atom_site_type_symbol
_atom_site_label
_atom_site_fract_x
_atom_site_fract_y
_atom_site_fract_z
Si Si1 0.420580 0.263951 0.737404
Si Si2 0.868436 0.000000 0.419297
Si Si3 0.524362 0.441509 0.246615
Si Si4 0.213085 0.408455 0.119723
Si Si5 0.765586 0.160185 0.631735
Si Si6 0.261001 0.895553 0.631002
Si Si7 0.632018 0.357062 0.576232
Si Si8 0.727158 0.288191 0.874563
O O1 0.594804 0.213112 0.675046
O O2 0.486301 0.307700 0.651149
O O3 0.557736 0.281668 0.809255
O O4 0.050564 0.258426 0.814881
O O5 0.500000 0.000000 0.500000
O O6 0.915477 0.051205 0.352295
O O7 0.000000 0.000000 0.500000
O O8 0.491927 0.500000 0.276953
O O9 0.300054 0.427985 0.204324
O O10 0.446704 0.404642 0.345082
O O11 0.881908 0.430093 0.151486
O O12 0.193936 0.347556 0.126126
O O13 0.500000 0.422516 0.000000
O O14 0.498987 0.117333 0.667605
O O15 0.000000 0.161181 0.500000
O O16 0.995013 0.146370 0.671383
O O17 0.500000 0.891637 0.500000
O O18 0.500000 0.364071 0.500000
O O19 0.000000 0.350125 0.500000
O O20 0.500000 0.273066 0.000000
#
# Coordination Sequence:
#
# PCOD9141445 Si02
#       8
#     4   2   4   4   4   4   4   4
#     4  12  22  39  60  83 110 145 181 225 275 325
#     4  10  16  26  44  66  96 150 197 236 269 308
#     4  12  25  42  61  85 113 141 177 223 272 323
#     4  11  22  41  64  88 113 136 169 219 278 340
#     4  10  20  32  48  76 110 147 186 227 264 309
#     4   9  17  29  44  68 105 145 193 231 264 307
#     4  12  25  41  59  80 107 143 187 221 255 314
#     4  11  22  39  63  85 108 138 175 220 276 341
#
# _framework density 18.084486999999999
#
# number of rings (size 3 to 8) (size 9 to 14) (size 15 to 20)
#    0.000    1.067    2.667    6.000    0.000    5.867 
#    0.000    0.000    0.000    0.000    0.000    0.000 
#    0.000    0.000    0.000   42.000    0.000    4.667 
#
# Total GULP energy -167489.190019 kJ/mol
# GULP energy per Si atom -5582.973001 kJ/mol
# Density = 1.804333 g / cm^3
# Si number density = 18.084487 Si / 1000 Ang^3
#
#
#
# Elastic Constant Matrix: (Units=GPa)
#
#
# Indices 1 2 3 4 5 6 
#
# 1 77.3005 9.9590 14.1811 0.0000 -10.4648 0.0000
# 2 9.9590 87.9342 26.9929 0.0000 -3.5432 0.0000
# 3 14.1811 26.9929 57.8046 0.0000 -10.9350 0.0000
# 4 0.0000 0.0000 0.0000 -22.3498 0.0000 95.8036
# 5 -10.4648 -3.5432 -10.9350 0.0000 29.4069 0.0000
# 6 0.0000 0.0000 0.0000 95.8036 0.0000 -283.7929
#
#
#
# Elastic Compliance Matrix: (Units=1/GPa)
#
#
# Indices 1 2 3 4 5 6 
#
# 1 0.014002 -0.000704 -0.002345 0.000000 0.004026 0.000000
# 2 -0.000704 0.013326 -0.006232 0.000000 -0.000962 0.000000
# 3 -0.002345 -0.006232 0.022035 0.000000 0.006609 0.000000
# 4 0.000000 0.000000 0.000000 0.100081 0.000000 0.033786
# 5 0.004026 -0.000962 0.006609 0.000000 0.037780 0.000000
# 6 0.000000 0.000000 0.000000 0.033786 0.000000 0.007882
#
#
# Mechanical properties :
#
#
# Convention : Reuss Voigt Hill
#
# Bulk Modulus (GPa) = 32.46539 36.14501 34.30520
# Shear Modulus (GPa) = 22.32777 -43.88674 -10.77949
#
# Velocity S-wave (km/s) = 3.51755 -4.93156 -2.44409
# Velocity P-wave (km/s) = 5.87270 3.52093 3.32353
#
# Compressibility (1/GPa) = 0.03080203
#
# Stress axis : x y z
#
# Youngs Moduli (GPa) = 71.41607 75.04023 45.38156
#
# Poissons Ratio (x) = 0.05281 0.10642
# Poissons Ratio (y) = 0.05026 0.28283
# Poissons Ratio (z) = 0.16746 0.46767
#
# Static dielectric constant tensor:
#      x y z
#    x 1.622460 0.000000 -0.003510 
#    y 0.000000 1.665240 0.000000 
#    z -0.003510 0.000000 1.594380 
# 
# From -- ./inp_files/59728.got.cif
#   From: 2010.05.17/outbox.cif.g08.bks.cpg/sg10_30_cif.got.tgz:59728.got - 2010.06.03 11:33:40.
