data_PCOD9141619
_publ_section_title
;
Structure prediction by ZEFSAII (Michael W. Deem and Ramdas Pophale) SiO2 
 PCOD9141619
Probable space group: P 2/M
;
_chemical_formula_sum "Si O2"
_cell_formula_units_Z 24
_cell_length_a 17.243264
_cell_length_b 8.545900
_cell_length_c 23.766739
_cell_angle_alpha 90.000000
_cell_angle_beta 23.586323
_cell_angle_gamma 90.000000
_cell_volume 1401.355415
_symmetry_space_group_name_H-M "P 2/M"
_symmetry_group_IT_number 10
_symmetry_cell_setting 'monoclinic'
loop_
_space_group_symop_operation_xyz
x,y,z
-x,y,-z
-x,-y,-z
x,-y,z
loop_
_atom_site_type_symbol
_atom_site_label
_atom_site_fract_x
_atom_site_fract_y
_atom_site_fract_z
Si Si1 0.656346 0.811398 0.565555
Si Si2 0.016290 0.310958 0.923573
Si Si3 0.616522 0.812904 0.147908
Si Si4 0.007187 0.814175 0.582271
Si Si5 0.288351 0.684675 0.298406
Si Si6 0.557762 0.688887 0.399401
O O1 0.501737 0.762675 0.716844
O O2 0.587867 0.746276 0.551859
O O3 0.870936 0.763407 0.443971
O O4 0.653611 0.000000 0.565925
O O5 0.004433 0.500000 0.928793
O O6 0.224754 0.260763 0.761541
O O7 0.000000 0.264966 0.000000
O O8 0.836062 0.240419 0.009848
O O9 0.505058 0.737189 0.169177
O O10 0.603190 0.000000 0.152687
O O11 0.807946 0.731759 0.696858
O O12 0.158347 0.774707 0.431424
O O13 0.976736 0.000000 0.604408
O O14 0.266547 0.500000 0.321277
O O15 0.500000 0.742832 0.500000
O O16 0.555940 0.500000 0.400184
#
# Coordination Sequence:
#
# PCOD9141619 Si02
#       6
#     4   4   4   4   4   4
#     4   9  18  30  46  68  94 127 163 200 239 285
#     4  10  19  32  50  72  95 126 164 203 241 286
#     4  10  19  30  46  69  97 128 161 200 245 288
#     4   9  16  27  41  62  94 128 160 197 242 288
#     4  10  17  25  40  65  95 127 160 196 240 290
#     4  10  21  35  50  70  98 129 162 202 246 287
#
# _framework density 17.126277000000002
#
# number of rings (size 3 to 8) (size 9 to 14) (size 15 to 20)
#    0.000    2.333    1.667    4.500    0.000    4.667 
#    0.000    0.000    0.000    0.000    0.000    1.167 
#    0.000    9.333    0.000    0.000    0.000    0.000 
#
# Total GULP energy -133755.362991 kJ/mol
# GULP energy per Si atom -5573.140125 kJ/mol
# Density = 1.708730 g / cm^3
# Si number density = 17.126277 Si / 1000 Ang^3
#
#
#
# Elastic Constant Matrix: (Units=GPa)
#
#
# Indices 1 2 3 4 5 6 
#
# 1 155.9338 22.7085 70.7250 0.0000 -36.7447 0.0000
# 2 22.7085 13.4402 15.2377 0.0000 -5.9846 0.0000
# 3 70.7250 15.2377 68.0599 0.0000 -13.1396 0.0000
# 4 0.0000 0.0000 0.0000 14.7423 0.0000 -6.7068
# 5 -36.7447 -5.9846 -13.1396 0.0000 32.1113 0.0000
# 6 0.0000 0.0000 0.0000 -6.7068 0.0000 49.6191
#
#
#
# Elastic Compliance Matrix: (Units=1/GPa)
#
#
# Indices 1 2 3 4 5 6 
#
# 1 0.016044 -0.007428 -0.012738 0.000000 0.011762 0.000000
# 2 -0.007428 0.106367 -0.015102 0.000000 0.005144 0.000000
# 3 -0.012738 -0.015102 0.030351 0.000000 -0.004971 0.000000
# 4 0.000000 0.000000 0.000000 0.072277 0.000000 0.009769
# 5 0.011762 0.005144 -0.004971 0.000000 0.043525 0.000000
# 6 0.000000 0.000000 0.000000 0.009769 0.000000 0.021474
#
#
# Mechanical properties :
#
#
# Convention : Reuss Voigt Hill
#
# Bulk Modulus (GPa) = 12.16172 50.53070 31.34621
# Shear Modulus (GPa) = 12.88713 27.87873 20.38293
#
# Velocity S-wave (km/s) = 2.74611 4.03902 3.45361
# Velocity P-wave (km/s) = 4.14384 7.16383 5.85200
#
# Compressibility (1/GPa) = 0.08222523
#
# Stress axis : x y z
#
# Youngs Moduli (GPa) = 62.32853 9.40142 32.94740
#
# Poissons Ratio (x) = 0.06984 0.41970
# Poissons Ratio (y) = 0.46300 0.49757
# Poissons Ratio (z) = 0.79396 0.14198
#
# Static dielectric constant tensor:
#      x y z
#    x 1.613510 0.000000 -0.030480 
#    y 0.000000 1.575600 0.000000 
#    z -0.030480 0.000000 1.571050 
# 
# From -- ./inp_files/63104.got.cif
#   From: 2010.05.17/outbox.cif.g08.bks.cpg/sg10_32_cif.got.tgz:63104.got - 2010.06.03 11:33:40.
