data_PCOD9141618
_publ_section_title
;
Structure prediction by ZEFSAII (Michael W. Deem and Ramdas Pophale) SiO2 
 PCOD9141618
Probable space group: P 2/M
;
_chemical_formula_sum "Si O2"
_cell_formula_units_Z 32
_cell_length_a 22.899446
_cell_length_b 7.847384
_cell_length_c 11.979374
_cell_angle_alpha 90.000000
_cell_angle_beta 54.635379
_cell_angle_gamma 90.000000
_cell_volume 1755.497275
_symmetry_space_group_name_H-M "P 2/M"
_symmetry_group_IT_number 10
_symmetry_cell_setting 'monoclinic'
loop_
_space_group_symop_operation_xyz
x,y,z
-x,y,-z
-x,-y,-z
x,-y,z
loop_
_atom_site_type_symbol
_atom_site_label
_atom_site_fract_x
_atom_site_fract_y
_atom_site_fract_z
Si Si1 0.587223 0.194409 0.315750
Si Si2 0.713894 0.290372 0.446042
Si Si3 0.441468 0.306611 0.407139
Si Si4 0.879795 0.293303 0.873888
Si Si5 0.846792 0.299685 0.437794
Si Si6 0.916917 0.291533 0.587478
Si Si7 0.020464 0.201231 0.854663
Si Si8 0.740270 0.294574 0.161176
O O1 0.518888 0.220436 0.312159
O O2 0.575375 0.304498 0.440771
O O3 0.666050 0.238005 0.185839
O O4 0.586379 0.000000 0.355297
O O5 0.712674 0.500000 0.446951
O O6 0.632398 0.233490 0.560210
O O7 0.773507 0.229882 0.466932
O O8 0.736137 0.238430 0.295389
O O9 0.449484 0.500000 0.359956
O O10 0.881114 0.500000 0.875919
O O11 0.879700 0.242054 0.744467
O O12 0.952765 0.231399 0.849878
O O13 0.810909 0.233620 0.019573
O O14 0.833947 0.500000 0.471219
O O15 0.877147 0.228210 0.520462
O O16 0.909525 0.283120 0.276942
O O17 0.918036 0.500000 0.581474
O O18 0.000000 0.237417 0.500000
O O19 0.034619 0.000000 0.848371
O O20 0.000000 0.267993 0.000000
O O21 0.741850 0.500000 0.159668
#
# Coordination Sequence:
#
# PCOD9141618 Si02
#       8
#     4   4   4   4   4   4   4   4
#     4  10  17  25  40  64  92 122 153 180 225 275
#     4   8  15  26  43  67  89 117 152 188 223 265
#     4   9  15  26  42  62  91 122 156 187 217 263
#     4  10  19  33  52  70  89 121 160 194 233 282
#     4  10  18  32  52  69  91 121 157 193 231 280
#     4   9  16  29  50  75  93 111 150 204 243 268
#     4  11  23  34  44  65  96 124 152 190 236 279
#     4   9  17  29  44  64  91 120 155 189 225 272
#
# _framework density 18.228452999999998
#
# number of rings (size 3 to 8) (size 9 to 14) (size 15 to 20)
#    0.000    2.500    1.250    4.125    0.000    2.500 
#    0.000    5.625    0.000    0.000    0.000    0.875 
#    0.000    7.000    0.000    0.000    0.000    0.000 
#
# Total GULP energy -178371.789345 kJ/mol
# GULP energy per Si atom -5574.118417 kJ/mol
# Density = 1.818696 g / cm^3
# Si number density = 18.228453 Si / 1000 Ang^3
#
#
#
# Elastic Constant Matrix: (Units=GPa)
#
#
# Indices 1 2 3 4 5 6 
#
# 1 165.2803 2.4239 38.0962 0.0000 -9.1961 0.0000
# 2 2.4239 25.9852 -0.8524 0.0000 1.2703 0.0000
# 3 38.0962 -0.8524 19.6183 0.0000 10.8190 0.0000
# 4 0.0000 0.0000 0.0000 -3.7834 0.0000 -0.2612
# 5 -9.1961 1.2703 10.8190 0.0000 30.0428 0.0000
# 6 0.0000 0.0000 0.0000 -0.2612 0.0000 13.4179
#
#
#
# Elastic Compliance Matrix: (Units=1/GPa)
#
#
# Indices 1 2 3 4 5 6 
#
# 1 0.019272 -0.004674 -0.051145 0.000000 0.024515 0.000000
# 2 -0.004674 0.039860 0.015630 0.000000 -0.008745 0.000000
# 3 -0.051145 0.015630 0.199608 0.000000 -0.088199 0.000000
# 4 0.000000 0.000000 0.000000 -0.263960 0.000000 -0.005138
# 5 0.024515 -0.008745 -0.088199 0.000000 0.072922 0.000000
# 6 0.000000 0.000000 0.000000 -0.005138 0.000000 0.074427
#
#
# Mechanical properties :
#
#
# Convention : Reuss Voigt Hill
#
# Bulk Modulus (GPa) = 5.60657 32.24657 18.92657
# Shear Modulus (GPa) = 17.73298 19.34987 18.54142
#
# Velocity S-wave (km/s) = 3.12239 3.26163 3.19277
# Velocity P-wave (km/s) = 4.01017 5.64916 4.89870
#
# Compressibility (1/GPa) = 0.17836205
#
# Stress axis : x y z
#
# Youngs Moduli (GPa) = 51.88998 25.08806 5.00981
#
# Poissons Ratio (x) = 0.11726 0.25623
# Poissons Ratio (y) = 0.24252 -0.07830
# Poissons Ratio (z) = 2.65392 -0.39213
#
# Static dielectric constant tensor:
#      x y z
#    x 1.661170 0.000000 -0.014670 
#    y 0.000000 1.641620 0.000000 
#    z -0.014670 0.000000 1.603320 
# 
# From -- ./inp_files/54823.got.cif
#   From: 2010.05.17/outbox.cif.g08.bks.cpg/sg10_28_cif.got.tgz:54823.got - 2010.06.03 11:33:40.
