data_PCOD9141452
_publ_section_title
;
Structure prediction by ZEFSAII (Michael W. Deem and Ramdas Pophale) SiO2 
 PCOD9141452
Probable space group: P 2/M
;
_chemical_formula_sum "Si O2"
_cell_formula_units_Z 18
_cell_length_a 22.876991
_cell_length_b 7.347423
_cell_length_c 5.457015
_cell_angle_alpha 90.000000
_cell_angle_beta 110.965498
_cell_angle_gamma 90.000000
_cell_volume 856.527139
_symmetry_space_group_name_H-M "P 2/M"
_symmetry_group_IT_number 10
_symmetry_cell_setting 'monoclinic'
loop_
_space_group_symop_operation_xyz
x,y,z
-x,y,-z
-x,-y,-z
x,-y,z
loop_
_atom_site_type_symbol
_atom_site_label
_atom_site_fract_x
_atom_site_fract_y
_atom_site_fract_z
Si Si1 0.539455 0.500000 0.309182
Si Si2 0.927604 0.221884 0.891407
Si Si3 0.338279 0.291913 0.507422
Si Si4 0.858918 0.779514 0.288379
Si Si5 0.712479 0.711268 0.068714
O O1 0.500000 0.500000 0.500000
O O2 0.587584 0.329058 0.381376
O O3 0.500000 0.500000 0.000000
O O4 0.893256 0.279752 0.589817
O O5 0.926787 0.000000 0.890183
O O6 0.893257 0.279752 0.089957
O O7 0.000000 0.277952 0.000000
O O8 0.310428 0.500000 0.465649
O O9 0.314240 0.206889 0.721461
O O10 0.314238 0.206888 0.221268
O O11 0.787093 0.719571 0.180640
O O12 0.859512 0.000000 0.289270
O O13 0.690449 0.500000 0.035667
#
# Coordination Sequence:
#
# PCOD9141452 Si02
#       5
#     2   4   4   4   4
#     4  10  16  26  44  68  98 120 145 186 219 250
#     4   9  17  30  46  65  88 113 145 192 238 268
#     4   8  17  27  42  64  90 124 143 176 215 269
#     4  10  19  29  47  70  87 112 154 190 220 270
#     4  10  17  31  45  62  93 125 145 175 224 276
#
# _framework density 21.015094000000001
#
# number of rings (size 3 to 8) (size 9 to 14) (size 15 to 20)
#    0.667    2.000    0.000    3.333    0.000    2.667 
#    0.000    0.000    0.000    4.000    0.000    0.000 
#    0.000   17.778    0.000    0.000    0.000    0.000 
#
# Total GULP energy -100386.540038 kJ/mol
# GULP energy per Si atom -5577.030002 kJ/mol
# Density = 2.096726 g / cm^3
# Si number density = 21.015094 Si / 1000 Ang^3
#
#
#
# Elastic Constant Matrix: (Units=GPa)
#
#
# Indices 1 2 3 4 5 6 
#
# 1 199.3812 -1.7454 127.1602 0.0000 -25.0756 0.0000
# 2 -1.7454 74.3015 8.6037 0.0000 -7.6363 0.0000
# 3 127.1602 8.6037 264.2738 0.0000 -22.8114 0.0000
# 4 0.0000 0.0000 0.0000 -5.5679 0.0000 17.3356
# 5 -25.0756 -7.6363 -22.8114 0.0000 51.4305 0.0000
# 6 0.0000 0.0000 0.0000 17.3356 0.0000 17.9249
#
#
#
# Elastic Compliance Matrix: (Units=1/GPa)
#
#
# Indices 1 2 3 4 5 6 
#
# 1 0.007500 0.000806 -0.003441 0.000000 0.002250 0.000000
# 2 0.000806 0.013774 -0.000651 0.000000 0.002149 0.000000
# 3 -0.003441 -0.000651 0.005519 0.000000 0.000674 0.000000
# 4 0.000000 0.000000 0.000000 -0.044776 0.000000 0.043304
# 5 0.002250 0.002149 0.000674 0.000000 0.021159 0.000000
# 6 0.000000 0.000000 0.000000 0.043304 0.000000 0.013908
#
#
# Mechanical properties :
#
#
# Convention : Reuss Voigt Hill
#
# Bulk Modulus (GPa) = 49.45193 89.55483 69.50338
# Shear Modulus (GPa) = 164.49563 39.68669 102.09116
#
# Velocity S-wave (km/s) = 8.85691 4.35038 6.97749
# Velocity P-wave (km/s) = 11.32148 8.24266 9.90246
#
# Compressibility (1/GPa) = 0.02022166
#
# Stress axis : x y z
#
# Youngs Moduli (GPa) = 133.33301 72.60131 181.19640
#
# Poissons Ratio (x) = -0.05851 0.62346
# Poissons Ratio (y) = -0.10745 0.11790
# Poissons Ratio (z) = 0.45877 0.04724
#
# Static dielectric constant tensor:
#      x y z
#    x 1.781570 0.000000 -0.176990 
#    y 0.000000 1.868280 0.000000 
#    z -0.176990 0.000000 2.021440 
# 
# From -- ./inp_files/11871.got.cif
#   From: 2010.05.17/outbox.cif.g08.bks.cpg/sg10_6_cif.got.tgz:11871.got - 2010.06.03 11:33:40.
