data_PCOD9141992
_publ_section_title
;
Structure prediction by ZEFSAII (Michael W. Deem and Ramdas Pophale) SiO2 
 PCOD9141992
Probable space group: P 2/M
;
_chemical_formula_sum "Si O2"
_cell_formula_units_Z 20
_cell_length_a 8.798531
_cell_length_b 11.878952
_cell_length_c 16.374160
_cell_angle_alpha 90.000000
_cell_angle_beta 33.612359
_cell_angle_gamma 90.000000
_cell_volume 947.372589
_symmetry_space_group_name_H-M "P 2/M"
_symmetry_group_IT_number 10
_symmetry_cell_setting 'monoclinic'
loop_
_space_group_symop_operation_xyz
x,y,z
-x,y,-z
-x,-y,-z
x,-y,z
loop_
_atom_site_type_symbol
_atom_site_label
_atom_site_fract_x
_atom_site_fract_y
_atom_site_fract_z
Si Si1 0.500000 0.226211 0.500000
Si Si2 0.900532 0.869585 0.773249
Si Si3 0.701351 0.308943 0.740125
Si Si4 0.151637 0.322556 0.081170
Si Si5 0.554038 0.364764 0.310652
Si Si6 0.078024 0.500000 0.264021
O O1 0.772229 0.151445 0.377092
O O2 0.500188 0.307968 0.421870
O O3 0.776695 0.808204 0.748862
O O4 0.812043 0.799860 0.893732
O O5 0.832825 0.000000 0.807868
O O6 0.631027 0.310774 0.676861
O O7 0.924627 0.401020 0.665026
O O8 0.423375 0.353544 0.910080
O O9 0.108047 0.403383 0.178457
O O10 0.876436 0.335122 0.151693
O O11 0.527495 0.500000 0.325023
#
# Coordination Sequence:
#
# PCOD9141992 Si02
#       6
#     2   4   4   4   4   2
#     4  10  24  44  62  82 110 161 217 248 296 348
#     4  10  22  42  65  84 116 160 203 250 293 347
#     4  11  21  34  58  96 122 151 191 243 299 356
#     4  10  20  34  60  90 125 156 191 229 297 368
#     4  11  22  38  60  87 126 161 196 242 297 356
#     4  10  17  30  52  85 122 152 182 225 282 358
#
# _framework density 21.111017
#
# number of rings (size 3 to 8) (size 9 to 14) (size 15 to 20)
#    0.000    1.600    2.000    4.800    0.000    3.200 
#    1.800    7.000    0.000    6.000    0.000    0.000 
#    0.000    0.000    0.000    0.000    0.000    0.000 
#
# Total GULP energy -111369.676878 kJ/mol
# GULP energy per Si atom -5568.483844 kJ/mol
# Density = 2.106297 g / cm^3
# Si number density = 21.111017 Si / 1000 Ang^3
#
#
#
# Elastic Constant Matrix: (Units=GPa)
#
#
# Indices 1 2 3 4 5 6 
#
# 1 128.3140 43.6292 22.4124 0.0000 21.1941 0.0000
# 2 43.6292 171.9302 -3.2430 0.0000 7.8160 0.0000
# 3 22.4124 -3.2430 52.9034 0.0000 -5.2453 0.0000
# 4 0.0000 0.0000 0.0000 32.1975 0.0000 -20.5627
# 5 21.1941 7.8160 -5.2453 0.0000 32.0401 0.0000
# 6 0.0000 0.0000 0.0000 -20.5627 0.0000 23.5600
#
#
#
# Elastic Compliance Matrix: (Units=1/GPa)
#
#
# Indices 1 2 3 4 5 6 
#
# 1 0.010837 -0.002515 -0.005484 0.000000 -0.007453 0.000000
# 2 -0.002515 0.006468 0.001495 0.000000 0.000330 0.000000
# 3 -0.005484 0.001495 0.021998 0.000000 0.006865 0.000000
# 4 0.000000 0.000000 0.000000 0.070171 0.000000 0.061244
# 5 -0.007453 0.000330 0.006865 0.000000 0.037184 0.000000
# 6 0.000000 0.000000 0.000000 0.061244 0.000000 0.095898
#
#
# Mechanical properties :
#
#
# Convention : Reuss Voigt Hill
#
# Bulk Modulus (GPa) = 38.03140 53.19385 45.61262
# Shear Modulus (GPa) = 18.91574 36.91615 27.91594
#
# Velocity S-wave (km/s) = 2.99659 4.18624 3.64034
# Velocity P-wave (km/s) = 5.47967 6.97267 6.27076
#
# Compressibility (1/GPa) = 0.02629406
#
# Stress axis : x y z
#
# Youngs Moduli (GPa) = 92.27242 154.61616 45.45854
#
# Poissons Ratio (x) = 0.38882 0.24931
# Poissons Ratio (y) = 0.23204 -0.06794
# Poissons Ratio (z) = 0.50606 -0.23109
#
# Static dielectric constant tensor:
#      x y z
#    x 1.811160 0.000000 -0.079580 
#    y 0.000000 1.712460 0.000000 
#    z -0.079580 0.000000 1.854870 
# 
# From -- ./inp_files/32310.got.cif
#   From: 2010.05.17/outbox.cif.g08.bks.cpg/sg10_17_cif.got.tgz:32310.got - 2010.06.03 11:33:40.
