data_PCOD9141924
_publ_section_title
;
Structure prediction by ZEFSAII (Michael W. Deem and Ramdas Pophale) SiO2 
 PCOD9141924
Probable space group: P 2/M
;
_chemical_formula_sum "Si O2"
_cell_formula_units_Z 24
_cell_length_a 11.882516
_cell_length_b 8.391094
_cell_length_c 26.812262
_cell_angle_alpha 90.000000
_cell_angle_beta 150.326917
_cell_angle_gamma 90.000000
_cell_volume 1323.457460
_symmetry_space_group_name_H-M "P 2/M"
_symmetry_group_IT_number 10
_symmetry_cell_setting 'monoclinic'
loop_
_space_group_symop_operation_xyz
x,y,z
-x,y,-z
-x,-y,-z
x,-y,z
loop_
_atom_site_type_symbol
_atom_site_label
_atom_site_fract_x
_atom_site_fract_y
_atom_site_fract_z
Si Si1 0.083415 0.318454 0.178217
Si Si2 0.745937 0.823799 0.119020
Si Si3 0.158314 0.807822 0.395424
Si Si4 0.665473 0.812938 0.205481
Si Si5 0.848049 0.807835 0.988031
Si Si6 0.616708 0.691973 0.619894
O O1 0.130754 0.500000 0.182300
O O2 0.297703 0.253201 0.292495
O O3 0.892550 0.307073 0.147799
O O4 0.975087 0.235227 0.088418
O O5 0.704861 0.805245 0.161332
O O6 0.851714 0.000000 0.150892
O O7 0.500000 0.825187 0.000000
O O8 0.364669 0.748632 0.509007
O O9 0.223862 0.753590 0.364252
O O10 0.909827 0.748374 0.317945
O O11 0.154249 0.000000 0.393241
O O12 0.656343 0.000000 0.216821
O O13 0.412494 0.745606 0.116917
O O14 0.833072 0.000000 0.981301
O O15 0.000000 0.754144 0.000000
O O16 0.626015 0.500000 0.622590
#
# Coordination Sequence:
#
# PCOD9141924 Si02
#       6
#     4   4   4   4   4   4
#     4  11  22  33  49  74 107 138 167 207 251 303
#     4  10  17  29  49  72 103 136 165 202 249 303
#     4  10  18  29  49  74 102 135 168 202 244 297
#     4   9  17  30  50  77 104 129 162 209 254 296
#     4  10  21  38  58  76  97 131 173 214 259 305
#     4  10  20  32  45  69 107 140 167 200 242 295
#
# _framework density 18.134318
#
# number of rings (size 3 to 8) (size 9 to 14) (size 15 to 20)
#    0.000    2.000    3.333    2.500    0.000    2.667 
#    0.000    1.667    0.000    1.000    0.000    7.000 
#    0.000    0.000    0.000    0.000    0.000    0.000 
#
# Total GULP energy -133633.806618 kJ/mol
# GULP energy per Si atom -5568.075276 kJ/mol
# Density = 1.809304 g / cm^3
# Si number density = 18.134318 Si / 1000 Ang^3
#
#
#
# Elastic Constant Matrix: (Units=GPa)
#
#
# Indices 1 2 3 4 5 6 
#
# 1 60.3327 12.6643 60.2161 0.0000 13.3917 0.0000
# 2 12.6643 25.3601 17.4678 0.0000 4.4076 0.0000
# 3 60.2161 17.4678 159.4426 0.0000 24.8851 0.0000
# 4 0.0000 0.0000 0.0000 7.7844 0.0000 -6.6830
# 5 13.3917 4.4076 24.8851 0.0000 13.9204 0.0000
# 6 0.0000 0.0000 0.0000 -6.6830 0.0000 0.6350
#
#
#
# Elastic Compliance Matrix: (Units=1/GPa)
#
#
# Indices 1 2 3 4 5 6 
#
# 1 0.028782 -0.006707 -0.008523 0.000000 -0.010329 0.000000
# 2 -0.006707 0.044732 -0.001614 0.000000 -0.004825 0.000000
# 3 -0.008523 -0.001614 0.011523 0.000000 -0.011889 0.000000
# 4 0.000000 0.000000 0.000000 -0.015988 0.000000 -0.168257
# 5 -0.010329 -0.004825 -0.011889 0.000000 0.104555 0.000000
# 6 0.000000 0.000000 0.000000 -0.168257 0.000000 -0.195987
#
#
# Mechanical properties :
#
#
# Convention : Reuss Voigt Hill
#
# Bulk Modulus (GPa) = 19.47517 47.31463 33.39490
# Shear Modulus (GPa) = 175.91849 14.78712 95.35281
#
# Velocity S-wave (km/s) = 9.85998 2.85866 7.25917
# Velocity P-wave (km/s) = 11.84856 6.08636 9.41892
#
# Compressibility (1/GPa) = 0.05134742
#
# Stress axis : x y z
#
# Youngs Moduli (GPa) = 34.74409 22.35533 86.78142
#
# Poissons Ratio (x) = 0.14994 0.73965
# Poissons Ratio (y) = 0.23304 0.14011
# Poissons Ratio (z) = 0.29613 0.03609
#
# Static dielectric constant tensor:
#      x y z
#    x 1.595520 0.000000 0.017510 
#    y 0.000000 1.655390 0.000000 
#    z 0.017510 0.000000 1.711790 
# 
# From -- ./inp_files/75895.got.cif
#   From: 2010.05.17/outbox.cif.g08.bks.cpg/sg10_38_cif.got.tgz:75895.got - 2010.06.03 11:33:40.
