data_PCOD9141855
_publ_section_title
;
Structure prediction by ZEFSAII (Michael W. Deem and Ramdas Pophale) SiO2 
 PCOD9141855
Probable space group: P 2/M
;
_chemical_formula_sum "Si O2"
_cell_formula_units_Z 32
_cell_length_a 18.907539
_cell_length_b 8.540435
_cell_length_c 10.533173
_cell_angle_alpha 90.000000
_cell_angle_beta 119.744693
_cell_angle_gamma 90.000000
_cell_volume 1476.782003
_symmetry_space_group_name_H-M "P 2/M"
_symmetry_group_IT_number 10
_symmetry_cell_setting 'monoclinic'
loop_
_space_group_symop_operation_xyz
x,y,z
-x,y,-z
-x,-y,-z
x,-y,z
loop_
_atom_site_type_symbol
_atom_site_label
_atom_site_fract_x
_atom_site_fract_y
_atom_site_fract_z
Si Si1 0.936672 0.324234 0.563160
Si Si2 0.071552 0.828626 0.825389
Si Si3 0.263306 0.307647 0.250686
Si Si4 0.500076 0.683255 0.141278
Si Si5 0.690910 0.318568 0.988622
Si Si6 0.910303 0.679421 0.918512
Si Si7 0.428431 0.691673 0.534989
Si Si8 0.801559 0.174794 0.292892
O O1 0.936840 0.500000 0.613525
O O2 0.846503 0.277569 0.439081
O O3 0.000000 0.323523 0.500000
O O4 0.979716 0.209066 0.700378
O O5 0.128273 0.832802 0.752692
O O6 0.078389 0.000000 0.892121
O O7 0.104707 0.691787 0.943698
O O8 0.262208 0.500000 0.246762
O O9 0.279158 0.252613 0.119953
O O10 0.173051 0.256612 0.214470
O O11 0.340008 0.261159 0.404268
O O12 0.525723 0.500000 0.149382
O O13 0.406532 0.685875 0.101919
O O14 0.552477 0.747927 0.305137
O O15 0.500000 0.754501 0.000000
O O16 0.716257 0.500000 0.018716
O O17 0.725311 0.238983 0.146213
O O18 0.919352 0.500000 0.885726
O O19 0.000000 0.755998 0.000000
O O20 0.500000 0.738396 0.500000
O O21 0.430457 0.500000 0.539317
O O22 0.785961 0.000000 0.326322
#
# Coordination Sequence:
#
# PCOD9141855 Si02
#       8
#     4   4   4   4   4   4   4   4
#     4   9  17  29  47  70  96 128 166 211 260 309
#     4  10  19  31  48  69  96 131 170 217 271 321
#     4   9  16  27  46  70  94 125 172 223 263 318
#     4   9  17  28  44  73 110 136 162 214 279 331
#     4  10  17  28  49  73  98 131 172 215 267 324
#     4  10  20  33  48  69  99 134 175 223 271 316
#     4   9  14  24  44  71  99 130 168 212 264 321
#     4  10  19  30  46  72 102 130 168 216 261 313
#
# _framework density 21.668735999999999
#
# number of rings (size 3 to 8) (size 9 to 14) (size 15 to 20)
#    0.000    2.500    2.500    1.125    0.000    2.750 
#    0.000    1.250    0.000    4.875    0.000    2.625 
#    0.000    0.000    0.000    0.000    0.000    0.000 
#
# Total GULP energy -178250.012474 kJ/mol
# GULP energy per Si atom -5570.312890 kJ/mol
# Density = 2.161942 g / cm^3
# Si number density = 21.668736 Si / 1000 Ang^3
#
#
#
# Elastic Constant Matrix: (Units=GPa)
#
#
# Indices 1 2 3 4 5 6 
#
# 1 57.5925 -3.5152 36.3546 0.0000 11.0696 0.0000
# 2 -3.5152 27.3878 2.8631 0.0000 1.2470 0.0000
# 3 36.3546 2.8631 142.7642 0.0000 17.8143 0.0000
# 4 0.0000 0.0000 0.0000 8.9670 0.0000 -2.7435
# 5 11.0696 1.2470 17.8143 0.0000 35.0066 0.0000
# 6 0.0000 0.0000 0.0000 -2.7435 0.0000 0.7272
#
#
#
# Elastic Compliance Matrix: (Units=1/GPa)
#
#
# Indices 1 2 3 4 5 6 
#
# 1 0.021590 0.003496 -0.005019 0.000000 -0.004397 0.000000
# 2 0.003496 0.037188 -0.001423 0.000000 -0.001706 0.000000
# 3 -0.005019 -0.001423 0.008657 0.000000 -0.002767 0.000000
# 4 0.000000 0.000000 0.000000 -0.722880 0.000000 -2.727166
# 5 -0.004397 -0.001706 -0.002767 0.000000 0.031426 0.000000
# 6 0.000000 0.000000 0.000000 -2.727166 0.000000 -8.913511
#
#
# Mechanical properties :
#
#
# Convention : Reuss Voigt Hill
#
# Bulk Modulus (GPa) = 16.24910 33.23884 24.74397
# Shear Modulus (GPa) = -0.52570 21.74294 10.60862
#
# Velocity S-wave (km/s) = -0.49309 3.17112 2.21505
# Velocity P-wave (km/s) = 2.68160 5.36478 4.24098
#
# Compressibility (1/GPa) = 0.06154185
#
# Stress axis : x y z
#
# Youngs Moduli (GPa) = 46.31689 26.89052 115.51912
#
# Poissons Ratio (x) = -0.09401 0.57983
# Poissons Ratio (y) = -0.16193 0.16441
# Poissons Ratio (z) = 0.23248 0.03827
#
# Static dielectric constant tensor:
#      x y z
#    x 1.866280 0.000000 -0.027570 
#    y 0.000000 1.772150 0.000000 
#    z -0.027570 0.000000 1.826700 
# 
# From -- ./inp_files/55392.got.cif
#   From: 2010.05.17/outbox.cif.g08.bks.cpg/sg10_28_cif.got.tgz:55392.got - 2010.06.03 11:33:40.
