data_PCOD9141845
_publ_section_title
;
Structure prediction by ZEFSAII (Michael W. Deem and Ramdas Pophale) SiO2 
 PCOD9141845
Probable space group: P 2/M
;
_chemical_formula_sum "Si O2"
_cell_formula_units_Z 28
_cell_length_a 7.800713
_cell_length_b 15.075722
_cell_length_c 17.611039
_cell_angle_alpha 90.000000
_cell_angle_beta 48.362848
_cell_angle_gamma 90.000000
_cell_volume 1547.859599
_symmetry_space_group_name_H-M "P 2/M"
_symmetry_group_IT_number 10
_symmetry_cell_setting 'monoclinic'
loop_
_space_group_symop_operation_xyz
x,y,z
-x,y,-z
-x,-y,-z
x,-y,z
loop_
_atom_site_type_symbol
_atom_site_label
_atom_site_fract_x
_atom_site_fract_y
_atom_site_fract_z
Si Si1 0.289786 0.897863 0.499998
Si Si2 0.219008 0.100123 0.884738
Si Si3 0.470024 0.598135 0.380786
Si Si4 0.626775 0.100124 0.884739
Si Si5 0.887617 0.401865 0.380788
Si Si6 0.994630 0.215650 0.306679
Si Si7 0.414658 0.215651 0.693324
O O1 0.500000 0.898206 0.500000
O O2 0.080752 0.845811 0.600639
O O3 0.382680 0.845811 0.399355
O O4 0.234449 0.000000 0.499998
O O5 0.432784 0.095520 0.878143
O O6 0.287128 0.168652 0.799948
O O7 0.177166 0.000000 0.866065
O O8 0.000000 0.124982 0.000000
O O9 0.457627 0.500000 0.348975
O O10 0.248438 0.610506 0.499999
O O11 0.686423 0.596342 0.375719
O O12 0.500211 0.683888 0.319462
O O13 0.813028 0.168649 0.799944
O O14 0.724625 0.000000 0.866074
O O15 0.500000 0.124989 0.000000
O O16 0.995446 0.500000 0.348977
O O17 0.041403 0.316112 0.319465
O O18 0.769912 0.220775 0.320060
#
# Coordination Sequence:
#
# PCOD9141845 Si02
#       7
#     4   4   4   4   4   4   4
#     4   9  16  24  38  66 100 129 157 189 228 277
#     4  10  21  36  52  70  93 124 162 202 243 287
#     4   8  13  23  42  70 101 129 161 199 234 274
#     4  10  21  36  52  70  93 124 162 202 243 287
#     4   8  13  23  42  70 101 129 161 199 234 274
#     4  10  17  28  48  73  99 129 162 197 237 281
#     4  10  17  28  48  73  99 129 162 197 237 281
#
# _framework density 18.089496
#
# number of rings (size 3 to 8) (size 9 to 14) (size 15 to 20)
#    0.000    2.714    1.429    2.571    0.000    2.857 
#    0.000    0.714    0.000    4.286    0.000    2.000 
#    0.000    0.000    0.000    0.000    0.000    0.000 
#
# Total GULP energy -156123.796525 kJ/mol
# GULP energy per Si atom -5575.849876 kJ/mol
# Density = 1.804832 g / cm^3
# Si number density = 18.089496 Si / 1000 Ang^3
#
#
#
# Elastic Constant Matrix: (Units=GPa)
#
#
# Indices 1 2 3 4 5 6 
#
# 1 19.0228 9.9178 -4.9576 0.0000 0.0457 0.0000
# 2 9.9178 205.7954 114.9164 0.0000 1.1324 0.0000
# 3 -4.9576 114.9164 116.0777 0.0000 0.9939 0.0000
# 4 0.0000 0.0000 0.0000 24.3376 0.0000 0.1975
# 5 0.0457 1.1324 0.9939 0.0000 14.1943 0.0000
# 6 0.0000 0.0000 0.0000 0.1975 0.0000 6.0945
#
#
#
# Elastic Compliance Matrix: (Units=1/GPa)
#
#
# Indices 1 2 3 4 5 6 
#
# 1 0.060893 -0.009809 0.012314 0.000000 -0.000276 0.000000
# 2 -0.009809 0.012447 -0.012740 0.000000 -0.000069 0.000000
# 3 0.012314 -0.012740 0.021758 0.000000 -0.000547 0.000000
# 4 0.000000 0.000000 0.000000 0.041099 0.000000 -0.001332
# 5 -0.000276 -0.000069 -0.000547 0.000000 0.070495 0.000000
# 6 0.000000 0.000000 0.000000 -0.001332 0.000000 0.164127
#
#
# Mechanical properties :
#
#
# Convention : Reuss Voigt Hill
#
# Bulk Modulus (GPa) = 13.40002 64.51656 38.95829
# Shear Modulus (GPa) = 12.01444 23.65990 17.83717
#
# Velocity S-wave (km/s) = 2.57994 3.62046 3.14355
# Velocity P-wave (km/s) = 4.03714 7.29518 5.89568
#
# Compressibility (1/GPa) = 0.07462677
#
# Stress axis : x y z
#
# Youngs Moduli (GPa) = 16.42232 80.34352 45.95919
#
# Poissons Ratio (x) = 0.78812 -0.56595
# Poissons Ratio (y) = 0.16109 0.58554
# Poissons Ratio (z) = -0.20223 1.02361
#
# Static dielectric constant tensor:
#      x y z
#    x 1.667330 0.000000 -0.000570 
#    y 0.000000 1.658680 0.000000 
#    z -0.000570 0.000000 1.614430 
# 
# From -- ./inp_files/25074.got.cif
#   From: 2010.05.17/outbox.cif.g08.bks.cpg/sg10_13_cif.got.tgz:25074.got - 2010.06.03 11:33:40.
