data_PCOD9141781
_publ_section_title
;
Structure prediction by ZEFSAII (Michael W. Deem and Ramdas Pophale) SiO2 
 PCOD9141781
Probable space group: P 2/M
;
_chemical_formula_sum "Si O2"
_cell_formula_units_Z 24
_cell_length_a 28.948825
_cell_length_b 12.714256
_cell_length_c 12.038349
_cell_angle_alpha 90.000000
_cell_angle_beta 160.511041
_cell_angle_gamma 90.000000
_cell_volume 1478.249276
_symmetry_space_group_name_H-M "P 2/M"
_symmetry_group_IT_number 10
_symmetry_cell_setting 'monoclinic'
loop_
_space_group_symop_operation_xyz
x,y,z
-x,y,-z
-x,-y,-z
x,-y,z
loop_
_atom_site_type_symbol
_atom_site_label
_atom_site_fract_x
_atom_site_fract_y
_atom_site_fract_z
Si Si1 0.362239 0.712569 0.432453
Si Si2 0.642234 0.875179 0.385256
Si Si3 0.304164 0.304220 0.830571
Si Si4 0.332807 0.621618 0.137645
Si Si5 0.316109 0.500000 0.705479
Si Si6 0.163052 0.122475 0.381498
Si Si7 0.652893 0.500000 0.475685
O O1 0.331942 0.810346 0.444078
O O2 0.305023 0.699116 0.177897
O O3 0.313665 0.606798 0.384678
O O4 0.529663 0.710370 0.801334
O O5 0.761765 0.857685 0.565740
O O6 0.629733 0.000000 0.379497
O O7 0.500000 0.840613 0.000000
O O8 0.268308 0.397353 0.663375
O O9 0.229115 0.199196 0.621521
O O10 0.272241 0.339998 0.883465
O O11 0.500000 0.619589 0.500000
O O12 0.293096 0.500000 0.071480
O O13 0.281906 0.500000 0.498486
O O14 0.484507 0.500000 0.088676
O O15 0.188374 0.000000 0.466943
O O16 0.000000 0.139216 0.000000
#
# Coordination Sequence:
#
# PCOD9141781 Si02
#       7
#     4   4   4   4   2   4   2
#     4  10  17  27  46  75 104 132 167 199 248 300
#     4  10  19  32  51  74 102 130 160 210 264 296
#     4  10  17  29  48  70 102 136 168 202 246 296
#     4   9  16  28  44  71 106 140 165 199 246 296
#     4   9  16  23  40  69  96 128 161 198 247 294
#     4  10  21  36  53  73  99 134 171 206 252 306
#     4   9  16  21  37  69 104 125 155 203 240 294
#
# _framework density 16.235422
#
# number of rings (size 3 to 8) (size 9 to 14) (size 15 to 20)
#    0.000    2.333    3.333    1.000    2.333    0.000 
#    0.000    1.250    0.000    4.000    0.000    4.667 
#    0.000    0.000    0.000    0.000    0.000    0.000 
#
# Total GULP energy -133709.880457 kJ/mol
# GULP energy per Si atom -5571.245019 kJ/mol
# Density = 1.619847 g / cm^3
# Si number density = 16.235422 Si / 1000 Ang^3
#
#
#
# Elastic Constant Matrix: (Units=GPa)
#
#
# Indices 1 2 3 4 5 6 
#
# 1 118.6040 60.9390 44.7969 0.0000 -26.0203 0.0000
# 2 60.9390 85.6008 36.6054 0.0000 -17.0441 0.0000
# 3 44.7969 36.6054 30.5488 0.0000 -5.9730 0.0000
# 4 0.0000 0.0000 0.0000 11.8211 0.0000 -4.3745
# 5 -26.0203 -17.0441 -5.9730 0.0000 25.4135 0.0000
# 6 0.0000 0.0000 0.0000 -4.3745 0.0000 21.5065
#
#
#
# Elastic Compliance Matrix: (Units=1/GPa)
#
#
# Indices 1 2 3 4 5 6 
#
# 1 0.024616 -0.000145 -0.032509 0.000000 0.017466 0.000000
# 2 -0.000145 0.026522 -0.029473 0.000000 0.010712 0.000000
# 3 -0.032509 -0.029473 0.110424 0.000000 -0.027099 0.000000
# 4 0.000000 0.000000 0.000000 0.091480 0.000000 0.018607
# 5 0.017466 0.010712 -0.027099 0.000000 0.058048 0.000000
# 6 0.000000 0.000000 0.000000 0.018607 0.000000 0.050282
#
#
# Mechanical properties :
#
#
# Convention : Reuss Voigt Hill
#
# Bulk Modulus (GPa) = 26.80378 57.71515 42.25946
# Shear Modulus (GPa) = 10.03889 17.90903 13.97396
#
# Velocity S-wave (km/s) = 2.48933 3.32487 2.93697
# Velocity P-wave (km/s) = 4.98072 7.09689 6.13080
#
# Compressibility (1/GPa) = 0.03730817
#
# Stress axis : x y z
#
# Youngs Moduli (GPa) = 40.62326 37.70498 9.05598
#
# Poissons Ratio (x) = 0.00546 0.29440
# Poissons Ratio (y) = 0.00588 0.26691
# Poissons Ratio (z) = 1.32063 1.11129
#
# Static dielectric constant tensor:
#      x y z
#    x 1.552820 0.000000 -0.001640 
#    y 0.000000 1.546520 0.000000 
#    z -0.001640 0.000000 1.527030 
# 
# From -- ./inp_files/36222.got.cif
#   From: 2010.05.17/outbox.cif.g08.bks.cpg/sg10_19_cif.got.tgz:36222.got - 2010.06.03 11:33:40.
