data_PCOD9141315
_publ_section_title
;
Structure prediction by ZEFSAII (Michael W. Deem and Ramdas Pophale) SiO2 
 PCOD9141315
Probable space group: P 2/M
;
_chemical_formula_sum "Si O2"
_cell_formula_units_Z 24
_cell_length_a 14.791525
_cell_length_b 14.969339
_cell_length_c 8.027340
_cell_angle_alpha 90.000000
_cell_angle_beta 142.169148
_cell_angle_gamma 90.000000
_cell_volume 1090.142242
_symmetry_space_group_name_H-M "P 2/M"
_symmetry_group_IT_number 10
_symmetry_cell_setting 'monoclinic'
loop_
_space_group_symop_operation_xyz
x,y,z
-x,y,-z
-x,-y,-z
x,-y,z
loop_
_atom_site_type_symbol
_atom_site_label
_atom_site_fract_x
_atom_site_fract_y
_atom_site_fract_z
Si Si1 0.901027 0.194410 0.011764
Si Si2 0.212033 0.000000 0.688850
Si Si3 0.790333 0.806129 0.389209
Si Si4 0.341327 0.500000 0.676574
Si Si5 0.115553 0.000000 0.931803
Si Si6 0.298582 0.309884 0.058111
Si Si7 0.175309 0.500000 0.777012
Si Si8 0.594012 0.688622 0.311568
O O1 0.774825 0.260009 0.892671
O O2 0.033059 0.188659 0.340243
O O3 0.846888 0.091640 0.918063
O O4 0.000000 0.223080 0.000000
O O5 0.278568 0.096078 0.741914
O O6 0.185487 0.000000 0.849073
O O7 0.059174 0.000000 0.361408
O O8 0.761615 0.742524 0.191616
O O9 0.712698 0.763988 0.439337
O O10 0.230313 0.500000 0.667030
O O11 0.331333 0.591713 0.561945
O O12 0.500000 0.500000 0.000000
O O13 0.241537 0.411472 0.960140
O O14 0.473664 0.302388 0.280828
O O15 0.000000 0.500000 0.500000
O O16 0.500000 0.685682 0.000000
#
# Coordination Sequence:
#
# PCOD9141315 Si02
#       8
#     4   2   4   2   2   4   2   4
#     4  11  22  35  52  76 105 141 179 214 254 311
#     4   9  16  28  52  82 106 126 165 221 268 306
#     4  10  18  33  54  78 105 135 168 217 267 306
#     4  10  14  30  48  77 110 129 167 214 259 312
#     4   9  17  32  53  75 102 138 172 211 259 313
#     4  11  20  34  53  79 108 133 176 217 262 305
#     4  12  20  28  51  85 110 136 166 218 269 305
#     4   9  17  30  51  77 107 132 167 213 264 309
#
# _framework density 22.015477000000001
#
# number of rings (size 3 to 8) (size 9 to 14) (size 15 to 20)
#    0.000    1.833    6.667    1.750    0.000    0.000 
#    0.000    5.833    0.000    0.000    0.000    7.000 
#    0.000    0.000    0.000    0.000    0.000    0.000 
#
# Total GULP energy -133934.750358 kJ/mol
# GULP energy per Si atom -5580.614598 kJ/mol
# Density = 2.196537 g / cm^3
# Si number density = 22.015477 Si / 1000 Ang^3
#
#
#
# Elastic Constant Matrix: (Units=GPa)
#
#
# Indices 1 2 3 4 5 6 
#
# 1 182.2388 82.8845 18.1772 0.0000 19.3185 0.0000
# 2 82.8845 176.2827 13.2318 0.0000 21.9004 0.0000
# 3 18.1772 13.2318 27.5882 0.0000 12.2778 0.0000
# 4 0.0000 0.0000 0.0000 8.6424 0.0000 4.3365
# 5 19.3185 21.9004 12.2778 0.0000 37.6998 0.0000
# 6 0.0000 0.0000 0.0000 4.3365 0.0000 45.6742
#
#
#
# Elastic Compliance Matrix: (Units=1/GPa)
#
#
# Indices 1 2 3 4 5 6 
#
# 1 0.007283 -0.003084 -0.002872 0.000000 -0.001005 0.000000
# 2 -0.003084 0.007479 -0.000380 0.000000 -0.002641 0.000000
# 3 -0.002872 -0.000380 0.043937 0.000000 -0.012616 0.000000
# 4 0.000000 0.000000 0.000000 0.121496 0.000000 -0.011535
# 5 -0.001005 -0.002641 -0.012616 0.000000 0.032683 0.000000
# 6 0.000000 0.000000 0.000000 -0.011535 0.000000 0.022989
#
#
# Mechanical properties :
#
#
# Convention : Reuss Voigt Hill
#
# Bulk Modulus (GPa) = 21.72643 68.29965 45.01304
# Shear Modulus (GPa) = 18.94783 36.52436 27.73610
#
# Velocity S-wave (km/s) = 2.93688 4.07754 3.55328
# Velocity P-wave (km/s) = 4.62499 7.29789 6.10941
#
# Compressibility (1/GPa) = 0.04602690
#
# Stress axis : x y z
#
# Youngs Moduli (GPa) = 137.30808 133.70308 22.75996
#
# Poissons Ratio (x) = 0.41231 0.06537
# Poissons Ratio (y) = 0.42343 0.00865
# Poissons Ratio (z) = 0.39437 0.05082
#
# Static dielectric constant tensor:
#      x y z
#    x 1.810560 0.000000 -0.042870 
#    y 0.000000 1.853870 0.000000 
#    z -0.042870 0.000000 1.865530 
# 
# From -- ./inp_files/29757.got.cif
#   From: 2010.05.17/outbox.cif.g08.bks.cpg/sg10_15_cif.got.tgz:29757.got - 2010.06.03 11:33:40.
