data_PCOD9141755
_publ_section_title
;
Structure prediction by ZEFSAII (Michael W. Deem and Ramdas Pophale) SiO2 
 PCOD9141755
Probable space group: P 2/M
;
_chemical_formula_sum "Si O2"
_cell_formula_units_Z 28
_cell_length_a 15.028793
_cell_length_b 8.613675
_cell_length_c 18.027271
_cell_angle_alpha 90.000000
_cell_angle_beta 49.075084
_cell_angle_gamma 90.000000
_cell_volume 1763.260647
_symmetry_space_group_name_H-M "P 2/M"
_symmetry_group_IT_number 10
_symmetry_cell_setting 'monoclinic'
loop_
_space_group_symop_operation_xyz
x,y,z
-x,y,-z
-x,-y,-z
x,-y,z
loop_
_atom_site_type_symbol
_atom_site_label
_atom_site_fract_x
_atom_site_fract_y
_atom_site_fract_z
Si Si1 0.040233 0.814740 0.748495
Si Si2 0.662876 0.812158 0.270755
Si Si3 0.972283 0.312805 0.634544
Si Si4 0.586204 0.187762 0.635325
Si Si5 0.687241 0.812346 0.423230
Si Si6 0.924446 0.685875 0.112197
Si Si7 0.189265 0.312978 0.412195
O O1 0.175200 0.770577 0.654679
O O2 0.020087 0.746094 0.840976
O O3 0.964449 0.754197 0.721086
O O4 0.033953 0.000000 0.756171
O O5 0.550511 0.765797 0.283014
O O6 0.636998 0.765233 0.370666
O O7 0.790152 0.746253 0.180767
O O8 0.671659 0.000000 0.265203
O O9 0.974414 0.500000 0.637187
O O10 0.867938 0.267053 0.635244
O O11 0.094237 0.263023 0.527086
O O12 0.629112 0.244079 0.530471
O O13 0.682373 0.248303 0.640350
O O14 0.589928 0.000000 0.633822
O O15 0.678250 0.000000 0.430169
O O16 0.922201 0.500000 0.115323
O O17 0.000000 0.737275 0.000000
O O18 0.192798 0.500000 0.412231
#
# Coordination Sequence:
#
# PCOD9141755 Si02
#       7
#     4   4   4   4   4   4   4
#     4  10  18  29  49  72  93 121 156 195 235 273
#     4   9  18  30  46  67  92 122 155 191 231 274
#     4   9  17  30  44  62  93 130 164 196 230 267
#     4  10  17  27  43  65  94 127 159 192 227 266
#     4   8  14  25  40  61  90 122 152 182 219 264
#     4  10  21  36  52  70  93 120 150 189 236 284
#     4   9  18  29  42  62  93 132 166 196 227 262
#
# _framework density 15.879671
#
# number of rings (size 3 to 8) (size 9 to 14) (size 15 to 20)
#    0.000    2.714    1.429    3.000    0.000    4.000 
#    0.000    1.429    0.000    2.571    0.000    1.000 
#    0.000    8.000    0.000    0.000    0.000    0.000 
#
# Total GULP energy -155975.304719 kJ/mol
# GULP energy per Si atom -5570.546597 kJ/mol
# Density = 1.584353 g / cm^3
# Si number density = 15.879671 Si / 1000 Ang^3
#
#
#
# Elastic Constant Matrix: (Units=GPa)
#
#
# Indices 1 2 3 4 5 6 
#
# 1 148.0107 28.0028 57.1305 0.0000 4.8525 0.0000
# 2 28.0028 16.5750 21.6658 0.0000 4.1231 0.0000
# 3 57.1305 21.6658 72.6243 0.0000 12.7676 0.0000
# 4 0.0000 0.0000 0.0000 12.2491 0.0000 1.5776
# 5 4.8525 4.1231 12.7676 0.0000 17.0848 0.0000
# 6 0.0000 0.0000 0.0000 1.5776 0.0000 25.3829
#
#
#
# Elastic Compliance Matrix: (Units=1/GPa)
#
#
# Indices 1 2 3 4 5 6 
#
# 1 0.011220 -0.012291 -0.005895 0.000000 0.004185 0.000000
# 2 -0.012291 0.112426 -0.022697 0.000000 -0.006680 0.000000
# 3 -0.005895 -0.022697 0.027539 0.000000 -0.013428 0.000000
# 4 0.000000 0.000000 0.000000 0.082298 0.000000 -0.005115
# 5 0.004185 -0.006680 -0.013428 0.000000 0.068990 0.000000
# 6 0.000000 0.000000 0.000000 -0.005115 0.000000 0.039715
#
#
# Mechanical properties :
#
#
# Convention : Reuss Voigt Hill
#
# Bulk Modulus (GPa) = 14.40526 50.08981 32.24753
# Shear Modulus (GPa) = 11.18337 19.63741 15.41039
#
# Velocity S-wave (km/s) = 2.65666 3.52040 3.11858
# Velocity P-wave (km/s) = 4.30136 6.93802 5.77225
#
# Compressibility (1/GPa) = 0.06941910
#
# Stress axis : x y z
#
# Youngs Moduli (GPa) = 89.12701 8.89475 36.31219
#
# Poissons Ratio (x) = 0.10932 0.21407
# Poissons Ratio (y) = 1.09543 0.82417
# Poissons Ratio (z) = 0.52544 0.20188
#
# Static dielectric constant tensor:
#      x y z
#    x 1.557490 0.000000 -0.000960 
#    y 0.000000 1.542930 0.000000 
#    z -0.000960 0.000000 1.514520 
# 
# From -- ./inp_files/65735.got.cif
#   From: 2010.05.17/outbox.cif.g08.bks.cpg/sg10_33_cif.got.tgz:65735.got - 2010.06.03 11:33:40.
