data_PCOD9141683
_publ_section_title
;
Structure prediction by ZEFSAII (Michael W. Deem and Ramdas Pophale) SiO2 
 PCOD9141683
Probable space group: P 2/M
;
_chemical_formula_sum "Si O2"
_cell_formula_units_Z 28
_cell_length_a 14.510401
_cell_length_b 9.266733
_cell_length_c 29.431174
_cell_angle_alpha 90.000000
_cell_angle_beta 28.667709
_cell_angle_gamma 90.000000
_cell_volume 1898.496023
_symmetry_space_group_name_H-M "P 2/M"
_symmetry_group_IT_number 10
_symmetry_cell_setting 'monoclinic'
loop_
_space_group_symop_operation_xyz
x,y,z
-x,y,-z
-x,-y,-z
x,-y,z
loop_
_atom_site_type_symbol
_atom_site_label
_atom_site_fract_x
_atom_site_fract_y
_atom_site_fract_z
Si Si1 0.910180 0.172635 0.641100
Si Si2 0.773040 0.828981 0.798343
Si Si3 0.267852 0.333501 0.093815
Si Si4 0.784815 0.828153 0.075733
Si Si5 0.319950 0.171340 0.981255
Si Si6 0.828418 0.665315 0.536705
Si Si7 0.423903 0.673564 0.272428
O O1 0.897095 0.206458 0.700222
O O2 0.731176 0.250859 0.693725
O O3 0.100269 0.231146 0.533970
O O4 0.891127 0.000000 0.643919
O O5 0.817845 0.743559 0.824819
O O6 0.549611 0.799911 0.881988
O O7 0.787515 0.000000 0.800939
O O8 0.212325 0.500000 0.115840
O O9 0.500000 0.325895 0.000000
O O10 0.229730 0.254296 0.062822
O O11 0.762878 0.789601 0.032044
O O12 0.629608 0.737516 0.170912
O O13 0.740589 0.000000 0.098770
O O14 0.000000 0.804680 0.000000
O O15 0.295688 0.000000 0.998545
O O16 0.811132 0.500000 0.528062
O O17 0.643683 0.705704 0.646663
O O18 0.000000 0.666929 0.500000
O O19 0.414968 0.500000 0.270613
#
# Coordination Sequence:
#
# PCOD9141683 Si02
#       7
#     4   4   4   4   4   4   4
#     4  10  17  26  42  64  86 112 146 177 209 253
#     4   9  16  26  40  59  84 113 141 169 208 254
#     4   9  17  26  38  59  81 106 141 174 205 248
#     4  10  20  33  48  65  84 110 149 189 219 251
#     4   9  16  29  43  56  80 112 140 173 216 252
#     4   8  16  28  39  57  83 113 143 172 211 255
#     4  10  19  30  43  58  84 116 145 178 217 257
#
# _framework density 14.748516
#
# number of rings (size 3 to 8) (size 9 to 14) (size 15 to 20)
#    0.000    2.714    1.429    2.143    0.000    6.857 
#    0.000    0.000    0.000    0.000    0.000    0.000 
#    0.000    1.143    0.000   12.857    0.000    6.429 
#
# Total GULP energy -155940.842172 kJ/mol
# GULP energy per Si atom -5569.315792 kJ/mol
# Density = 1.471495 g / cm^3
# Si number density = 14.748516 Si / 1000 Ang^3
#
#
#
# Elastic Constant Matrix: (Units=GPa)
#
#
# Indices 1 2 3 4 5 6 
#
# 1 66.6623 44.9126 56.4594 0.0000 23.7280 0.0000
# 2 44.9126 65.2386 64.0538 0.0000 25.0648 0.0000
# 3 56.4594 64.0538 101.8276 0.0000 34.4013 0.0000
# 4 0.0000 0.0000 0.0000 24.9105 0.0000 4.5438
# 5 23.7280 25.0648 34.4013 0.0000 27.0825 0.0000
# 6 0.0000 0.0000 0.0000 4.5438 0.0000 -5.8622
#
#
#
# Elastic Compliance Matrix: (Units=1/GPa)
#
#
# Indices 1 2 3 4 5 6 
#
# 1 0.032193 -0.011135 -0.008404 0.000000 -0.007224 0.000000
# 2 -0.011135 0.045196 -0.020006 0.000000 -0.006660 0.000000
# 3 -0.008404 -0.020006 0.032095 0.000000 -0.014890 0.000000
# 4 0.000000 0.000000 0.000000 0.035171 0.000000 0.027261
# 5 -0.007224 -0.006660 -0.014890 0.000000 0.068331 0.000000
# 6 0.000000 0.000000 0.000000 0.027261 0.000000 -0.149454
#
#
# Mechanical properties :
#
#
# Convention : Reuss Voigt Hill
#
# Bulk Modulus (GPa) = 32.90290 62.73114 47.81702
# Shear Modulus (GPa) = 32.73237 13.77967 23.25602
#
# Velocity S-wave (km/s) = 4.71613 3.05996 3.97525
# Velocity P-wave (km/s) = 7.21204 7.42366 7.31861
#
# Compressibility (1/GPa) = 0.03039246
#
# Stress axis : x y z
#
# Youngs Moduli (GPa) = 31.06303 22.12605 31.15721
#
# Poissons Ratio (x) = 0.24638 0.26186
# Poissons Ratio (y) = 0.34590 0.62332
# Poissons Ratio (z) = 0.26107 0.44265
#
# Static dielectric constant tensor:
#      x y z
#    x 1.463860 0.000000 0.021930 
#    y 0.000000 1.492660 0.000000 
#    z 0.021930 0.000000 1.496500 
# 
# From -- ./inp_files/65777.got.cif
#   From: 2010.05.17/outbox.cif.g08.bks.cpg/sg10_33_cif.got.tgz:65777.got - 2010.06.03 11:33:40.
