data_PCOD9141659
_publ_section_title
;
Structure prediction by ZEFSAII (Michael W. Deem and Ramdas Pophale) SiO2 
 PCOD9141659
Probable space group: P 2/M
;
_chemical_formula_sum "Si O2"
_cell_formula_units_Z 32
_cell_length_a 16.989336
_cell_length_b 8.563602
_cell_length_c 14.355871
_cell_angle_alpha 90.000000
_cell_angle_beta 86.609500
_cell_angle_gamma 90.000000
_cell_volume 2084.978559
_symmetry_space_group_name_H-M "P 2/M"
_symmetry_group_IT_number 10
_symmetry_cell_setting 'monoclinic'
loop_
_space_group_symop_operation_xyz
x,y,z
-x,y,-z
-x,-y,-z
x,-y,z
loop_
_atom_site_type_symbol
_atom_site_label
_atom_site_fract_x
_atom_site_fract_y
_atom_site_fract_z
Si Si1 0.590905 0.319594 0.029410
Si Si2 0.524247 0.689089 0.222107
Si Si3 0.428402 0.688850 0.573176
Si Si4 0.642351 0.813879 0.838422
Si Si5 0.219745 0.809990 0.305148
Si Si6 0.262308 0.186948 0.513503
Si Si7 0.898450 0.315440 0.436516
Si Si8 0.051971 0.814362 0.365701
O O1 0.616365 0.500000 0.029545
O O2 0.639795 0.231655 0.947230
O O3 0.500000 0.316923 0.000000
O O4 0.582998 0.257412 0.135148
O O5 0.522886 0.500000 0.217923
O O6 0.551020 0.736723 0.322765
O O7 0.436455 0.746432 0.204136
O O8 0.500000 0.733943 0.500000
O O9 0.422081 0.500000 0.571535
O O10 0.346749 0.760093 0.544094
O O11 0.719455 0.756666 0.777731
O O12 0.638943 0.000000 0.830776
O O13 0.250860 0.763543 0.405802
O O14 0.128264 0.761542 0.301313
O O15 0.219017 0.000000 0.304686
O O16 0.190600 0.262992 0.576689
O O17 0.254993 0.000000 0.517719
O O18 0.901998 0.500000 0.452766
O O19 0.920335 0.225321 0.530689
O O20 0.967584 0.267694 0.360373
O O21 0.041882 0.000000 0.357394
#
# Coordination Sequence:
#
# PCOD9141659 Si02
#       8
#     4   4   4   4   4   4   4   4
#     4   8  15  28  42  56  77 106 135 163 204 253
#     4   9  18  31  43  56  80 111 138 168 209 250
#     4  10  20  32  45  62  83 108 141 179 212 239
#     4  10  17  26  42  63  83 104 136 174 206 238
#     4   8  16  27  39  58  85 112 135 164 204 246
#     4  10  19  31  44  58  80 113 146 172 204 246
#     4  10  17  26  40  59  81 105 138 176 207 236
#     4   9  15  26  41  57  80 110 139 165 202 250
#
# _framework density 15.34788
#
# number of rings (size 3 to 8) (size 9 to 14) (size 15 to 20)
#    0.000    2.750    0.000    5.250    0.000    3.000 
#    0.000    6.875    0.000    0.000    0.000    0.000 
#    0.000    1.000    0.000   11.500    0.000    3.750 
#
# Total GULP energy -178168.549840 kJ/mol
# GULP energy per Si atom -5567.767182 kJ/mol
# Density = 1.531295 g / cm^3
# Si number density = 15.347880 Si / 1000 Ang^3
#
#
#
# Elastic Constant Matrix: (Units=GPa)
#
#
# Indices 1 2 3 4 5 6 
#
# 1 113.0228 20.3936 55.6892 0.0000 -28.5229 0.0000
# 2 20.3936 19.5010 16.6972 0.0000 -4.5140 0.0000
# 3 55.6892 16.6972 100.6421 0.0000 -20.4332 0.0000
# 4 0.0000 0.0000 0.0000 14.1262 0.0000 0.9902
# 5 -28.5229 -4.5140 -20.4332 0.0000 23.4197 0.0000
# 6 0.0000 0.0000 0.0000 0.9902 0.0000 15.4526
#
#
#
# Elastic Compliance Matrix: (Units=1/GPa)
#
#
# Indices 1 2 3 4 5 6 
#
# 1 0.016489 -0.010043 -0.004586 0.000000 0.014145 0.000000
# 2 -0.010043 0.066122 -0.006451 0.000000 -0.005116 0.000000
# 3 -0.004586 -0.006451 0.014775 0.000000 0.006062 0.000000
# 4 0.000000 0.000000 0.000000 0.071110 0.000000 -0.004557
# 5 0.014145 -0.005116 0.006062 0.000000 0.064230 0.000000
# 6 0.000000 0.000000 0.000000 -0.004557 0.000000 0.065006
#
#
# Mechanical properties :
#
#
# Convention : Reuss Voigt Hill
#
# Bulk Modulus (GPa) = 18.10770 46.52509 32.31640
# Shear Modulus (GPa) = 13.95472 19.95877 16.95674
#
# Velocity S-wave (km/s) = 3.01861 3.61005 3.32750
# Velocity P-wave (km/s) = 4.89624 6.91058 5.98871
#
# Compressibility (1/GPa) = 0.05522513
#
# Stress axis : x y z
#
# Youngs Moduli (GPa) = 60.64487 15.12353 67.68210
#
# Poissons Ratio (x) = 0.15189 0.31040
# Poissons Ratio (y) = 0.60907 0.43665
# Poissons Ratio (z) = 0.27812 0.09757
#
# Static dielectric constant tensor:
#      x y z
#    x 1.524670 0.000000 -0.034220 
#    y 0.000000 1.522010 0.000000 
#    z -0.034220 0.000000 1.526290 
# 
# From -- ./inp_files/65988.got.cif
#   From: 2010.05.17/outbox.cif.g08.bks.cpg/sg10_33_cif.got.tgz:65988.got - 2010.06.03 11:33:40.
