data_PCOD9141188
_publ_section_title
;
Structure prediction by ZEFSAII (Michael W. Deem and Ramdas Pophale) SiO2 
 PCOD9141188
Probable space group: C C
;
_chemical_formula_sum "Si O2"
_cell_formula_units_Z 20
_cell_length_a 11.573366
_cell_length_b 7.791226
_cell_length_c 15.521503
_cell_angle_alpha 90.000000
_cell_angle_beta 30.172482
_cell_angle_gamma 90.000000
_cell_volume 703.438105
_symmetry_space_group_name_H-M "C C"
_symmetry_group_IT_number 9
_symmetry_cell_setting 'monoclinic'
loop_
_space_group_symop_operation_xyz
x,y,z
x,-y,1/2+z
1/2+x,1/2+y,z
1/2+x,1/2-y,1/2+z
loop_
_atom_site_type_symbol
_atom_site_label
_atom_site_fract_x
_atom_site_fract_y
_atom_site_fract_z
Si Si1 0.074810 0.095068 0.021470
Si Si2 0.661594 0.152699 0.081780
Si Si3 0.949171 0.885539 0.790397
Si Si4 0.668907 0.713686 0.327464
Si Si5 0.063262 0.418699 0.833378
O O1 0.090256 0.065135 0.114761
O O2 0.815139 0.165171 0.182180
O O3 0.858453 0.287143 0.981961
O O4 0.081900 0.935511 0.949380
O O5 0.435528 0.222824 0.180874
O O6 0.569705 0.052463 0.225322
O O7 0.773007 0.733562 0.880017
O O8 0.788815 0.034257 0.931147
O O9 0.110805 0.843481 0.767600
O O10 0.573831 0.909230 0.384012
#
# Coordination Sequence:
#
# PCOD9141188 Si02
#       5
#     4   4   4   4   4
#     4  12  28  58  97 140 188 248 312 392 472 564
#     4  12  31  58  91 143 187 251 320 390 471 567
#     4  12  29  56  97 139 189 245 321 387 477 565
#     4  12  30  57  94 135 194 248 312 395 472 566
#     4  12  30  57  89 137 194 242 317 388 472 562
#
# _framework density 28.431781999999998
#
# number of rings (size 3 to 8) (size 9 to 14) (size 15 to 20)
#    0.000    0.000    2.000    4.800   11.200    0.000 
#    3.600    0.000    0.000    0.000    0.000    0.000 
#    0.000    0.000    0.000    0.000    0.000    0.000 
#
# Total GULP energy -56097.059429 kJ/mol
# GULP energy per Si atom -5609.705943 kJ/mol
# Density = 2.836707 g / cm^3
# Si number density = 28.431782 Si / 1000 Ang^3
#
#
#
# Elastic Constant Matrix: (Units=GPa)
#
#
# Indices 1 2 3 4 5 6 
#
# 1 250.8516 111.7657 85.8372 -0.0003 10.8049 -0.0003
# 2 111.7657 208.4684 120.6246 -0.0018 2.8791 -0.0003
# 3 85.8372 120.6246 168.6513 -0.0046 -12.6402 0.0004
# 4 -0.0003 -0.0018 -0.0046 24.8036 0.0011 11.7259
# 5 10.8049 2.8791 -12.6402 0.0011 90.3628 0.0002
# 6 -0.0003 -0.0003 0.0004 11.7259 0.0002 59.0185
#
#
#
# Elastic Compliance Matrix: (Units=1/GPa)
#
#
# Indices 1 2 3 4 5 6 
#
# 1 0.005415 -0.002158 -0.001269 0.000000 -0.000756 0.000000
# 2 -0.002158 0.009152 -0.005507 0.000000 -0.000804 0.000000
# 3 -0.001269 -0.005507 0.010650 0.000002 0.001817 0.000000
# 4 0.000000 0.000000 0.000002 0.044496 0.000000 -0.008841
# 5 -0.000756 -0.000804 0.001817 0.000000 0.011437 0.000000
# 6 0.000000 0.000000 0.000000 -0.008841 0.000000 0.018700
#
#
# Mechanical properties :
#
#
# Convention : Reuss Voigt Hill
#
# Bulk Modulus (GPa) = 136.09504 140.49182 138.29343
# Shear Modulus (GPa) = 41.60805 55.48655 48.54730
#
# Velocity S-wave (km/s) = 3.82964 4.42245 4.13667
# Velocity P-wave (km/s) = 8.21742 8.69473 8.45944
#
# Compressibility (1/GPa) = 0.00734781
#
# Stress axis : x y z
#
# Youngs Moduli (GPa) = 184.67746 109.26699 93.89264
#
# Poissons Ratio (x) = 0.23584 0.11914
# Poissons Ratio (y) = 0.39861 0.51711
# Poissons Ratio (z) = 0.23433 0.60178
#
# Static dielectric constant tensor:
#      x y z
#    x 2.267690 0.000000 -0.002760 
#    y 0.000000 2.316800 0.000000 
#    z -0.002760 0.000000 2.168660 
# 
# From -- ./inp_files/29118.got.cif
#   From: 2010.05.17/outbox.cif.g08.bks.cpg/sg9_15_cif.got.tgz:29118.got - 2010.06.03 20:04:27.
