data_PCOD9141794
_publ_section_title
;
Structure prediction by ZEFSAII (Michael W. Deem and Ramdas Pophale) SiO2 
 PCOD9141794
Probable space group: P 2/M
;
_chemical_formula_sum "Si O2"
_cell_formula_units_Z 28
_cell_length_a 17.905758
_cell_length_b 15.372875
_cell_length_c 9.382602
_cell_angle_alpha 90.000000
_cell_angle_beta 34.700754
_cell_angle_gamma 90.000000
_cell_volume 1470.296480
_symmetry_space_group_name_H-M "P 2/M"
_symmetry_group_IT_number 10
_symmetry_cell_setting 'monoclinic'
loop_
_space_group_symop_operation_xyz
x,y,z
-x,y,-z
-x,-y,-z
x,-y,z
loop_
_atom_site_type_symbol
_atom_site_label
_atom_site_fract_x
_atom_site_fract_y
_atom_site_fract_z
Si Si1 0.207067 0.902556 0.808561
Si Si2 0.125252 0.397053 0.199501
Si Si3 0.360252 0.328595 0.354837
Si Si4 0.547635 0.863904 0.779302
Si Si5 0.116574 0.292010 0.923478
Si Si6 0.387164 0.103051 0.782733
Si Si7 0.351160 0.603197 0.059165
O O1 0.336452 0.903405 0.501754
O O2 0.128660 0.813815 0.903555
O O3 0.257292 0.891038 0.893116
O O4 0.147356 0.000000 0.889031
O O5 0.141878 0.500000 0.132845
O O6 0.252430 0.365986 0.090863
O O7 0.000000 0.393150 0.500000
O O8 0.101893 0.335391 0.100764
O O9 0.393310 0.228601 0.272224
O O10 0.250568 0.329379 0.646745
O O11 0.313610 0.368483 0.278526
O O12 0.496740 0.370039 0.192769
O O13 0.418432 0.853305 0.883180
O O14 0.500000 0.907068 0.000000
O O15 0.000000 0.316207 0.000000
O O16 0.500000 0.137203 0.500000
O O17 0.409790 0.000000 0.771636
O O18 0.343097 0.500000 0.067347
#
# Coordination Sequence:
#
# PCOD9141794 Si02
#       7
#     4   4   4   4   4   4   4
#     4   9  20  36  54  78 111 154 197 238 289 347
#     4  10  23  42  64  89 117 153 196 241 293 353
#     4  10  20  34  54  86 120 152 193 237 288 346
#     4  10  17  27  49  81 115 148 187 235 288 335
#     4  11  24  39  60  86 115 156 201 247 296 349
#     4   8  15  28  44  66 100 140 180 224 277 333
#     4  10  20  37  60  85 120 159 187 233 298 352
#
# _framework density 19.043779000000001
#
# number of rings (size 3 to 8) (size 9 to 14) (size 15 to 20)
#    0.000    2.286    1.429    3.000    2.000    3.429 
#    0.000    1.429    0.000    0.429    0.000    0.000 
#    0.000    0.000    0.000    0.000    0.000    0.000 
#
# Total GULP energy -155927.729013 kJ/mol
# GULP energy per Si atom -5568.847465 kJ/mol
# Density = 1.900043 g / cm^3
# Si number density = 19.043779 Si / 1000 Ang^3
#
#
#
# Elastic Constant Matrix: (Units=GPa)
#
#
# Indices 1 2 3 4 5 6 
#
# 1 129.4295 41.9672 35.5601 0.0000 13.4876 0.0000
# 2 41.9672 75.4963 25.5541 0.0000 7.5168 0.0000
# 3 35.5601 25.5541 66.1256 0.0000 20.7724 0.0000
# 4 0.0000 0.0000 0.0000 81.4173 0.0000 22.0791
# 5 13.4876 7.5168 20.7724 0.0000 16.1221 0.0000
# 6 0.0000 0.0000 0.0000 22.0791 0.0000 45.5558
#
#
#
# Elastic Compliance Matrix: (Units=1/GPa)
#
#
# Indices 1 2 3 4 5 6 
#
# 1 0.010257 -0.004433 -0.002951 0.000000 -0.002712 0.000000
# 2 -0.004433 0.017161 -0.004871 0.000000 0.001983 0.000000
# 3 -0.002951 -0.004871 0.028732 0.000000 -0.032281 0.000000
# 4 0.000000 0.000000 0.000000 0.014141 0.000000 -0.006854
# 5 -0.002712 0.001983 -0.032281 0.000000 0.104963 0.000000
# 6 0.000000 0.000000 0.000000 -0.006854 0.000000 0.025273
#
#
# Mechanical properties :
#
#
# Convention : Reuss Voigt Hill
#
# Bulk Modulus (GPa) = 31.60452 53.02380 42.31416
# Shear Modulus (GPa) = 21.22392 39.81704 30.52048
#
# Velocity S-wave (km/s) = 3.34201 4.57750 4.00765
# Velocity P-wave (km/s) = 5.61460 7.47273 6.60929
#
# Compressibility (1/GPa) = 0.03164104
#
# Stress axis : x y z
#
# Youngs Moduli (GPa) = 97.49561 58.27125 34.80385
#
# Poissons Ratio (x) = 0.25831 0.10270
# Poissons Ratio (y) = 0.43218 0.16953
# Poissons Ratio (z) = 0.28769 0.28385
#
# Static dielectric constant tensor:
#      x y z
#    x 1.695090 0.000000 -0.001300 
#    y 0.000000 1.677490 0.000000 
#    z -0.001300 0.000000 1.672220 
# 
# From -- ./inp_files/32791.got.cif
#   From: 2010.05.17/outbox.cif.g08.bks.cpg/sg10_17_cif.got.tgz:32791.got - 2010.06.03 11:33:40.
