data_PCOD9141043
_publ_section_title
;
Structure prediction by ZEFSAII (Michael W. Deem and Ramdas Pophale) SiO2 
 PCOD9141043
Probable space group: C C
;
_chemical_formula_sum "Si O2"
_cell_formula_units_Z 32
_cell_length_a 12.363171
_cell_length_b 11.051176
_cell_length_c 9.386759
_cell_angle_alpha 90.000000
_cell_angle_beta 81.243488
_cell_angle_gamma 90.000000
_cell_volume 1267.541723
_symmetry_space_group_name_H-M "C C"
_symmetry_group_IT_number 9
_symmetry_cell_setting 'monoclinic'
loop_
_space_group_symop_operation_xyz
x,y,z
x,-y,1/2+z
1/2+x,1/2+y,z
1/2+x,1/2-y,1/2+z
loop_
_atom_site_type_symbol
_atom_site_label
_atom_site_fract_x
_atom_site_fract_y
_atom_site_fract_z
Si Si1 0.516530 0.183859 0.534380
Si Si2 0.086792 0.787359 0.010011
Si Si3 0.498435 0.534930 0.997088
Si Si4 0.681101 0.821612 0.218854
Si Si5 0.360048 0.845651 0.567791
Si Si6 0.830224 0.422407 0.256985
Si Si7 0.181717 0.284605 0.770083
Si Si8 0.846883 0.990114 0.773631
O O1 0.525109 0.329712 0.539764
O O2 0.595620 0.115775 0.630504
O O3 0.398183 0.148667 0.618747
O O4 0.572206 0.165340 0.369010
O O5 0.967026 0.735400 0.069012
O O6 0.164537 0.718491 0.104695
O O7 0.113788 0.758270 0.842508
O O8 0.085663 0.932757 0.020951
O O9 0.453826 0.517442 0.845952
O O10 0.387573 0.505015 0.104365
O O11 0.756939 0.742243 0.101494
O O12 0.755138 0.907866 0.299780
O O13 0.373790 0.907516 0.409770
O O14 0.338410 0.942540 0.697026
O O15 0.712462 0.356234 0.292353
O O16 0.284550 0.363128 0.803679
#
# Coordination Sequence:
#
# PCOD9141043 Si02
#       8
#     4   4   4   4   4   4   4   4
#     4  12  27  46  76 106 147 198 247 304 375 439
#     4  12  28  46  74 112 150 194 250 303 374 443
#     4  12  25  48  74 103 147 195 248 306 360 437
#     4  12  27  46  76 106 147 198 247 304 375 439
#     4  12  29  51  73 108 154 193 245 311 374 448
#     4  12  29  51  73 108 154 193 245 311 374 448
#     4  12  28  46  74 112 150 194 250 303 374 443
#     4  12  25  48  74 103 147 195 248 306 360 437
#
# _framework density 25.245719000000001
#
# number of rings (size 3 to 8) (size 9 to 14) (size 15 to 20)
#    0.000    0.000    5.000    3.750   10.500    0.000 
#    0.000    0.000    0.000    0.000    0.000    0.000 
#    0.000    0.000    0.000    0.000    0.000    0.000 
#
# Total GULP energy -89473.799948 kJ/mol
# GULP energy per Si atom -5592.112497 kJ/mol
# Density = 2.518826 g / cm^3
# Si number density = 25.245719 Si / 1000 Ang^3
#
#
#
# Elastic Constant Matrix: (Units=GPa)
#
#
# Indices 1 2 3 4 5 6 
#
# 1 61.4973 -4.9142 -0.9715 0.0000 3.7463 0.0000
# 2 -4.9142 72.0183 1.6255 0.0000 2.1059 0.0000
# 3 -0.9715 1.6255 86.6031 0.0000 5.4755 0.0000
# 4 0.0000 0.0000 0.0000 31.0480 0.0000 0.3582
# 5 3.7463 2.1059 5.4755 0.0000 41.9807 0.0000
# 6 0.0000 0.0000 0.0000 0.3582 0.0000 27.3423
#
#
#
# Elastic Compliance Matrix: (Units=1/GPa)
#
#
# Indices 1 2 3 4 5 6 
#
# 1 0.016453 0.001162 0.000261 0.000000 -0.001561 0.000000
# 2 0.001162 0.013992 -0.000200 0.000000 -0.000779 0.000000
# 3 0.000261 -0.000200 0.011651 0.000000 -0.001533 0.000000
# 4 0.000000 0.000000 0.000000 0.032213 0.000000 -0.000422
# 5 -0.001561 -0.000779 -0.001533 0.000000 0.024199 0.000000
# 6 0.000000 0.000000 0.000000 -0.000422 0.000000 0.036579
#
#
# Mechanical properties :
#
#
# Convention : Reuss Voigt Hill
#
# Bulk Modulus (GPa) = 22.45043 23.51092 22.98067
# Shear Modulus (GPa) = 33.90138 35.03282 34.46710
#
# Velocity S-wave (km/s) = 3.66848 3.72919 3.69896
# Velocity P-wave (km/s) = 5.18225 5.27973 5.23122
#
# Compressibility (1/GPa) = 0.04454257
#
# Stress axis : x y z
#
# Youngs Moduli (GPa) = 60.77935 71.46945 85.83299
#
# Poissons Ratio (x) = -0.08308 -0.02244
# Poissons Ratio (y) = -0.07065 0.01719
# Poissons Ratio (z) = -0.01589 0.01431
#
# Static dielectric constant tensor:
#      x y z
#    x 1.963190 0.000000 0.003850 
#    y 0.000000 1.985010 0.000000 
#    z 0.003850 0.000000 1.924680 
# 
# From -- ./inp_files/9085.got.cif
#   From: 2010.05.17/outbox.cif.g08.bks.cpg/sg9_5_cif.got.tgz:9085.got - 2010.06.03 20:04:27.
