data_PCOD9141702
_publ_section_title
;
Structure prediction by ZEFSAII (Michael W. Deem and Ramdas Pophale) SiO2 
 PCOD9141702
Probable space group: P 2/M
;
_chemical_formula_sum "Si O2"
_cell_formula_units_Z 32
_cell_length_a 22.284814
_cell_length_b 7.468243
_cell_length_c 13.082457
_cell_angle_alpha 90.000000
_cell_angle_beta 125.948715
_cell_angle_gamma 90.000000
_cell_volume 1762.611423
_symmetry_space_group_name_H-M "P 2/M"
_symmetry_group_IT_number 10
_symmetry_cell_setting 'monoclinic'
loop_
_space_group_symop_operation_xyz
x,y,z
-x,y,-z
-x,-y,-z
x,-y,z
loop_
_atom_site_type_symbol
_atom_site_label
_atom_site_fract_x
_atom_site_fract_y
_atom_site_fract_z
Si Si1 0.682393 0.211912 0.373832
Si Si2 0.414732 0.780502 0.914728
Si Si3 0.416552 0.284684 0.532254
Si Si4 1.000000 0.789767 0.375874
Si Si5 0.161196 0.218747 0.541477
Si Si6 0.416556 0.284684 0.300848
Si Si7 0.161196 0.781253 0.780916
Si Si8 0.682392 0.788088 0.990959
O O1 0.629352 0.280373 0.230121
O O2 0.643211 0.236160 0.442949
O O3 0.766235 0.280929 0.446312
O O4 0.688120 0.000000 0.361186
O O5 0.415666 0.000000 0.915662
O O6 0.500000 0.722527 0.000000
O O7 0.370645 0.719627 0.971405
O O8 0.419031 0.500000 0.531756
O O9 0.400435 0.222625 0.400432
O O10 0.499998 0.222372 0.643680
O O11 0.080214 0.715986 0.424340
O O12 0.000000 0.780714 0.500000
O O13 0.919786 0.715986 0.263913
O O14 1.000000 0.000000 0.348153
O O15 0.171166 0.265579 0.671166
O O16 0.157942 0.000000 0.534941
O O17 0.419034 0.500000 0.306302
O O18 0.356795 0.236159 0.156524
O O19 0.157941 0.000000 0.780943
O O20 0.233765 0.719072 0.913842
O O21 0.688119 0.000000 0.015060
#
# Coordination Sequence:
#
# PCOD9141702 Si02
#       8
#     4   4   4   4   4   4   4   4
#     4  10  17  26  43  66  89 111 139 174 208 246
#     4   9  16  24  35  56  88 118 135 155 201 255
#     4   9  19  35  49  59  77 108 144 181 219 254
#     4   7  10  16  30  52  82 117 144 162 191 238
#     4   8  12  20  34  57  88 117 140 165 199 243
#     4   9  19  35  49  59  77 108 144 181 219 254
#     4   8  12  20  34  57  88 117 140 165 199 243
#     4  10  17  26  43  66  89 111 139 174 208 246
#
# _framework density 18.154879999999999
#
# number of rings (size 3 to 8) (size 9 to 14) (size 15 to 20)
#    0.000    3.250    1.250    3.000    0.000    2.000 
#    0.000    1.875    0.000    2.250    0.000    1.750 
#    0.000   10.000    0.000    0.000    0.000    0.000 
#
# Total GULP energy -178285.865424 kJ/mol
# GULP energy per Si atom -5571.433294 kJ/mol
# Density = 1.811356 g / cm^3
# Si number density = 18.154880 Si / 1000 Ang^3
#
#
#
# Elastic Constant Matrix: (Units=GPa)
#
#
# Indices 1 2 3 4 5 6 
#
# 1 178.6539 4.8758 102.4558 0.0000 37.7303 0.0000
# 2 4.8758 48.5825 -0.1866 0.0000 5.4142 0.0000
# 3 102.4558 -0.1866 115.9883 0.0000 29.2646 0.0000
# 4 0.0000 0.0000 0.0000 -13.6736 0.0000 -54.6017
# 5 37.7303 5.4142 29.2646 0.0000 29.5037 0.0000
# 6 0.0000 0.0000 0.0000 -54.6017 0.0000 -64.7044
#
#
#
# Elastic Compliance Matrix: (Units=1/GPa)
#
#
# Indices 1 2 3 4 5 6 
#
# 1 0.012243 -0.000546 -0.009191 0.000000 -0.006441 0.000000
# 2 -0.000546 0.021196 0.001763 0.000000 -0.004940 0.000000
# 3 -0.009191 0.001763 0.018485 0.000000 -0.006905 0.000000
# 4 0.000000 0.000000 0.000000 0.030861 0.000000 -0.026043
# 5 -0.006441 -0.004940 -0.006905 0.000000 0.049886 0.000000
# 6 0.000000 0.000000 0.000000 -0.026043 0.000000 0.006522
#
#
# Mechanical properties :
#
#
# Convention : Reuss Voigt Hill
#
# Bulk Modulus (GPa) = 27.79639 61.94608 44.87123
# Shear Modulus (GPa) = 29.91615 5.96380 17.93997
#
# Velocity S-wave (km/s) = 4.06375 1.81441 3.14692
# Velocity P-wave (km/s) = 6.11250 6.21164 6.16227
#
# Compressibility (1/GPa) = 0.03597590
#
# Stress axis : x y z
#
# Youngs Moduli (GPa) = 81.67718 47.17957 54.09749
#
# Poissons Ratio (x) = 0.02577 0.49720
# Poissons Ratio (y) = 0.04462 -0.09537
# Poissons Ratio (z) = 0.75068 -0.08318
#
# Static dielectric constant tensor:
#      x y z
#    x 1.646070 0.000000 0.040500 
#    y 0.000000 1.694850 0.000000 
#    z 0.040500 0.000000 1.608200 
# 
# From -- ./inp_files/54890.got.cif
#   From: 2010.05.17/outbox.cif.g08.bks.cpg/sg10_28_cif.got.tgz:54890.got - 2010.06.03 11:33:40.
