data_PCOD9141637
_publ_section_title
;
Structure prediction by ZEFSAII (Michael W. Deem and Ramdas Pophale) SiO2 
 PCOD9141637
Probable space group: P 2/M
;
_chemical_formula_sum "Si O2"
_cell_formula_units_Z 28
_cell_length_a 26.829052
_cell_length_b 8.916706
_cell_length_c 21.268903
_cell_angle_alpha 90.000000
_cell_angle_beta 18.247074
_cell_angle_gamma 90.000000
_cell_volume 1593.159155
_symmetry_space_group_name_H-M "P 2/M"
_symmetry_group_IT_number 10
_symmetry_cell_setting 'monoclinic'
loop_
_space_group_symop_operation_xyz
x,y,z
-x,y,-z
-x,-y,-z
x,-y,z
loop_
_atom_site_type_symbol
_atom_site_label
_atom_site_fract_x
_atom_site_fract_y
_atom_site_fract_z
Si Si1 0.701286 0.322702 0.449036
Si Si2 0.180019 0.826699 0.812894
Si Si3 0.057587 0.820915 0.226093
Si Si4 0.915294 0.320845 0.511950
Si Si5 0.771954 0.180109 0.795642
Si Si6 0.597066 0.177926 0.126735
Si Si7 0.017205 0.818757 0.129381
O O1 0.714750 0.500000 0.434385
O O2 0.712416 0.266020 0.363647
O O3 0.542983 0.267977 0.673197
O O4 0.851936 0.250369 0.304196
O O5 0.232404 0.000000 0.749657
O O6 0.000000 0.822754 0.000000
O O7 0.154266 0.773525 0.915272
O O8 0.931680 0.734857 0.420880
O O9 0.048484 0.779748 0.163986
O O10 0.029929 0.000000 0.265752
O O11 0.235336 0.791882 0.039089
O O12 0.914832 0.500000 0.516781
O O13 0.774820 0.250751 0.722840
O O14 0.075341 0.252756 0.352274
O O15 0.792824 0.000000 0.767444
O O16 0.626992 0.211147 0.016938
O O17 0.564796 0.000000 0.171062
O O18 0.005821 0.000000 0.138193
#
# Coordination Sequence:
#
# PCOD9141637 Si02
#       7
#     4   4   4   4   4   4   4
#     4  11  21  31  48  73 100 129 158 192 239 291
#     4   8  15  30  51  71  91 120 161 203 236 273
#     4   9  18  33  52  73  96 125 162 201 240 282
#     4  10  17  25  42  69  99 127 154 191 240 287
#     4   9  16  28  46  66  90 124 166 204 233 270
#     4   9  18  32  50  71  96 126 161 200 238 278
#     4   9  18  34  55  74  93 122 162 204 240 278
#
# _framework density 17.575143000000001
#
# number of rings (size 3 to 8) (size 9 to 14) (size 15 to 20)
#    0.000    2.714    0.000    5.571    0.000    6.000 
#    0.000    0.714    0.000    5.143    0.000    6.000 
#    0.000    0.000    0.000    0.000    0.000    0.000 
#
# Total GULP energy -155975.529765 kJ/mol
# GULP energy per Si atom -5570.554634 kJ/mol
# Density = 1.753514 g / cm^3
# Si number density = 17.575143 Si / 1000 Ang^3
#
#
#
# Elastic Constant Matrix: (Units=GPa)
#
#
# Indices 1 2 3 4 5 6 
#
# 1 157.5549 61.9184 50.5497 0.0000 65.5518 0.0000
# 2 61.9184 71.9152 50.4123 0.0000 32.9643 0.0000
# 3 50.5497 50.4123 92.7823 0.0000 45.4341 0.0000
# 4 0.0000 0.0000 0.0000 150.6398 0.0000 17.1664
# 5 65.5518 32.9643 45.4341 0.0000 40.4459 0.0000
# 6 0.0000 0.0000 0.0000 17.1664 0.0000 10.8779
#
#
#
# Elastic Compliance Matrix: (Units=1/GPa)
#
#
# Indices 1 2 3 4 5 6 
#
# 1 0.030913 -0.012054 0.020961 0.000000 -0.063823 0.000000
# 2 -0.012054 0.029235 -0.016039 0.000000 0.013726 0.000000
# 3 0.020961 -0.016039 0.040689 0.000000 -0.066606 0.000000
# 4 0.000000 0.000000 0.000000 0.008094 0.000000 -0.012773
# 5 -0.063823 0.013726 -0.066606 0.000000 0.191798 0.000000
# 6 0.000000 0.000000 0.000000 -0.012773 0.000000 0.112087
#
#
# Mechanical properties :
#
#
# Convention : Reuss Voigt Hill
#
# Bulk Modulus (GPa) = 11.55104 72.00147 41.77625
# Shear Modulus (GPa) = 10.96641 51.01754 30.99198
#
# Velocity S-wave (km/s) = 2.50065 5.39363 4.20384
# Velocity P-wave (km/s) = 3.86320 8.93561 6.88365
#
# Compressibility (1/GPa) = 0.08657231
#
# Stress axis : x y z
#
# Youngs Moduli (GPa) = 32.34842 34.20531 24.57695
#
# Poissons Ratio (x) = 0.41232 -0.51515
# Poissons Ratio (y) = 0.38994 0.39418
# Poissons Ratio (z) = -0.67804 0.54861
#
# Static dielectric constant tensor:
#      x y z
#    x 1.635720 0.000000 0.042220 
#    y 0.000000 1.580030 0.000000 
#    z 0.042220 0.000000 1.608890 
# 
# From -- ./inp_files/79244.got.cif
#   From: 2010.05.17/outbox.cif.g08.bks.cpg/sg10_40_cif.got.tgz:79244.got - 2010.06.03 11:33:40.
