data_PCOD9141504
_publ_section_title
;
Structure prediction by ZEFSAII (Michael W. Deem and Ramdas Pophale) SiO2 
 PCOD9141504
Probable space group: P 2/M
;
_chemical_formula_sum "Si O2"
_cell_formula_units_Z 30
_cell_length_a 30.421620
_cell_length_b 7.685721
_cell_length_c 17.518017
_cell_angle_alpha 90.000000
_cell_angle_beta 21.225160
_cell_angle_gamma 90.000000
_cell_volume 1482.863531
_symmetry_space_group_name_H-M "P 2/M"
_symmetry_group_IT_number 10
_symmetry_cell_setting 'monoclinic'
loop_
_space_group_symop_operation_xyz
x,y,z
-x,y,-z
-x,-y,-z
x,-y,z
loop_
_atom_site_type_symbol
_atom_site_label
_atom_site_fract_x
_atom_site_fract_y
_atom_site_fract_z
Si Si1 0.904341 0.207818 0.880754
Si Si2 0.276351 0.787656 0.957233
Si Si3 0.598497 0.700108 0.633600
Si Si4 0.372351 0.713132 0.244804
Si Si5 0.500000 0.248974 0.500000
Si Si6 0.816447 0.703968 0.575638
Si Si7 0.327955 0.200848 0.044356
Si Si8 0.325754 0.293035 0.653604
O O1 0.041020 0.271428 0.666257
O O2 0.905512 0.000000 0.883931
O O3 0.843020 0.254138 0.898415
O O4 0.811450 0.276108 0.095092
O O5 0.389057 0.691985 0.734197
O O6 0.296890 0.000000 0.916716
O O7 0.274924 0.742880 0.048501
O O8 0.640145 0.500000 0.567164
O O9 0.634176 0.777509 0.657576
O O10 0.651371 0.771959 0.468955
O O11 0.452354 0.703227 0.864082
O O12 0.372964 0.500000 0.246744
O O13 0.263029 0.769662 0.367069
O O14 0.500000 0.764954 0.000000
O O15 0.411120 0.189460 0.574781
O O16 0.789631 0.500000 0.625924
O O17 0.768226 0.785058 0.732139
O O18 0.364029 0.000000 0.977342
O O19 0.360390 0.500000 0.603191
#
# Coordination Sequence:
#
# PCOD9141504 Si02
#       8
#     4   4   4   4   2   4   4   4
#     4  10  22  40  58  77 108 152 191 224 265 327
#     4   9  19  33  52  78 111 151 188 218 263 328
#     4  10  19  35  56  84 114 145 180 224 274 325
#     4   9  17  33  59  83 107 140 182 223 272 331
#     4  10  16  30  52  82 111 146 183 228 269 310
#     4  11  22  39  60  81 107 143 185 232 277 325
#     4  11  21  34  54  84 115 145 180 224 274 326
#     4  10  20  33  54  84 116 144 180 228 277 321
#
# _framework density 20.231127000000001
#
# number of rings (size 3 to 8) (size 9 to 14) (size 15 to 20)
#    0.000    2.000    2.667    1.600    0.000    1.600 
#    0.000    7.333    0.000    4.000    0.000    0.000 
#    0.000    0.000    0.000    0.000    0.000    0.000 
#
# Total GULP energy -167192.318527 kJ/mol
# GULP energy per Si atom -5573.077284 kJ/mol
# Density = 2.018508 g / cm^3
# Si number density = 20.231127 Si / 1000 Ang^3
#
#
#
# Elastic Constant Matrix: (Units=GPa)
#
#
# Indices 1 2 3 4 5 6 
#
# 1 200.5301 13.0922 101.2254 0.0000 19.2040 0.0000
# 2 13.0922 50.9465 -6.3272 0.0000 0.1643 0.0000
# 3 101.2254 -6.3272 122.6505 0.0000 -6.8700 0.0000
# 4 0.0000 0.0000 0.0000 74.1297 0.0000 -29.6847
# 5 19.2040 0.1643 -6.8700 0.0000 35.1814 0.0000
# 6 0.0000 0.0000 0.0000 -29.6847 0.0000 15.0433
#
#
#
# Elastic Compliance Matrix: (Units=1/GPa)
#
#
# Indices 1 2 3 4 5 6 
#
# 1 0.010813 -0.003941 -0.009562 0.000000 -0.007751 0.000000
# 2 -0.003941 0.021192 0.004510 0.000000 0.002933 0.000000
# 3 -0.009562 0.004510 0.016752 0.000000 0.008469 0.000000
# 4 0.000000 0.000000 0.000000 0.064294 0.000000 0.126870
# 5 -0.007751 0.002933 0.008469 0.000000 0.034295 0.000000
# 6 0.000000 0.000000 0.000000 0.126870 0.000000 0.316825
#
#
# Mechanical properties :
#
#
# Convention : Reuss Voigt Hill
#
# Bulk Modulus (GPa) = 32.49761 65.56752 49.03256
# Shear Modulus (GPa) = 10.15409 42.61335 26.38372
#
# Velocity S-wave (km/s) = 2.24275 4.59445 3.61517
# Velocity P-wave (km/s) = 4.77542 7.78620 6.45870
#
# Compressibility (1/GPa) = 0.03077149
#
# Stress axis : x y z
#
# Youngs Moduli (GPa) = 92.48161 47.18777 59.69568
#
# Poissons Ratio (x) = 0.18598 0.57078
# Poissons Ratio (y) = 0.36449 -0.26924
# Poissons Ratio (z) = 0.88427 -0.21283
#
# Static dielectric constant tensor:
#      x y z
#    x 1.728140 0.000000 0.008920 
#    y 0.000000 1.838960 0.000000 
#    z 0.008920 0.000000 1.659920 
# 
# From -- ./inp_files/80717.got.cif
#   From: 2010.05.17/outbox.cif.g08.bks.cpg/sg10_41_cif.got.tgz:80717.got - 2010.06.03 11:33:40.
