data_PCOD9141402
_publ_section_title
;
Structure prediction by ZEFSAII (Michael W. Deem and Ramdas Pophale) SiO2 
 PCOD9141402
Probable space group: P 2/M
;
_chemical_formula_sum "Si O2"
_cell_formula_units_Z 22
_cell_length_a 8.217998
_cell_length_b 10.927038
_cell_length_c 10.696296
_cell_angle_alpha 90.000000
_cell_angle_beta 66.674834
_cell_angle_gamma 90.000000
_cell_volume 882.009988
_symmetry_space_group_name_H-M "P 2/M"
_symmetry_group_IT_number 10
_symmetry_cell_setting 'monoclinic'
loop_
_space_group_symop_operation_xyz
x,y,z
-x,y,-z
-x,-y,-z
x,-y,z
loop_
_atom_site_type_symbol
_atom_site_label
_atom_site_fract_x
_atom_site_fract_y
_atom_site_fract_z
Si Si1 0.247824 0.500000 0.299123
Si Si2 0.053852 0.000000 0.835992
Si Si3 0.604502 0.752064 0.097497
Si Si4 0.268149 0.237451 0.351880
Si Si5 0.115630 0.227409 0.660495
Si Si6 0.769524 0.500000 0.986527
Si Si7 0.894844 0.500000 0.279760
Si Si8 0.703965 0.000000 0.977136
O O1 0.307268 0.381626 0.352290
O O2 0.309690 0.500000 0.134272
O O3 0.036132 0.500000 0.351239
O O4 0.140234 0.123346 0.756503
O O5 0.857878 0.000000 0.828477
O O6 0.000000 0.000000 0.000000
O O7 0.453278 0.802460 0.237278
O O8 0.707544 0.622886 0.076752
O O9 0.725787 0.868669 0.035908
O O10 0.500000 0.732329 0.000000
O O11 0.095102 0.236043 0.312972
O O12 0.211920 0.188448 0.503026
O O13 0.182199 0.362556 0.683632
O O14 0.975789 0.500000 0.880809
O O15 0.500000 0.000000 0.000000
#
# Coordination Sequence:
#
# PCOD9141402 Si02
#       8
#     2   2   4   4   4   2   2   2
#     4   8  14  26  42  80 122 152 171 221 300 338
#     4  12  26  44  60  80 115 159 195 237 294 349
#     4  11  17  28  46  79 114 148 179 222 278 339
#     4  10  18  28  53  84 119 150 185 237 294 343
#     4  10  20  35  53  80 115 152 192 234 289 350
#     4  10  16  24  46  72 118 156 179 212 281 354
#     4   8  15  31  51  77 110 148 192 235 279 339
#     4  10  22  35  58  82 112 138 185 247 292 321
#
# _framework density 24.943028000000002
#
# number of rings (size 3 to 8) (size 9 to 14) (size 15 to 20)
#    0.545    1.455    1.818    4.636    0.000    4.364 
#    0.000    0.455    0.000    2.182    0.000    0.000 
#    0.000    5.818    0.000    0.000    0.000    0.000 
#
# Total GULP energy -122584.422308 kJ/mol
# GULP energy per Si atom -5572.019196 kJ/mol
# Density = 2.488626 g / cm^3
# Si number density = 24.943028 Si / 1000 Ang^3
#
#
#
# Elastic Constant Matrix: (Units=GPa)
#
#
# Indices 1 2 3 4 5 6 
#
# 1 38.7777 3.0763 14.9220 0.0000 4.3101 0.0000
# 2 3.0763 179.7317 38.3720 0.0000 5.2697 0.0000
# 3 14.9220 38.3720 124.0086 0.0000 6.8543 0.0000
# 4 0.0000 0.0000 0.0000 40.2675 0.0000 -23.7846
# 5 4.3101 5.2697 6.8543 0.0000 42.3329 0.0000
# 6 0.0000 0.0000 0.0000 -23.7846 0.0000 1.0200
#
#
#
# Elastic Compliance Matrix: (Units=1/GPa)
#
#
# Indices 1 2 3 4 5 6 
#
# 1 0.027268 0.000293 -0.003245 0.000000 -0.002287 0.000000
# 2 0.000293 0.005969 -0.001856 0.000000 -0.000472 0.000000
# 3 -0.003245 -0.001856 0.009079 0.000000 -0.000909 0.000000
# 4 0.000000 0.000000 0.000000 -0.001944 0.000000 -0.045336
# 5 -0.002287 -0.000472 -0.000909 0.000000 0.024061 0.000000
# 6 0.000000 0.000000 0.000000 -0.045336 0.000000 -0.076753
#
#
# Mechanical properties :
#
#
# Convention : Reuss Voigt Hill
#
# Bulk Modulus (GPa) = 30.58182 50.58427 40.58304
# Shear Modulus (GPa) = 610.06850 35.80060 322.93455
#
# Velocity S-wave (km/s) = 15.65617 3.79264 11.39078
# Velocity P-wave (km/s) = 18.41489 6.28512 13.75883
#
# Compressibility (1/GPa) = 0.03269916
#
# Stress axis : x y z
#
# Youngs Moduli (GPa) = 36.67316 167.53335 110.14372
#
# Poissons Ratio (x) = -0.04913 0.35747
# Poissons Ratio (y) = -0.01075 0.20444
# Poissons Ratio (z) = 0.11902 0.31097
#
# Static dielectric constant tensor:
#      x y z
#    x 2.253660 0.000000 0.076300 
#    y 0.000000 1.932300 0.000000 
#    z 0.076300 0.000000 2.090090 
# 
# From -- ./inp_files/45884.got.cif
#   From: 2010.05.17/outbox.cif.g08.bks.cpg/sg10_23_cif.got.tgz:45884.got - 2010.06.03 11:33:40.
