data_PCOD9141777
_publ_section_title
;
Structure prediction by ZEFSAII (Michael W. Deem and Ramdas Pophale) SiO2 
 PCOD9141777
Probable space group: P 2/M
;
_chemical_formula_sum "Si O2"
_cell_formula_units_Z 32
_cell_length_a 20.484752
_cell_length_b 7.517627
_cell_length_c 20.987383
_cell_angle_alpha 90.000000
_cell_angle_beta 29.773033
_cell_angle_gamma 90.000000
_cell_volume 1604.893796
_symmetry_space_group_name_H-M "P 2/M"
_symmetry_group_IT_number 10
_symmetry_cell_setting 'monoclinic'
loop_
_space_group_symop_operation_xyz
x,y,z
-x,y,-z
-x,-y,-z
x,-y,z
loop_
_atom_site_type_symbol
_atom_site_label
_atom_site_fract_x
_atom_site_fract_y
_atom_site_fract_z
Si Si1 0.692846 0.708821 0.958347
Si Si2 0.815047 0.282020 0.338479
Si Si3 0.351274 0.716719 0.642543
Si Si4 0.114658 0.717550 0.093894
Si Si5 0.681826 0.717638 0.184991
Si Si6 0.393533 0.203575 0.241422
Si Si7 0.602334 0.294493 0.618719
Si Si8 0.648651 0.785233 0.858556
O O1 0.673136 0.500000 0.987361
O O2 0.803971 0.773638 0.912489
O O3 0.728129 0.733112 0.854081
O O4 0.550387 0.792963 0.093555
O O5 0.818710 0.500000 0.336019
O O6 0.748056 0.228151 0.328751
O O7 0.719360 0.220246 0.476470
O O8 0.964647 0.221843 0.219166
O O9 0.500000 0.773150 0.500000
O O10 0.352697 0.500000 0.641468
O O11 0.311916 0.773134 0.746833
O O12 0.112564 0.500000 0.096169
O O13 0.198929 0.774031 0.961067
O O14 0.683194 0.500000 0.182552
O O15 0.542283 0.779964 0.274077
O O16 0.371286 0.289132 0.328552
O O17 0.324350 0.278339 0.236154
O O18 0.352142 0.000000 0.283472
O O19 0.592584 0.500000 0.607089
O O20 0.647390 0.000000 0.857102
O O21 0.500000 0.723881 0.000000
#
# Coordination Sequence:
#
# PCOD9141777 Si02
#       8
#     4   4   4   4   4   4   4   4
#     4  10  17  27  46  69  97 128 156 190 232 279
#     4   9  17  27  41  64  95 129 157 188 238 286
#     4   9  14  22  38  61  92 127 158 189 231 282
#     4   9  17  27  39  63  98 126 153 193 235 274
#     4   9  15  24  40  63  92 122 154 194 232 270
#     4  10  19  30  46  69  96 122 154 197 238 276
#     4  10  17  28  47  69  93 122 157 196 234 276
#     4   8  16  29  43  65  96 123 151 193 237 275
#
# _framework density 19.939014
#
# number of rings (size 3 to 8) (size 9 to 14) (size 15 to 20)
#    0.000    2.750    2.500    1.500    0.000    3.250 
#    0.000    2.500    0.000    2.250    0.000    7.000 
#    0.000    1.000    0.000    0.000    0.000    0.000 
#
# Total GULP energy -178427.238804 kJ/mol
# GULP energy per Si atom -5575.851213 kJ/mol
# Density = 1.989363 g / cm^3
# Si number density = 19.939014 Si / 1000 Ang^3
#
#
#
# Elastic Constant Matrix: (Units=GPa)
#
#
# Indices 1 2 3 4 5 6 
#
# 1 163.5086 -7.5500 84.4117 0.0000 21.5810 0.0000
# 2 -7.5500 47.6372 -1.5039 0.0000 -1.8436 0.0000
# 3 84.4117 -1.5039 129.0352 0.0000 7.6628 0.0000
# 4 0.0000 0.0000 0.0000 -11.8321 0.0000 4.7846
# 5 21.5810 -1.8436 7.6628 0.0000 28.2012 0.0000
# 6 0.0000 0.0000 0.0000 4.7846 0.0000 57.0927
#
#
#
# Elastic Compliance Matrix: (Units=1/GPa)
#
#
# Indices 1 2 3 4 5 6 
#
# 1 0.010230 0.001188 -0.006320 0.000000 -0.006033 0.000000
# 2 0.001188 0.021187 -0.000568 0.000000 0.000630 0.000000
# 3 -0.006320 -0.000568 0.011783 0.000000 0.001598 0.000000
# 4 0.000000 0.000000 0.000000 -0.081746 0.000000 0.006851
# 5 -0.006033 0.000630 0.001598 0.000000 0.039684 0.000000
# 6 0.000000 0.000000 0.000000 0.006851 0.000000 0.016941
#
#
# Mechanical properties :
#
#
# Convention : Reuss Voigt Hill
#
# Bulk Modulus (GPa) = 31.44624 54.54408 42.99516
# Shear Modulus (GPa) = 124.75910 32.34724 78.55317
#
# Velocity S-wave (km/s) = 7.91872 4.03216 6.28349
# Velocity P-wave (km/s) = 9.97064 7.00661 8.61703
#
# Compressibility (1/GPa) = 0.03180030
#
# Stress axis : x y z
#
# Youngs Moduli (GPa) = 97.75395 47.19918 84.87046
#
# Poissons Ratio (x) = -0.05609 0.53637
# Poissons Ratio (y) = -0.11616 0.04819
# Poissons Ratio (z) = 0.61780 0.02680
#
# Static dielectric constant tensor:
#      x y z
#    x 1.713860 0.000000 0.020330 
#    y 0.000000 1.758240 0.000000 
#    z 0.020330 0.000000 1.667220 
# 
# From -- ./inp_files/86134.got.cif
#   From: 2010.05.17/outbox.cif.g08.bks.cpg/sg10_44_cif.got.tgz:86134.got - 2010.06.03 11:33:40.
