data_PCOD9141666
_publ_section_title
;
Structure prediction by ZEFSAII (Michael W. Deem and Ramdas Pophale) SiO2 
 PCOD9141666
Probable space group: P 2/M
;
_chemical_formula_sum "Si O2"
_cell_formula_units_Z 32
_cell_length_a 12.663789
_cell_length_b 7.253276
_cell_length_c 19.351854
_cell_angle_alpha 90.000000
_cell_angle_beta 121.620005
_cell_angle_gamma 90.000000
_cell_volume 1513.657113
_symmetry_space_group_name_H-M "P 2/M"
_symmetry_group_IT_number 10
_symmetry_cell_setting 'monoclinic'
loop_
_space_group_symop_operation_xyz
x,y,z
-x,y,-z
-x,-y,-z
x,-y,z
loop_
_atom_site_type_symbol
_atom_site_label
_atom_site_fract_x
_atom_site_fract_y
_atom_site_fract_z
Si Si1 0.841080 0.723386 0.227909
Si Si2 0.503102 0.724786 0.780857
Si Si3 0.228054 0.724498 0.642688
Si Si4 0.886944 0.725267 0.695810
Si Si5 0.572098 0.724466 0.092545
Si Si6 0.457152 0.220274 0.562895
Si Si7 0.312866 0.707443 0.263513
Si Si8 0.173081 0.706020 0.478423
O O1 0.838845 0.500000 0.227903
O O2 0.833211 0.779225 0.305807
O O3 0.715650 0.783010 0.147128
O O4 0.971670 0.776700 0.240370
O O5 0.504334 0.500000 0.778593
O O6 0.373348 0.780568 0.699216
O O7 0.490645 0.778363 0.856457
O O8 0.627899 0.790119 0.785749
O O9 0.227633 0.500000 0.639575
O O10 0.157343 0.789038 0.549578
O O11 0.874815 0.500000 0.689634
O O12 0.791008 0.790034 0.721445
O O13 0.860327 0.787891 0.607760
O O14 0.572187 0.500000 0.091679
O O15 0.500000 0.786562 0.000000
O O16 0.500000 0.255822 0.500000
O O17 0.563255 0.298189 0.647729
O O18 0.322550 0.302812 0.527635
O O19 0.449448 0.000000 0.570287
O O20 0.270063 0.500000 0.232118
O O21 0.116654 0.500000 0.460004
#
# Coordination Sequence:
#
# PCOD9141666 Si02
#       8
#     4   4   4   4   4   4   4   4
#     4   8  14  24  34  54  85 107 136 174 207 243
#     4   8  13  21  36  58  79 102 137 174 205 240
#     4   8  13  21  36  55  77 103 132 177 214 232
#     4   9  17  24  35  55  78 109 142 178 210 238
#     4   8  13  22  38  58  83 114 136 158 205 264
#     4  11  21  29  38  57  84 113 146 185 218 238
#     4  10  17  27  43  59  81 111 144 177 213 252
#     4  10  17  26  41  59  78 108 149 178 212 250
#
# _framework density 21.140851000000001
#
# number of rings (size 3 to 8) (size 9 to 14) (size 15 to 20)
#    0.000    3.000    2.500    1.875    0.000    1.000 
#    0.000    2.500    0.000    0.750    0.000    7.875 
#    0.000    0.500    0.000    1.375    0.000    1.250 
#
# Total GULP energy -178482.226839 kJ/mol
# GULP energy per Si atom -5577.569589 kJ/mol
# Density = 2.109273 g / cm^3
# Si number density = 21.140851 Si / 1000 Ang^3
#
#
#
# Elastic Constant Matrix: (Units=GPa)
#
#
# Indices 1 2 3 4 5 6 
#
# 1 147.5379 -1.1346 85.2386 0.0000 8.0193 0.0000
# 2 -1.1346 91.7879 2.7651 0.0000 -2.3045 0.0000
# 3 85.2386 2.7651 123.9922 0.0000 -11.1515 0.0000
# 4 0.0000 0.0000 0.0000 -72.5284 0.0000 -22.3802
# 5 8.0193 -2.3045 -11.1515 0.0000 20.1594 0.0000
# 6 0.0000 0.0000 0.0000 -22.3802 0.0000 -41.9796
#
#
#
# Elastic Compliance Matrix: (Units=1/GPa)
#
#
# Indices 1 2 3 4 5 6 
#
# 1 0.013145 0.000194 -0.010007 0.000000 -0.010742 0.000000
# 2 0.000194 0.010931 -0.000286 0.000000 0.001014 0.000000
# 3 -0.010007 -0.000286 0.016107 0.000000 0.012858 0.000000
# 4 0.000000 0.000000 0.000000 -0.016502 0.000000 0.008798
# 5 -0.010742 0.001014 0.012858 0.000000 0.061106 0.000000
# 6 0.000000 0.000000 0.000000 0.008798 0.000000 -0.028511
#
#
# Mechanical properties :
#
#
# Convention : Reuss Voigt Hill
#
# Bulk Modulus (GPa) = 50.03621 59.67291 54.85456
# Shear Modulus (GPa) = 60.14420 -0.43978 29.85221
#
# Velocity S-wave (km/s) = 5.33957 -0.45659 3.76182
# Velocity P-wave (km/s) = 7.85711 5.29242 6.69865
#
# Compressibility (1/GPa) = 0.01998553
#
# Stress axis : x y z
#
# Youngs Moduli (GPa) = 76.07738 91.48158 62.08541
#
# Poissons Ratio (x) = -0.01777 0.62127
# Poissons Ratio (y) = -0.01478 0.01776
# Poissons Ratio (z) = 0.76128 0.02617
#
# Static dielectric constant tensor:
#      x y z
#    x 1.788760 0.000000 -0.032620 
#    y 0.000000 1.817260 0.000000 
#    z -0.032620 0.000000 1.727550 
# 
# From -- ./inp_files/54874.got.cif
#   From: 2010.05.17/outbox.cif.g08.bks.cpg/sg10_28_cif.got.tgz:54874.got - 2010.06.03 11:33:40.
