data_PCOD9141556
_publ_section_title
;
Structure prediction by ZEFSAII (Michael W. Deem and Ramdas Pophale) SiO2 
 PCOD9141556
Probable space group: P 2/M
;
_chemical_formula_sum "Si O2"
_cell_formula_units_Z 28
_cell_length_a 30.658809
_cell_length_b 8.774046
_cell_length_c 23.095586
_cell_angle_alpha 90.000000
_cell_angle_beta 164.234775
_cell_angle_gamma 90.000000
_cell_volume 1687.981650
_symmetry_space_group_name_H-M "P 2/M"
_symmetry_group_IT_number 10
_symmetry_cell_setting 'monoclinic'
loop_
_space_group_symop_operation_xyz
x,y,z
-x,y,-z
-x,-y,-z
x,-y,z
loop_
_atom_site_type_symbol
_atom_site_label
_atom_site_fract_x
_atom_site_fract_y
_atom_site_fract_z
Si Si1 0.781998 0.316964 0.484799
Si Si2 0.168589 0.179067 0.179968
Si Si3 0.481905 0.817046 0.173291
Si Si4 0.037278 0.816499 0.185449
Si Si5 0.661756 0.680910 0.501999
Si Si6 0.313352 0.316583 0.765007
Si Si7 0.177049 0.183677 0.708745
O O1 0.781622 0.500000 0.490171
O O2 0.621058 0.252067 0.309812
O O3 0.932421 0.247566 0.711930
O O4 0.772073 0.276440 0.404607
O O5 0.302826 0.269094 0.387001
O O6 0.208415 0.000000 0.232097
O O7 0.000000 0.195898 0.000000
O O8 0.121333 0.224406 0.054123
O O9 0.513045 0.753174 0.277449
O O10 0.498520 0.000000 0.195079
O O11 0.311710 0.774183 0.928151
O O12 0.185868 0.746638 0.339099
O O13 0.050552 0.000000 0.201916
O O14 0.657795 0.500000 0.492246
O O15 0.312246 0.500000 0.768818
O O16 0.231115 0.246418 0.715922
O O17 0.500000 0.267955 0.000000
O O18 0.000000 0.237021 0.500000
O O19 0.175212 0.000000 0.703396
#
# Coordination Sequence:
#
# PCOD9141556 Si02
#       7
#     4   4   4   4   4   4   4
#     4  10  18  28  44  66  92 119 154 196 231 274
#     4   8  14  24  35  50  78 115 150 183 223 273
#     4  10  18  29  45  63  88 120 154 192 238 283
#     4   9  16  25  37  55  83 117 151 186 228 276
#     4  10  17  23  36  57  82 113 151 190 226 272
#     4  10  20  34  51  72  98 126 160 199 240 289
#     4  10  22  37  52  72  96 124 162 205 245 286
#
# _framework density 16.587858000000001
#
# number of rings (size 3 to 8) (size 9 to 14) (size 15 to 20)
#    0.000    2.429    1.429    5.143    0.000    5.429 
#    0.000    0.000    0.000    0.000    0.000    0.000 
#    0.000    1.143    0.000   12.857    0.000    8.000 
#
# Total GULP energy -155960.984846 kJ/mol
# GULP energy per Si atom -5570.035173 kJ/mol
# Density = 1.655010 g / cm^3
# Si number density = 16.587858 Si / 1000 Ang^3
#
#
#
# Elastic Constant Matrix: (Units=GPa)
#
#
# Indices 1 2 3 4 5 6 
#
# 1 88.9553 35.3937 79.5706 0.0000 -34.5901 0.0000
# 2 35.3937 57.7336 44.7671 0.0000 -23.5000 0.0000
# 3 79.5706 44.7671 106.4765 0.0000 -40.6814 0.0000
# 4 0.0000 0.0000 0.0000 5.0312 0.0000 -5.8337
# 5 -34.5901 -23.5000 -40.6814 0.0000 40.2337 0.0000
# 6 0.0000 0.0000 0.0000 -5.8337 0.0000 23.2403
#
#
#
# Elastic Compliance Matrix: (Units=1/GPa)
#
#
# Indices 1 2 3 4 5 6 
#
# 1 0.034769 -0.000797 -0.023473 0.000000 0.005692 0.000000
# 2 -0.000797 0.026860 -0.008091 0.000000 0.006823 0.000000
# 3 -0.023473 -0.008091 0.033925 0.000000 0.009396 0.000000
# 4 0.000000 0.000000 0.000000 0.280362 0.000000 0.070375
# 5 0.005692 0.006823 0.009396 0.000000 0.043234 0.000000
# 6 0.000000 0.000000 0.000000 0.070375 0.000000 0.060694
#
#
# Mechanical properties :
#
#
# Convention : Reuss Voigt Hill
#
# Bulk Modulus (GPa) = 32.43349 63.62536 48.02942
# Shear Modulus (GPa) = 9.01154 19.92997 14.47075
#
# Velocity S-wave (km/s) = 2.33333 3.47000 2.95680
# Velocity P-wave (km/s) = 5.18210 7.38203 6.37764
#
# Compressibility (1/GPa) = 0.03083233
#
# Stress axis : x y z
#
# Youngs Moduli (GPa) = 28.76141 37.22956 29.47660
#
# Poissons Ratio (x) = 0.02967 0.69191
# Poissons Ratio (y) = 0.02292 0.23849
# Poissons Ratio (z) = 0.67512 0.30122
#
# Static dielectric constant tensor:
#      x y z
#    x 1.572390 0.000000 -0.058950 
#    y 0.000000 1.554280 0.000000 
#    z -0.058950 0.000000 1.581730 
# 
# From -- ./inp_files/86703.got.cif
#   From: 2010.05.17/outbox.cif.g08.bks.cpg/sg10_44_cif.got.tgz:86703.got - 2010.06.03 11:33:40.
