data_PCOD9141580
_publ_section_title
;
Structure prediction by ZEFSAII (Michael W. Deem and Ramdas Pophale) SiO2 
 PCOD9141580
Probable space group: P 2/M
;
_chemical_formula_sum "Si O2"
_cell_formula_units_Z 28
_cell_length_a 26.878344
_cell_length_b 9.330123
_cell_length_c 7.958308
_cell_angle_alpha 90.000000
_cell_angle_beta 134.921457
_cell_angle_gamma 90.000000
_cell_volume 1413.156149
_symmetry_space_group_name_H-M "P 2/M"
_symmetry_group_IT_number 10
_symmetry_cell_setting 'monoclinic'
loop_
_space_group_symop_operation_xyz
x,y,z
-x,y,-z
-x,-y,-z
x,-y,z
loop_
_atom_site_type_symbol
_atom_site_label
_atom_site_fract_x
_atom_site_fract_y
_atom_site_fract_z
Si Si1 0.788434 0.338786 0.442589
Si Si2 0.514785 0.663773 0.331902
Si Si3 0.361427 0.326948 0.961367
Si Si4 0.075732 0.162026 0.133581
Si Si5 0.213689 0.336903 0.967601
Si Si6 0.351009 0.170924 0.296074
Si Si7 0.923062 0.162782 0.263271
O O1 0.802054 0.500000 0.536022
O O2 0.709620 0.294944 0.311131
O O3 0.854414 0.242112 0.643302
O O4 0.782226 0.341609 0.225379
O O5 0.500000 0.667399 0.500000
O O6 0.535001 0.500000 0.340099
O O7 0.578811 0.769129 0.448454
O O8 0.438820 0.696770 0.070167
O O9 0.358808 0.500000 0.996221
O O10 0.357885 0.230883 0.120997
O O11 0.076452 0.000000 0.206579
O O12 0.077839 0.154872 0.938805
O O13 0.000000 0.228189 0.000000
O O14 0.217696 0.500000 0.039400
O O15 0.140207 0.262965 0.833052
O O16 0.279194 0.243552 0.188803
O O17 0.347140 0.000000 0.290039
O O18 0.000000 0.215204 0.500000
O O19 0.914281 0.000000 0.310442
#
# Coordination Sequence:
#
# PCOD9141580 Si02
#       7
#     4   4   4   4   4   4   4
#     4   9  18  32  50  73 100 131 168 207 245 289
#     4   8  13  23  38  57  89 130 165 200 244 291
#     4   8  15  27  41  61  93 131 167 203 245 292
#     4  10  21  36  54  76 101 130 162 197 244 299
#     4  10  20  34  51  72 100 134 171 207 247 295
#     4  10  17  24  39  65  96 128 164 206 249 292
#     4  10  21  37  56  77 101 129 163 203 246 294
#
# _framework density 19.813804999999999
#
# number of rings (size 3 to 8) (size 9 to 14) (size 15 to 20)
#    0.000    2.714    0.000    4.286    0.000    7.714 
#    0.000    0.000    0.000    0.000    0.000    1.000 
#    0.000    8.000    0.000    0.000    0.000    0.000 
#
# Total GULP energy -156062.251598 kJ/mol
# GULP energy per Si atom -5573.651843 kJ/mol
# Density = 1.976871 g / cm^3
# Si number density = 19.813805 Si / 1000 Ang^3
#
#
#
# Elastic Constant Matrix: (Units=GPa)
#
#
# Indices 1 2 3 4 5 6 
#
# 1 44.3129 46.9909 47.8603 0.0000 37.5246 0.0000
# 2 46.9909 119.2580 74.3503 0.0000 52.6013 0.0000
# 3 47.8603 74.3503 134.0999 0.0000 65.5951 0.0000
# 4 0.0000 0.0000 0.0000 54.4963 0.0000 20.2734
# 5 37.5246 52.6013 65.5951 0.0000 51.9084 0.0000
# 6 0.0000 0.0000 0.0000 20.2734 0.0000 21.3643
#
#
#
# Elastic Compliance Matrix: (Units=1/GPa)
#
#
# Indices 1 2 3 4 5 6 
#
# 1 0.062657 -0.008611 0.000785 0.000000 -0.037561 0.000000
# 2 -0.008611 0.016629 -0.002484 0.000000 -0.007487 0.000000
# 3 0.000785 -0.002484 0.019903 0.000000 -0.023201 0.000000
# 4 0.000000 0.000000 0.000000 0.028362 0.000000 -0.026914
# 5 -0.037561 -0.007487 -0.023201 0.000000 0.083322 0.000000
# 6 0.000000 0.000000 0.000000 -0.026914 0.000000 0.072347
#
#
# Mechanical properties :
#
#
# Convention : Reuss Voigt Hill
#
# Bulk Modulus (GPa) = 12.72778 70.67487 41.70132
# Shear Modulus (GPa) = 15.15006 34.11843 24.63424
#
# Velocity S-wave (km/s) = 2.76818 4.15414 3.52985
# Velocity P-wave (km/s) = 4.08102 7.66526 6.14048
#
# Compressibility (1/GPa) = 0.07856832
#
# Stress axis : x y z
#
# Youngs Moduli (GPa) = 15.95983 60.13483 50.24323
#
# Poissons Ratio (x) = 0.51781 -0.03942
# Poissons Ratio (y) = 0.13743 0.12483
# Poissons Ratio (z) = -0.01252 0.14940
#
# Static dielectric constant tensor:
#      x y z
#    x 1.762830 0.000000 0.004910 
#    y 0.000000 1.685560 0.000000 
#    z 0.004910 0.000000 1.738480 
# 
# From -- ./inp_files/37331.got.cif
#   From: 2010.05.17/outbox.cif.g08.bks.cpg/sg10_19_cif.got.tgz:37331.got - 2010.06.03 11:33:40.
