data_PCOD9141846
_publ_section_title
;
Structure prediction by ZEFSAII (Michael W. Deem and Ramdas Pophale) SiO2 
 PCOD9141846
Probable space group: P 2/M
;
_chemical_formula_sum "Si O2"
_cell_formula_units_Z 32
_cell_length_a 15.390890
_cell_length_b 8.606625
_cell_length_c 15.555633
_cell_angle_alpha 90.000000
_cell_angle_beta 100.796899
_cell_angle_gamma 90.000000
_cell_volume 2024.078230
_symmetry_space_group_name_H-M "P 2/M"
_symmetry_group_IT_number 10
_symmetry_cell_setting 'monoclinic'
loop_
_space_group_symop_operation_xyz
x,y,z
-x,y,-z
-x,-y,-z
x,-y,z
loop_
_atom_site_type_symbol
_atom_site_label
_atom_site_fract_x
_atom_site_fract_y
_atom_site_fract_z
Si Si1 0.792452 0.684048 0.423220
Si Si2 0.065400 0.810818 0.889152
Si Si3 0.079145 0.188022 0.697898
Si Si4 0.870614 0.189224 0.918184
Si Si5 0.122669 0.813166 0.387430
Si Si6 0.745572 0.812507 0.745716
Si Si7 0.606207 0.815500 0.434824
Si Si8 0.582324 0.315800 0.620861
O O1 0.781981 0.500000 0.420130
O O2 0.851371 0.740146 0.354616
O O3 0.841626 0.734261 0.520109
O O4 0.696068 0.762152 0.406804
O O5 0.092151 0.760490 0.799075
O O6 0.964014 0.766040 0.891575
O O7 0.066054 0.000000 0.888519
O O8 0.124115 0.760340 0.981546
O O9 0.978764 0.227786 0.651557
O O10 0.085968 0.000000 0.695733
O O11 0.789997 0.239489 0.843296
O O12 0.869502 0.000000 0.917773
O O13 0.185183 0.774949 0.318047
O O14 0.126946 0.000000 0.400084
O O15 0.652535 0.737324 0.704641
O O16 0.736125 0.000000 0.745110
O O17 0.517603 0.739027 0.380510
O O18 0.609968 0.762312 0.535320
O O19 0.597599 0.000000 0.430743
O O20 0.584349 0.500000 0.609936
#
# Coordination Sequence:
#
# PCOD9141846 Si02
#       8
#     4   4   4   4   4   4   4   4
#     4  12  24  35  47  67  96 132 169 208 245 286
#     4   8  13  24  44  71  98 124 160 207 248 278
#     4  10  19  32  49  70  96 133 173 207 242 285
#     4   8  13  23  44  73 100 124 158 204 246 282
#     4  10  19  31  47  68  97 133 172 205 234 281
#     4  10  17  28  48  74 101 133 165 196 238 288
#     4  11  21  36  54  71  92 124 162 203 244 290
#     4  11  21  33  50  74 101 127 156 196 242 292
#
# _framework density 15.809665000000001
#
# number of rings (size 3 to 8) (size 9 to 14) (size 15 to 20)
#    0.000    2.000    2.500    5.250    0.000    2.000 
#    0.000    0.000    0.000    0.750    0.000    2.625 
#    0.000    7.000    0.000    0.000    0.000    0.000 
#
# Total GULP energy -178551.997526 kJ/mol
# GULP energy per Si atom -5579.749923 kJ/mol
# Density = 1.577368 g / cm^3
# Si number density = 15.809665 Si / 1000 Ang^3
#
#
#
# Elastic Constant Matrix: (Units=GPa)
#
#
# Indices 1 2 3 4 5 6 
#
# 1 70.4462 2.7622 35.2388 0.0000 12.7766 0.0000
# 2 2.7622 12.5552 2.3060 0.0000 1.2374 0.0000
# 3 35.2388 2.3060 80.2748 0.0000 15.8880 0.0000
# 4 0.0000 0.0000 0.0000 -13.5214 0.0000 -0.6750
# 5 12.7766 1.2374 15.8880 0.0000 24.9965 0.0000
# 6 0.0000 0.0000 0.0000 -0.6750 0.0000 -23.6174
#
#
#
# Elastic Compliance Matrix: (Units=1/GPa)
#
#
# Indices 1 2 3 4 5 6 
#
# 1 0.018781 -0.002325 -0.007207 0.000000 -0.004904 0.000000
# 2 -0.002325 0.080538 -0.000845 0.000000 -0.002261 0.000000
# 3 -0.007207 -0.000845 0.017053 0.000000 -0.007113 0.000000
# 4 0.000000 0.000000 0.000000 -0.074063 0.000000 0.002117
# 5 -0.004904 -0.002261 -0.007113 0.000000 0.047145 0.000000
# 6 0.000000 0.000000 0.000000 0.002117 0.000000 -0.042402
#
#
# Mechanical properties :
#
#
# Convention : Reuss Voigt Hill
#
# Bulk Modulus (GPa) = 10.45839 27.09890 18.77865
# Shear Modulus (GPa) = 50.16079 5.76949 27.96514
#
# Velocity S-wave (km/s) = 5.63887 1.91240 4.21035
# Velocity P-wave (km/s) = 7.00181 4.69620 5.96153
#
# Compressibility (1/GPa) = 0.09561703
#
# Stress axis : x y z
#
# Youngs Moduli (GPa) = 53.24565 12.41654 58.64028
#
# Poissons Ratio (x) = 0.02887 0.42262
# Poissons Ratio (y) = 0.12379 0.04958
# Poissons Ratio (z) = 0.38374 0.01050
#
# Static dielectric constant tensor:
#      x y z
#    x 1.511590 0.000000 0.013590 
#    y 0.000000 1.527790 0.000000 
#    z 0.013590 0.000000 1.530740 
# 
# From -- ./inp_files/66184.got.cif
#   From: 2010.05.17/outbox.cif.g08.bks.cpg/sg10_34_cif.got.tgz:66184.got - 2010.06.03 11:33:40.
