data_PCOD9141859
_publ_section_title
;
Structure prediction by ZEFSAII (Michael W. Deem and Ramdas Pophale) SiO2 
 PCOD9141859
Probable space group: P 2/M
;
_chemical_formula_sum "Si O2"
_cell_formula_units_Z 26
_cell_length_a 7.422499
_cell_length_b 16.473706
_cell_length_c 14.082156
_cell_angle_alpha 90.000000
_cell_angle_beta 39.491091
_cell_angle_gamma 90.000000
_cell_volume 1095.063246
_symmetry_space_group_name_H-M "P 2/M"
_symmetry_group_IT_number 10
_symmetry_cell_setting 'monoclinic'
loop_
_space_group_symop_operation_xyz
x,y,z
-x,y,-z
-x,-y,-z
x,-y,z
loop_
_atom_site_type_symbol
_atom_site_label
_atom_site_fract_x
_atom_site_fract_y
_atom_site_fract_z
Si Si1 0.022947 0.744017 0.143374
Si Si2 0.225547 0.912883 0.543097
Si Si3 0.852163 0.411856 0.687622
Si Si4 0.207260 0.738510 0.561965
Si Si5 0.500000 0.354363 0.000000
Si Si6 0.170941 0.090147 0.116041
Si Si7 0.259366 0.411084 0.819309
O O1 0.009923 0.752053 0.262433
O O2 0.794107 0.676567 0.207396
O O3 0.322923 0.702225 0.000400
O O4 0.021997 0.838118 0.115895
O O5 0.500000 0.911048 0.500000
O O6 0.225164 0.823100 0.496711
O O7 0.971674 0.915697 0.721930
O O8 0.234777 0.000000 0.486379
O O9 0.985891 0.500000 0.621830
O O10 0.728546 0.403632 0.846039
O O11 0.564825 0.408338 0.743927
O O12 0.079026 0.342714 0.571284
O O13 0.500000 0.726451 0.500000
O O14 0.146273 0.000000 0.083073
O O15 0.500000 0.109496 0.000000
O O16 0.244524 0.500000 0.773655
O O17 0.000000 0.414961 0.000000
#
# Coordination Sequence:
#
# PCOD9141859 Si02
#       7
#     4   4   4   4   2   4   4
#     4  10  18  30  51  72  98 128 162 198 247 289
#     4   8  14  26  45  69  96 124 155 196 242 288
#     4  10  20  32  48  70  98 126 158 200 248 297
#     4   9  19  33  50  73  98 125 165 206 243 287
#     4  10  17  28  49  76  92 116 157 204 247 284
#     4   9  16  26  44  72 102 128 160 202 249 297
#     4  10  20  33  48  70  98 129 163 201 248 299
#
# _framework density 23.742922
#
# number of rings (size 3 to 8) (size 9 to 14) (size 15 to 20)
#    0.000    2.615    2.308    0.231    0.000    2.769 
#    0.000    0.769    0.000    3.231    0.000    0.000 
#    0.000   12.308    0.000    0.000    0.000    0.000 
#
# Total GULP energy -144746.960333 kJ/mol
# GULP energy per Si atom -5567.190782 kJ/mol
# Density = 2.368888 g / cm^3
# Si number density = 23.742922 Si / 1000 Ang^3
#
#
#
# Elastic Constant Matrix: (Units=GPa)
#
#
# Indices 1 2 3 4 5 6 
#
# 1 41.9025 53.7052 0.1473 0.0000 -15.1526 0.0000
# 2 53.7052 304.9910 8.3100 0.0000 -27.6641 0.0000
# 3 0.1473 8.3100 71.3608 0.0000 -13.7574 0.0000
# 4 0.0000 0.0000 0.0000 -168.9193 0.0000 -250.4320
# 5 -15.1526 -27.6641 -13.7574 0.0000 33.7278 0.0000
# 6 0.0000 0.0000 0.0000 -250.4320 0.0000 -312.6391
#
#
#
# Elastic Compliance Matrix: (Units=1/GPa)
#
#
# Indices 1 2 3 4 5 6 
#
# 1 0.034986 -0.005084 0.002980 0.000000 0.012764 0.000000
# 2 -0.005084 0.004283 -0.000273 0.000000 0.001117 0.000000
# 3 0.002980 -0.000273 0.015470 0.000000 0.007426 0.000000
# 4 0.000000 0.000000 0.000000 0.031562 0.000000 -0.025282
# 5 0.012764 0.001117 0.007426 0.000000 0.039329 0.000000
# 6 0.000000 0.000000 0.000000 -0.025282 0.000000 0.017053
#
#
# Mechanical properties :
#
#
# Convention : Reuss Voigt Hill
#
# Bulk Modulus (GPa) = 20.00546 60.28662 40.14604
# Shear Modulus (GPa) = 30.46943 -65.82667 -17.67862
#
# Velocity S-wave (km/s) = 3.58621 -5.27114 -2.73167
# Velocity P-wave (km/s) = 5.05886 3.40589 2.64499
#
# Compressibility (1/GPa) = 0.04998635
#
# Stress axis : x y z
#
# Youngs Moduli (GPa) = 28.58282 233.49055 64.63939
#
# Poissons Ratio (x) = 1.18709 -0.19265
# Poissons Ratio (y) = 0.14532 0.01763
# Poissons Ratio (z) = -0.08519 0.06370
#
# Static dielectric constant tensor:
#      x y z
#    x 1.886420 0.000000 0.063280 
#    y 0.000000 2.098040 0.000000 
#    z 0.063280 0.000000 1.891670 
# 
# From -- ./inp_files/82777.got.cif
#   From: 2010.05.17/outbox.cif.g08.bks.cpg/sg10_42_cif.got.tgz:82777.got - 2010.06.03 11:33:40.
