data_PCOD9141555
_publ_section_title
;
Structure prediction by ZEFSAII (Michael W. Deem and Ramdas Pophale) SiO2 
 PCOD9141555
Probable space group: P 2/M
;
_chemical_formula_sum "Si O2"
_cell_formula_units_Z 28
_cell_length_a 19.640373
_cell_length_b 9.106727
_cell_length_c 18.453545
_cell_angle_alpha 90.000000
_cell_angle_beta 148.316961
_cell_angle_gamma 90.000000
_cell_volume 1733.536217
_symmetry_space_group_name_H-M "P 2/M"
_symmetry_group_IT_number 10
_symmetry_cell_setting 'monoclinic'
loop_
_space_group_symop_operation_xyz
x,y,z
-x,y,-z
-x,-y,-z
x,-y,z
loop_
_atom_site_type_symbol
_atom_site_label
_atom_site_fract_x
_atom_site_fract_y
_atom_site_fract_z
Si Si1 0.171386 0.823806 0.017586
Si Si2 0.771996 0.826334 0.087807
Si Si3 0.357530 0.676742 0.895280
Si Si4 0.865834 0.323906 0.420227
Si Si5 0.080818 0.824830 0.381293
Si Si6 0.154327 0.830124 0.159495
Si Si7 0.106344 0.325706 0.257473
O O1 0.222681 0.793608 0.144851
O O2 0.138402 0.000000 0.985891
O O3 0.255128 0.794912 0.021702
O O4 0.040998 0.730305 0.889138
O O5 0.686976 0.740088 0.068220
O O6 0.925205 0.793097 0.238960
O O7 0.755364 0.000000 0.084418
O O8 0.356952 0.500000 0.899427
O O9 0.251684 0.718577 0.738874
O O10 0.500000 0.725237 0.000000
O O11 0.861455 0.500000 0.428518
O O12 0.864521 0.241164 0.495190
O O13 0.000000 0.291180 0.500000
O O14 0.142563 0.750479 0.366087
O O15 0.095624 0.000000 0.391125
O O16 0.180162 0.731252 0.252677
O O17 0.179401 0.000000 0.200633
O O18 0.000000 0.820038 0.000000
O O19 0.111634 0.500000 0.268052
#
# Coordination Sequence:
#
# PCOD9141555 Si02
#       7
#     4   4   4   4   4   4   4
#     4   8  15  26  38  55  81 116 152 187 227 271
#     4   9  17  29  45  65  88 116 154 194 228 268
#     4  10  21  35  49  67  94 124 151 186 236 282
#     4  10  19  32  50  70  91 117 154 194 229 270
#     4  10  19  30  45  65  89 118 154 191 232 274
#     4   8  13  23  36  50  78 117 151 181 222 272
#     4  10  17  23  35  57  86 116 149 187 227 269
#
# _framework density 16.151955000000001
#
# number of rings (size 3 to 8) (size 9 to 14) (size 15 to 20)
#    0.000    2.714    1.429    3.429    0.000    6.000 
#    0.000    0.000    0.000    0.000    0.000    0.000 
#    0.000    1.143    0.000   13.143    0.000    6.857 
#
# Total GULP energy -155900.584807 kJ/mol
# GULP energy per Si atom -5567.878029 kJ/mol
# Density = 1.611519 g / cm^3
# Si number density = 16.151955 Si / 1000 Ang^3
#
#
#
# Elastic Constant Matrix: (Units=GPa)
#
#
# Indices 1 2 3 4 5 6 
#
# 1 143.2922 59.4871 64.5809 0.0000 -41.6276 0.0000
# 2 59.4871 50.8193 32.0676 0.0000 -20.2827 0.0000
# 3 64.5809 32.0676 55.9411 0.0000 -13.7319 0.0000
# 4 0.0000 0.0000 0.0000 12.8864 0.0000 -9.0046
# 5 -41.6276 -20.2827 -13.7319 0.0000 29.1321 0.0000
# 6 0.0000 0.0000 0.0000 -9.0046 0.0000 16.0097
#
#
#
# Elastic Compliance Matrix: (Units=1/GPa)
#
#
# Indices 1 2 3 4 5 6 
#
# 1 0.025555 -0.009706 -0.018809 0.000000 0.020892 0.000000
# 2 -0.009706 0.041483 -0.010052 0.000000 0.010274 0.000000
# 3 -0.018809 -0.010052 0.041883 0.000000 -0.014133 0.000000
# 4 0.000000 0.000000 0.000000 0.127848 0.000000 0.071907
# 5 0.020892 0.010274 -0.014133 0.000000 0.064670 0.000000
# 6 0.000000 0.000000 0.000000 0.071907 0.000000 0.102906
#
#
# Mechanical properties :
#
#
# Convention : Reuss Voigt Hill
#
# Bulk Modulus (GPa) = 31.46108 62.48041 46.97075
# Shear Modulus (GPa) = 10.16104 17.86678 14.01391
#
# Velocity S-wave (km/s) = 2.51089 3.32952 2.94875
# Velocity P-wave (km/s) = 5.28456 7.31764 6.38257
#
# Compressibility (1/GPa) = 0.03178530
#
# Stress axis : x y z
#
# Youngs Moduli (GPa) = 39.13178 24.10626 23.87600
#
# Poissons Ratio (x) = 0.23398 0.44908
# Poissons Ratio (y) = 0.37983 0.24001
# Poissons Ratio (z) = 0.73603 0.24232
#
# Static dielectric constant tensor:
#      x y z
#    x 1.573500 0.000000 -0.027210 
#    y 0.000000 1.534140 0.000000 
#    z -0.027210 0.000000 1.526190 
# 
# From -- ./inp_files/38038.got.cif
#   From: 2010.05.17/outbox.cif.g08.bks.cpg/sg10_20_cif.got.tgz:38038.got - 2010.06.03 11:33:40.
