data_PCOD9141029
_publ_section_title
;
Structure prediction by ZEFSAII (Michael W. Deem and Ramdas Pophale) SiO2 
 PCOD9141029
Probable space group: C C
;
_chemical_formula_sum "Si O2"
_cell_formula_units_Z 28
_cell_length_a 5.194817
_cell_length_b 20.726343
_cell_length_c 11.332235
_cell_angle_alpha 90.000000
_cell_angle_beta 110.230009
_cell_angle_gamma 90.000000
_cell_volume 1144.869000
_symmetry_space_group_name_H-M "C C"
_symmetry_group_IT_number 9
_symmetry_cell_setting 'monoclinic'
loop_
_space_group_symop_operation_xyz
x,y,z
x,-y,1/2+z
1/2+x,1/2+y,z
1/2+x,1/2-y,1/2+z
loop_
_atom_site_type_symbol
_atom_site_label
_atom_site_fract_x
_atom_site_fract_y
_atom_site_fract_z
Si Si1 0.696470 0.998081 0.176560
Si Si2 0.488068 0.618724 0.614645
Si Si3 0.566545 0.608896 0.246750
Si Si4 0.883093 0.336082 0.993792
Si Si5 0.414975 0.016862 0.877683
Si Si6 0.439282 0.305259 0.507550
Si Si7 0.319312 0.163188 0.867629
O O1 0.936069 0.949811 0.168812
O O2 0.596098 0.970265 0.286859
O O3 0.778799 0.072003 0.220782
O O4 0.534385 0.001163 0.026891
O O5 0.718918 0.614978 0.552045
O O6 0.617210 0.670138 0.724998
O O7 0.192927 0.641235 0.521204
O O8 0.688753 0.664699 0.348467
O O9 0.533789 0.639727 0.113267
O O10 0.760837 0.548065 0.309995
O O11 0.897343 0.265710 0.053909
O O12 0.293187 0.086934 0.888850
O O13 0.680024 0.298169 0.450651
O O14 0.141914 0.323274 0.405813
#
# Coordination Sequence:
#
# PCOD9141029 Si02
#       7
#     4   4   4   4   4   4   4
#     4  12  25  46  76 116 164 203 270 339 412 483
#     4  12  26  47  79 109 153 202 264 324 407 467
#     4  12  28  44  80 110 162 202 272 326 418 462
#     4  12  29  51  74 112 158 213 265 326 392 490
#     4  12  25  46  76 116 164 203 270 339 412 483
#     4  12  29  51  74 112 158 213 265 326 392 490
#     4  12  26  47  79 109 153 202 264 324 407 467
#
# _framework density 24.456949000000002
#
# number of rings (size 3 to 8) (size 9 to 14) (size 15 to 20)
#    0.000    0.000    4.286    5.143    4.000    2.286 
#    0.000    0.000    0.000    0.000    0.000    0.000 
#    0.000    0.000    0.000    0.000    0.000    0.000 
#
# Total GULP energy -78054.773235 kJ/mol
# GULP energy per Si atom -5575.340945 kJ/mol
# Density = 2.440128 g / cm^3
# Si number density = 24.456949 Si / 1000 Ang^3
#
#
#
# Elastic Constant Matrix: (Units=GPa)
#
#
# Indices 1 2 3 4 5 6 
#
# 1 87.8162 17.6851 46.9760 0.0000 -10.4605 0.0000
# 2 17.6851 90.1433 17.9440 0.0000 10.0041 0.0000
# 3 46.9760 17.9440 112.8627 0.0000 1.8366 0.0000
# 4 0.0000 0.0000 0.0000 30.7274 0.0000 -7.2154
# 5 -10.4605 10.0041 1.8366 0.0000 31.9161 0.0000
# 6 0.0000 0.0000 0.0000 -7.2154 0.0000 21.4258
#
#
#
# Elastic Compliance Matrix: (Units=1/GPa)
#
#
# Indices 1 2 3 4 5 6 
#
# 1 0.016101 -0.002603 -0.006393 0.000000 0.006461 0.000000
# 2 -0.002603 0.012279 -0.000793 0.000000 -0.004656 0.000000
# 3 -0.006393 -0.000793 0.011688 0.000000 -0.002519 0.000000
# 4 0.000000 0.000000 0.000000 0.035339 0.000000 0.011901
# 5 0.006461 -0.004656 -0.002519 0.000000 0.035054 0.000000
# 6 0.000000 0.000000 0.000000 0.011901 0.000000 0.050681
#
#
# Mechanical properties :
#
#
# Convention : Reuss Voigt Hill
#
# Bulk Modulus (GPa) = 48.80435 50.67028 49.73732
# Shear Modulus (GPa) = 26.65960 30.69500 28.67730
#
# Velocity S-wave (km/s) = 3.30519 3.54653 3.42798
# Velocity P-wave (km/s) = 5.87914 6.12647 6.00408
#
# Compressibility (1/GPa) = 0.02048998
#
# Stress axis : x y z
#
# Youngs Moduli (GPa) = 62.10767 81.44135 85.55616
#
# Poissons Ratio (x) = 0.21202 0.54695
# Poissons Ratio (y) = 0.16169 0.06784
# Poissons Ratio (z) = 0.39705 0.06457
#
# Static dielectric constant tensor:
#      x y z
#    x 2.020650 0.000000 0.081150 
#    y 0.000000 1.943080 0.000000 
#    z 0.081150 0.000000 2.072370 
# 
# From -- ./inp_files/13288.got.cif
#   From: 2010.05.17/outbox.cif.g08.bks.cpg/sg9_7_cif.got.tgz:13288.got - 2010.06.03 20:04:27.
