data_PCOD9141110
_publ_section_title
;
Structure prediction by ZEFSAII (Michael W. Deem and Ramdas Pophale) SiO2 
 PCOD9141110
Probable space group: C C
;
_chemical_formula_sum "Si O2"
_cell_formula_units_Z 16
_cell_length_a 11.206476
_cell_length_b 9.708622
_cell_length_c 11.168146
_cell_angle_alpha 90.000000
_cell_angle_beta 26.999736
_cell_angle_gamma 90.000000
_cell_volume 551.633431
_symmetry_space_group_name_H-M "C C"
_symmetry_group_IT_number 9
_symmetry_cell_setting 'monoclinic'
loop_
_space_group_symop_operation_xyz
x,y,z
x,-y,1/2+z
1/2+x,1/2+y,z
1/2+x,1/2-y,1/2+z
loop_
_atom_site_type_symbol
_atom_site_label
_atom_site_fract_x
_atom_site_fract_y
_atom_site_fract_z
Si Si1 0.733570 0.398018 0.644620
Si Si2 0.310207 0.588218 0.736474
Si Si3 0.662139 0.798388 0.979852
Si Si4 0.069599 0.189628 0.726230
O O1 0.170013 0.220710 0.102827
O O2 0.721964 0.545420 0.589785
O O3 0.024085 0.382250 0.437961
O O4 0.517045 0.417765 0.942478
O O5 0.432980 0.697379 0.718556
O O6 0.268753 0.449643 0.854037
O O7 0.351338 0.800066 0.233807
O O8 0.301443 0.299143 0.542844
#
# Coordination Sequence:
#
# PCOD9141110 Si02
#       4
#     4   4   4   4
#     4  12  28  50  82 119 160 221 275 348 432 498
#     4  12  28  50  82 119 160 221 275 348 432 498
#     4  12  26  48  84 114 170 210 290 356 408 532
#     4  12  28  52  74 114 172 206 276 352 420 522
#
# _framework density 29.004767000000001
#
# number of rings (size 3 to 8) (size 9 to 14) (size 15 to 20)
#    0.000    0.000    2.500    6.000    3.500   12.000 
#    0.000    0.000    0.000    0.000    0.000    0.000 
#    0.000    0.000    0.000    0.000    0.000    0.000 
#
# Total GULP energy -44776.871202 kJ/mol
# GULP energy per Si atom -5597.108900 kJ/mol
# Density = 2.893875 g / cm^3
# Si number density = 29.004767 Si / 1000 Ang^3
#
#
#
# Elastic Constant Matrix: (Units=GPa)
#
#
# Indices 1 2 3 4 5 6 
#
# 1 167.2050 54.5529 61.3732 -0.0045 9.2210 0.0011
# 2 54.5529 130.4863 46.3740 -0.0014 -15.9787 0.0019
# 3 61.3732 46.3740 256.7057 -0.0159 3.6661 0.0072
# 4 -0.0045 -0.0014 -0.0159 41.8294 0.0061 2.1400
# 5 9.2210 -15.9787 3.6661 0.0061 23.1372 -0.0017
# 6 0.0011 0.0019 0.0072 2.1400 -0.0017 61.0472
#
#
#
# Elastic Compliance Matrix: (Units=1/GPa)
#
#
# Indices 1 2 3 4 5 6 
#
# 1 0.007857 -0.003531 -0.001164 0.000001 -0.005385 0.000000
# 2 -0.003531 0.010668 -0.001211 -0.000002 0.008966 0.000000
# 3 -0.001164 -0.001211 0.004408 0.000002 -0.001071 -0.000001
# 4 0.000001 -0.000002 0.000002 0.023950 -0.000008 -0.000840
# 5 -0.005385 0.008966 -0.001071 -0.000008 0.051729 0.000002
# 6 0.000000 0.000000 -0.000001 -0.000840 0.000002 0.016410
#
#
# Mechanical properties :
#
#
# Convention : Reuss Voigt Hill
#
# Bulk Modulus (GPa) = 89.91327 97.66638 93.78982
# Shear Modulus (GPa) = 38.30274 51.34253 44.82264
#
# Velocity S-wave (km/s) = 3.63790 4.21187 3.93536
# Velocity P-wave (km/s) = 6.97944 7.57620 7.28393
#
# Compressibility (1/GPa) = 0.01112183
#
# Stress axis : x y z
#
# Youngs Moduli (GPa) = 127.28042 93.73754 226.86959
#
# Poissons Ratio (x) = 0.33094 0.26400
# Poissons Ratio (y) = 0.44937 0.27478
# Poissons Ratio (z) = 0.14811 0.11353
#
# Static dielectric constant tensor:
#      x y z
#    x 2.326270 0.000000 0.002710 
#    y 0.000000 2.255450 0.000000 
#    z 0.002710 0.000000 2.313370 
# 
# From -- ./inp_files/1495.got.cif
#   From: 2010.05.17/outbox.cif.g08.bks.cpg/sg9_1_cif.got.tgz:1495.got - 2010.06.03 20:04:27.
