data_PCOD9141535
_publ_section_title
;
Structure prediction by ZEFSAII (Michael W. Deem and Ramdas Pophale) SiO2 
 PCOD9141535
Probable space group: P 2/M
;
_chemical_formula_sum "Si O2"
_cell_formula_units_Z 32
_cell_length_a 14.910054
_cell_length_b 17.547121
_cell_length_c 11.350953
_cell_angle_alpha 90.000000
_cell_angle_beta 29.690741
_cell_angle_gamma 90.000000
_cell_volume 1470.963101
_symmetry_space_group_name_H-M "P 2/M"
_symmetry_group_IT_number 10
_symmetry_cell_setting 'monoclinic'
loop_
_space_group_symop_operation_xyz
x,y,z
-x,y,-z
-x,-y,-z
x,-y,z
loop_
_atom_site_type_symbol
_atom_site_label
_atom_site_fract_x
_atom_site_fract_y
_atom_site_fract_z
Si Si1 0.107729 0.333228 0.980665
Si Si2 0.216617 0.411505 0.267460
Si Si3 0.745132 0.681661 0.540009
Si Si4 0.960044 0.084091 0.407850
Si Si5 0.203335 0.162699 0.784810
Si Si6 0.289453 0.837892 0.938125
Si Si7 0.369323 0.851960 0.336742
Si Si8 0.388350 0.659110 0.837644
O O1 0.949283 0.315606 0.257269
O O2 0.177892 0.253413 0.842496
O O3 0.274901 0.372408 0.856434
O O4 0.000000 0.375752 0.000000
O O5 0.267591 0.500000 0.214246
O O6 0.265245 0.370087 0.333108
O O7 0.000000 0.406047 0.500000
O O8 0.308307 0.373125 0.049973
O O9 0.670797 0.765471 0.658283
O O10 0.604116 0.651580 0.601745
O O11 0.754173 0.096170 0.603835
O O12 0.000000 0.089833 0.500000
O O13 0.019653 0.000000 0.299832
O O14 0.082288 0.147649 0.206669
O O15 0.302744 0.133415 0.788487
O O16 0.301818 0.148928 0.549914
O O17 0.000000 0.131797 0.000000
O O18 0.421345 0.873704 0.885785
O O19 0.342969 0.749262 0.881619
#
# Coordination Sequence:
#
# PCOD9141535 Si02
#       8
#     4   4   4   4   4   4   4   4
#     4  10  18  34  55  86 125 156 190 244 293 354
#     4  11  24  41  63  89 123 164 202 250 307 358
#     4  11  21  35  61  91 122 156 199 244 301 351
#     4  11  26  44  61  83 120 169 204 245 307 360
#     4  10  16  34  61  90 123 157 187 248 310 348
#     4  10  22  37  62  94 122 152 203 256 297 359
#     4  11  21  38  63  94 120 154 204 252 303 358
#     4  10  22  36  59  92 120 158 197 247 301 354
#
# _framework density 21.754455
#
# number of rings (size 3 to 8) (size 9 to 14) (size 15 to 20)
#    0.000    1.500    5.000    1.500    1.750    2.500 
#    0.000    2.500    0.000    3.000    0.000    1.750 
#    0.000    0.000    0.000    0.000    0.000    0.000 
#
# Total GULP energy -178630.218268 kJ/mol
# GULP energy per Si atom -5582.194321 kJ/mol
# Density = 2.170494 g / cm^3
# Si number density = 21.754455 Si / 1000 Ang^3
#
#
#
# Elastic Constant Matrix: (Units=GPa)
#
#
# Indices 1 2 3 4 5 6 
#
# 1 164.1505 35.2141 15.1962 0.0000 -25.2514 0.0000
# 2 35.2141 21.2090 -0.9864 0.0000 -3.4047 0.0000
# 3 15.1962 -0.9864 35.6677 0.0000 -15.3038 0.0000
# 4 0.0000 0.0000 0.0000 3.2445 0.0000 -28.3515
# 5 -25.2514 -3.4047 -15.3038 0.0000 36.7531 0.0000
# 6 0.0000 0.0000 0.0000 -28.3515 0.0000 -121.0722
#
#
#
# Elastic Compliance Matrix: (Units=1/GPa)
#
#
# Indices 1 2 3 4 5 6 
#
# 1 0.010798 -0.017353 -0.003150 0.000000 0.004500 0.000000
# 2 -0.017353 0.076205 0.009027 0.000000 -0.001105 0.000000
# 3 -0.003150 0.009027 0.035379 0.000000 0.013404 0.000000
# 4 0.000000 0.000000 0.000000 0.101178 0.000000 -0.023693
# 5 0.004500 -0.001105 0.013404 0.000000 0.035779 0.000000
# 6 0.000000 0.000000 0.000000 -0.023693 0.000000 -0.002711
#
#
# Mechanical properties :
#
#
# Convention : Reuss Voigt Hill
#
# Bulk Modulus (GPa) = 10.05730 35.54165 22.79947
# Shear Modulus (GPa) = 15.98853 -4.77470 5.60692
#
# Velocity S-wave (km/s) = 2.71395 -1.48310 1.60716
# Velocity P-wave (km/s) = 3.80182 3.66611 3.73458
#
# Compressibility (1/GPa) = 0.09943030
#
# Stress axis : x y z
#
# Youngs Moduli (GPa) = 92.60564 13.12256 28.26507
#
# Poissons Ratio (x) = 0.22772 0.08903
# Poissons Ratio (y) = 1.60701 -0.25515
# Poissons Ratio (z) = 0.29169 -0.11846
#
# Static dielectric constant tensor:
#      x y z
#    x 1.851340 0.000000 -0.037340 
#    y 0.000000 1.776250 0.000000 
#    z -0.037340 0.000000 1.831730 
# 
# From -- ./inp_files/51960.got.cif
#   From: 2010.05.17/outbox.cif.g08.bks.cpg/sg10_26_cif.got.tgz:51960.got - 2010.06.03 11:33:40.
