data_PCOD9141002
_publ_section_title
;
Structure prediction by ZEFSAII (Michael W. Deem and Ramdas Pophale) SiO2 
 PCOD9141002
Probable space group: C C
;
_chemical_formula_sum "Si O2"
_cell_formula_units_Z 32
_cell_length_a 14.586774
_cell_length_b 11.623757
_cell_length_c 18.846805
_cell_angle_alpha 90.000000
_cell_angle_beta 25.481314
_cell_angle_gamma 90.000000
_cell_volume 1374.772354
_symmetry_space_group_name_H-M "C C"
_symmetry_group_IT_number 9
_symmetry_cell_setting 'monoclinic'
loop_
_space_group_symop_operation_xyz
x,y,z
x,-y,1/2+z
1/2+x,1/2+y,z
1/2+x,1/2-y,1/2+z
loop_
_atom_site_type_symbol
_atom_site_label
_atom_site_fract_x
_atom_site_fract_y
_atom_site_fract_z
Si Si1 0.987740 0.407887 0.640060
Si Si2 0.343103 0.887379 0.031884
Si Si3 0.834366 0.643311 0.042805
Si Si4 0.164902 0.401482 0.937194
Si Si5 0.146267 0.643478 0.184111
Si Si6 0.060916 0.970675 0.462409
Si Si7 0.600872 0.310616 0.569350
Si Si8 0.308852 0.692411 0.690008
O O1 0.773099 0.482877 0.776776
O O2 0.930548 0.279021 0.657040
O O3 0.159964 0.469452 0.469922
O O4 0.060152 0.407922 0.670807
O O5 0.514591 0.879978 0.975088
O O6 0.476916 0.880958 0.865024
O O7 0.245396 0.014091 0.109767
O O8 0.184610 0.780210 0.148728
O O9 0.089010 0.644132 0.873793
O O10 0.786602 0.682193 0.996570
O O11 0.756117 0.731090 0.157094
O O12 0.394771 0.357775 0.753560
O O13 0.080310 0.319659 0.058744
O O14 0.377082 0.590191 0.044239
O O15 0.125460 0.886338 0.481387
O O16 0.954009 0.085211 0.568740
#
# Coordination Sequence:
#
# PCOD9141002 Si02
#       8
#     4   4   4   4   4   4   4   4
#     4  12  30  47  79 109 152 201 254 309 389 452
#     4  12  25  50  71 107 151 194 247 310 372 443
#     4  12  26  47  75 106 148 199 248 309 382 444
#     4  12  24  49  72 112 148 195 253 311 378 446
#     4  12  29  48  77 109 151 199 253 307 377 449
#     4  12  26  48  73 106 154 196 245 320 369 449
#     4  12  26  43  77 108 151 194 253 315 375 445
#     4  12  26  48  70 105 151 194 247 313 374 452
#
# _framework density 23.276579999999999
#
# number of rings (size 3 to 8) (size 9 to 14) (size 15 to 20)
#    0.000    0.000    6.250    2.250    7.000    2.000 
#    0.000    0.000    0.000    0.000    0.000    0.000 
#    0.000    0.000    0.000    0.000    0.000    0.000 
#
# Total GULP energy -89656.235725 kJ/mol
# GULP energy per Si atom -5603.514733 kJ/mol
# Density = 2.322360 g / cm^3
# Si number density = 23.276580 Si / 1000 Ang^3
#
#
#
# Elastic Constant Matrix: (Units=GPa)
#
#
# Indices 1 2 3 4 5 6 
#
# 1 132.2884 17.2801 -6.5622 -0.0108 19.8487 0.0042
# 2 17.2801 95.6714 -3.4876 0.0006 11.3349 0.0031
# 3 -6.5622 -3.4876 29.9196 -0.0125 3.5462 0.0084
# 4 -0.0108 0.0006 -0.0125 39.9789 0.0033 15.5798
# 5 19.8487 11.3349 3.5462 0.0033 16.8700 -0.0024
# 6 0.0042 0.0031 0.0084 15.5798 -0.0024 16.3132
#
#
#
# Elastic Compliance Matrix: (Units=1/GPa)
#
#
# Indices 1 2 3 4 5 6 
#
# 1 0.009528 -0.000196 0.003467 0.000011 -0.011808 -0.000017
# 2 -0.000196 0.011515 0.002245 0.000005 -0.007979 -0.000009
# 3 0.003467 0.002245 0.036004 0.000035 -0.013155 -0.000055
# 4 0.000011 0.000005 0.000035 0.039842 -0.000037 -0.038051
# 5 -0.011808 -0.007979 -0.013155 -0.000037 0.081296 0.000058
# 6 -0.000017 -0.000009 -0.000055 -0.038051 0.000058 0.097640
#
#
# Mechanical properties :
#
#
# Convention : Reuss Voigt Hill
#
# Bulk Modulus (GPa) = 14.68871 30.26000 22.47435
# Shear Modulus (GPa) = 17.39211 31.34234 24.36722
#
# Velocity S-wave (km/s) = 2.73645 3.67347 3.23903
# Velocity P-wave (km/s) = 4.03837 5.56965 4.86464
#
# Compressibility (1/GPa) = 0.06807948
#
# Stress axis : x y z
#
# Youngs Moduli (GPa) = 104.94857 86.84396 27.77454
#
# Poissons Ratio (x) = 0.01699 -0.09628
# Poissons Ratio (y) = 0.02053 -0.06235
# Poissons Ratio (z) = -0.36382 -0.19496
#
# Static dielectric constant tensor:
#      x y z
#    x 1.851370 0.000000 0.000600 
#    y 0.000000 1.861890 0.000000 
#    z 0.000600 0.000000 1.899920 
# 
# From -- ./inp_files/9089.got.cif
#   From: 2010.05.17/outbox.cif.g08.bks.cpg/sg9_5_cif.got.tgz:9089.got - 2010.06.03 20:04:27.
