data_PCOD9141751
_publ_section_title
;
Structure prediction by ZEFSAII (Michael W. Deem and Ramdas Pophale) SiO2 
 PCOD9141751
Probable space group: P 2/M
;
_chemical_formula_sum "Si O2"
_cell_formula_units_Z 32
_cell_length_a 17.249868
_cell_length_b 7.507600
_cell_length_c 31.140471
_cell_angle_alpha 90.000000
_cell_angle_beta 26.181854
_cell_angle_gamma 90.000000
_cell_volume 1779.380821
_symmetry_space_group_name_H-M "P 2/M"
_symmetry_group_IT_number 10
_symmetry_cell_setting 'monoclinic'
loop_
_space_group_symop_operation_xyz
x,y,z
-x,y,-z
-x,-y,-z
x,-y,z
loop_
_atom_site_type_symbol
_atom_site_label
_atom_site_fract_x
_atom_site_fract_y
_atom_site_fract_z
Si Si1 0.510637 0.713656 0.717884
Si Si2 0.296195 0.786729 0.147746
Si Si3 0.897302 0.718336 0.507271
Si Si4 0.876188 0.705814 0.099443
Si Si5 0.515626 0.713401 0.167814
Si Si6 0.698003 0.781869 0.952055
Si Si7 0.841962 0.711607 0.695581
Si Si8 0.880491 0.797456 0.945171
O O1 0.513252 0.500000 0.708542
O O2 0.695674 0.781140 0.607720
O O3 0.319580 0.783118 0.798532
O O4 0.514371 0.742288 0.767110
O O5 0.254793 0.727158 0.119874
O O6 0.159053 0.740187 0.253001
O O7 0.306728 0.000000 0.140701
O O8 0.495035 0.723990 0.060224
O O9 0.894715 0.500000 0.509199
O O10 0.000000 0.770281 0.500000
O O11 0.004414 0.777566 0.411899
O O12 0.847655 0.500000 0.100166
O O13 0.000000 0.784596 0.000000
O O14 0.980753 0.709176 0.092021
O O15 0.532880 0.500000 0.152684
O O16 0.345545 0.782751 0.227513
O O17 0.695091 0.796269 0.062323
O O18 0.698356 0.000000 0.953875
O O19 0.828303 0.719739 0.924674
O O20 0.836299 0.500000 0.691178
O O21 0.940718 0.000000 0.909150
#
# Coordination Sequence:
#
# PCOD9141751 Si02
#       8
#     4   4   4   4   4   4   4   4
#     4   9  16  28  44  61  87 124 155 177 209 259
#     4   9  16  30  47  61  86 120 150 176 217 276
#     4   9  15  25  43  67  91 117 150 182 213 256
#     4  10  19  31  46  64  89 120 153 183 215 262
#     4  10  17  27  43  64  91 121 150 180 215 257
#     4   8  16  29  45  63  84 117 152 180 213 269
#     4  10  18  26  43  71  95 114 147 189 220 250
#     4  11  20  30  45  66  89 116 152 187 221 257
#
# _framework density 17.983784
#
# number of rings (size 3 to 8) (size 9 to 14) (size 15 to 20)
#    0.000    2.500    3.750    1.125    0.000    0.250 
#    0.000    2.500    0.000    1.875    0.000    0.875 
#    0.000    7.000    0.000    0.000    0.000    0.000 
#
# Total GULP energy -178395.325171 kJ/mol
# GULP energy per Si atom -5574.853912 kJ/mol
# Density = 1.794285 g / cm^3
# Si number density = 17.983784 Si / 1000 Ang^3
#
#
#
# Elastic Constant Matrix: (Units=GPa)
#
#
# Indices 1 2 3 4 5 6 
#
# 1 95.9187 3.7771 70.5336 0.0000 1.3798 0.0000
# 2 3.7771 42.1051 3.8310 0.0000 1.1684 0.0000
# 3 70.5336 3.8310 144.9655 0.0000 0.9898 0.0000
# 4 0.0000 0.0000 0.0000 4.6570 0.0000 12.0972
# 5 1.3798 1.1684 0.9898 0.0000 24.7213 0.0000
# 6 0.0000 0.0000 0.0000 12.0972 0.0000 1.1930
#
#
#
# Elastic Compliance Matrix: (Units=1/GPa)
#
#
# Indices 1 2 3 4 5 6 
#
# 1 0.016264 -0.000726 -0.007891 0.000000 -0.000558 0.000000
# 2 -0.000726 0.023870 -0.000270 0.000000 -0.001077 0.000000
# 3 -0.007891 -0.000270 0.010744 0.000000 0.000023 0.000000
# 4 0.000000 0.000000 0.000000 -0.008473 0.000000 0.085926
# 5 -0.000558 -0.001077 0.000023 0.000000 0.040532 0.000000
# 6 0.000000 0.000000 0.000000 0.085926 0.000000 -0.033078
#
#
# Mechanical properties :
#
#
# Convention : Reuss Voigt Hill
#
# Bulk Modulus (GPa) = 30.20659 48.80806 39.50733
# Shear Modulus (GPa) = 63.55906 19.77074 41.66490
#
# Velocity S-wave (km/s) = 5.95140 3.31926 4.81854
# Velocity P-wave (km/s) = 8.00366 6.47217 7.27831
#
# Compressibility (1/GPa) = 0.03310535
#
# Stress axis : x y z
#
# Youngs Moduli (GPa) = 61.48414 41.89412 93.07220
#
# Poissons Ratio (x) = 0.03040 0.73439
# Poissons Ratio (y) = 0.04461 0.02517
# Poissons Ratio (z) = 0.48514 0.01133
#
# Static dielectric constant tensor:
#      x y z
#    x 1.627130 0.000000 0.006040 
#    y 0.000000 1.679920 0.000000 
#    z 0.006040 0.000000 1.618340 
# 
# From -- ./inp_files/77383.got.cif
#   From: 2010.05.17/outbox.cif.g08.bks.cpg/sg10_39_cif.got.tgz:77383.got - 2010.06.03 11:33:40.
