data_PCOD9141041
_publ_section_title
;
Structure prediction by ZEFSAII (Michael W. Deem and Ramdas Pophale) SiO2 
 PCOD9141041
Probable space group: C C
;
_chemical_formula_sum "Si O2"
_cell_formula_units_Z 24
_cell_length_a 6.885842
_cell_length_b 21.663463
_cell_length_c 9.568692
_cell_angle_alpha 90.000000
_cell_angle_beta 133.454413
_cell_angle_gamma 90.000000
_cell_volume 1036.161294
_symmetry_space_group_name_H-M "C C"
_symmetry_group_IT_number 9
_symmetry_cell_setting 'monoclinic'
loop_
_space_group_symop_operation_xyz
x,y,z
x,-y,1/2+z
1/2+x,1/2+y,z
1/2+x,1/2-y,1/2+z
loop_
_atom_site_type_symbol
_atom_site_label
_atom_site_fract_x
_atom_site_fract_y
_atom_site_fract_z
Si Si1 0.823970 0.928326 0.402000
Si Si2 0.543334 0.320250 0.839568
Si Si3 0.361693 0.853962 0.742938
Si Si4 0.308276 0.452654 0.069639
Si Si5 0.465989 0.201487 0.997368
Si Si6 0.770487 0.613376 0.690241
O O1 0.803158 0.952544 0.233680
O O2 0.575418 0.882272 0.294223
O O3 0.111290 0.898480 0.578137
O O4 0.740452 0.982634 0.466349
O O5 0.764422 0.314375 0.828903
O O6 0.256613 0.329637 0.630777
O O7 0.510511 0.265314 0.936441
O O8 0.616349 0.377865 0.969742
O O9 0.405612 0.808379 0.632015
O O10 0.615454 0.897513 0.912435
O O11 0.620591 0.443624 0.183683
O O12 0.246143 0.165266 0.798439
#
# Coordination Sequence:
#
# PCOD9141041 Si02
#       6
#     4   4   4   4   4   4
#     4  12  28  46  75 109 148 195 247 302 374 441
#     4  12  26  47  74 108 147 194 248 306 368 436
#     4  12  27  48  76 108 150 198 245 304 376 440
#     4  12  28  46  75 109 148 195 247 302 374 441
#     4  12  26  47  74 108 147 194 248 306 368 436
#     4  12  25  48  72 104 152 192 241 308 364 438
#
# _framework density 23.162417000000001
#
# number of rings (size 3 to 8) (size 9 to 14) (size 15 to 20)
#    0.000    0.000    8.333    1.000    4.667    4.000 
#    3.000    0.000    0.000    0.000    0.000    0.000 
#    0.000    0.000    0.000    0.000    0.000    0.000 
#
# Total GULP energy -66940.764133 kJ/mol
# GULP energy per Si atom -5578.397011 kJ/mol
# Density = 2.310970 g / cm^3
# Si number density = 23.162417 Si / 1000 Ang^3
#
#
#
# Elastic Constant Matrix: (Units=GPa)
#
#
# Indices 1 2 3 4 5 6 
#
# 1 106.6344 18.9863 27.0987 0.0000 -5.1267 0.0000
# 2 18.9863 28.5670 12.3974 0.0000 -14.2823 0.0000
# 3 27.0987 12.3974 115.5344 0.0000 -2.8000 0.0000
# 4 0.0000 0.0000 0.0000 52.5558 0.0000 -1.6861
# 5 -5.1267 -14.2823 -2.8000 0.0000 43.8305 0.0000
# 6 0.0000 0.0000 0.0000 -1.6861 0.0000 32.2670
#
#
#
# Elastic Compliance Matrix: (Units=1/GPa)
#
#
# Indices 1 2 3 4 5 6 
#
# 1 0.011062 -0.007118 -0.001859 0.000000 -0.001144 0.000000
# 2 -0.007118 0.048498 -0.003177 0.000000 0.014768 0.000000
# 3 -0.001859 -0.003177 0.009416 0.000000 -0.000651 0.000000
# 4 0.000000 0.000000 0.000000 0.019059 0.000000 0.000996
# 5 -0.001144 0.014768 -0.000651 0.000000 0.027452 0.000000
# 6 0.000000 0.000000 0.000000 0.000996 0.000000 0.031043
#
#
# Mechanical properties :
#
#
# Convention : Reuss Voigt Hill
#
# Bulk Modulus (GPa) = 22.38609 40.85562 31.62086
# Shear Modulus (GPa) = 26.92108 38.54754 32.73431
#
# Velocity S-wave (km/s) = 3.41291 4.08392 3.76340
# Velocity P-wave (km/s) = 5.02160 6.31783 5.70664
#
# Compressibility (1/GPa) = 0.04467060
#
# Stress axis : x y z
#
# Youngs Moduli (GPa) = 90.39555 20.61944 106.19677
#
# Poissons Ratio (x) = 0.14677 0.19738
# Poissons Ratio (y) = 0.64342 0.33735
# Poissons Ratio (z) = 0.16802 0.06550
#
# Static dielectric constant tensor:
#      x y z
#    x 1.899560 0.000000 -0.002940 
#    y 0.000000 1.919680 0.000000 
#    z -0.002940 0.000000 1.934460 
# 
# From -- ./inp_files/299.got.cif
#   From: 2010.05.17/outbox.cif.g08.bks.cpg/sg9_1_cif.got.tgz:299.got - 2010.06.03 20:04:27.
