data_PCOD9141129
_publ_section_title
;
Structure prediction by ZEFSAII (Michael W. Deem and Ramdas Pophale) SiO2 
 PCOD9141129
Probable space group: C C
;
_chemical_formula_sum "Si O2"
_cell_formula_units_Z 28
_cell_length_a 14.834094
_cell_length_b 13.583680
_cell_length_c 9.341921
_cell_angle_alpha 90.000000
_cell_angle_beta 143.314873
_cell_angle_gamma 90.000000
_cell_volume 1124.584868
_symmetry_space_group_name_H-M "C C"
_symmetry_group_IT_number 9
_symmetry_cell_setting 'monoclinic'
loop_
_space_group_symop_operation_xyz
x,y,z
x,-y,1/2+z
1/2+x,1/2+y,z
1/2+x,1/2-y,1/2+z
loop_
_atom_site_type_symbol
_atom_site_label
_atom_site_fract_x
_atom_site_fract_y
_atom_site_fract_z
Si Si1 0.833910 0.179353 0.547730
Si Si2 0.987357 0.978050 0.705065
Si Si3 0.236530 0.663960 0.945205
Si Si4 0.971876 0.454359 0.254379
Si Si5 0.806874 0.682846 0.755658
Si Si6 0.187009 0.994147 0.706443
Si Si7 0.076029 0.674578 0.440633
O O1 0.869243 0.065399 0.571213
O O2 0.851153 0.229058 0.414895
O O3 0.674945 0.189536 0.424011
O O4 0.955099 0.238577 0.796917
O O5 0.043172 0.963538 0.615715
O O6 0.904637 0.881882 0.660259
O O7 0.137360 0.017089 0.978634
O O8 0.183520 0.674996 0.715018
O O9 0.121894 0.589770 0.876563
O O10 0.228274 0.765867 0.020595
O O11 0.929796 0.389048 0.339867
O O12 0.997052 0.567878 0.327679
O O13 0.836188 0.447576 0.964779
O O14 0.711265 0.611821 0.736999
#
# Coordination Sequence:
#
# PCOD9141129 Si02
#       7
#     4   4   4   4   4   4   4
#     4  12  28  49  80 117 160 211 269 328 404 485
#     4  12  27  50  78 117 163 205 268 332 409 471
#     4  12  31  49  84 118 164 209 271 339 406 479
#     4  12  28  53  81 117 164 213 274 332 413 486
#     4  12  29  49  83 117 157 213 271 328 402 489
#     4  12  26  51  80 113 160 210 261 335 405 487
#     4  12  29  51  80 119 162 211 268 340 405 483
#
# _framework density 24.898074999999999
#
# number of rings (size 3 to 8) (size 9 to 14) (size 15 to 20)
#    0.000    0.000    4.286    3.429   12.000    0.000 
#    0.000    0.000    0.000    0.000    0.000    0.000 
#    0.000    0.000    0.000    0.000    0.000    0.000 
#
# Total GULP energy -78443.861055 kJ/mol
# GULP energy per Si atom -5603.132933 kJ/mol
# Density = 2.484141 g / cm^3
# Si number density = 24.898075 Si / 1000 Ang^3
#
#
#
# Elastic Constant Matrix: (Units=GPa)
#
#
# Indices 1 2 3 4 5 6 
#
# 1 107.1727 26.2462 31.7462 0.0000 4.0357 0.0000
# 2 26.2462 76.7458 10.3852 0.0000 3.9921 0.0000
# 3 31.7462 10.3852 90.2735 0.0000 -11.1651 0.0000
# 4 0.0000 0.0000 0.0000 33.3267 0.0000 0.5323
# 5 4.0357 3.9921 -11.1651 0.0000 38.9132 0.0000
# 6 0.0000 0.0000 0.0000 0.5323 0.0000 49.8350
#
#
#
# Elastic Compliance Matrix: (Units=1/GPa)
#
#
# Indices 1 2 3 4 5 6 
#
# 1 0.011344 -0.003256 -0.003856 0.000000 -0.001949 0.000000
# 2 -0.003256 0.014302 -0.000663 0.000000 -0.001320 0.000000
# 3 -0.003856 -0.000663 0.013030 0.000000 0.004207 0.000000
# 4 0.000000 0.000000 0.000000 0.030011 0.000000 -0.000321
# 5 -0.001949 -0.001320 0.004207 0.000000 0.027243 0.000000
# 6 0.000000 0.000000 0.000000 -0.000321 0.000000 0.020070
#
#
# Mechanical properties :
#
#
# Convention : Reuss Voigt Hill
#
# Bulk Modulus (GPa) = 43.24327 45.66080 44.45204
# Shear Modulus (GPa) = 35.90456 38.13593 37.02024
#
# Velocity S-wave (km/s) = 3.80157 3.91792 3.86018
# Velocity P-wave (km/s) = 6.05599 6.23263 6.14495
#
# Compressibility (1/GPa) = 0.02312499
#
# Stress axis : x y z
#
# Youngs Moduli (GPa) = 88.15506 69.91988 76.74648
#
# Poissons Ratio (x) = 0.22768 0.29590
# Poissons Ratio (y) = 0.28706 0.05092
# Poissons Ratio (z) = 0.33989 0.04639
#
# Static dielectric constant tensor:
#      x y z
#    x 1.917010 0.000000 0.005380 
#    y 0.000000 1.918810 0.000000 
#    z 0.005380 0.000000 2.016720 
# 
# From -- ./inp_files/7537.got.cif
#   From: 2010.05.17/outbox.cif.g08.bks.cpg/sg9_4_cif.got.tgz:7537.got - 2010.06.03 20:04:27.
