data_PCOD9141606
_publ_section_title
;
Structure prediction by ZEFSAII (Michael W. Deem and Ramdas Pophale) SiO2 
 PCOD9141606
Probable space group: P 2/M
;
_chemical_formula_sum "Si O2"
_cell_formula_units_Z 32
_cell_length_a 20.447764
_cell_length_b 8.700194
_cell_length_c 30.156256
_cell_angle_alpha 90.000000
_cell_angle_beta 23.338036
_cell_angle_gamma 90.000000
_cell_volume 2125.286412
_symmetry_space_group_name_H-M "P 2/M"
_symmetry_group_IT_number 10
_symmetry_cell_setting 'monoclinic'
loop_
_space_group_symop_operation_xyz
x,y,z
-x,y,-z
-x,-y,-z
x,-y,z
loop_
_atom_site_type_symbol
_atom_site_label
_atom_site_fract_x
_atom_site_fract_y
_atom_site_fract_z
Si Si1 0.737642 0.817978 0.169718
Si Si2 0.111469 0.314370 0.837520
Si Si3 0.183296 0.317697 0.479556
Si Si4 0.749013 0.682484 0.065061
Si Si5 0.551017 0.686388 0.419983
Si Si6 0.890215 0.177562 0.613452
Si Si7 0.399185 0.815641 0.264734
Si Si8 0.591925 0.685344 0.582591
O O1 0.859393 0.762418 0.132763
O O2 0.758944 0.730132 0.110435
O O3 0.557621 0.771720 0.300148
O O4 0.751290 0.000000 0.154249
O O5 0.119562 0.500000 0.838242
O O6 0.265730 0.267736 0.710598
O O7 0.929074 0.276164 0.933580
O O8 0.193557 0.500000 0.467624
O O9 0.310796 0.245148 0.364541
O O10 0.245220 0.279083 0.490483
O O11 0.999942 0.264106 0.581112
O O12 0.726628 0.500000 0.075657
O O13 0.587491 0.762677 0.145972
O O14 0.500000 0.745350 0.500000
O O15 0.553579 0.500000 0.420815
O O16 0.424427 0.726170 0.459021
O O17 0.713421 0.237762 0.706748
O O18 0.000000 0.181253 0.500000
O O19 0.874100 0.000000 0.636923
O O20 0.389916 0.000000 0.271733
O O21 0.563367 0.500000 0.603665
#
# Coordination Sequence:
#
# PCOD9141606 Si02
#       8
#     4   4   4   4   4   4   4   4
#     4  11  20  28  41  59  81 111 144 174 204 241
#     4   9  19  32  44  60  82 107 137 173 212 249
#     4  10  17  25  40  59  82 111 142 174 207 245
#     4  11  20  29  41  57  82 113 141 173 208 244
#     4   8  14  28  49  66  81 105 137 171 208 253
#     4   8  16  28  39  53  78 109 141 177 208 238
#     4  10  19  29  40  56  80 112 146 176 206 240
#     4   9  17  28  42  63  87 110 139 174 210 246
#
# _framework density 15.056793000000001
#
# number of rings (size 3 to 8) (size 9 to 14) (size 15 to 20)
#    0.000    2.500    1.250    4.125    0.000    5.750 
#    0.000    0.000    0.000    6.000    0.000    0.000 
#    0.000    1.000    0.000   12.500    0.000    2.000 
#
# Total GULP energy -178228.943553 kJ/mol
# GULP energy per Si atom -5569.654486 kJ/mol
# Density = 1.502252 g / cm^3
# Si number density = 15.056793 Si / 1000 Ang^3
#
#
#
# Elastic Constant Matrix: (Units=GPa)
#
#
# Indices 1 2 3 4 5 6 
#
# 1 112.1950 25.2856 61.2854 0.0000 -26.0066 0.0000
# 2 25.2856 26.1069 14.3166 0.0000 -9.5720 0.0000
# 3 61.2854 14.3166 60.2669 0.0000 -20.9904 0.0000
# 4 0.0000 0.0000 0.0000 6.6343 0.0000 -16.8971
# 5 -26.0066 -9.5720 -20.9904 0.0000 28.9901 0.0000
# 6 0.0000 0.0000 0.0000 -16.8971 0.0000 -1.0959
#
#
#
# Elastic Compliance Matrix: (Units=1/GPa)
#
#
# Indices 1 2 3 4 5 6 
#
# 1 0.022469 -0.010069 -0.019516 0.000000 0.002701 0.000000
# 2 -0.010069 0.050519 0.001206 0.000000 0.008521 0.000000
# 3 -0.019516 0.001206 0.040375 0.000000 0.012125 0.000000
# 4 0.000000 0.000000 0.000000 0.003743 0.000000 -0.057712
# 5 0.002701 0.008521 0.012125 0.000000 0.048510 0.000000
# 6 0.000000 0.000000 0.000000 -0.057712 0.000000 -0.022659
#
#
# Mechanical properties :
#
#
# Convention : Reuss Voigt Hill
#
# Bulk Modulus (GPa) = 17.66623 44.48266 31.07445
# Shear Modulus (GPa) = 22.87466 13.41779 18.14623
#
# Velocity S-wave (km/s) = 3.90195 2.98844 3.47534
# Velocity P-wave (km/s) = 5.66205 6.44322 6.06523
#
# Compressibility (1/GPa) = 0.05660517
#
# Stress axis : x y z
#
# Youngs Moduli (GPa) = 44.50606 19.79442 24.76799
#
# Poissons Ratio (x) = 0.19932 0.48337
# Poissons Ratio (y) = 0.44815 -0.02988
# Poissons Ratio (z) = 0.86857 -0.02388
#
# Static dielectric constant tensor:
#      x y z
#    x 1.518920 0.000000 -0.037130 
#    y 0.000000 1.505510 0.000000 
#    z -0.037130 0.000000 1.508170 
# 
# From -- ./inp_files/54792.got.cif
#   From: 2010.05.17/outbox.cif.g08.bks.cpg/sg10_28_cif.got.tgz:54792.got - 2010.06.03 11:33:40.
