data_PCOD9141949
_publ_section_title
;
Structure prediction by ZEFSAII (Michael W. Deem and Ramdas Pophale) SiO2 
 PCOD9141949
Probable space group: P 2/M
;
_chemical_formula_sum "Si O2"
_cell_formula_units_Z 32
_cell_length_a 11.745486
_cell_length_b 16.251089
_cell_length_c 18.454871
_cell_angle_alpha 90.000000
_cell_angle_beta 151.438253
_cell_angle_gamma 90.000000
_cell_volume 1684.179129
_symmetry_space_group_name_H-M "P 2/M"
_symmetry_group_IT_number 10
_symmetry_cell_setting 'monoclinic'
loop_
_space_group_symop_operation_xyz
x,y,z
-x,y,-z
-x,-y,-z
x,-y,z
loop_
_atom_site_type_symbol
_atom_site_label
_atom_site_fract_x
_atom_site_fract_y
_atom_site_fract_z
Si Si1 0.964783 0.596198 0.082626
Si Si2 0.598355 0.667439 0.978467
Si Si3 0.707463 0.858910 0.058415
Si Si4 0.575904 0.909378 0.237956
Si Si5 0.230591 0.880669 0.171990
Si Si6 0.315808 0.310387 0.203307
Si Si7 0.732335 0.723615 0.335224
Si Si8 0.759686 0.908017 0.654583
O O1 0.962690 0.500000 0.065296
O O2 0.230173 0.632662 0.221613
O O3 0.820088 0.614673 0.074186
O O4 0.813115 0.648165 0.938492
O O5 0.392510 0.677379 0.802251
O O6 0.500000 0.637548 0.000000
O O7 0.688135 0.760939 0.038983
O O8 0.983876 0.876810 0.230728
O O9 0.500000 0.883727 0.000000
O O10 0.628915 0.899259 0.938167
O O11 0.455970 0.906780 0.250143
O O12 0.717165 0.822723 0.311218
O O13 0.689672 0.000000 0.291070
O O14 0.228185 0.781299 0.171177
O O15 0.219388 0.910129 0.247143
O O16 0.000000 0.908413 0.000000
O O17 0.581498 0.298110 0.322968
O O18 0.000000 0.699755 0.500000
O O19 0.500000 0.864945 0.500000
O O20 0.735427 0.000000 0.609987
#
# Coordination Sequence:
#
# PCOD9141949 Si02
#       8
#     4   4   4   4   4   4   4   4
#     4  10  17  29  56  90 115 135 169 222 276 316
#     4   9  19  36  57  78 110 142 183 225 257 325
#     4  10  20  37  58  75 104 152 194 226 273 339
#     4  10  20  32  52  79 103 140 189 237 281 325
#     4  11  18  33  59  77 102 143 188 229 271 323
#     4   9  17  31  53  78 112 134 173 224 261 312
#     4   9  19  35  54  76 105 143 186 227 273 319
#     4  11  24  38  52  78 115 144 182 243 294 330
#
# _framework density 19.000354000000002
#
# number of rings (size 3 to 8) (size 9 to 14) (size 15 to 20)
#    0.000    2.125    2.500    3.000    0.000    2.000 
#   13.500    0.000    0.000    9.375    0.000    0.875 
#    0.000    0.000    0.000    0.000    0.000    0.000 
#
# Total GULP energy -178139.259372 kJ/mol
# GULP energy per Si atom -5566.851855 kJ/mol
# Density = 1.895711 g / cm^3
# Si number density = 19.000354 Si / 1000 Ang^3
#
#
#
# Elastic Constant Matrix: (Units=GPa)
#
#
# Indices 1 2 3 4 5 6 
#
# 1 116.0185 28.6787 37.0172 0.0000 16.7392 0.0000
# 2 28.6787 89.1834 3.6532 0.0000 8.7251 0.0000
# 3 37.0172 3.6532 84.9715 0.0000 28.3554 0.0000
# 4 0.0000 0.0000 0.0000 6.0104 0.0000 3.0136
# 5 16.7392 8.7251 28.3554 0.0000 27.7015 0.0000
# 6 0.0000 0.0000 0.0000 3.0136 0.0000 7.6425
#
#
#
# Elastic Compliance Matrix: (Units=1/GPa)
#
#
# Indices 1 2 3 4 5 6 
#
# 1 0.010941 -0.003219 -0.004192 0.000000 -0.001307 0.000000
# 2 -0.003219 0.012583 0.002331 0.000000 -0.004404 0.000000
# 3 -0.004192 0.002331 0.019584 0.000000 -0.018247 0.000000
# 4 0.000000 0.000000 0.000000 0.207378 0.000000 -0.081773
# 5 -0.001307 -0.004404 -0.018247 0.000000 0.056954 0.000000
# 6 0.000000 0.000000 0.000000 -0.081773 0.000000 0.163092
#
#
# Mechanical properties :
#
#
# Convention : Reuss Voigt Hill
#
# Bulk Modulus (GPa) = 30.35024 47.65241 39.00132
# Shear Modulus (GPa) = 10.16932 22.99250 16.58091
#
# Velocity S-wave (km/s) = 2.31599 3.48244 2.95729
# Velocity P-wave (km/s) = 4.81247 6.42682 5.67732
#
# Compressibility (1/GPa) = 0.03294867
#
# Stress axis : x y z
#
# Youngs Moduli (GPa) = 91.39953 79.47040 51.06254
#
# Poissons Ratio (x) = 0.25579 0.21405
# Poissons Ratio (y) = 0.29419 -0.11903
# Poissons Ratio (z) = 0.38314 -0.18524
#
# Static dielectric constant tensor:
#      x y z
#    x 1.719390 0.000000 0.020320 
#    y 0.000000 1.663610 0.000000 
#    z 0.020320 0.000000 1.674290 
# 
# From -- ./inp_files/77049.got.cif
#   From: 2010.05.17/outbox.cif.g08.bks.cpg/sg10_39_cif.got.tgz:77049.got - 2010.06.03 11:33:40.
