data_PCOD9141425
_publ_section_title
;
Structure prediction by ZEFSAII (Michael W. Deem and Ramdas Pophale) SiO2 
 PCOD9141425
Probable space group: P 2/M
;
_chemical_formula_sum "Si O2"
_cell_formula_units_Z 18
_cell_length_a 9.421380
_cell_length_b 19.461332
_cell_length_c 5.410958
_cell_angle_alpha 90.000000
_cell_angle_beta 137.357954
_cell_angle_gamma 90.000000
_cell_volume 672.073348
_symmetry_space_group_name_H-M "P 2/M"
_symmetry_group_IT_number 10
_symmetry_cell_setting 'monoclinic'
loop_
_space_group_symop_operation_xyz
x,y,z
-x,y,-z
-x,-y,-z
x,-y,z
loop_
_atom_site_type_symbol
_atom_site_label
_atom_site_fract_x
_atom_site_fract_y
_atom_site_fract_z
Si Si1 0.739609 0.199248 0.450283
Si Si2 0.781778 0.853188 0.004243
Si Si3 0.745144 0.421936 0.162950
Si Si4 0.360875 0.000000 0.071973
Si Si5 0.252229 0.351135 0.333970
O O1 0.667451 0.189845 0.074667
O O2 0.706014 0.274591 0.516809
O O3 0.990099 0.181794 0.734165
O O4 0.688746 0.147739 0.609171
O O5 0.776523 0.930906 0.092853
O O6 0.689300 0.500000 0.025141
O O7 0.682107 0.402361 0.361444
O O8 0.000000 0.419422 0.500000
O O9 0.683069 0.370041 0.862665
O O10 0.500000 0.000000 0.500000
O O11 0.500000 0.000000 0.000000
O O12 0.000000 0.356141 0.000000
#
# Coordination Sequence:
#
# PCOD9141425 Si02
#       5
#     4   4   4   2   4
#     4  10  19  32  54  84 101 128 171 215 268 288
#     4  10  21  35  56  77 102 126 164 211 253 311
#     4   9  17  24  34  55  91 143 186 198 218 277
#     4  12  26  44  58  76 102 136 168 198 254 318
#     4  10  16  25  42  62  97 128 173 213 237 287
#
# _framework density 26.782789999999999
#
# number of rings (size 3 to 8) (size 9 to 14) (size 15 to 20)
#    0.000    2.000    2.222    3.333    6.222    6.222 
#    0.000    0.000    0.000    0.000    0.000    0.000 
#    0.000    0.000    0.000    0.000    0.000  457.778 
#
# Total GULP energy -100807.589959 kJ/mol
# GULP energy per Si atom -5600.421664 kJ/mol
# Density = 2.672183 g / cm^3
# Si number density = 26.782790 Si / 1000 Ang^3
#
#
#
# Elastic Constant Matrix: (Units=GPa)
#
#
# Indices 1 2 3 4 5 6 
#
# 1 186.9610 49.0287 30.8842 0.0000 -65.8555 0.0000
# 2 49.0287 199.8124 52.3524 0.0000 -36.3957 0.0000
# 3 30.8842 52.3524 161.5429 0.0000 -35.8283 0.0000
# 4 0.0000 0.0000 0.0000 104.1158 0.0000 15.6766
# 5 -65.8555 -36.3957 -35.8283 0.0000 62.2753 0.0000
# 6 0.0000 0.0000 0.0000 15.6766 0.0000 53.4029
#
#
#
# Elastic Compliance Matrix: (Units=1/GPa)
#
#
# Indices 1 2 3 4 5 6 
#
# 1 0.008612 -0.000608 0.000563 0.000000 0.009076 0.000000
# 2 -0.000608 0.005872 -0.001339 0.000000 0.002019 0.000000
# 3 0.000563 -0.001339 0.007422 0.000000 0.004083 0.000000
# 4 0.000000 0.000000 0.000000 0.010049 0.000000 -0.002950
# 5 0.009076 0.002019 0.004083 0.000000 0.029185 0.000000
# 6 0.000000 0.000000 0.000000 -0.002950 0.000000 0.019592
#
#
# Mechanical properties :
#
#
# Convention : Reuss Voigt Hill
#
# Bulk Modulus (GPa) = 52.24652 90.31632 71.28142
# Shear Modulus (GPa) = 55.63067 71.69554 63.66310
#
# Velocity S-wave (km/s) = 4.56247 5.17951 4.88075
# Velocity P-wave (km/s) = 6.87784 8.34055 7.64426
#
# Compressibility (1/GPa) = 0.01914003
#
# Stress axis : x y z
#
# Youngs Moduli (GPa) = 116.11757 170.28754 134.73072
#
# Poissons Ratio (x) = 0.10346 -0.07591
# Poissons Ratio (y) = 0.07055 0.18042
# Poissons Ratio (z) = -0.06542 0.22804
#
# Static dielectric constant tensor:
#      x y z
#    x 1.458180 0.000000 -1.496060 
#    y 0.000000 1.966390 0.000000 
#    z -1.496060 0.000000 -1.526980 
# 
# From -- ./inp_files/7326.got.cif
#   From: 2010.05.17/outbox.cif.g08.bks.cpg/sg10_4_cif.got.tgz:7326.got - 2010.06.03 11:33:40.
