data_PCOD9141309
_publ_section_title
;
Structure prediction by ZEFSAII (Michael W. Deem and Ramdas Pophale) SiO2 
 PCOD9141309
Probable space group: P 2/M
;
_chemical_formula_sum "Si O2"
_cell_formula_units_Z 14
_cell_length_a 7.372624
_cell_length_b 7.799620
_cell_length_c 11.873133
_cell_angle_alpha 90.000000
_cell_angle_beta 64.787891
_cell_angle_gamma 90.000000
_cell_volume 617.708015
_symmetry_space_group_name_H-M "P 2/M"
_symmetry_group_IT_number 10
_symmetry_cell_setting 'monoclinic'
loop_
_space_group_symop_operation_xyz
x,y,z
-x,y,-z
-x,-y,-z
x,-y,z
loop_
_atom_site_type_symbol
_atom_site_label
_atom_site_fract_x
_atom_site_fract_y
_atom_site_fract_z
Si Si1 0.758992 0.500000 0.237637
Si Si2 0.436453 0.205162 0.346749
Si Si3 0.259961 0.500000 0.022030
Si Si4 0.812425 0.500000 0.470072
Si Si5 0.707492 0.818614 0.872151
O O1 0.635225 0.319809 0.284069
O O2 0.875851 0.500000 0.324417
O O3 0.784595 0.500000 0.096625
O O4 0.307828 0.325141 0.465407
O O5 0.342819 0.213649 0.244874
O O6 0.453845 0.000000 0.369068
O O7 0.172589 0.668063 0.101836
O O8 0.500000 0.500000 0.000000
O O9 0.000000 0.500000 0.500000
O O10 0.813179 0.000000 0.853374
O O11 0.500000 0.830662 0.000000
#
# Coordination Sequence:
#
# PCOD9141309 Si02
#       5
#     2   4   2   2   4
#     4  11  20  33  56  85 108 137 179 225 269 317
#     4  10  19  35  60  85 106 135 178 229 274 312
#     4  10  14  26  48  79 112 131 152 209 276 315
#     4  11  26  41  50  71 112 154 188 218 256 316
#     4   9  15  25  48  83 112 129 153 206 280 327
#
# _framework density 22.664432000000001
#
# number of rings (size 3 to 8) (size 9 to 14) (size 15 to 20)
#    0.000    2.000    5.714    2.571    0.000    2.857 
#    0.000    0.000    0.000    3.429    0.000    4.000 
#    0.000    0.000    0.000    0.000    0.000    0.000 
#
# Total GULP energy -77953.476829 kJ/mol
# GULP energy per Si atom -5568.105488 kJ/mol
# Density = 2.261285 g / cm^3
# Si number density = 22.664432 Si / 1000 Ang^3
#
#
#
# Elastic Constant Matrix: (Units=GPa)
#
#
# Indices 1 2 3 4 5 6 
#
# 1 62.6789 35.0455 54.6672 0.0000 36.1551 0.0000
# 2 35.0455 207.0796 68.0664 0.0000 30.8730 0.0000
# 3 54.6672 68.0664 167.8857 0.0000 38.8123 0.0000
# 4 0.0000 0.0000 0.0000 22.0972 0.0000 15.3273
# 5 36.1551 30.8730 38.8123 0.0000 45.7895 0.0000
# 6 0.0000 0.0000 0.0000 15.3273 0.0000 15.8811
#
#
#
# Elastic Compliance Matrix: (Units=1/GPa)
#
#
# Indices 1 2 3 4 5 6 
#
# 1 0.033560 -0.000622 -0.005779 0.000000 -0.021181 0.000000
# 2 -0.000622 0.005783 -0.001684 0.000000 -0.001980 0.000000
# 3 -0.005779 -0.001684 0.008959 0.000000 -0.001895 0.000000
# 4 0.000000 0.000000 0.000000 0.136903 0.000000 -0.132128
# 5 -0.021181 -0.001980 -0.001895 0.000000 0.041505 0.000000
# 6 0.000000 0.000000 0.000000 -0.132128 0.000000 0.190488
#
#
# Mechanical properties :
#
#
# Convention : Reuss Voigt Hill
#
# Bulk Modulus (GPa) = 31.12179 83.68916 57.40548
# Shear Modulus (GPa) = 11.25922 35.41124 23.33523
#
# Velocity S-wave (km/s) = 2.23127 3.95703 3.21221
# Velocity P-wave (km/s) = 4.51658 7.60808 6.25629
#
# Compressibility (1/GPa) = 0.03213183
#
# Stress axis : x y z
#
# Youngs Moduli (GPa) = 29.79696 172.91385 111.61655
#
# Poissons Ratio (x) = 0.10760 0.64503
# Poissons Ratio (y) = 0.01854 0.18799
# Poissons Ratio (z) = 0.17220 0.29123
#
# Static dielectric constant tensor:
#      x y z
#    x 1.913910 0.000000 -0.081060 
#    y 0.000000 1.956650 0.000000 
#    z -0.081060 0.000000 1.866280 
# 
# From -- ./inp_files/40255.got.cif
#   From: 2010.05.17/outbox.cif.g08.bks.cpg/sg10_21_cif.got.tgz:40255.got - 2010.06.03 11:33:40.
