data_PCOD9141632
_publ_section_title
;
Structure prediction by ZEFSAII (Michael W. Deem and Ramdas Pophale) SiO2 
 PCOD9141632
Probable space group: P 2/M
;
_chemical_formula_sum "Si O2"
_cell_formula_units_Z 28
_cell_length_a 18.301552
_cell_length_b 8.979176
_cell_length_c 14.551778
_cell_angle_alpha 90.000000
_cell_angle_beta 50.408485
_cell_angle_gamma 90.000000
_cell_volume 1842.781189
_symmetry_space_group_name_H-M "P 2/M"
_symmetry_group_IT_number 10
_symmetry_cell_setting 'monoclinic'
loop_
_space_group_symop_operation_xyz
x,y,z
-x,y,-z
-x,-y,-z
x,-y,z
loop_
_atom_site_type_symbol
_atom_site_label
_atom_site_fract_x
_atom_site_fract_y
_atom_site_fract_z
Si Si1 0.528734 0.679519 0.198948
Si Si2 0.305023 0.176693 0.056040
Si Si3 0.859790 0.821146 0.942964
Si Si4 0.773291 0.322906 0.195783
Si Si5 0.570235 0.823589 0.358396
Si Si6 0.054124 0.828283 0.857865
Si Si7 0.402351 0.672310 0.137780
O O1 0.534546 0.500000 0.196404
O O2 0.529619 0.747185 0.299233
O O3 0.436845 0.720602 0.210962
O O4 0.620384 0.742482 0.071527
O O5 0.200661 0.208242 0.099810
O O6 0.327415 0.233014 0.140423
O O7 0.321454 0.000000 0.037467
O O8 0.971047 0.781114 0.854509
O O9 0.855621 0.000000 0.964670
O O10 0.808962 0.738485 0.068338
O O11 0.765275 0.500000 0.199044
O O12 0.672323 0.248720 0.296064
O O13 0.853547 0.271614 0.203833
O O14 0.500000 0.802261 0.500000
O O15 0.582183 0.000000 0.332304
O O16 0.081567 0.000000 0.818727
O O17 0.000000 0.824948 0.000000
O O18 0.372392 0.500000 0.164576
O O19 0.500000 0.678066 0.000000
#
# Coordination Sequence:
#
# PCOD9141632 Si02
#       7
#     4   4   4   4   4   4   4
#     4  10  19  31  45  61  84 115 146 182 225 261
#     4  10  17  25  42  65  89 118 151 179 209 255
#     4   9  17  28  42  62  89 120 149 178 213 255
#     4  11  20  29  44  63  85 113 145 183 223 260
#     4  11  23  36  49  64  83 112 151 190 225 264
#     4   8  15  28  43  58  83 117 147 176 213 256
#     4   8  16  28  40  58  86 115 144 176 215 260
#
# _framework density 15.194424
#
# number of rings (size 3 to 8) (size 9 to 14) (size 15 to 20)
#    0.000    2.429    1.429    4.286    0.000    7.429 
#    0.000    0.000    0.000    0.000    0.000    0.000 
#    0.000    1.143    0.000   12.857    0.000    6.429 
#
# Total GULP energy -155989.755354 kJ/mol
# GULP energy per Si atom -5571.062691 kJ/mol
# Density = 1.515984 g / cm^3
# Si number density = 15.194424 Si / 1000 Ang^3
#
#
#
# Elastic Constant Matrix: (Units=GPa)
#
#
# Indices 1 2 3 4 5 6 
#
# 1 166.2691 67.8712 40.0935 0.0000 -8.8431 0.0000
# 2 67.8712 74.1566 33.1759 0.0000 -5.8634 0.0000
# 3 40.0935 33.1759 35.5871 0.0000 -3.3328 0.0000
# 4 0.0000 0.0000 0.0000 -9.0072 0.0000 13.1180
# 5 -8.8431 -5.8634 -3.3328 0.0000 13.2915 0.0000
# 6 0.0000 0.0000 0.0000 13.1180 0.0000 18.4907
#
#
#
# Elastic Compliance Matrix: (Units=1/GPa)
#
#
# Indices 1 2 3 4 5 6 
#
# 1 0.010120 -0.006980 -0.004661 0.000000 0.002485 0.000000
# 2 -0.006980 0.028265 -0.018180 0.000000 0.003266 0.000000
# 3 -0.004661 -0.018180 0.050443 0.000000 0.001527 0.000000
# 4 0.000000 0.000000 0.000000 -0.054604 0.000000 0.038738
# 5 0.002485 0.003266 0.001527 0.000000 0.078713 0.000000
# 6 0.000000 0.000000 0.000000 0.038738 0.000000 0.026599
#
#
# Mechanical properties :
#
#
# Convention : Reuss Voigt Hill
#
# Bulk Modulus (GPa) = 34.26442 62.03268 48.14855
# Shear Modulus (GPa) = 23.93402 13.54646 18.74024
#
# Velocity S-wave (km/s) = 3.97316 2.98911 3.51574
# Velocity P-wave (km/s) = 6.60664 7.26826 6.94533
#
# Compressibility (1/GPa) = 0.02918479
#
# Stress axis : x y z
#
# Youngs Moduli (GPa) = 98.81535 35.37917 19.82437
#
# Poissons Ratio (x) = 0.24696 0.09241
# Poissons Ratio (y) = 0.68976 0.36041
# Poissons Ratio (z) = 0.46061 0.64319
#
# Static dielectric constant tensor:
#      x y z
#    x 1.559190 0.000000 -0.004920 
#    y 0.000000 1.508070 0.000000 
#    z -0.004920 0.000000 1.459990 
# 
# From -- ./inp_files/68613.got.cif
#   From: 2010.05.17/outbox.cif.g08.bks.cpg/sg10_35_cif.got.tgz:68613.got - 2010.06.03 11:33:40.
