data_PCOD9141525
_publ_section_title
;
Structure prediction by ZEFSAII (Michael W. Deem and Ramdas Pophale) SiO2 
 PCOD9141525
Probable space group: P 2/M
;
_chemical_formula_sum "Si O2"
_cell_formula_units_Z 27
_cell_length_a 5.076733
_cell_length_b 26.306403
_cell_length_c 10.013129
_cell_angle_alpha 90.000000
_cell_angle_beta 111.223085
_cell_angle_gamma 90.000000
_cell_volume 1246.563664
_symmetry_space_group_name_H-M "P 2/M"
_symmetry_group_IT_number 10
_symmetry_cell_setting 'monoclinic'
loop_
_space_group_symop_operation_xyz
x,y,z
-x,y,-z
-x,-y,-z
x,-y,z
loop_
_atom_site_type_symbol
_atom_site_label
_atom_site_fract_x
_atom_site_fract_y
_atom_site_fract_z
Si Si1 0.831611 0.401852 0.095407
Si Si2 0.827469 0.181699 0.101430
Si Si3 0.332547 0.335749 0.594095
Si Si4 0.268230 0.554332 0.645827
Si Si5 0.000000 0.000000 0.000000
Si Si6 0.238574 0.291524 0.851168
Si Si7 0.250302 0.925648 0.841154
Si Si8 0.678693 0.000000 0.391125
O O1 0.851116 0.436382 0.228405
O O2 0.928020 0.343749 0.146242
O O3 0.500000 0.399360 0.000000
O O4 0.000000 0.421211 0.000000
O O5 0.916231 0.237545 0.168756
O O6 0.842248 0.132390 0.197756
O O7 0.500000 0.185647 0.000000
O O8 0.000000 0.170088 0.000000
O O9 0.500000 0.315526 0.500000
O O10 0.433296 0.393672 0.643394
O O11 0.361873 0.301257 0.728000
O O12 0.000000 0.338513 0.500000
O O13 0.420561 0.500000 0.663976
O O14 0.000000 0.552598 0.500000
O O15 0.982736 0.956634 0.117445
O O16 0.500000 0.290056 0.000000
O O17 0.344543 0.953121 0.721063
O O18 0.500000 0.928311 0.000000
O O19 0.500000 0.000000 0.500000
O O20 0.000000 0.000000 0.500000
#
# Coordination Sequence:
#
# PCOD9141525 Si02
#       8
#     4   4   4   4   1   4   4   2
#     4  10  21  37  57  82 112 148 185 229 285 348
#     4  10  20  35  58  91 117 145 191 246 286 330
#     4  10  22  39  58  82 113 150 194 231 284 351
#     4   9  20  37  57  81 111 147 189 239 286 335
#     4  10  16  32  60  84 106 144 196 238 270 324
#     4   9  20  37  60  86 115 148 188 237 286 337
#     4  10  22  37  63  87 117 156 205 241 286 344
#     4  11  26  39  58  86 123 155 190 238 293 340
#
# _framework density 21.659541000000001
#
# number of rings (size 3 to 8) (size 9 to 14) (size 15 to 20)
#    0.000    2.222    0.741    1.333    4.148   13.926 
#    0.000    4.444    0.000    0.000    0.000    0.000 
#    0.000    0.000    0.000    0.000    0.000    0.000 
#
# Total GULP energy -150403.104417 kJ/mol
# GULP energy per Si atom -5570.485349 kJ/mol
# Density = 2.161024 g / cm^3
# Si number density = 21.659541 Si / 1000 Ang^3
#
#
#
# Elastic Constant Matrix: (Units=GPa)
#
#
# Indices 1 2 3 4 5 6 
#
# 1 83.7087 3.4682 37.6042 0.0000 -17.3319 0.0000
# 2 3.4682 125.3830 46.0999 0.0000 3.7437 0.0000
# 3 37.6042 46.0999 151.9915 0.0000 -34.5793 0.0000
# 4 0.0000 0.0000 0.0000 39.4741 0.0000 -4.7954
# 5 -17.3319 3.7437 -34.5793 0.0000 34.9067 0.0000
# 6 0.0000 0.0000 0.0000 -4.7954 0.0000 13.8768
#
#
#
# Elastic Compliance Matrix: (Units=1/GPa)
#
#
# Indices 1 2 3 4 5 6 
#
# 1 0.013996 0.000447 -0.002618 0.000000 0.004308 0.000000
# 2 0.000447 0.009638 -0.004155 0.000000 -0.004928 0.000000
# 3 -0.002618 -0.004155 0.010706 0.000000 0.009751 0.000000
# 4 0.000000 0.000000 0.000000 0.026443 0.000000 0.009138
# 5 0.004308 -0.004928 0.009751 0.000000 0.040975 0.000000
# 6 0.000000 0.000000 0.000000 0.009138 0.000000 0.075220
#
#
# Mechanical properties :
#
#
# Convention : Reuss Voigt Hill
#
# Bulk Modulus (GPa) = 46.11065 59.49196 52.80130
# Shear Modulus (GPa) = 25.39890 35.91225 30.65557
#
# Velocity S-wave (km/s) = 3.42810 4.07631 3.76618
# Velocity P-wave (km/s) = 6.08311 7.04852 6.58353
#
# Compressibility (1/GPa) = 0.02168697
#
# Stress axis : x y z
#
# Youngs Moduli (GPa) = 71.45030 103.75616 93.40814
#
# Poissons Ratio (x) = -0.04637 0.24456
# Poissons Ratio (y) = -0.03193 0.38810
# Poissons Ratio (z) = 0.18707 0.43110
#
# Static dielectric constant tensor:
#      x y z
#    x 1.876640 0.000000 0.016510 
#    y 0.000000 1.915480 0.000000 
#    z 0.016510 0.000000 1.789460 
# 
# From -- ./inp_files/15755.got.cif
#   From: 2010.05.17/outbox.cif.g08.bks.cpg/sg10_8_cif.got.tgz:15755.got - 2010.06.03 11:33:40.
