data_PCOD9141612
_publ_section_title
;
Structure prediction by ZEFSAII (Michael W. Deem and Ramdas Pophale) SiO2 
 PCOD9141612
Probable space group: P 2/M
;
_chemical_formula_sum "Si O2"
_cell_formula_units_Z 28
_cell_length_a 11.655070
_cell_length_b 8.354695
_cell_length_c 22.188011
_cell_angle_alpha 90.000000
_cell_angle_beta 49.939194
_cell_angle_gamma 90.000000
_cell_volume 1653.600771
_symmetry_space_group_name_H-M "P 2/M"
_symmetry_group_IT_number 10
_symmetry_cell_setting 'monoclinic'
loop_
_space_group_symop_operation_xyz
x,y,z
-x,y,-z
-x,-y,-z
x,-y,z
loop_
_atom_site_type_symbol
_atom_site_label
_atom_site_fract_x
_atom_site_fract_y
_atom_site_fract_z
Si Si1 0.476441 0.307195 0.268855
Si Si2 0.767685 0.312109 0.561028
Si Si3 0.663872 0.692943 0.924163
Si Si4 0.793405 0.807146 0.120399
Si Si5 0.250356 0.306131 0.238788
Si Si6 0.874045 0.193398 0.959448
Si Si7 0.976368 0.187358 0.596690
O O1 0.471212 0.500000 0.271316
O O2 0.390515 0.252483 0.358659
O O3 0.645771 0.253187 0.203202
O O4 0.377771 0.254983 0.244069
O O5 0.758293 0.500000 0.550794
O O6 0.877391 0.285684 0.581569
O O7 0.851845 0.226369 0.477596
O O8 0.657439 0.500000 0.924136
O O9 0.707054 0.747984 0.842494
O O10 0.785021 0.742048 0.932745
O O11 0.500000 0.751989 0.000000
O O12 0.951658 0.756376 0.095999
O O13 0.791714 0.000000 0.121045
O O14 0.798659 0.755254 0.048375
O O15 0.243495 0.500000 0.242168
O O16 0.092585 0.238459 0.316330
O O17 0.871075 0.000000 0.959121
O O18 0.950179 0.000000 0.595301
#
# Coordination Sequence:
#
# PCOD9141612 Si02
#       7
#     4   4   4   4   4   4   4
#     4   9  17  28  45  68  91 118 152 186 221 267
#     4   9  16  27  41  59  89 123 148 179 228 273
#     4  10  20  33  49  69  92 119 153 190 224 262
#     4   9  18  32  48  65  90 121 150 186 228 268
#     4   9  18  31  44  62  93 126 150 180 228 274
#     4   9  19  34  48  65  90 121 154 185 225 270
#     4  10  17  25  40  63  88 116 154 189 216 261
#
# _framework density 16.932744
#
# number of rings (size 3 to 8) (size 9 to 14) (size 15 to 20)
#    0.000    2.714    0.000    5.143    0.000    6.000 
#    0.000    1.429    0.000    0.000    0.000    1.000 
#    0.000    8.000    0.000    0.000    0.000    0.000 
#
# Total GULP energy -155985.497670 kJ/mol
# GULP energy per Si atom -5570.910631 kJ/mol
# Density = 1.689420 g / cm^3
# Si number density = 16.932744 Si / 1000 Ang^3
#
#
#
# Elastic Constant Matrix: (Units=GPa)
#
#
# Indices 1 2 3 4 5 6 
#
# 1 55.9872 4.9239 55.9125 0.0000 -7.1211 0.0000
# 2 4.9239 8.3825 17.7835 0.0000 -0.3773 0.0000
# 3 55.9125 17.7835 177.3144 0.0000 -22.6330 0.0000
# 4 0.0000 0.0000 0.0000 20.2422 0.0000 -5.5395
# 5 -7.1211 -0.3773 -22.6330 0.0000 24.6514 0.0000
# 6 0.0000 0.0000 0.0000 -5.5395 0.0000 21.3413
#
#
#
# Elastic Compliance Matrix: (Units=1/GPa)
#
#
# Indices 1 2 3 4 5 6 
#
# 1 0.026121 0.002781 -0.008549 0.000000 -0.000261 0.000000
# 2 0.002781 0.155714 -0.018223 0.000000 -0.013544 0.000000
# 3 -0.008549 -0.018223 0.011115 0.000000 0.007456 0.000000
# 4 0.000000 0.000000 0.000000 0.053179 0.000000 0.013804
# 5 -0.000261 -0.013544 0.007456 0.000000 0.047129 0.000000
# 6 0.000000 0.000000 0.000000 0.013804 0.000000 0.050440
#
#
# Mechanical properties :
#
#
# Convention : Reuss Voigt Hill
#
# Bulk Modulus (GPa) = 6.89806 44.32488 25.61147
# Shear Modulus (GPa) = 11.36359 24.11792 17.74075
#
# Velocity S-wave (km/s) = 2.59337 3.77813 3.24036
# Velocity P-wave (km/s) = 3.61249 6.72802 5.39983
#
# Compressibility (1/GPa) = 0.14496830
#
# Stress axis : x y z
#
# Youngs Moduli (GPa) = 38.28335 6.42205 89.96968
#
# Poissons Ratio (x) = -0.01786 0.76915
# Poissons Ratio (y) = -0.10648 1.63952
# Poissons Ratio (z) = 0.32728 0.11703
#
# Static dielectric constant tensor:
#      x y z
#    x 1.544340 0.000000 -0.019850 
#    y 0.000000 1.582240 0.000000 
#    z -0.019850 0.000000 1.622280 
# 
# From -- ./inp_files/83319.got.cif
#   From: 2010.05.17/outbox.cif.g08.bks.cpg/sg10_42_cif.got.tgz:83319.got - 2010.06.03 11:33:40.
