data_PCOD9141861
_publ_section_title
;
Structure prediction by ZEFSAII (Michael W. Deem and Ramdas Pophale) SiO2 
 PCOD9141861
Probable space group: P 2/M
;
_chemical_formula_sum "Si O2"
_cell_formula_units_Z 28
_cell_length_a 14.261097
_cell_length_b 13.820989
_cell_length_c 7.089261
_cell_angle_alpha 90.000000
_cell_angle_beta 128.570582
_cell_angle_gamma 90.000000
_cell_volume 1092.474459
_symmetry_space_group_name_H-M "P 2/M"
_symmetry_group_IT_number 10
_symmetry_cell_setting 'monoclinic'
loop_
_space_group_symop_operation_xyz
x,y,z
-x,y,-z
-x,-y,-z
x,-y,z
loop_
_atom_site_type_symbol
_atom_site_label
_atom_site_fract_x
_atom_site_fract_y
_atom_site_fract_z
Si Si1 0.363551 0.314027 0.126506
Si Si2 0.107242 0.315339 0.887328
Si Si3 0.880552 0.102892 0.223379
Si Si4 0.480196 0.109329 0.249893
Si Si5 0.846716 0.685497 0.628290
Si Si6 0.748786 0.107836 0.439802
Si Si7 0.610317 0.389494 0.421995
O O1 0.400723 0.204893 0.121391
O O2 0.473628 0.376527 0.185894
O O3 0.374536 0.325057 0.369423
O O4 0.225474 0.343800 0.917391
O O5 0.119359 0.198423 0.899175
O O6 0.968148 0.336553 0.665445
O O7 0.126862 0.350007 0.125755
O O8 0.780292 0.105069 0.258850
O O9 0.000000 0.104596 0.500000
O O10 0.873864 0.000000 0.112198
O O11 0.500000 0.105727 0.500000
O O12 0.609479 0.124458 0.313297
O O13 0.440191 0.000000 0.145367
O O14 0.825313 0.801033 0.606613
O O15 0.716736 0.642073 0.416828
O O16 0.779469 0.000000 0.552458
O O17 0.628389 0.500000 0.500910
#
# Coordination Sequence:
#
# PCOD9141861 Si02
#       7
#     4   4   4   4   4   4   4
#     4  10  17  32  50  79 113 141 178 222 276 339
#     4  10  21  32  52  81 116 142 179 239 282 317
#     4  10  20  35  52  76 115 160 200 224 263 330
#     4  10  17  28  49  77 110 145 180 222 265 316
#     4  10  19  35  54  84 114 140 188 234 280 337
#     4  10  19  33  55  78 108 155 195 224 261 324
#     4  10  19  34  57  82 111 143 179 229 291 349
#
# _framework density 25.629888999999999
#
# number of rings (size 3 to 8) (size 9 to 14) (size 15 to 20)
#    0.000    2.000    4.286    1.714    0.000    1.143 
#    0.000    8.571    0.000    2.571    0.000    8.000 
#    0.000    0.000    0.000    0.000    0.000    0.000 
#
# Total GULP energy -156421.340120 kJ/mol
# GULP energy per Si atom -5586.476433 kJ/mol
# Density = 2.557155 g / cm^3
# Si number density = 25.629889 Si / 1000 Ang^3
#
#
#
# Elastic Constant Matrix: (Units=GPa)
#
#
# Indices 1 2 3 4 5 6 
#
# 1 213.6322 32.1571 65.6865 0.0000 61.6265 0.0000
# 2 32.1571 66.3395 11.9835 0.0000 11.3169 0.0000
# 3 65.6865 11.9835 62.9346 0.0000 36.6895 0.0000
# 4 0.0000 0.0000 0.0000 8.0108 0.0000 -3.1820
# 5 61.6265 11.3169 36.6895 0.0000 60.0340 0.0000
# 6 0.0000 0.0000 0.0000 -3.1820 0.0000 36.0597
#
#
#
# Elastic Compliance Matrix: (Units=1/GPa)
#
#
# Indices 1 2 3 4 5 6 
#
# 1 0.007910 -0.002120 -0.005207 0.000000 -0.004538 0.000000
# 2 -0.002120 0.016298 -0.000572 0.000000 -0.000547 0.000000
# 3 -0.005207 -0.000572 0.028357 0.000000 -0.011878 0.000000
# 4 0.000000 0.000000 0.000000 0.129366 0.000000 0.011415
# 5 -0.004538 -0.000547 -0.011878 0.000000 0.028678 0.000000
# 6 0.000000 0.000000 0.000000 0.011415 0.000000 0.028739
#
#
# Mechanical properties :
#
#
# Convention : Reuss Voigt Hill
#
# Bulk Modulus (GPa) = 27.19736 62.50673 44.85204
# Shear Modulus (GPa) = 18.69849 36.35952 27.52901
#
# Velocity S-wave (km/s) = 2.70396 3.77057 3.28090
# Velocity P-wave (km/s) = 4.51477 6.58767 5.64715
#
# Compressibility (1/GPa) = 0.03676828
#
# Stress axis : x y z
#
# Youngs Moduli (GPa) = 126.42118 61.35702 35.26437
#
# Poissons Ratio (x) = 0.13005 0.18361
# Poissons Ratio (y) = 0.26796 0.02018
# Poissons Ratio (z) = 0.65822 0.03512
#
# Static dielectric constant tensor:
#      x y z
#    x 2.037100 0.000000 0.081600 
#    y 0.000000 1.960840 0.000000 
#    z 0.081600 0.000000 2.136140 
# 
# From -- ./inp_files/29617.got.cif
#   From: 2010.05.17/outbox.cif.g08.bks.cpg/sg10_15_cif.got.tgz:29617.got - 2010.06.03 11:33:40.
