data_PCOD9141444
_publ_section_title
;
Structure prediction by ZEFSAII (Michael W. Deem and Ramdas Pophale) SiO2 
 PCOD9141444
Probable space group: P 2/M
;
_chemical_formula_sum "Si O2"
_cell_formula_units_Z 20
_cell_length_a 14.441115
_cell_length_b 18.943094
_cell_length_c 12.408900
_cell_angle_alpha 90.000000
_cell_angle_beta 159.830144
_cell_angle_gamma 90.000000
_cell_volume 1170.463090
_symmetry_space_group_name_H-M "P 2/M"
_symmetry_group_IT_number 10
_symmetry_cell_setting 'monoclinic'
loop_
_space_group_symop_operation_xyz
x,y,z
-x,y,-z
-x,-y,-z
x,-y,z
loop_
_atom_site_type_symbol
_atom_site_label
_atom_site_fract_x
_atom_site_fract_y
_atom_site_fract_z
Si Si1 0.709666 0.372849 0.966479
Si Si2 0.154472 0.415713 0.279535
Si Si3 0.102443 0.224604 0.736757
Si Si4 0.293324 0.500000 0.871110
Si Si5 0.392222 0.854206 0.759212
Si Si6 0.211437 0.000000 0.629429
O O1 0.434658 0.375089 0.598226
O O2 0.775406 0.298133 0.092056
O O3 0.671587 0.431204 0.017296
O O4 0.956794 0.396503 0.161409
O O5 0.210990 0.500000 0.343077
O O6 0.000000 0.400058 0.000000
O O7 0.000000 0.227961 0.500000
O O8 0.833745 0.204342 0.507300
O O9 0.333283 0.164495 0.002417
O O10 0.000000 0.500000 0.500000
O O11 0.500000 0.500000 0.000000
O O12 0.231646 0.928583 0.581270
O O13 0.500000 0.849023 0.000000
O O14 0.000000 0.000000 0.500000
O O15 0.500000 0.000000 0.000000
#
# Coordination Sequence:
#
# PCOD9141444 Si02
#       6
#     4   4   4   2   4   2
#     4  12  22  38  54  75 101 135 169 214 258 304
#     4  11  22  39  59  77  94 121 168 225 275 318
#     4  10  20  32  47  69 102 140 169 198 242 299
#     4  12  24  36  49  72 101 134 174 206 234 284
#     4   9  17  29  44  66  95 133 175 205 237 281
#     4  10  16  26  44  66  92 130 177 218 237 268
#
# _framework density 17.087254999999999
#
# number of rings (size 3 to 8) (size 9 to 14) (size 15 to 20)
#    0.000    1.400    2.000    6.600    0.000    4.000 
#    0.000    0.000    0.000    0.000    0.000    0.000 
#    0.000    0.000    0.000   63.000    0.000    7.000 
#
# Total GULP energy -111465.469860 kJ/mol
# GULP energy per Si atom -5573.273493 kJ/mol
# Density = 1.704836 g / cm^3
# Si number density = 17.087255 Si / 1000 Ang^3
#
#
#
# Elastic Constant Matrix: (Units=GPa)
#
#
# Indices 1 2 3 4 5 6 
#
# 1 33.0825 14.3344 10.0502 0.0000 10.2930 0.0000
# 2 14.3344 100.5275 42.4016 0.0000 1.6730 0.0000
# 3 10.0502 42.4016 107.2500 0.0000 16.6163 0.0000
# 4 0.0000 0.0000 0.0000 8.2082 0.0000 8.5627
# 5 10.2930 1.6730 16.6163 0.0000 26.2464 0.0000
# 6 0.0000 0.0000 0.0000 8.5627 0.0000 13.3920
#
#
#
# Elastic Compliance Matrix: (Units=1/GPa)
#
#
# Indices 1 2 3 4 5 6 
#
# 1 0.036863 -0.005420 0.000970 0.000000 -0.014725 0.000000
# 2 -0.005420 0.012881 -0.005308 0.000000 0.004665 0.000000
# 3 0.000970 -0.005308 0.012571 0.000000 -0.008001 0.000000
# 4 0.000000 0.000000 0.000000 0.365860 0.000000 -0.233928
# 5 -0.014725 0.004665 -0.008001 0.000000 0.048643 0.000000
# 6 0.000000 0.000000 0.000000 -0.233928 0.000000 0.224244
#
#
# Mechanical properties :
#
#
# Convention : Reuss Voigt Hill
#
# Bulk Modulus (GPa) = 23.36483 41.60358 32.48421
# Shear Modulus (GPa) = 6.80417 21.17424 13.98920
#
# Velocity S-wave (km/s) = 1.99766 3.52402 2.86438
# Velocity P-wave (km/s) = 4.36170 6.39991 5.47646
#
# Compressibility (1/GPa) = 0.04279936
#
# Stress axis : x y z
#
# Youngs Moduli (GPa) = 27.12767 77.63097 79.54819
#
# Poissons Ratio (x) = 0.42079 -0.07716
# Poissons Ratio (y) = 0.14704 0.42220
# Poissons Ratio (z) = -0.02631 0.41203
#
# Static dielectric constant tensor:
#      x y z
#    x 1.565220 0.000000 0.026050 
#    y 0.000000 1.649450 0.000000 
#    z 0.026050 0.000000 1.572870 
# 
# From -- ./inp_files/51905.got.cif
#   From: 2010.05.17/outbox.cif.g08.bks.cpg/sg10_26_cif.got.tgz:51905.got - 2010.06.03 11:33:40.
