data_PCOD9141735
_publ_section_title
;
Structure prediction by ZEFSAII (Michael W. Deem and Ramdas Pophale) SiO2 
 PCOD9141735
Probable space group: P 2/M
;
_chemical_formula_sum "Si O2"
_cell_formula_units_Z 32
_cell_length_a 19.926694
_cell_length_b 9.308134
_cell_length_c 29.592635
_cell_angle_alpha 90.000000
_cell_angle_beta 156.349590
_cell_angle_gamma 90.000000
_cell_volume 2201.881016
_symmetry_space_group_name_H-M "P 2/M"
_symmetry_group_IT_number 10
_symmetry_cell_setting 'monoclinic'
loop_
_space_group_symop_operation_xyz
x,y,z
-x,y,-z
-x,-y,-z
x,-y,z
loop_
_atom_site_type_symbol
_atom_site_label
_atom_site_fract_x
_atom_site_fract_y
_atom_site_fract_z
Si Si1 0.329097 0.329187 0.490589
Si Si2 0.408503 0.171167 0.842953
Si Si3 0.944222 0.175131 0.416030
Si Si4 0.736424 0.671216 0.057943
Si Si5 0.887601 0.329011 0.733571
Si Si6 0.120138 0.832700 0.434169
Si Si7 0.388543 0.165266 0.385335
Si Si8 0.243604 0.835515 0.837056
O O1 0.349506 0.500000 0.506778
O O2 0.198821 0.301607 0.368700
O O3 0.251152 0.261517 0.487492
O O4 0.501668 0.253405 0.582732
O O5 0.577994 0.254127 0.936948
O O6 0.361538 0.194129 0.866863
O O7 0.244341 0.218281 0.713786
O O8 0.429393 0.000000 0.849696
O O9 0.071074 0.218097 0.454231
O O10 0.000000 0.222111 0.500000
O O11 0.943748 0.000000 0.414746
O O12 0.719932 0.500000 0.047012
O O13 0.738510 0.728235 0.110668
O O14 0.917359 0.709476 0.148850
O O15 0.871678 0.500000 0.731925
O O16 0.782703 0.242052 0.705843
O O17 0.944372 0.829390 0.298545
O O18 0.173543 0.000000 0.468701
O O19 0.500000 0.165897 0.500000
O O20 0.364635 0.000000 0.357058
O O21 0.275080 0.000000 0.871875
#
# Coordination Sequence:
#
# PCOD9141735 Si02
#       8
#     4   4   4   4   4   4   4   4
#     4  10  17  27  41  57  83 115 144 175 210 250
#     4   9  18  30  43  61  81 107 142 177 215 254
#     4   8  15  30  50  67  84 108 140 180 223 261
#     4  11  20  28  39  58  84 114 146 176 205 245
#     4   9  18  29  38  53  80 115 148 174 207 247
#     4   9  16  26  43  65  84 107 143 182 215 250
#     4   9  17  27  40  58  78 106 145 182 212 242
#     4   9  17  28  40  55  81 112 142 177 212 244
#
# _framework density 14.533029000000001
#
# number of rings (size 3 to 8) (size 9 to 14) (size 15 to 20)
#    0.000    2.750    1.250    3.000    0.000    5.000 
#    0.000    1.875    0.000    1.500    0.000    0.000 
#    0.000    1.000    0.000   11.500    0.000    2.875 
#
# Total GULP energy -178300.476339 kJ/mol
# GULP energy per Si atom -5571.889886 kJ/mol
# Density = 1.449995 g / cm^3
# Si number density = 14.533029 Si / 1000 Ang^3
#
#
#
# Elastic Constant Matrix: (Units=GPa)
#
#
# Indices 1 2 3 4 5 6 
#
# 1 104.1579 57.6355 63.4394 0.0000 20.5147 0.0000
# 2 57.6355 56.4548 41.8248 0.0000 20.2527 0.0000
# 3 63.4394 41.8248 71.0105 0.0000 21.0804 0.0000
# 4 0.0000 0.0000 0.0000 15.4904 0.0000 13.2322
# 5 20.5147 20.2527 21.0804 0.0000 25.1468 0.0000
# 6 0.0000 0.0000 0.0000 13.2322 0.0000 7.5284
#
#
#
# Elastic Compliance Matrix: (Units=1/GPa)
#
#
# Indices 1 2 3 4 5 6 
#
# 1 0.029478 -0.020195 -0.016148 0.000000 0.005754 0.000000
# 2 -0.020195 0.048838 -0.005243 0.000000 -0.018463 0.000000
# 3 -0.016148 -0.005243 0.035190 0.000000 -0.012103 0.000000
# 4 0.000000 0.000000 0.000000 -0.128747 0.000000 0.226292
# 5 0.005754 -0.018463 -0.012103 0.000000 0.060089 0.000000
# 6 0.000000 0.000000 0.000000 0.226292 0.000000 -0.264910
#
#
# Mechanical properties :
#
#
# Convention : Reuss Voigt Hill
#
# Bulk Modulus (GPa) = 32.96593 61.93586 47.45090
# Shear Modulus (GPa) = -39.43839 14.21468 -12.61186
#
# Velocity S-wave (km/s) = -5.21498 3.13084 -2.94905
# Velocity P-wave (km/s) = 3.67813 7.46856 4.59624
#
# Compressibility (1/GPa) = 0.03033435
#
# Stress axis : x y z
#
# Youngs Moduli (GPa) = 33.92390 20.47587 28.41720
#
# Poissons Ratio (x) = 0.41350 0.45889
# Poissons Ratio (y) = 0.68508 0.14898
# Poissons Ratio (z) = 0.54781 0.10735
#
# Static dielectric constant tensor:
#      x y z
#    x 1.469120 0.000000 0.013680 
#    y 0.000000 1.482180 0.000000 
#    z 0.013680 0.000000 1.479810 
# 
# From -- ./inp_files/72244.got.cif
#   From: 2010.05.17/outbox.cif.g08.bks.cpg/sg10_37_cif.got.tgz:72244.got - 2010.06.03 11:33:40.
