data_PCOD9141109
_publ_section_title
;
Structure prediction by ZEFSAII (Michael W. Deem and Ramdas Pophale) SiO2 
 PCOD9141109
Probable space group: C C
;
_chemical_formula_sum "Si O2"
_cell_formula_units_Z 32
_cell_length_a 6.996072
_cell_length_b 13.669411
_cell_length_c 18.893555
_cell_angle_alpha 90.000000
_cell_angle_beta 41.424061
_cell_angle_gamma 90.000000
_cell_volume 1195.448442
_symmetry_space_group_name_H-M "C C"
_symmetry_group_IT_number 9
_symmetry_cell_setting 'monoclinic'
loop_
_space_group_symop_operation_xyz
x,y,z
x,-y,1/2+z
1/2+x,1/2+y,z
1/2+x,1/2-y,1/2+z
loop_
_atom_site_type_symbol
_atom_site_label
_atom_site_fract_x
_atom_site_fract_y
_atom_site_fract_z
Si Si1 0.448560 0.824088 0.891660
Si Si2 0.748247 0.211687 0.082022
Si Si3 0.323447 0.558313 0.191123
Si Si4 0.903181 0.492387 0.483429
Si Si5 0.460059 0.843161 0.130743
Si Si6 0.247333 0.537781 0.008736
Si Si7 0.001521 0.727132 0.911793
Si Si8 0.888011 0.625302 0.810675
O O1 0.732014 0.871118 0.779651
O O2 0.266849 0.774635 0.879417
O O3 0.297254 0.924106 0.960953
O O4 0.442673 0.762193 0.965466
O O5 0.810329 0.124872 0.123113
O O6 0.711827 0.305364 0.144518
O O7 0.576628 0.139378 0.075108
O O8 0.114055 0.464805 0.247484
O O9 0.645497 0.520885 0.109839
O O10 0.194994 0.509791 0.445704
O O11 0.965619 0.388016 0.433886
O O12 0.354327 0.833414 0.240353
O O13 0.604407 0.950415 0.091844
O O14 0.723628 0.777217 0.026182
O O15 0.580385 0.573928 0.918226
O O16 0.008177 0.716538 0.824978
#
# Coordination Sequence:
#
# PCOD9141109 Si02
#       8
#     4   4   4   4   4   4   4   4
#     4  12  28  50  81 120 166 222 281 355 437 516
#     4  12  26  49  75 117 169 212 284 350 421 532
#     4  12  27  50  81 116 164 225 287 356 435 520
#     4  12  26  51  79 120 173 215 281 362 433 519
#     4  12  26  48  82 115 164 226 275 351 432 513
#     4  12  26  52  79 121 174 218 281 362 430 523
#     4  12  26  50  79 117 168 217 284 354 423 519
#     4  12  27  50  84 120 170 233 291 356 443 518
#
# _framework density 26.7682
#
# number of rings (size 3 to 8) (size 9 to 14) (size 15 to 20)
#    0.000    0.000    7.500    1.500    1.750    3.000 
#    0.000    0.000    2.750    0.000    0.000    0.000 
#    0.000    0.000    0.000    0.000    0.000    0.000 
#
# Total GULP energy -89126.684533 kJ/mol
# GULP energy per Si atom -5570.417783 kJ/mol
# Density = 2.670727 g / cm^3
# Si number density = 26.768200 Si / 1000 Ang^3
#
#
#
# Elastic Constant Matrix: (Units=GPa)
#
#
# Indices 1 2 3 4 5 6 
#
# 1 124.2162 55.6933 55.7661 -0.0033 24.4471 0.0021
# 2 55.6933 184.3066 38.5256 -0.0021 7.1723 -0.0011
# 3 55.7661 38.5256 117.8341 -0.0151 29.0368 0.0064
# 4 -0.0033 -0.0021 -0.0151 49.0785 0.0026 13.3190
# 5 24.4471 7.1723 29.0368 0.0026 49.5487 -0.0030
# 6 0.0021 -0.0011 0.0064 13.3190 -0.0030 61.8975
#
#
#
# Elastic Compliance Matrix: (Units=1/GPa)
#
#
# Indices 1 2 3 4 5 6 
#
# 1 0.011536 -0.002558 -0.003871 0.000000 -0.003053 0.000000
# 2 -0.002558 0.006395 -0.001126 0.000000 0.000996 0.000000
# 3 -0.003871 -0.001126 0.011893 0.000004 -0.004897 -0.000002
# 4 0.000000 0.000000 0.000004 0.021639 -0.000004 -0.004656
# 5 -0.003053 0.000996 -0.004897 -0.000004 0.024414 0.000003
# 6 0.000000 0.000000 -0.000002 -0.004656 0.000003 0.017158
#
#
# Mechanical properties :
#
#
# Convention : Reuss Voigt Hill
#
# Bulk Modulus (GPa) = 67.95673 80.70298 74.32986
# Shear Modulus (GPa) = 44.22828 50.52973 47.37900
#
# Velocity S-wave (km/s) = 4.06922 4.34945 4.21167
# Velocity P-wave (km/s) = 6.89350 7.44567 7.17490
#
# Compressibility (1/GPa) = 0.01471525
#
# Stress axis : x y z
#
# Youngs Moduli (GPa) = 86.68457 156.36561 84.08164
#
# Poissons Ratio (x) = 0.39998 0.32547
# Poissons Ratio (y) = 0.22174 0.09466
# Poissons Ratio (z) = 0.33554 0.17603
#
# Static dielectric constant tensor:
#      x y z
#    x 2.313060 0.000000 0.083850 
#    y 0.000000 2.157560 0.000000 
#    z 0.083850 0.000000 2.312910 
# 
# From -- ./inp_files/35062.got.cif
#   From: 2010.05.17/outbox.cif.g08.bks.cpg/sg9_18_cif.got.tgz:35062.got - 2010.06.03 20:04:27.
