data_PCOD9141153
_publ_section_title
;
Structure prediction by ZEFSAII (Michael W. Deem and Ramdas Pophale) SiO2 
 PCOD9141153
Probable space group: C C
;
_chemical_formula_sum "Si O2"
_cell_formula_units_Z 24
_cell_length_a 6.898075
_cell_length_b 7.375767
_cell_length_c 20.691491
_cell_angle_alpha 90.000000
_cell_angle_beta 111.187024
_cell_angle_gamma 90.000000
_cell_volume 981.593776
_symmetry_space_group_name_H-M "C C"
_symmetry_group_IT_number 9
_symmetry_cell_setting 'monoclinic'
loop_
_space_group_symop_operation_xyz
x,y,z
x,-y,1/2+z
1/2+x,1/2+y,z
1/2+x,1/2-y,1/2+z
loop_
_atom_site_type_symbol
_atom_site_label
_atom_site_fract_x
_atom_site_fract_y
_atom_site_fract_z
Si Si1 0.043110 0.991456 0.165550
Si Si2 0.598452 0.214038 0.275577
Si Si3 0.397770 0.040437 0.481114
Si Si4 0.508128 0.244774 0.890577
Si Si5 0.130175 0.685761 0.757147
Si Si6 0.737675 0.696800 0.073161
O O1 0.997164 0.180317 0.196133
O O2 0.161092 0.875495 0.234661
O O3 0.596600 0.024374 0.238164
O O4 0.165336 0.049183 0.116534
O O5 0.663713 0.609156 0.439506
O O6 0.087283 0.284351 0.327319
O O7 0.269165 0.695556 0.352078
O O8 0.495800 0.934884 0.432314
O O9 0.383296 0.898002 0.538020
O O10 0.536979 0.212957 0.515807
O O11 0.371185 0.735771 0.773535
O O12 0.354766 0.637686 0.622585
#
# Coordination Sequence:
#
# PCOD9141153 Si02
#       6
#     4   4   4   4   4   4
#     4  12  27  54  76 120 157 208 264 330 400 470
#     4  12  27  48  82 121 159 201 255 340 404 470
#     4  12  29  52  76 114 155 220 264 324 378 480
#     4  12  28  48  80 114 162 198 274 318 410 460
#     4  12  27  48  82 121 159 201 255 340 404 470
#     4  12  30  50  80 108 162 214 270 316 386 472
#
# _framework density 24.450032
#
# number of rings (size 3 to 8) (size 9 to 14) (size 15 to 20)
#    0.000    0.000    1.667    7.000    9.333    2.667 
#    0.000    0.000    0.000    0.000    0.000    0.000 
#    0.000    0.000    0.000    0.000    0.000    0.000 
#
# Total GULP energy -67319.276439 kJ/mol
# GULP energy per Si atom -5609.939703 kJ/mol
# Density = 2.439438 g / cm^3
# Si number density = 24.450032 Si / 1000 Ang^3
#
#
#
# Elastic Constant Matrix: (Units=GPa)
#
#
# Indices 1 2 3 4 5 6 
#
# 1 118.5254 32.2226 28.4913 0.0000 -11.7375 0.0000
# 2 32.2226 120.8230 15.1503 0.0000 -6.0365 0.0000
# 3 28.4913 15.1503 73.5927 0.0000 -5.8763 0.0000
# 4 0.0000 0.0000 0.0000 29.7639 0.0000 -1.1085
# 5 -11.7375 -6.0365 -5.8763 0.0000 35.5806 0.0000
# 6 0.0000 0.0000 0.0000 -1.1085 0.0000 56.0087
#
#
#
# Elastic Compliance Matrix: (Units=1/GPa)
#
#
# Indices 1 2 3 4 5 6 
#
# 1 0.010042 -0.002150 -0.003253 0.000000 0.002411 0.000000
# 2 -0.002150 0.009004 -0.000969 0.000000 0.000658 0.000000
# 3 -0.003253 -0.000969 0.015148 0.000000 0.001264 0.000000
# 4 0.000000 0.000000 0.000000 0.033623 0.000000 0.000665
# 5 0.002411 0.000658 0.001264 0.000000 0.029221 0.000000
# 6 0.000000 0.000000 0.000000 0.000665 0.000000 0.017868
#
#
# Mechanical properties :
#
#
# Convention : Reuss Voigt Hill
#
# Bulk Modulus (GPa) = 46.61639 51.62994 49.12316
# Shear Modulus (GPa) = 37.09232 40.07575 38.58404
#
# Velocity S-wave (km/s) = 3.89918 4.05296 3.97681
# Velocity P-wave (km/s) = 6.27526 6.56234 6.42040
#
# Compressibility (1/GPa) = 0.02145168
#
# Stress axis : x y z
#
# Youngs Moduli (GPa) = 99.58072 111.05819 66.01538
#
# Poissons Ratio (x) = 0.23876 0.21473
# Poissons Ratio (y) = 0.21408 0.06396
# Poissons Ratio (z) = 0.32391 0.10759
#
# Static dielectric constant tensor:
#      x y z
#    x 1.959190 0.000000 0.034510 
#    y 0.000000 1.897590 0.000000 
#    z 0.034510 0.000000 1.941680 
# 
# From -- ./inp_files/32273.got.cif
#   From: 2010.05.17/outbox.cif.g08.bks.cpg/sg9_17_cif.got.tgz:32273.got - 2010.06.03 20:04:27.
