data_PCOD9141680
_publ_section_title
;
Structure prediction by ZEFSAII (Michael W. Deem and Ramdas Pophale) SiO2 
 PCOD9141680
Probable space group: P 2/M
;
_chemical_formula_sum "Si O2"
_cell_formula_units_Z 32
_cell_length_a 23.889290
_cell_length_b 9.184311
_cell_length_c 19.531578
_cell_angle_alpha 90.000000
_cell_angle_beta 28.873226
_cell_angle_gamma 90.000000
_cell_volume 2069.284888
_symmetry_space_group_name_H-M "P 2/M"
_symmetry_group_IT_number 10
_symmetry_cell_setting 'monoclinic'
loop_
_space_group_symop_operation_xyz
x,y,z
-x,y,-z
-x,-y,-z
x,-y,z
loop_
_atom_site_type_symbol
_atom_site_label
_atom_site_fract_x
_atom_site_fract_y
_atom_site_fract_z
Si Si1 0.079532 0.823710 0.315904
Si Si2 0.489409 0.324619 0.805101
Si Si3 0.362999 0.832823 0.626045
Si Si4 0.421860 0.333254 0.432369
Si Si5 0.747908 0.824529 0.986701
Si Si6 0.593637 0.325434 0.841881
Si Si7 0.304045 0.332311 0.821383
Si Si8 0.829383 0.823927 0.633301
O O1 0.147026 0.779121 0.175585
O O2 0.148074 0.780557 0.311561
O O3 0.946015 0.778780 0.467792
O O4 0.078635 0.000000 0.317441
O O5 0.467669 0.500000 0.824082
O O6 0.575810 0.288530 0.649565
O O7 0.543062 0.291088 0.821152
O O8 0.370139 0.239575 0.919656
O O9 0.500000 0.828969 0.500000
O O10 0.357117 0.765770 0.556616
O O11 0.297405 0.740321 0.754027
O O12 0.326146 0.000000 0.666932
O O13 0.381987 0.500000 0.481380
O O14 0.558578 0.331177 0.306357
O O15 0.741290 0.000000 0.996887
O O16 0.756343 0.758265 0.053641
O O17 0.609912 0.500000 0.828142
O O18 0.714212 0.247024 0.727630
O O19 0.500000 0.284142 0.000000
O O20 0.266642 0.500000 0.860894
O O21 0.820883 0.000000 0.640106
#
# Coordination Sequence:
#
# PCOD9141680 Si02
#       8
#     4   4   4   4   4   4   4   4
#     4   8  16  30  47  65  86 111 139 179 223 256
#     4   9  18  30  41  57  86 119 145 173 214 259
#     4   9  15  22  34  53  76 103 137 176 210 240
#     4   8  14  24  36  49  71 108 144 169 202 250
#     4  10  17  26  42  63  85 110 144 181 215 250
#     4  10  20  32  45  64  91 117 142 178 219 252
#     4   9  16  25  36  53  80 112 141 168 205 254
#     4   9  17  32  50  65  83 111 147 179 213 259
#
# _framework density 15.464278999999999
#
# number of rings (size 3 to 8) (size 9 to 14) (size 15 to 20)
#    0.000    3.000    0.000    3.375    0.000    5.250 
#    0.000    3.125    0.000    0.000    0.000    0.000 
#    0.000    1.000    0.000   11.500    0.000    5.875 
#
# Total GULP energy -178188.404484 kJ/mol
# GULP energy per Si atom -5568.387640 kJ/mol
# Density = 1.542908 g / cm^3
# Si number density = 15.464279 Si / 1000 Ang^3
#
#
#
# Elastic Constant Matrix: (Units=GPa)
#
#
# Indices 1 2 3 4 5 6 
#
# 1 75.6340 37.7925 61.4752 0.0000 26.2012 0.0000
# 2 37.7925 57.8159 51.2764 0.0000 16.5300 0.0000
# 3 61.4752 51.2764 112.0204 0.0000 31.5096 0.0000
# 4 0.0000 0.0000 0.0000 16.0781 0.0000 8.1261
# 5 26.2012 16.5300 31.5096 0.0000 28.5716 0.0000
# 6 0.0000 0.0000 0.0000 8.1261 0.0000 16.8262
#
#
#
# Elastic Compliance Matrix: (Units=1/GPa)
#
#
# Indices 1 2 3 4 5 6 
#
# 1 0.028050 -0.007153 -0.008768 0.000000 -0.011915 0.000000
# 2 -0.007153 0.031133 -0.010299 0.000000 -0.000095 0.000000
# 3 -0.008768 -0.010299 0.021043 0.000000 -0.009208 0.000000
# 4 0.000000 0.000000 0.000000 0.082279 0.000000 -0.039736
# 5 -0.011915 -0.000095 -0.009208 0.000000 0.056136 0.000000
# 6 0.000000 0.000000 0.000000 -0.039736 0.000000 0.078621
#
#
# Mechanical properties :
#
#
# Convention : Reuss Voigt Hill
#
# Bulk Modulus (GPa) = 35.98816 60.72872 48.35844
# Shear Modulus (GPa) = 13.92904 18.62359 16.27631
#
# Velocity S-wave (km/s) = 3.00446 3.47406 3.24776
# Velocity P-wave (km/s) = 5.94626 7.44632 6.73817
#
# Compressibility (1/GPa) = 0.02778692
#
# Stress axis : x y z
#
# Youngs Moduli (GPa) = 35.65121 32.12047 47.52230
#
# Poissons Ratio (x) = 0.22975 0.41666
# Poissons Ratio (y) = 0.25500 0.48943
# Poissons Ratio (z) = 0.31258 0.33080
#
# Static dielectric constant tensor:
#      x y z
#    x 1.501820 0.000000 0.028590 
#    y 0.000000 1.519100 0.000000 
#    z 0.028590 0.000000 1.514480 
# 
# From -- ./inp_files/54843.got.cif
#   From: 2010.05.17/outbox.cif.g08.bks.cpg/sg10_28_cif.got.tgz:54843.got - 2010.06.03 11:33:40.
