data_PCOD9141839
_publ_section_title
;
Structure prediction by ZEFSAII (Michael W. Deem and Ramdas Pophale) SiO2 
 PCOD9141839
Probable space group: P 2/M
;
_chemical_formula_sum "Si O2"
_cell_formula_units_Z 32
_cell_length_a 12.225884
_cell_length_b 8.345272
_cell_length_c 17.702576
_cell_angle_alpha 90.000000
_cell_angle_beta 96.043228
_cell_angle_gamma 90.000000
_cell_volume 1796.126912
_symmetry_space_group_name_H-M "P 2/M"
_symmetry_group_IT_number 10
_symmetry_cell_setting 'monoclinic'
loop_
_space_group_symop_operation_xyz
x,y,z
-x,y,-z
-x,-y,-z
x,-y,z
loop_
_atom_site_type_symbol
_atom_site_label
_atom_site_fract_x
_atom_site_fract_y
_atom_site_fract_z
Si Si1 0.749072 0.690517 0.404904
Si Si2 0.221905 0.813151 0.832684
Si Si3 0.359319 0.308445 0.287416
Si Si4 0.968787 0.196607 0.081615
Si Si5 0.123230 0.193450 0.231118
Si Si6 0.405797 0.807955 0.741941
Si Si7 0.379706 0.304683 0.460954
Si Si8 0.940748 0.185564 0.325141
O O1 0.735975 0.500000 0.401341
O O2 0.662856 0.761064 0.337948
O O3 0.712175 0.746551 0.485207
O O4 0.871647 0.732151 0.386191
O O5 0.334984 0.743518 0.808204
O O6 0.139354 0.810320 0.754442
O O7 0.149988 0.745795 0.896169
O O8 0.242821 0.000000 0.852083
O O9 0.357488 0.500000 0.288867
O O10 0.248161 0.246850 0.241770
O O11 0.471179 0.254302 0.255636
O O12 0.362299 0.248084 0.374508
O O13 0.058775 0.244614 0.150848
O O14 0.965892 0.000000 0.081772
O O15 0.000000 0.248357 0.000000
O O16 0.054950 0.252380 0.300124
O O17 0.117263 0.000000 0.233097
O O18 0.406776 0.000000 0.746153
O O19 0.500000 0.256256 0.500000
O O20 0.379408 0.500000 0.459001
O O21 0.955573 0.000000 0.347244
#
# Coordination Sequence:
#
# PCOD9141839 Si02
#       8
#     4   4   4   4   4   4   4   4
#     4  10  17  28  48  69  89 117 158 205 243 275
#     4   7  12  23  41  67  95 119 146 185 227 268
#     4  11  21  33  49  67  91 126 165 200 236 282
#     4   8  13  25  50  79 100 120 149 186 229 276
#     4   9  18  33  50  71 100 127 153 191 238 282
#     4  10  18  29  45  67  96 126 156 193 240 283
#     4   9  17  31  46  63  91 122 156 202 246 277
#     4   8  15  29  46  64  92 125 152 188 237 282
#
# _framework density 17.816113999999999
#
# number of rings (size 3 to 8) (size 9 to 14) (size 15 to 20)
#    0.000    3.000    1.250    3.375    0.000    0.500 
#    0.000    3.750    0.000    4.875    0.000    5.250 
#    0.000    0.000    0.000    0.000    0.000    0.000 
#
# Total GULP energy -178183.261360 kJ/mol
# GULP energy per Si atom -5568.226917 kJ/mol
# Density = 1.777556 g / cm^3
# Si number density = 17.816114 Si / 1000 Ang^3
#
#
#
# Elastic Constant Matrix: (Units=GPa)
#
#
# Indices 1 2 3 4 5 6 
#
# 1 142.1450 11.4030 68.5325 0.0000 -30.7793 0.0000
# 2 11.4030 13.1376 10.6586 0.0000 -2.4332 0.0000
# 3 68.5325 10.6586 96.1124 0.0000 -33.8958 0.0000
# 4 0.0000 0.0000 0.0000 15.3939 0.0000 -7.1308
# 5 -30.7793 -2.4332 -33.8958 0.0000 30.9474 0.0000
# 6 0.0000 0.0000 0.0000 -7.1308 0.0000 20.8189
#
#
#
# Elastic Compliance Matrix: (Units=1/GPa)
#
#
# Indices 1 2 3 4 5 6 
#
# 1 0.011180 -0.004019 -0.006055 0.000000 0.004171 0.000000
# 2 -0.004019 0.085740 -0.009247 0.000000 -0.007383 0.000000
# 3 -0.006055 -0.009247 0.021780 0.000000 0.017106 0.000000
# 4 0.000000 0.000000 0.000000 0.077211 0.000000 0.026446
# 5 0.004171 -0.007383 0.017106 0.000000 0.054617 0.000000
# 6 0.000000 0.000000 0.000000 0.026446 0.000000 0.057091
#
#
# Mechanical properties :
#
#
# Convention : Reuss Voigt Hill
#
# Bulk Modulus (GPa) = 12.49077 48.06480 30.27778
# Shear Modulus (GPa) = 13.40673 24.15211 18.77942
#
# Velocity S-wave (km/s) = 2.74616 3.68589 3.25017
# Velocity P-wave (km/s) = 4.13296 6.71946 5.57820
#
# Compressibility (1/GPa) = 0.08005913
#
# Stress axis : x y z
#
# Youngs Moduli (GPa) = 89.44490 11.66317 45.91330
#
# Poissons Ratio (x) = 0.04687 0.27801
# Poissons Ratio (y) = 0.35947 0.42454
# Poissons Ratio (z) = 0.54160 0.10784
#
# Static dielectric constant tensor:
#      x y z
#    x 1.630560 0.000000 -0.041090 
#    y 0.000000 1.620810 0.000000 
#    z -0.041090 0.000000 1.611490 
# 
# From -- ./inp_files/75967.got.cif
#   From: 2010.05.17/outbox.cif.g08.bks.cpg/sg10_38_cif.got.tgz:75967.got - 2010.06.03 11:33:40.
