data_PCOD9141516
_publ_section_title
;
Structure prediction by ZEFSAII (Michael W. Deem and Ramdas Pophale) SiO2 
 PCOD9141516
Probable space group: P 2/M
;
_chemical_formula_sum "Si O2"
_cell_formula_units_Z 26
_cell_length_a 9.086930
_cell_length_b 10.546615
_cell_length_c 19.560080
_cell_angle_alpha 90.000000
_cell_angle_beta 139.557247
_cell_angle_gamma 90.000000
_cell_volume 1216.008870
_symmetry_space_group_name_H-M "P 2/M"
_symmetry_group_IT_number 10
_symmetry_cell_setting 'monoclinic'
loop_
_space_group_symop_operation_xyz
x,y,z
-x,y,-z
-x,-y,-z
x,-y,z
loop_
_atom_site_type_symbol
_atom_site_label
_atom_site_fract_x
_atom_site_fract_y
_atom_site_fract_z
Si Si1 0.782371 0.754075 0.791958
Si Si2 0.327400 0.350041 0.583815
Si Si3 0.729017 0.145342 0.049817
Si Si4 0.556519 0.500000 0.897839
Si Si5 0.906291 0.286685 0.355537
Si Si6 0.028668 0.500000 0.134327
Si Si7 0.451167 0.787520 0.158830
Si Si8 0.063292 0.500000 0.745589
O O1 0.574228 0.714494 0.669906
O O2 0.673499 0.830718 0.815990
O O3 0.020897 0.801012 0.845958
O O4 0.857751 0.623723 0.854207
O O5 0.330326 0.500000 0.564864
O O6 0.233740 0.346455 0.629139
O O7 0.150457 0.267509 0.476952
O O8 0.733711 0.000000 0.074335
O O9 0.500000 0.207684 0.000000
O O10 0.679052 0.154844 0.951497
O O11 0.551722 0.633931 0.855659
O O12 0.326131 0.500000 0.858807
O O13 0.772230 0.500000 0.021669
O O14 0.722299 0.186092 0.261951
O O15 0.963991 0.380193 0.313523
O O16 0.066711 0.500000 0.229440
#
# Coordination Sequence:
#
# PCOD9141516 Si02
#       8
#     4   4   4   2   4   2   4   2
#     4  11  23  35  56  87 116 154 186 230 278 340
#     4  10  16  32  53  81 121 158 188 227 271 328
#     4  11  26  45  62  80 108 145 190 245 297 340
#     4  10  20  30  50  82 119 150 179 227 281 338
#     4   9  17  30  53  81 117 158 195 222 266 327
#     4  12  22  29  46  80 129 154 179 227 281 341
#     4  10  21  35  60  87 115 150 191 227 276 340
#     4  10  19  28  44  75 112 168 190 217 256 334
#
# _framework density 21.381423000000002
#
# number of rings (size 3 to 8) (size 9 to 14) (size 15 to 20)
#    0.000    1.692    3.846    1.615    6.462    1.846 
#    0.000    1.538    0.000    0.923    0.000    6.462 
#    0.000    0.000    0.000    0.000    0.000    0.000 
#
# Total GULP energy -144789.101376 kJ/mol
# GULP energy per Si atom -5568.811591 kJ/mol
# Density = 2.133276 g / cm^3
# Si number density = 21.381423 Si / 1000 Ang^3
#
#
#
# Elastic Constant Matrix: (Units=GPa)
#
#
# Indices 1 2 3 4 5 6 
#
# 1 78.2256 -0.0887 33.6134 0.0000 23.3960 0.0000
# 2 -0.0887 28.0710 4.6432 0.0000 15.8072 0.0000
# 3 33.6134 4.6432 165.0449 0.0000 34.4043 0.0000
# 4 0.0000 0.0000 0.0000 -0.1263 0.0000 -18.5058
# 5 23.3960 15.8072 34.4043 0.0000 39.1036 0.0000
# 6 0.0000 0.0000 0.0000 -18.5058 0.0000 -47.4741
#
#
#
# Elastic Compliance Matrix: (Units=1/GPa)
#
#
# Indices 1 2 3 4 5 6 
#
# 1 0.016832 0.006919 -0.001152 0.000000 -0.011854 0.000000
# 2 0.006919 0.050363 0.002793 0.000000 -0.026956 0.000000
# 3 -0.001152 0.002793 0.007723 0.000000 -0.007235 0.000000
# 4 0.000000 0.000000 0.000000 0.141095 0.000000 -0.055000
# 5 -0.011854 -0.026956 -0.007235 0.000000 0.049928 0.000000
# 6 0.000000 0.000000 0.000000 -0.055000 0.000000 0.000375
#
#
# Mechanical properties :
#
#
# Convention : Reuss Voigt Hill
#
# Bulk Modulus (GPa) = 10.86497 38.63080 24.74788
# Shear Modulus (GPa) = 17.86516 13.84557 15.85537
#
# Velocity S-wave (km/s) = 2.89372 2.54746 2.72609
# Velocity P-wave (km/s) = 4.03204 5.17295 4.63771
#
# Compressibility (1/GPa) = 0.09203891
#
# Stress axis : x y z
#
# Youngs Moduli (GPa) = 59.41190 19.85582 129.48197
#
# Poissons Ratio (x) = -0.13738 0.14910
# Poissons Ratio (y) = -0.41107 -0.36165
# Poissons Ratio (z) = 0.06842 -0.05546
#
# Static dielectric constant tensor:
#      x y z
#    x 1.814280 0.000000 0.022740 
#    y 0.000000 1.832710 0.000000 
#    z 0.022740 0.000000 1.817430 
# 
# From -- ./inp_files/82673.got.cif
#   From: 2010.05.17/outbox.cif.g08.bks.cpg/sg10_42_cif.got.tgz:82673.got - 2010.06.03 11:33:40.
