data_PCOD9141675
_publ_section_title
;
Structure prediction by ZEFSAII (Michael W. Deem and Ramdas Pophale) SiO2 
 PCOD9141675
Probable space group: P 2/M
;
_chemical_formula_sum "Si O2"
_cell_formula_units_Z 32
_cell_length_a 12.112905
_cell_length_b 10.549226
_cell_length_c 24.309962
_cell_angle_alpha 90.000000
_cell_angle_beta 33.396142
_cell_angle_gamma 90.000000
_cell_volume 1709.822247
_symmetry_space_group_name_H-M "P 2/M"
_symmetry_group_IT_number 10
_symmetry_cell_setting 'monoclinic'
loop_
_space_group_symop_operation_xyz
x,y,z
-x,y,-z
-x,-y,-z
x,-y,z
loop_
_atom_site_type_symbol
_atom_site_label
_atom_site_fract_x
_atom_site_fract_y
_atom_site_fract_z
Si Si1 0.547635 0.150814 0.236069
Si Si2 0.699966 0.151279 0.052444
Si Si3 0.552978 0.636020 0.413496
Si Si4 0.362004 0.850073 0.111799
Si Si5 0.110536 0.855200 0.833013
Si Si6 0.891065 0.146700 0.604113
Si Si7 0.920570 0.215552 0.276207
Si Si8 0.242392 0.147807 0.537559
O O1 0.677478 0.165010 0.126700
O O2 0.684083 0.202527 0.228744
O O3 0.327792 0.205592 0.314532
O O4 0.510446 0.000000 0.262226
O O5 0.500709 0.196419 0.104026
O O6 0.699616 0.000000 0.040337
O O7 0.906397 0.204207 0.941972
O O8 0.500000 0.628309 0.500000
O O9 0.501278 0.500000 0.409196
O O10 0.790356 0.661556 0.314692
O O11 0.425508 0.758281 0.447601
O O12 0.155028 0.775406 0.191884
O O13 0.307920 0.000000 0.141958
O O14 0.500000 0.842812 0.000000
O O15 0.096099 0.860415 0.773668
O O16 0.112248 0.000000 0.853573
O O17 0.000000 0.147125 0.500000
O O18 0.047562 0.194469 0.584491
O O19 0.857862 0.000000 0.635603
O O20 0.812476 0.156744 0.374857
O O21 0.285292 0.000000 0.505729
#
# Coordination Sequence:
#
# PCOD9141675 Si02
#       8
#     4   4   4   4   4   4   4   4
#     4   9  17  27  40  59  94 141 177 204 247 307
#     4   9  16  27  40  59  95 140 176 203 247 307
#     4   9  21  39  55  74 104 140 172 209 264 321
#     4  10  17  26  41  67 105 139 165 206 258 303
#     4  10  18  26  41  69 101 133 167 210 255 301
#     4   9  18  31  45  67 101 138 172 209 258 307
#     4  11  20  30  49  74 102 134 172 212 261 309
#     4  10  20  33  54  81 105 133 173 220 261 309
#
# _framework density 18.715395999999998
#
# number of rings (size 3 to 8) (size 9 to 14) (size 15 to 20)
#    0.000    2.375    1.250    2.250    1.750    6.750 
#    0.000    0.000    0.000    0.750    0.000    0.000 
#    0.000    2.000    0.000    0.000    0.000    0.500 
#
# Total GULP energy -178149.522597 kJ/mol
# GULP energy per Si atom -5567.172581 kJ/mol
# Density = 1.867280 g / cm^3
# Si number density = 18.715396 Si / 1000 Ang^3
#
#
#
# Elastic Constant Matrix: (Units=GPa)
#
#
# Indices 1 2 3 4 5 6 
#
# 1 123.9245 14.1004 35.8838 0.0000 -25.5925 0.0000
# 2 14.1004 39.7848 26.2438 0.0000 -17.0420 0.0000
# 3 35.8838 26.2438 86.0399 0.0000 -28.2041 0.0000
# 4 0.0000 0.0000 0.0000 13.0891 0.0000 -9.3073
# 5 -25.5925 -17.0420 -28.2041 0.0000 25.1307 0.0000
# 6 0.0000 0.0000 0.0000 -9.3073 0.0000 2.5917
#
#
#
# Elastic Compliance Matrix: (Units=1/GPa)
#
#
# Indices 1 2 3 4 5 6 
#
# 1 0.010387 0.001595 -0.001576 0.000000 0.009890 0.000000
# 2 0.001595 0.036880 -0.005037 0.000000 0.020981 0.000000
# 3 -0.001576 -0.005037 0.019254 0.000000 0.016587 0.000000
# 4 0.000000 0.000000 0.000000 -0.049177 0.000000 -0.176602
# 5 0.009890 0.020981 0.016587 0.000000 0.082708 0.000000
# 6 0.000000 0.000000 0.000000 -0.176602 0.000000 -0.248361
#
#
# Mechanical properties :
#
#
# Convention : Reuss Voigt Hill
#
# Bulk Modulus (GPa) = 17.70405 44.68949 31.19677
# Shear Modulus (GPa) = -41.86008 19.73039 -11.06484
#
# Velocity S-wave (km/s) = -4.73447 3.25042 -2.43413
# Velocity P-wave (km/s) = 4.51739 6.16581 2.96736
#
# Compressibility (1/GPa) = 0.05648426
#
# Stress axis : x y z
#
# Youngs Moduli (GPa) = 96.27500 27.11526 51.93828
#
# Poissons Ratio (x) = -0.04325 0.08188
# Poissons Ratio (y) = -0.15357 0.26159
# Poissons Ratio (z) = 0.15178 0.13657
#
# Static dielectric constant tensor:
#      x y z
#    x 1.693080 0.000000 -0.029050 
#    y 0.000000 1.642730 0.000000 
#    z -0.029050 0.000000 1.697690 
# 
# From -- ./inp_files/55697.got.cif
#   From: 2010.05.17/outbox.cif.g08.bks.cpg/sg10_28_cif.got.tgz:55697.got - 2010.06.03 11:33:40.
