data_PCOD9141333
_publ_section_title
;
Structure prediction by ZEFSAII (Michael W. Deem and Ramdas Pophale) SiO2 
 PCOD9141333
Probable space group: P 2/M
;
_chemical_formula_sum "Si O2"
_cell_formula_units_Z 30
_cell_length_a 33.993847
_cell_length_b 7.716158
_cell_length_c 13.153384
_cell_angle_alpha 90.000000
_cell_angle_beta 154.355574
_cell_angle_gamma 90.000000
_cell_volume 1493.176024
_symmetry_space_group_name_H-M "P 2/M"
_symmetry_group_IT_number 10
_symmetry_cell_setting 'monoclinic'
loop_
_space_group_symop_operation_xyz
x,y,z
-x,y,-z
-x,-y,-z
x,-y,z
loop_
_atom_site_type_symbol
_atom_site_label
_atom_site_fract_x
_atom_site_fract_y
_atom_site_fract_z
Si Si1 0.989697 0.295565 0.753945
Si Si2 0.703817 0.296807 0.773624
Si Si3 0.210963 0.697338 0.447289
Si Si4 0.808897 0.711876 0.823068
Si Si5 0.683153 0.289323 0.111161
Si Si6 0.512797 0.288191 0.412975
Si Si7 0.000000 0.245991 0.000000
Si Si8 0.190061 0.798263 0.781627
O O1 0.993778 0.500000 0.795565
O O2 0.903280 0.275066 0.481135
O O3 0.083810 0.249270 0.918321
O O4 0.982788 0.187831 0.842645
O O5 0.687963 0.500000 0.716361
O O6 0.749198 0.223262 0.777493
O O7 0.606872 0.223730 0.584119
O O8 0.773077 0.283517 0.029041
O O9 0.244692 0.500000 0.517894
O O10 0.220638 0.775626 0.357622
O O11 0.264652 0.776071 0.667105
O O12 0.103359 0.687506 0.221258
O O13 0.804275 0.500000 0.810894
O O14 0.689053 0.500000 0.122685
O O15 0.734664 0.227847 0.130445
O O16 0.577696 0.240151 0.859253
O O17 0.500000 0.232005 0.500000
O O18 0.516681 0.500000 0.424574
O O19 0.176938 0.000000 0.770097
#
# Coordination Sequence:
#
# PCOD9141333 Si02
#       8
#     4   4   4   4   4   4   2   4
#     4  10  18  32  53  78 103 135 174 206 248 301
#     4  10  19  36  56  73 101 136 171 212 256 305
#     4   9  15  25  47  79 106 127 163 207 249 295
#     4   8  17  31  52  79 102 131 173 212 243 296
#     4  10  18  32  54  78 104 136 167 208 261 310
#     4   9  16  28  51  80 101 126 169 212 258 307
#     4  10  15  24  51  80  99 130 169 206 241 292
#     4  12  24  34  48  76 108 136 171 215 260 301
#
# _framework density 20.0914
#
# number of rings (size 3 to 8) (size 9 to 14) (size 15 to 20)
#    0.000    2.267    2.667    3.200    0.000    0.533 
#    0.000    5.667    0.000    4.800    0.000    0.000 
#    0.000    2.133    0.000    0.000    0.000    0.000 
#
# Total GULP energy -167108.562696 kJ/mol
# GULP energy per Si atom -5570.285423 kJ/mol
# Density = 2.004567 g / cm^3
# Si number density = 20.091400 Si / 1000 Ang^3
#
#
#
# Elastic Constant Matrix: (Units=GPa)
#
#
# Indices 1 2 3 4 5 6 
#
# 1 178.5995 3.4303 68.2536 0.0000 5.1859 0.0000
# 2 3.4303 38.6476 -0.3770 0.0000 8.8138 0.0000
# 3 68.2536 -0.3770 118.4154 0.0000 -4.9901 0.0000
# 4 0.0000 0.0000 0.0000 -67.7582 0.0000 35.3932
# 5 5.1859 8.8138 -4.9901 0.0000 23.3544 0.0000
# 6 0.0000 0.0000 0.0000 35.3932 0.0000 4.9250
#
#
#
# Elastic Compliance Matrix: (Units=1/GPa)
#
#
# Indices 1 2 3 4 5 6 
#
# 1 0.007329 -0.000121 -0.004331 0.000000 -0.002507 0.000000
# 2 -0.000121 0.028329 -0.000292 0.000000 -0.010727 0.000000
# 3 -0.004331 -0.000292 0.011085 0.000000 0.003440 0.000000
# 4 0.000000 0.000000 0.000000 -0.003105 0.000000 0.022311
# 5 -0.002507 -0.010727 0.003440 0.000000 0.048159 0.000000
# 6 0.000000 0.000000 0.000000 0.022311 0.000000 0.042712
#
#
# Mechanical properties :
#
#
# Convention : Reuss Voigt Hill
#
# Bulk Modulus (GPa) = 26.84136 53.14182 39.99159
# Shear Modulus (GPa) = 31.96619 9.72795 20.84707
#
# Velocity S-wave (km/s) = 3.99311 2.20281 3.22469
# Velocity P-wave (km/s) = 5.88630 5.74258 5.81489
#
# Compressibility (1/GPa) = 0.03725594
#
# Stress axis : x y z
#
# Youngs Moduli (GPa) = 136.44077 35.29947 90.21230
#
# Poissons Ratio (x) = 0.00427 0.39067
# Poissons Ratio (y) = 0.01651 0.02635
# Poissons Ratio (z) = 0.59086 0.01031
#
# Static dielectric constant tensor:
#      x y z
#    x 1.697300 0.000000 -0.010750 
#    y 0.000000 1.774670 0.000000 
#    z -0.010750 0.000000 1.694990 
# 
# From -- ./inp_files/58017.got.cif
#   From: 2010.05.17/outbox.cif.g08.bks.cpg/sg10_30_cif.got.tgz:58017.got - 2010.06.03 11:33:40.
