data_PCOD9141542
_publ_section_title
;
Structure prediction by ZEFSAII (Michael W. Deem and Ramdas Pophale) SiO2 
 PCOD9141542
Probable space group: P 2/M
;
_chemical_formula_sum "Si O2"
_cell_formula_units_Z 28
_cell_length_a 22.651374
_cell_length_b 9.286444
_cell_length_c 18.421565
_cell_angle_alpha 90.000000
_cell_angle_beta 26.539273
_cell_angle_gamma 90.000000
_cell_volume 1731.388407
_symmetry_space_group_name_H-M "P 2/M"
_symmetry_group_IT_number 10
_symmetry_cell_setting 'monoclinic'
loop_
_space_group_symop_operation_xyz
x,y,z
-x,y,-z
-x,-y,-z
x,-y,z
loop_
_atom_site_type_symbol
_atom_site_label
_atom_site_fract_x
_atom_site_fract_y
_atom_site_fract_z
Si Si1 0.357992 0.828542 0.192535
Si Si2 0.394879 0.328212 0.458517
Si Si3 0.152287 0.328282 0.315137
Si Si4 0.720168 0.670378 0.976667
Si Si5 0.661437 0.334255 0.324565
Si Si6 0.325204 0.171259 0.831490
Si Si7 0.409438 0.668624 0.282156
O O1 0.246476 0.755860 0.266227
O O2 0.358798 0.764984 0.272590
O O3 0.342512 0.000000 0.210768
O O4 0.500000 0.794519 0.000000
O O5 0.431941 0.500000 0.421223
O O6 0.306127 0.300551 0.627065
O O7 0.525220 0.231343 0.323382
O O8 0.343926 0.304162 0.433106
O O9 0.176463 0.500000 0.296380
O O10 0.000000 0.299789 0.500000
O O11 0.190237 0.290848 0.190618
O O12 0.733675 0.500000 0.977539
O O13 0.747692 0.760260 0.018947
O O14 0.566989 0.692904 0.120980
O O15 0.500000 0.325862 0.500000
O O16 0.696121 0.500000 0.270702
O O17 0.716604 0.233016 0.200976
O O18 0.321840 0.000000 0.836565
O O19 0.392336 0.500000 0.282718
#
# Coordination Sequence:
#
# PCOD9141542 Si02
#       7
#     4   4   4   4   4   4   4
#     4  11  22  33  48  72 101 129 159 194 238 291
#     4   8  15  26  38  55  81 116 152 189 233 275
#     4  10  21  37  56  74  92 121 163 207 247 286
#     4   9  17  30  46  64  88 118 153 194 240 282
#     4   8  13  23  36  50  77 115 151 184 226 276
#     4  10  17  22  34  57  84 115 152 188 224 273
#     4   9  16  28  47  67  88 120 160 198 234 274
#
# _framework density 16.171991999999999
#
# number of rings (size 3 to 8) (size 9 to 14) (size 15 to 20)
#    0.000    2.714    1.429    3.429    0.000    6.286 
#    0.000    0.000    0.000    0.000    0.000    0.000 
#    0.000    1.143    0.000   13.143    0.000    7.571 
#
# Total GULP energy -155915.222326 kJ/mol
# GULP energy per Si atom -5568.400797 kJ/mol
# Density = 1.613518 g / cm^3
# Si number density = 16.171992 Si / 1000 Ang^3
#
#
#
# Elastic Constant Matrix: (Units=GPa)
#
#
# Indices 1 2 3 4 5 6 
#
# 1 122.5270 72.1935 63.7411 0.0000 44.4674 0.0000
# 2 72.1935 74.0458 48.3938 0.0000 23.1716 0.0000
# 3 63.7411 48.3938 57.3731 0.0000 24.5105 0.0000
# 4 0.0000 0.0000 0.0000 7.1130 0.0000 -2.6300
# 5 44.4674 23.1716 24.5105 0.0000 29.9760 0.0000
# 6 0.0000 0.0000 0.0000 -2.6300 0.0000 4.9531
#
#
#
# Elastic Compliance Matrix: (Units=1/GPa)
#
#
# Indices 1 2 3 4 5 6 
#
# 1 0.035109 -0.017308 -0.012099 0.000000 -0.028810 0.000000
# 2 -0.017308 0.038921 -0.018007 0.000000 0.010312 0.000000
# 3 -0.012099 -0.018007 0.049865 0.000000 -0.008906 0.000000
# 4 0.000000 0.000000 0.000000 0.174930 0.000000 0.092883
# 5 -0.028810 0.010312 -0.008906 0.000000 0.075409 0.000000
# 6 0.000000 0.000000 0.000000 0.092883 0.000000 0.251214
#
#
# Mechanical properties :
#
#
# Convention : Reuss Voigt Hill
#
# Bulk Modulus (GPa) = 34.40114 69.17807 51.78960
# Shear Modulus (GPa) = 6.84966 13.04959 9.94962
#
# Velocity S-wave (km/s) = 2.06027 2.84372 2.48309
# Velocity P-wave (km/s) = 5.19402 7.32473 6.34939
#
# Compressibility (1/GPa) = 0.02906880
#
# Stress axis : x y z
#
# Youngs Moduli (GPa) = 28.48271 25.69283 20.05421
#
# Poissons Ratio (x) = 0.44468 0.24264
# Poissons Ratio (y) = 0.49297 0.36111
# Poissons Ratio (z) = 0.34461 0.46264
#
# Static dielectric constant tensor:
#      x y z
#    x 1.566360 0.000000 0.041930 
#    y 0.000000 1.530600 0.000000 
#    z 0.041930 0.000000 1.539390 
# 
# From -- ./inp_files/79259.got.cif
#   From: 2010.05.17/outbox.cif.g08.bks.cpg/sg10_40_cif.got.tgz:79259.got - 2010.06.03 11:33:40.
