data_PCOD9141350
_publ_section_title
;
Structure prediction by ZEFSAII (Michael W. Deem and Ramdas Pophale) SiO2 
 PCOD9141350
Probable space group: P 2/M
;
_chemical_formula_sum "Si O2"
_cell_formula_units_Z 32
_cell_length_a 22.683867
_cell_length_b 7.460863
_cell_length_c 23.652587
_cell_angle_alpha 90.000000
_cell_angle_beta 162.803146
_cell_angle_gamma 90.000000
_cell_volume 1183.507219
_symmetry_space_group_name_H-M "P 2/M"
_symmetry_group_IT_number 10
_symmetry_cell_setting 'monoclinic'
loop_
_space_group_symop_operation_xyz
x,y,z
-x,y,-z
-x,-y,-z
x,-y,z
loop_
_atom_site_type_symbol
_atom_site_label
_atom_site_fract_x
_atom_site_fract_y
_atom_site_fract_z
Si Si1 0.062646 0.204546 0.864578
Si Si2 0.722262 0.785144 0.419016
Si Si3 0.680457 0.213791 0.731026
Si Si4 0.709709 0.220463 0.026891
Si Si5 0.093962 0.794273 0.525960
Si Si6 0.483057 0.294168 0.303308
Si Si7 0.109034 0.781650 0.182442
Si Si8 0.460714 0.794486 0.022129
O O1 0.922299 0.289319 0.783115
O O2 0.997277 0.000000 0.795939
O O3 0.112219 0.285147 0.849054
O O4 0.286390 0.194456 0.098284
O O5 0.502349 0.729297 0.194758
O O6 0.881013 0.720446 0.516295
O O7 0.681495 0.747700 0.448650
O O8 0.741196 0.000000 0.433042
O O9 0.520846 0.265752 0.632525
O O10 0.716574 0.280574 0.699862
O O11 0.660542 0.000000 0.707905
O O12 0.895750 0.254893 0.957038
O O13 0.695235 0.283961 0.077529
O O14 0.716334 0.000000 0.033618
O O15 0.326514 0.803917 0.754069
O O16 0.000000 0.720371 0.500000
O O17 0.017609 0.000000 0.452129
O O18 0.437472 0.500000 0.251892
O O19 0.123438 0.000000 0.199156
O O20 0.397540 0.000000 0.953101
O O21 0.500000 0.699311 0.000000
#
# Coordination Sequence:
#
# PCOD9141350 Si02
#       8
#     4   4   4   4   4   4   4   4
#     4   8  12  20  30  37  49  72 102 132 161 191
#     4   8  13  22  33  42  55  77 103 131 162 192
#     4   8  12  19  27  34  47  69  97 126 158 193
#     4   7  10  16  27  40  53  74 102 126 150 187
#     4   8  13  21  34  50  64  82 113 145 166 193
#     4  10  16  19  25  39  56  73  97 129 162 193
#     4   7  10  16  27  37  44  63  97 131 157 186
#     4   8  12  17  26  44  70  91 104 129 173 209
#
# _framework density 27.038281000000001
#
# number of rings (size 3 to 8) (size 9 to 14) (size 15 to 20)
#    0.000    4.000    0.000    4.875    0.000    0.000 
#    0.000    5.000    0.000    0.375    0.000    0.000 
#    0.000   40.500    0.000    0.000    0.000    1.250 
#
# Total GULP energy -178293.410559 kJ/mol
# GULP energy per Si atom -5571.669080 kJ/mol
# Density = 2.697674 g / cm^3
# Si number density = 27.038281 Si / 1000 Ang^3
#
#
#
# Elastic Constant Matrix: (Units=GPa)
#
#
# Indices 1 2 3 4 5 6 
#
# 1 330.5757 16.2475 64.3679 0.0000 100.1756 0.0000
# 2 16.2475 95.7374 -2.4300 0.0000 6.3397 0.0000
# 3 64.3679 -2.4300 156.7669 0.0000 40.9729 0.0000
# 4 0.0000 0.0000 0.0000 -23.3699 0.0000 -21.8980
# 5 100.1756 6.3397 40.9729 0.0000 57.1942 0.0000
# 6 0.0000 0.0000 0.0000 -21.8980 0.0000 -70.7627
#
#
#
# Elastic Compliance Matrix: (Units=1/GPa)
#
#
# Indices 1 2 3 4 5 6 
#
# 1 0.006475 -0.000324 0.000358 0.000000 -0.011561 0.000000
# 2 -0.000324 0.010581 0.000560 0.000000 -0.001006 0.000000
# 3 0.000358 0.000560 0.007900 0.000000 -0.006349 0.000000
# 4 0.000000 0.000000 0.000000 -0.060265 0.000000 0.018649
# 5 -0.011561 -0.001006 -0.006349 0.000000 0.042392 0.000000
# 6 0.000000 0.000000 0.000000 0.018649 0.000000 -0.019903
#
#
# Mechanical properties :
#
#
# Convention : Reuss Voigt Hill
#
# Bulk Modulus (GPa) = 38.25023 82.16120 60.20571
# Shear Modulus (GPa) = -944.57545 26.27195 -459.15175
#
# Velocity S-wave (km/s) = -18.71112 3.12052 -13.04546
# Velocity P-wave (km/s) = 21.27511 6.59064 14.30374
#
# Compressibility (1/GPa) = 0.02614363
#
# Stress axis : x y z
#
# Youngs Moduli (GPa) = 154.45148 94.50804 126.58505
#
# Poissons Ratio (x) = 0.03064 -0.04533
# Poissons Ratio (y) = 0.05007 -0.07091
# Poissons Ratio (z) = -0.05531 -0.05294
#
# Static dielectric constant tensor:
#      x y z
#    x 2.343310 0.000000 -0.113970 
#    y 0.000000 1.985080 0.000000 
#    z -0.113970 0.000000 2.306540 
# 
# From -- ./inp_files/95753.got.cif
#   From: 2010.05.17/outbox.cif.g08.bks.cpg/sg10_48_cif.got.tgz:95753.got - 2010.06.03 11:33:40.
