data_PCOD9141306
_publ_section_title
;
Structure prediction by ZEFSAII (Michael W. Deem and Ramdas Pophale) SiO2 
 PCOD9141306
Probable space group: P 2/M
;
_chemical_formula_sum "Si O2"
_cell_formula_units_Z 24
_cell_length_a 7.399579
_cell_length_b 12.045060
_cell_length_c 16.748565
_cell_angle_alpha 90.000000
_cell_angle_beta 53.529882
_cell_angle_gamma 90.000000
_cell_volume 1200.438224
_symmetry_space_group_name_H-M "P 2/M"
_symmetry_group_IT_number 10
_symmetry_cell_setting 'monoclinic'
loop_
_space_group_symop_operation_xyz
x,y,z
-x,y,-z
-x,-y,-z
x,-y,z
loop_
_atom_site_type_symbol
_atom_site_label
_atom_site_fract_x
_atom_site_fract_y
_atom_site_fract_z
Si Si1 0.801044 0.127401 0.985838
Si Si2 0.314804 0.000000 0.450687
Si Si3 0.514606 0.866520 0.791707
Si Si4 0.897929 0.204137 0.220591
Si Si5 0.229421 0.760002 0.396018
Si Si6 0.595484 0.369104 0.388660
Si Si7 0.151503 0.000000 0.658865
O O1 0.579785 0.154928 0.094793
O O2 0.783147 0.000000 0.960046
O O3 0.000000 0.125096 0.000000
O O4 0.888596 0.208428 0.893877
O O5 0.284119 0.118069 0.417427
O O6 0.130427 0.000000 0.569851
O O7 0.577781 0.000000 0.403472
O O8 0.309895 0.835585 0.783335
O O9 0.719965 0.788546 0.709602
O O10 0.555572 0.000000 0.775154
O O11 0.811585 0.306638 0.296026
O O12 0.936805 0.105815 0.272554
O O13 0.401528 0.665765 0.378255
O O14 0.000000 0.729061 0.500000
O O15 0.500000 0.327908 0.500000
O O16 0.631140 0.500000 0.385057
#
# Coordination Sequence:
#
# PCOD9141306 Si02
#       7
#     4   2   4   4   4   4   2
#     4   8  13  20  37  63  93 121 147 177 218 276
#     4  11  19  26  41  69  98 119 148 185 234 270
#     4   9  14  24  39  64  97 124 148 179 219 274
#     4  10  14  25  42  66  91 116 151 186 226 275
#     4  11  20  31  48  69  96 125 155 188 229 275
#     4  10  21  35  49  67  92 121 155 195 234 272
#     4  11  16  24  44  68  93 122 147 188 227 279
#
# _framework density 19.992699999999999
#
# number of rings (size 3 to 8) (size 9 to 14) (size 15 to 20)
#    0.000    2.167    5.833    2.250    0.000    0.333 
#    0.000    0.000    0.000   12.500    0.000    5.833 
#    0.000    2.667    0.000    0.000    0.000    0.000 
#
# Total GULP energy -133754.623422 kJ/mol
# GULP energy per Si atom -5573.109309 kJ/mol
# Density = 1.994720 g / cm^3
# Si number density = 19.992700 Si / 1000 Ang^3
#
#
#
# Elastic Constant Matrix: (Units=GPa)
#
#
# Indices 1 2 3 4 5 6 
#
# 1 30.2451 2.6097 4.6506 0.0000 -6.3951 0.0000
# 2 2.6097 60.4980 48.1086 0.0000 6.5155 0.0000
# 3 4.6506 48.1086 210.3230 0.0000 -6.9753 0.0000
# 4 0.0000 0.0000 0.0000 67.8631 0.0000 3.5175
# 5 -6.3951 6.5155 -6.9753 0.0000 15.8390 0.0000
# 6 0.0000 0.0000 0.0000 3.5175 0.0000 10.2678
#
#
#
# Elastic Compliance Matrix: (Units=1/GPa)
#
#
# Indices 1 2 3 4 5 6 
#
# 1 0.036846 -0.003897 0.000632 0.000000 0.016758 0.000000
# 2 -0.003897 0.022498 -0.005499 0.000000 -0.013250 0.000000
# 3 0.000632 -0.005499 0.006172 0.000000 0.005236 0.000000
# 4 0.000000 0.000000 0.000000 0.015002 0.000000 -0.005139
# 5 0.016758 -0.013250 0.005236 0.000000 0.077658 0.000000
# 6 0.000000 0.000000 0.000000 -0.005139 0.000000 0.099153
#
#
# Mechanical properties :
#
#
# Convention : Reuss Voigt Hill
#
# Bulk Modulus (GPa) = 20.83878 45.75600 33.29739
# Shear Modulus (GPa) = 17.19091 35.17378 26.18234
#
# Velocity S-wave (km/s) = 2.93552 4.19899 3.62276
# Velocity P-wave (km/s) = 4.68354 6.81504 5.84723
#
# Compressibility (1/GPa) = 0.04798745
#
# Stress axis : x y z
#
# Youngs Moduli (GPa) = 27.14024 44.44909 162.01849
#
# Poissons Ratio (x) = 0.17323 -0.10247
# Poissons Ratio (y) = 0.10577 0.89099
# Poissons Ratio (z) = -0.01717 0.24444
#
# Static dielectric constant tensor:
#      x y z
#    x 1.831840 0.000000 -0.019760 
#    y 0.000000 1.629900 0.000000 
#    z -0.019760 0.000000 1.838300 
# 
# From -- ./inp_files/60667.got.cif
#   From: 2010.05.17/outbox.cif.g08.bks.cpg/sg10_31_cif.got.tgz:60667.got - 2010.06.03 11:33:40.
