data_PCOD9141203
_publ_section_title
;
Structure prediction by ZEFSAII (Michael W. Deem and Ramdas Pophale) SiO2 
 PCOD9141203
Probable space group: C C
;
_chemical_formula_sum "Si O2"
_cell_formula_units_Z 32
_cell_length_a 5.432825
_cell_length_b 17.879565
_cell_length_c 11.775229
_cell_angle_alpha 90.000000
_cell_angle_beta 82.793075
_cell_angle_gamma 90.000000
_cell_volume 1134.768514
_symmetry_space_group_name_H-M "C C"
_symmetry_group_IT_number 9
_symmetry_cell_setting 'monoclinic'
loop_
_space_group_symop_operation_xyz
x,y,z
x,-y,1/2+z
1/2+x,1/2+y,z
1/2+x,1/2-y,1/2+z
loop_
_atom_site_type_symbol
_atom_site_label
_atom_site_fract_x
_atom_site_fract_y
_atom_site_fract_z
Si Si1 0.311190 0.821316 0.287700
Si Si2 0.482229 0.030018 0.410102
Si Si3 0.075560 0.484531 0.148870
Si Si4 0.594737 0.419979 0.081757
Si Si5 0.813572 0.801613 0.599521
Si Si6 0.775598 0.672168 0.203507
Si Si7 0.792636 0.824236 0.342817
Si Si8 0.371178 0.335878 0.910931
O O1 0.333196 0.775358 0.169087
O O2 0.544846 0.865529 0.322183
O O3 0.297823 0.747562 0.375314
O O4 0.053331 0.863170 0.314699
O O5 0.196248 0.034929 0.465953
O O6 0.635812 0.108912 0.417074
O O7 0.584761 0.983256 0.515931
O O8 0.501744 0.018743 0.274303
O O9 0.357903 0.459174 0.148151
O O10 0.848871 0.424887 0.139101
O O11 0.480839 0.345466 0.030834
O O12 0.564246 0.843958 0.659172
O O13 0.775418 0.793526 0.469471
O O14 0.086035 0.836870 0.608872
O O15 0.799853 0.756320 0.252371
O O16 0.591686 0.640463 0.311545
#
# Coordination Sequence:
#
# PCOD9141203 Si02
#       8
#     4   4   4   4   4   4   4   4
#     4   9  19  27  45  71  95 114 164 200 237 295
#     4   9  20  32  53  75 107 130 172 215 262 302
#     4   9  20  31  48  77 104 131 168 212 258 309
#     4   9  20  30  51  73 105 127 165 209 265 304
#     4   9  16  28  42  64  94 119 149 191 247 281
#     4   9  19  27  45  71  95 115 164 200 237 295
#     4   9  16  28  42  64  96 119 146 194 244 284
#     4   9  18  31  48  73 100 125 158 215 260 296
#
# _framework density 28.199584999999999
#
# number of rings (size 3 to 8) (size 9 to 14) (size 15 to 20)
#    0.750    2.500    0.000    0.750   10.500    0.000 
#    0.000    0.000    0.000    0.000    0.000   70.000 
#    0.000    0.000    0.000    0.000    0.000    0.000 
#
# Total GULP energy -89211.517906 kJ/mol
# GULP energy per Si atom -5575.719869 kJ/mol
# Density = 2.813540 g / cm^3
# Si number density = 28.199585 Si / 1000 Ang^3
#
#
#
# Elastic Constant Matrix: (Units=GPa)
#
#
# Indices 1 2 3 4 5 6 
#
# 1 223.4859 15.0192 72.6650 0.0000 -11.8177 0.0000
# 2 15.0192 44.8083 38.6764 0.0000 -2.2780 0.0000
# 3 72.6650 38.6764 192.6950 0.0000 5.5552 0.0000
# 4 0.0000 0.0000 0.0000 38.5751 0.0000 -0.2160
# 5 -11.8177 -2.2780 5.5552 0.0000 72.0326 0.0000
# 6 0.0000 0.0000 0.0000 -0.2160 0.0000 21.1298
#
#
#
# Elastic Compliance Matrix: (Units=1/GPa)
#
#
# Indices 1 2 3 4 5 6 
#
# 1 0.005171 0.000031 -0.001985 0.000000 0.001002 0.000000
# 2 0.000031 0.027111 -0.005490 0.000000 0.001286 0.000000
# 3 -0.001985 -0.005490 0.007070 0.000000 -0.001045 0.000000
# 4 0.000000 0.000000 0.000000 0.025925 0.000000 0.000265
# 5 0.001002 0.001286 -0.001045 0.000000 0.014168 0.000000
# 6 0.000000 0.000000 0.000000 0.000265 0.000000 0.047329
#
#
# Mechanical properties :
#
#
# Convention : Reuss Voigt Hill
#
# Bulk Modulus (GPa) = 40.87678 79.30115 60.08896
# Shear Modulus (GPa) = 33.37379 48.65608 41.01493
#
# Velocity S-wave (km/s) = 3.44391 4.15832 3.81786
# Velocity P-wave (km/s) = 5.50827 7.15807 6.38667
#
# Compressibility (1/GPa) = 0.02446377
#
# Stress axis : x y z
#
# Youngs Moduli (GPa) = 193.38963 36.88498 141.43796
#
# Poissons Ratio (x) = -0.00115 0.28077
# Poissons Ratio (y) = -0.00603 0.77655
# Poissons Ratio (z) = 0.38390 0.20251
#
# Static dielectric constant tensor:
#      x y z
#    x 2.253560 0.000000 0.020100 
#    y 0.000000 2.377320 0.000000 
#    z 0.020100 0.000000 2.340060 
# 
# From -- ./inp_files/13896.got.cif
#   From: 2010.05.17/outbox.cif.g08.bks.cpg/sg9_7_cif.got.tgz:13896.got - 2010.06.03 20:04:27.
