data_PCOD9141913
_publ_section_title
;
Structure prediction by ZEFSAII (Michael W. Deem and Ramdas Pophale) SiO2 
 PCOD9141913
Probable space group: P 2/M
;
_chemical_formula_sum "Si O2"
_cell_formula_units_Z 32
_cell_length_a 22.348026
_cell_length_b 8.192609
_cell_length_c 31.477923
_cell_angle_alpha 90.000000
_cell_angle_beta 17.594404
_cell_angle_gamma 90.000000
_cell_volume 1742.096748
_symmetry_space_group_name_H-M "P 2/M"
_symmetry_group_IT_number 10
_symmetry_cell_setting 'monoclinic'
loop_
_space_group_symop_operation_xyz
x,y,z
-x,y,-z
-x,-y,-z
x,-y,z
loop_
_atom_site_type_symbol
_atom_site_label
_atom_site_fract_x
_atom_site_fract_y
_atom_site_fract_z
Si Si1 0.561981 0.199522 0.651848
Si Si2 0.195587 0.197156 0.841523
Si Si3 0.105783 0.188290 0.724122
Si Si4 0.333197 0.688597 0.983990
Si Si5 0.630484 0.197462 0.951624
Si Si6 0.053817 0.310382 0.849179
Si Si7 0.607854 0.807742 0.144673
Si Si8 0.088298 0.199473 0.643217
O O1 0.386708 0.249750 0.738607
O O2 0.510079 0.254238 0.734443
O O3 0.768450 0.251491 0.491517
O O4 0.559654 0.000000 0.654513
O O5 0.182197 0.261564 0.802823
O O6 0.195371 0.000000 0.839768
O O7 0.000000 0.248078 0.000000
O O8 0.154003 0.273891 0.735867
O O9 0.169032 0.253304 0.635037
O O10 0.164950 0.000000 0.687652
O O11 0.866004 0.202379 0.883099
O O12 0.271339 0.500000 0.027397
O O13 0.440819 0.721390 0.866792
O O14 0.440717 0.735256 0.954726
O O15 0.860439 0.249746 0.791581
O O16 0.626001 0.000000 0.956325
O O17 0.500000 0.250540 0.000000
O O18 0.004351 0.500000 0.884360
O O19 0.843215 0.216648 0.993969
O O20 0.571793 0.000000 0.164123
O O21 0.088798 0.000000 0.644351
#
# Coordination Sequence:
#
# PCOD9141913 Si02
#       8
#     4   4   4   4   4   4   4   4
#     4   9  17  29  48  70  93 121 156 199 240 279
#     4  10  18  31  47  66  90 121 161 201 241 282
#     4   9  16  29  49  68  91 123 159 198 238 280
#     4  10  18  28  45  72 101 125 155 194 232 274
#     4   9  17  31  53  78 101 124 152 189 231 276
#     4  11  20  29  44  67  94 122 158 203 245 280
#     4  10  17  29  48  69  93 124 161 198 237 276
#     4   8  15  29  49  74  96 117 152 195 235 277
#
# _framework density 18.368670999999999
#
# number of rings (size 3 to 8) (size 9 to 14) (size 15 to 20)
#    0.000    2.500    1.250    5.250    0.000    0.500 
#    0.000    0.625    0.000   15.750    0.000    5.250 
#    0.000    0.000    0.000    0.000    0.000    0.000 
#
# Total GULP energy -178368.310782 kJ/mol
# GULP energy per Si atom -5574.009712 kJ/mol
# Density = 1.832686 g / cm^3
# Si number density = 18.368671 Si / 1000 Ang^3
#
#
#
# Elastic Constant Matrix: (Units=GPa)
#
#
# Indices 1 2 3 4 5 6 
#
# 1 167.1606 11.9532 50.6553 0.0000 22.1290 0.0000
# 2 11.9532 22.3071 3.0520 0.0000 -0.0170 0.0000
# 3 50.6553 3.0520 65.4276 0.0000 20.3024 0.0000
# 4 0.0000 0.0000 0.0000 -8.0134 0.0000 -2.3241
# 5 22.1290 -0.0170 20.3024 0.0000 26.4078 0.0000
# 6 0.0000 0.0000 0.0000 -2.3241 0.0000 -23.8079
#
#
#
# Elastic Compliance Matrix: (Units=1/GPa)
#
#
# Indices 1 2 3 4 5 6 
#
# 1 0.008233 -0.003684 -0.005333 0.000000 -0.002801 0.000000
# 2 -0.003684 0.046859 -0.000395 0.000000 0.003421 0.000000
# 3 -0.005333 -0.000395 0.023698 0.000000 -0.013751 0.000000
# 4 0.000000 0.000000 0.000000 -0.128427 0.000000 0.012537
# 5 -0.002801 0.003421 -0.013751 0.000000 0.050789 0.000000
# 6 0.000000 0.000000 0.000000 0.012537 0.000000 -0.043227
#
#
# Mechanical properties :
#
#
# Convention : Reuss Voigt Hill
#
# Bulk Modulus (GPa) = 16.67603 42.91289 29.79446
# Shear Modulus (GPa) = -1532.57413 11.53296 -760.52058
#
# Velocity S-wave (km/s) = -28.91630 2.50843 -20.36984
# Velocity P-wave (km/s) = 33.25315 5.63936 23.17293
#
# Compressibility (1/GPa) = 0.05996631
#
# Stress axis : x y z
#
# Youngs Moduli (GPa) = 121.46961 21.34046 42.19750
#
# Poissons Ratio (x) = 0.07862 0.22503
# Poissons Ratio (y) = 0.44748 0.01668
# Poissons Ratio (z) = 0.64776 0.00843
#
# Static dielectric constant tensor:
#      x y z
#    x 1.659520 0.000000 0.031880 
#    y 0.000000 1.630890 0.000000 
#    z 0.031880 0.000000 1.626140 
# 
# From -- ./inp_files/95644.got.cif
#   From: 2010.05.17/outbox.cif.g08.bks.cpg/sg10_48_cif.got.tgz:95644.got - 2010.06.03 11:33:40.
