data_PCOD9141346
_publ_section_title
;
Structure prediction by ZEFSAII (Michael W. Deem and Ramdas Pophale) SiO2 
 PCOD9141346
Probable space group: P 2/M
;
_chemical_formula_sum "Si O2"
_cell_formula_units_Z 28
_cell_length_a 11.239293
_cell_length_b 20.741669
_cell_length_c 6.924601
_cell_angle_alpha 90.000000
_cell_angle_beta 42.617350
_cell_angle_gamma 90.000000
_cell_volume 1093.023542
_symmetry_space_group_name_H-M "P 2/M"
_symmetry_group_IT_number 10
_symmetry_cell_setting 'monoclinic'
loop_
_space_group_symop_operation_xyz
x,y,z
-x,y,-z
-x,-y,-z
x,-y,z
loop_
_atom_site_type_symbol
_atom_site_label
_atom_site_fract_x
_atom_site_fract_y
_atom_site_fract_z
Si Si1 0.155005 0.704805 0.158011
Si Si2 0.439346 0.927471 0.799739
Si Si3 0.247628 0.151164 0.505530
Si Si4 0.449805 0.285598 0.329393
Si Si5 0.453011 0.570767 0.325999
Si Si6 0.129402 0.843219 0.076386
Si Si7 0.151461 0.432077 0.157626
O O1 0.134130 0.766314 0.052492
O O2 0.000000 0.707081 0.500000
O O3 0.138720 0.636451 0.070016
O O4 0.354513 0.712093 0.999395
O O5 0.500000 0.926901 0.500000
O O6 0.609665 0.902494 0.707511
O O7 0.384336 0.000000 0.910620
O O8 0.287330 0.874611 0.005423
O O9 0.338762 0.222215 0.404694
O O10 0.065081 0.145225 0.614288
O O11 0.177507 0.135054 0.804330
O O12 0.500000 0.280224 0.500000
O O13 0.372248 0.358073 0.387567
O O14 0.500000 0.570688 0.500000
O O15 0.369209 0.500000 0.386560
O O16 0.649116 0.569401 0.996569
O O17 0.135874 0.500000 0.067530
O O18 0.000000 0.432075 0.500000
#
# Coordination Sequence:
#
# PCOD9141346 Si02
#       7
#     4   4   4   4   4   4   4
#     4  10  18  29  48  73 100 130 167 209 248 289
#     4   9  17  31  51  76 103 128 159 201 245 288
#     4  10  18  30  51  75  99 132 165 198 241 294
#     4  10  15  28  49  66  95 132 165 200 246 293
#     4   8  14  21  35  62  88 117 160 201 236 283
#     4  10  19  31  49  75 103 129 163 202 245 289
#     4   8  14  24  39  62  91 123 161 203 245 287
#
# _framework density 25.617013
#
# number of rings (size 3 to 8) (size 9 to 14) (size 15 to 20)
#    0.000    2.714    2.857    0.429    0.000    0.571 
#    0.000    3.571    0.000    1.286    0.000    3.000 
#    0.000   11.429    0.000    0.000    0.000    0.000 
#
# Total GULP energy -156230.780470 kJ/mol
# GULP energy per Si atom -5579.670731 kJ/mol
# Density = 2.555871 g / cm^3
# Si number density = 25.617013 Si / 1000 Ang^3
#
#
#
# Elastic Constant Matrix: (Units=GPa)
#
#
# Indices 1 2 3 4 5 6 
#
# 1 60.0467 1.3546 15.2137 0.0000 -1.9928 0.0000
# 2 1.3546 114.0369 32.3369 0.0000 -16.5760 0.0000
# 3 15.2137 32.3369 156.2823 0.0000 -13.3546 0.0000
# 4 0.0000 0.0000 0.0000 -1.5306 0.0000 7.6083
# 5 -1.9928 -16.5760 -13.3546 0.0000 38.8804 0.0000
# 6 0.0000 0.0000 0.0000 7.6083 0.0000 11.1714
#
#
#
# Elastic Compliance Matrix: (Units=1/GPa)
#
#
# Indices 1 2 3 4 5 6 
#
# 1 0.017091 0.000342 -0.001697 0.000000 0.000439 0.000000
# 2 0.000342 0.009783 -0.001751 0.000000 0.003587 0.000000
# 3 -0.001697 -0.001751 0.007062 0.000000 0.001592 0.000000
# 4 0.000000 0.000000 0.000000 -0.148980 0.000000 0.101464
# 5 0.000439 0.003587 0.001592 0.000000 0.027819 0.000000
# 6 0.000000 0.000000 0.000000 0.101464 0.000000 0.020412
#
#
# Mechanical properties :
#
#
# Convention : Reuss Voigt Hill
#
# Bulk Modulus (GPa) = 36.07021 47.57513 41.82267
# Shear Modulus (GPa) = -97.35088 28.46827 -34.44130
#
# Velocity S-wave (km/s) = -6.17130 3.33724 -3.67068
# Velocity P-wave (km/s) = 6.05547 5.78460 1.26634
#
# Compressibility (1/GPa) = 0.02772371
#
# Stress axis : x y z
#
# Youngs Moduli (GPa) = 58.51199 102.21888 141.59813
#
# Poissons Ratio (x) = -0.03496 0.24029
# Poissons Ratio (y) = -0.02001 0.24794
# Poissons Ratio (z) = 0.09929 0.17899
#
# Static dielectric constant tensor:
#      x y z
#    x 2.157710 0.000000 0.027110 
#    y 0.000000 1.984910 0.000000 
#    z 0.027110 0.000000 2.120060 
# 
# From -- ./inp_files/54237.got.cif
#   From: 2010.05.17/outbox.cif.g08.bks.cpg/sg10_28_cif.got.tgz:54237.got - 2010.06.03 11:33:40.
