data_PCOD9141524
_publ_section_title
;
Structure prediction by ZEFSAII (Michael W. Deem and Ramdas Pophale) SiO2 
 PCOD9141524
Probable space group: P 2/M
;
_chemical_formula_sum "Si O2"
_cell_formula_units_Z 24
_cell_length_a 9.754476
_cell_length_b 8.276036
_cell_length_c 32.578528
_cell_angle_alpha 90.000000
_cell_angle_beta 150.132878
_cell_angle_gamma 90.000000
_cell_volume 1309.720350
_symmetry_space_group_name_H-M "P 2/M"
_symmetry_group_IT_number 10
_symmetry_cell_setting 'monoclinic'
loop_
_space_group_symop_operation_xyz
x,y,z
-x,y,-z
-x,-y,-z
x,-y,z
loop_
_atom_site_type_symbol
_atom_site_label
_atom_site_fract_x
_atom_site_fract_y
_atom_site_fract_z
Si Si1 0.331333 0.686623 0.913275
Si Si2 0.968206 0.000000 0.443996
Si Si3 0.247181 0.318106 0.655677
Si Si4 0.830211 0.190142 0.829916
Si Si5 0.422178 0.000000 0.431596
Si Si6 0.147404 0.194706 0.996165
Si Si7 0.228566 0.674860 0.400280
O O1 0.261160 0.500000 0.888082
O O2 0.543233 0.744745 0.933289
O O3 0.053992 0.783056 0.851866
O O4 0.500000 0.698621 0.000000
O O5 0.825158 0.835622 0.391251
O O6 0.000000 0.000000 0.500000
O O7 0.281257 0.000000 0.510645
O O8 0.213065 0.500000 0.629125
O O9 0.558050 0.292165 0.751133
O O10 0.034170 0.308130 0.638423
O O11 0.761116 0.000000 0.814279
O O12 0.967330 0.238271 0.909124
O O13 0.500000 0.000000 0.500000
O O14 0.260386 0.165431 0.381356
O O15 0.159810 0.000000 0.000795
O O16 0.000000 0.250652 0.000000
O O17 0.500000 0.669922 0.500000
O O18 0.215421 0.500000 0.375570
#
# Coordination Sequence:
#
# PCOD9141524 Si02
#       7
#     4   2   4   4   2   4   4
#     4   9  17  30  49  75 105 144 190 226 263 324
#     4  12  24  38  58  86 114 142 186 229 287 337
#     4  11  21  36  58  84 113 144 186 235 279 329
#     4  10  19  32  56  81 107 146 188 228 271 327
#     4  10  16  32  58  78 102 136 177 225 257 328
#     4   9  18  33  54  81 113 144 182 227 275 324
#     4   9  16  28  53  81 102 134 182 226 264 315
#
# _framework density 18.324522999999999
#
# number of rings (size 3 to 8) (size 9 to 14) (size 15 to 20)
#    0.000    2.167    4.167    1.000    0.000    3.333 
#    0.000    0.000    3.667    0.000    0.000    0.000 
#    0.000    0.000    0.000    0.000    0.000    0.000 
#
# Total GULP energy -133665.765289 kJ/mol
# GULP energy per Si atom -5569.406887 kJ/mol
# Density = 1.828282 g / cm^3
# Si number density = 18.324523 Si / 1000 Ang^3
#
#
#
# Elastic Constant Matrix: (Units=GPa)
#
#
# Indices 1 2 3 4 5 6 
#
# 1 119.4557 24.5499 38.4594 0.0000 16.0968 0.0000
# 2 24.5499 126.6675 41.3967 0.0000 1.4921 0.0000
# 3 38.4594 41.3967 50.4440 0.0000 21.0641 0.0000
# 4 0.0000 0.0000 0.0000 26.9254 0.0000 21.6207
# 5 16.0968 1.4921 21.0641 0.0000 20.7010 0.0000
# 6 0.0000 0.0000 0.0000 21.6207 0.0000 28.2294
#
#
#
# Elastic Compliance Matrix: (Units=1/GPa)
#
#
# Indices 1 2 3 4 5 6 
#
# 1 0.011178 0.001085 -0.009999 0.000000 0.001404 0.000000
# 2 0.001085 0.014044 -0.020131 0.000000 0.018628 0.000000
# 3 -0.009999 -0.020131 0.069754 0.000000 -0.061751 0.000000
# 4 0.000000 0.000000 0.000000 0.096467 0.000000 -0.073883
# 5 0.001404 0.018628 -0.061751 0.000000 0.108706 0.000000
# 6 0.000000 0.000000 0.000000 -0.073883 0.000000 0.092011
#
#
# Mechanical properties :
#
#
# Convention : Reuss Voigt Hill
#
# Bulk Modulus (GPa) = 27.11126 56.15326 41.63226
# Shear Modulus (GPa) = 10.80974 27.98191 19.39582
#
# Velocity S-wave (km/s) = 2.43143 3.91195 3.25693
# Velocity P-wave (km/s) = 4.76547 7.14946 6.07554
#
# Compressibility (1/GPa) = 0.03688505
#
# Stress axis : x y z
#
# Youngs Moduli (GPa) = 89.45762 71.20429 14.33615
#
# Poissons Ratio (x) = -0.07725 0.14335
# Poissons Ratio (y) = -0.09705 0.28860
# Poissons Ratio (z) = 0.89452 1.43342
#
# Static dielectric constant tensor:
#      x y z
#    x 1.558080 0.000000 0.069000 
#    y 0.000000 1.679260 0.000000 
#    z 0.069000 0.000000 1.544780 
# 
# From -- ./inp_files/80144.got.cif
#   From: 2010.05.17/outbox.cif.g08.bks.cpg/sg10_41_cif.got.tgz:80144.got - 2010.06.03 11:33:40.
