data_PCOD9141462
_publ_section_title
;
Structure prediction by ZEFSAII (Michael W. Deem and Ramdas Pophale) SiO2 
 PCOD9141462
Probable space group: P 2/M
;
_chemical_formula_sum "Si O2"
_cell_formula_units_Z 32
_cell_length_a 8.036470
_cell_length_b 13.744106
_cell_length_c 11.669810
_cell_angle_alpha 90.000000
_cell_angle_beta 85.344059
_cell_angle_gamma 90.000000
_cell_volume 1284.724810
_symmetry_space_group_name_H-M "P 2/M"
_symmetry_group_IT_number 10
_symmetry_cell_setting 'monoclinic'
loop_
_space_group_symop_operation_xyz
x,y,z
-x,y,-z
-x,-y,-z
x,-y,z
loop_
_atom_site_type_symbol
_atom_site_label
_atom_site_fract_x
_atom_site_fract_y
_atom_site_fract_z
Si Si1 0.639631 0.784311 0.125808
Si Si2 0.801330 0.387965 0.996714
Si Si3 0.185192 0.298417 0.235619
Si Si4 0.546566 0.110026 0.685765
Si Si5 0.843603 0.726651 0.324201
Si Si6 0.161539 0.887119 0.074348
Si Si7 0.224541 0.892052 0.534913
Si Si8 0.204070 0.612702 0.471265
O O1 0.478633 0.815241 0.208228
O O2 0.772569 0.783867 0.220553
O O3 0.672522 0.677572 0.075247
O O4 0.688546 0.856285 0.020556
O O5 0.791546 0.500000 0.027716
O O6 0.749095 0.365965 0.869246
O O7 0.000000 0.358118 0.000000
O O8 0.155683 0.191925 0.177288
O O9 0.258107 0.324415 0.357079
O O10 0.994635 0.334793 0.267482
O O11 0.709304 0.118309 0.597714
O O12 0.392210 0.117478 0.604626
O O13 0.537142 0.000000 0.732976
O O14 0.896732 0.811511 0.408706
O O15 0.729886 0.660258 0.413417
O O16 0.171638 0.000000 0.110289
O O17 0.000000 0.877839 0.000000
O O18 0.159513 0.000000 0.556579
O O19 0.249719 0.500000 0.455537
O O20 0.000000 0.616493 0.500000
#
# Coordination Sequence:
#
# PCOD9141462 Si02
#       8
#     4   4   4   4   4   4   4   4
#     4  10  16  27  42  66  92 117 143 180 220 267
#     4  10  18  27  42  63  86 114 147 183 224 269
#     4  10  17  31  42  61  90 118 151 184 214 258
#     4   8  14  25  42  63  88 115 146 178 214 264
#     4  10  17  27  43  64  89 117 149 182 218 260
#     4  10  18  27  42  64  90 120 147 173 216 272
#     4   8  15  26  41  63  87 116 148 178 214 260
#     4   9  19  31  45  61  82 117 157 192 222 254
#
# _framework density 24.908058
#
# number of rings (size 3 to 8) (size 9 to 14) (size 15 to 20)
#    0.000    2.625    2.500    2.250    0.000    2.000 
#    0.000    0.625    0.000    3.000    0.000    7.000 
#    0.000   14.000    0.000    0.000    0.000    0.000 
#
# Total GULP energy -178487.280509 kJ/mol
# GULP energy per Si atom -5577.727516 kJ/mol
# Density = 2.485137 g / cm^3
# Si number density = 24.908058 Si / 1000 Ang^3
#
#
#
# Elastic Constant Matrix: (Units=GPa)
#
#
# Indices 1 2 3 4 5 6 
#
# 1 69.4682 -4.1855 15.8300 0.0000 11.8201 0.0000
# 2 -4.1855 169.9753 62.3511 0.0000 -12.4896 0.0000
# 3 15.8300 62.3511 178.9766 0.0000 -3.8062 0.0000
# 4 0.0000 0.0000 0.0000 -43.7229 0.0000 36.6647
# 5 11.8201 -12.4896 -3.8062 0.0000 29.9572 0.0000
# 6 0.0000 0.0000 0.0000 36.6647 0.0000 -50.4686
#
#
#
# Elastic Compliance Matrix: (Units=1/GPa)
#
#
# Indices 1 2 3 4 5 6 
#
# 1 0.015889 0.000569 -0.001736 0.000000 -0.006253 0.000000
# 2 0.000569 0.006961 -0.002425 0.000000 0.002370 0.000000
# 3 -0.001736 -0.002425 0.006597 0.000000 0.000512 0.000000
# 4 0.000000 0.000000 0.000000 -0.058526 0.000000 -0.042518
# 5 -0.006253 0.002370 0.000512 0.000000 0.036901 0.000000
# 6 0.000000 0.000000 0.000000 -0.042518 0.000000 -0.050703
#
#
# Mechanical properties :
#
#
# Convention : Reuss Voigt Hill
#
# Bulk Modulus (GPa) = 44.92115 62.93459 53.92787
# Shear Modulus (GPa) = -176.82883 10.11477 -83.35703
#
# Velocity S-wave (km/s) = -8.43485 2.01734 -5.79125
# Velocity P-wave (km/s) = 8.76290 5.54507 4.79795
#
# Compressibility (1/GPa) = 0.02226123
#
# Stress axis : x y z
#
# Youngs Moduli (GPa) = 62.93676 143.66077 151.59370
#
# Poissons Ratio (x) = -0.08171 0.26324
# Poissons Ratio (y) = -0.03580 0.36760
# Poissons Ratio (z) = 0.10929 0.34836
#
# Static dielectric constant tensor:
#      x y z
#    x 2.198690 0.000000 0.097350 
#    y 0.000000 1.971000 0.000000 
#    z 0.097350 0.000000 2.016330 
# 
# From -- ./inp_files/51279.got.cif
#   From: 2010.05.17/outbox.cif.g08.bks.cpg/sg10_26_cif.got.tgz:51279.got - 2010.06.03 11:33:40.
