data_PCOD9141624
_publ_section_title
;
Structure prediction by ZEFSAII (Michael W. Deem and Ramdas Pophale) SiO2 
 PCOD9141624
Probable space group: P 2/M
;
_chemical_formula_sum "Si O2"
_cell_formula_units_Z 32
_cell_length_a 23.207302
_cell_length_b 7.235802
_cell_length_c 10.984643
_cell_angle_alpha 90.000000
_cell_angle_beta 126.875231
_cell_angle_gamma 90.000000
_cell_volume 1475.560224
_symmetry_space_group_name_H-M "P 2/M"
_symmetry_group_IT_number 10
_symmetry_cell_setting 'monoclinic'
loop_
_space_group_symop_operation_xyz
x,y,z
-x,y,-z
-x,-y,-z
x,-y,z
loop_
_atom_site_type_symbol
_atom_site_label
_atom_site_fract_x
_atom_site_fract_y
_atom_site_fract_z
Si Si1 0.808564 0.725429 0.037969
Si Si2 0.582992 0.274077 0.119188
Si Si3 0.202122 0.777648 0.612492
Si Si4 0.684073 0.291673 0.453677
Si Si5 0.041298 0.725947 0.674835
Si Si6 0.186426 0.726052 0.233094
Si Si7 0.689930 0.293502 0.046305
Si Si8 0.072621 0.290771 0.288556
O O1 0.805774 0.500000 0.037555
O O2 0.875955 0.784434 0.206827
O O3 0.728788 0.790367 0.977956
O O4 0.825657 0.776474 0.921060
O O5 0.588726 0.500000 0.127767
O O6 0.617664 0.211042 0.291749
O O7 0.630160 0.211581 0.061859
O O8 0.500000 0.224523 0.000000
O O9 0.255114 0.707315 0.574117
O O10 0.239135 0.700009 0.778418
O O11 0.124594 0.709759 0.473291
O O12 0.202757 0.000000 0.616555
O O13 0.663195 0.500000 0.463144
O O14 0.733370 0.210978 0.623410
O O15 0.039764 0.500000 0.673051
O O16 0.000000 0.785964 0.500000
O O17 0.999704 0.788052 0.745109
O O18 0.187580 0.500000 0.244499
O O19 0.122830 0.789143 0.244739
O O20 0.664203 0.500000 0.983247
O O21 0.056029 0.500000 0.228955
#
# Coordination Sequence:
#
# PCOD9141624 Si02
#       8
#     4   4   4   4   4   4   4   4
#     4   9  16  25  40  62  83 105 139 178 208 239
#     4   8  13  22  40  65  86 106 134 164 198 244
#     4  10  17  25  41  63  84 107 138 173 207 244
#     4   8  14  26  43  62  85 110 135 166 203 242
#     4   9  16  24  37  59  83 105 134 174 214 248
#     4   8  14  24  39  60  82 106 139 174 204 235
#     4   9  16  27  43  60  82 111 138 167 205 244
#     4   9  16  27  42  59  82 109 136 169 210 248
#
# _framework density 21.686679999999999
#
# number of rings (size 3 to 8) (size 9 to 14) (size 15 to 20)
#    0.000    3.250    0.000    3.375    0.000    2.500 
#    0.000    2.500    0.000   13.125    0.000    8.750 
#    0.000    0.000    0.000   22.500    0.000   25.000 
#
# Total GULP energy -178155.677641 kJ/mol
# GULP energy per Si atom -5567.364926 kJ/mol
# Density = 2.163732 g / cm^3
# Si number density = 21.686680 Si / 1000 Ang^3
#
#
#
# Elastic Constant Matrix: (Units=GPa)
#
#
# Indices 1 2 3 4 5 6 
#
# 1 141.8176 0.7872 58.7225 0.0000 9.6280 0.0000
# 2 0.7872 116.2417 -2.0328 0.0000 -2.0195 0.0000
# 3 58.7225 -2.0328 91.6235 0.0000 7.6073 0.0000
# 4 0.0000 0.0000 0.0000 -58.0638 0.0000 12.3561
# 5 9.6280 -2.0195 7.6073 0.0000 33.1811 0.0000
# 6 0.0000 0.0000 0.0000 12.3561 0.0000 -57.6913
#
#
#
# Elastic Compliance Matrix: (Units=1/GPa)
#
#
# Indices 1 2 3 4 5 6 
#
# 1 0.009667 -0.000197 -0.006082 0.000000 -0.001423 0.000000
# 2 -0.000197 0.008618 0.000274 0.000000 0.000519 0.000000
# 3 -0.006082 0.000274 0.014955 0.000000 -0.001647 0.000000
# 4 0.000000 0.000000 0.000000 -0.018045 0.000000 -0.003865
# 5 -0.001423 0.000519 -0.001647 0.000000 0.030960 0.000000
# 6 0.000000 0.000000 0.000000 -0.003865 0.000000 -0.018161
#
#
# Mechanical properties :
#
#
# Convention : Reuss Voigt Hill
#
# Bulk Modulus (GPa) = 47.10032 51.62627 49.36330
# Shear Modulus (GPa) = 106.20135 2.96561 54.58348
#
# Velocity S-wave (km/s) = 7.00550 1.17066 5.02233
# Velocity P-wave (km/s) = 9.33819 5.06798 7.51286
#
# Compressibility (1/GPa) = 0.02123128
#
# Stress axis : x y z
#
# Youngs Moduli (GPa) = 103.43993 116.03757 66.86625
#
# Poissons Ratio (x) = 0.02281 0.40669
# Poissons Ratio (y) = 0.02033 -0.01833
# Poissons Ratio (z) = 0.62914 -0.03181
#
# Static dielectric constant tensor:
#      x y z
#    x 1.786930 0.000000 -0.031530 
#    y 0.000000 1.838420 0.000000 
#    z -0.031530 0.000000 1.838430 
# 
# From -- ./inp_files/56483.got.cif
#   From: 2010.05.17/outbox.cif.g08.bks.cpg/sg10_29_cif.got.tgz:56483.got - 2010.06.03 11:33:40.
