data_PCOD9141750
_publ_section_title
;
Structure prediction by ZEFSAII (Michael W. Deem and Ramdas Pophale) SiO2 
 PCOD9141750
Probable space group: P 2/M
;
_chemical_formula_sum "Si O2"
_cell_formula_units_Z 32
_cell_length_a 29.170918
_cell_length_b 7.328572
_cell_length_c 15.015853
_cell_angle_alpha 90.000000
_cell_angle_beta 28.952822
_cell_angle_gamma 90.000000
_cell_volume 1553.978238
_symmetry_space_group_name_H-M "P 2/M"
_symmetry_group_IT_number 10
_symmetry_cell_setting 'monoclinic'
loop_
_space_group_symop_operation_xyz
x,y,z
-x,y,-z
-x,-y,-z
x,-y,z
loop_
_atom_site_type_symbol
_atom_site_label
_atom_site_fract_x
_atom_site_fract_y
_atom_site_fract_z
Si Si1 0.412130 0.277254 0.767398
Si Si2 0.802966 0.276654 0.532590
Si Si3 0.622646 0.722040 0.377024
Si Si4 0.312665 0.719493 0.439645
Si Si5 0.520126 0.789797 0.064133
Si Si6 0.002800 0.722484 0.891214
Si Si7 0.203161 0.277910 0.799465
Si Si8 0.303298 0.294847 0.120523
O O1 0.412154 0.500000 0.771958
O O2 0.381212 0.226382 0.720281
O O3 0.522133 0.220866 0.590931
O O4 0.341301 0.210461 0.964335
O O5 0.801563 0.500000 0.537267
O O6 0.723807 0.220086 0.594864
O O7 0.773956 0.213635 0.680513
O O8 0.903558 0.220281 0.321026
O O9 0.622564 0.500000 0.380036
O O10 0.717126 0.783669 0.266483
O O11 0.314214 0.500000 0.436280
O O12 0.417831 0.781437 0.283620
O O13 0.239692 0.775576 0.639561
O O14 0.548823 0.000000 0.005581
O O15 0.500000 0.712369 0.000000
O O16 0.601743 0.695837 0.980671
O O17 0.005246 0.500000 0.888863
O O18 0.905603 0.779310 0.008436
O O19 0.000000 0.778808 0.000000
O O20 0.203008 0.500000 0.802785
O O21 0.270634 0.500000 0.154512
#
# Coordination Sequence:
#
# PCOD9141750 Si02
#       8
#     4   4   4   4   4   4   4   4
#     4   8  14  24  39  58  82 106 137 178 213 248
#     4   9  16  24  37  58  83 108 139 177 211 241
#     4   8  13  22  35  57  84 109 136 173 217 253
#     4  10  17  27  43  63  83 110 146 176 203 246
#     4  11  22  31  39  58  89 119 140 167 210 257
#     4   9  14  22  34  55  87 115 138 172 217 254
#     4   9  15  22  39  63  87 111 140 178 216 253
#     4  10  18  29  45  62  81 113 148 176 207 248
#
# _framework density 20.592309
#
# number of rings (size 3 to 8) (size 9 to 14) (size 15 to 20)
#    0.000    2.750    2.500    1.875    0.000    2.500 
#    0.000    0.000    0.000    0.750    0.000   14.875 
#    0.000    0.000    0.000    1.125    0.000    1.250 
#
# Total GULP energy -178595.347648 kJ/mol
# GULP energy per Si atom -5581.104614 kJ/mol
# Density = 2.054544 g / cm^3
# Si number density = 20.592309 Si / 1000 Ang^3
#
#
#
# Elastic Constant Matrix: (Units=GPa)
#
#
# Indices 1 2 3 4 5 6 
#
# 1 94.6177 2.8407 63.4360 0.0000 4.2913 0.0000
# 2 2.8407 82.0312 3.7369 0.0000 1.9597 0.0000
# 3 63.4360 3.7369 182.0141 0.0000 9.0000 0.0000
# 4 0.0000 0.0000 0.0000 10.8929 0.0000 -0.1458
# 5 4.2913 1.9597 9.0000 0.0000 35.4971 0.0000
# 6 0.0000 0.0000 0.0000 -0.1458 0.0000 -18.2869
#
#
#
# Elastic Compliance Matrix: (Units=1/GPa)
#
#
# Indices 1 2 3 4 5 6 
#
# 1 0.013804 -0.000250 -0.004784 0.000000 -0.000442 0.000000
# 2 -0.000250 0.012220 -0.000134 0.000000 -0.000611 0.000000
# 3 -0.004784 -0.000134 0.007226 0.000000 -0.001246 0.000000
# 4 0.000000 0.000000 0.000000 0.091793 0.000000 -0.000732
# 5 -0.000442 -0.000611 -0.001246 0.000000 0.028574 0.000000
# 6 0.000000 0.000000 0.000000 -0.000732 0.000000 -0.054678
#
#
# Mechanical properties :
#
#
# Convention : Reuss Voigt Hill
#
# Bulk Modulus (GPa) = 43.63966 55.41003 49.52484
# Shear Modulus (GPa) = 42.76745 24.86392 33.81569
#
# Velocity S-wave (km/s) = 4.56221 3.47859 4.05674
# Velocity P-wave (km/s) = 6.99928 6.56511 6.78567
#
# Compressibility (1/GPa) = 0.02291494
#
# Stress axis : x y z
#
# Youngs Moduli (GPa) = 72.44403 81.83436 138.39364
#
# Poissons Ratio (x) = 0.02042 0.66207
# Poissons Ratio (y) = 0.01808 0.01851
# Poissons Ratio (z) = 0.34657 0.01094
#
# Static dielectric constant tensor:
#      x y z
#    x 1.701770 0.000000 0.021870 
#    y 0.000000 1.782790 0.000000 
#    z 0.021870 0.000000 1.752700 
# 
# From -- ./inp_files/72555.got.cif
#   From: 2010.05.17/outbox.cif.g08.bks.cpg/sg10_37_cif.got.tgz:72555.got - 2010.06.03 11:33:40.
