data_PCOD9141251
_publ_section_title
;
Structure prediction by ZEFSAII (Michael W. Deem and Ramdas Pophale) SiO2 
 PCOD9141251
Probable space group: C C
;
_chemical_formula_sum "Si O2"
_cell_formula_units_Z 16
_cell_length_a 12.000000
_cell_length_b 9.000000
_cell_length_c 15.000000
_cell_angle_alpha 90.000000
_cell_angle_beta 110.000000
_cell_angle_gamma 90.000000
_cell_volume 1522.302046
_symmetry_space_group_name_H-M "C C"
_symmetry_group_IT_number 9
_symmetry_cell_setting 'monoclinic'
loop_
_space_group_symop_operation_xyz
x,y,z
x,-y,1/2+z
1/2+x,1/2+y,z
1/2+x,1/2-y,1/2+z
loop_
_atom_site_type_symbol
_atom_site_label
_atom_site_fract_x
_atom_site_fract_y
_atom_site_fract_z
Si Si1 0.867260 0.972791 0.209730
Si Si2 0.987739 0.267827 0.492921
Si Si3 0.142562 0.338628 0.710267
Si Si4 0.817715 0.763231 0.361254
Si Si5 0.607051 0.970574 0.373430
Si Si6 0.638868 0.517888 0.801516
Si Si7 0.054730 0.082463 0.978778
Si Si8 0.748682 0.787989 0.022775
O O1 0.856409 0.837333 0.277985
O O2 0.821278 0.898212 0.106979
O O3 0.771222 0.092213 0.219590
O O4 0.002747 0.032782 0.236332
O O5 0.064268 0.328028 0.598432
O O6 0.020530 0.367446 0.413091
O O7 0.849158 0.276893 0.483300
O O8 0.018139 0.089066 0.491688
O O9 0.081545 0.445038 0.770523
O O10 0.159344 0.171114 0.752751
O O11 0.715844 0.862256 0.379045
O O12 0.747722 0.603598 0.329228
O O13 0.940178 0.805501 0.449233
O O14 0.656160 0.106318 0.445939
O O15 0.611075 0.563229 0.895589
O O16 0.168132 0.166556 0.054235
#
# Coordination Sequence:
#
# PCOD9141251 Si02
#       8
#     4   4   4   4   4   4   4   4
#     4  10  24  43  66 100 147 186 236 303 366 434
#     4  12  25  47  72 101 156 195 242 310 371 440
#     4  11  24  45  70 108 146 192 249 301 371 442
#     4  10  23  45  70  99 139 190 241 300 366 438
#     4  11  23  46  71 103 145 195 248 301 366 439
#     4  11  22  45  67 100 142 187 238 299 369 432
#     4  11  25  43  69 103 140 191 246 300 368 441
#     4  12  24  44  69 106 147 190 242 308 361 446
#
# _framework density 10.510398
#
# number of rings (size 3 to 8) (size 9 to 14) (size 15 to 20)
#    0.000    1.000    6.250    0.000    1.750    1.000 
#    2.250    3.750    0.000    0.000    0.000    0.000 
#    0.000    0.000    0.000    0.000    0.000    0.000 
#
# Total GULP energy -89249.028886 kJ/mol
# GULP energy per Si atom -5578.064305 kJ/mol
# Density = 1.048648 g / cm^3
# Si number density = 10.510398 Si / 1000 Ang^3
#
#
#
# Elastic Constant Matrix: (Units=GPa)
#
#
# Indices 1 2 3 4 5 6 
#
# 1 152.7798 72.8270 21.4088 0.0000 2.6432 0.0000
# 2 72.8270 133.2771 17.9553 0.0000 4.4003 0.0000
# 3 21.4088 17.9553 63.2328 0.0000 -1.4432 0.0000
# 4 0.0000 0.0000 0.0000 37.1697 0.0000 -4.4937
# 5 2.6432 4.4003 -1.4432 0.0000 33.3595 0.0000
# 6 0.0000 0.0000 0.0000 -4.4937 0.0000 52.5305
#
#
#
# Elastic Compliance Matrix: (Units=1/GPa)
#
#
# Indices 1 2 3 4 5 6 
#
# 1 0.009028 -0.004695 -0.001727 0.000000 -0.000171 0.000000
# 2 -0.004695 0.010286 -0.001355 0.000000 -0.001043 0.000000
# 3 -0.001727 -0.001355 0.016808 0.000000 0.001043 0.000000
# 4 0.000000 0.000000 0.000000 0.027185 0.000000 0.002326
# 5 -0.000171 -0.001043 0.001043 0.000000 0.030173 0.000000
# 6 0.000000 0.000000 0.000000 0.002326 0.000000 0.019235
#
#
# Mechanical properties :
#
#
# Convention : Reuss Voigt Hill
#
# Bulk Modulus (GPa) = 48.62094 63.74131 56.18113
# Shear Modulus (GPa) = 37.00259 40.41852 38.71055
#
# Velocity S-wave (km/s) = 4.20013 4.38972 4.29597
# Velocity P-wave (km/s) = 6.83385 7.48877 7.16879
#
# Compressibility (1/GPa) = 0.02056727
#
# Stress axis : x y z
#
# Youngs Moduli (GPa) = 110.76122 97.22254 59.49554
#
# Poissons Ratio (x) = 0.45647 0.10278
# Poissons Ratio (y) = 0.52003 0.08061
# Poissons Ratio (z) = 0.19134 0.13172
#
# Static dielectric constant tensor:
#      x y z
#    x 1.770320 0.000000 0.030720 
#    y 0.000000 1.788510 0.000000 
#    z 0.030720 0.000000 1.846650 
# 
# From -- ./inp_files/24176.got.cif
#   From: 2010.05.17/outbox.ucp.g08.bks.cvg/sg9_13_cif.got.tgz:24176.got - 2010.06.11 13:03:20.
