data_PCOD9141408
_publ_section_title
;
Structure prediction by ZEFSAII (Michael W. Deem and Ramdas Pophale) SiO2 
 PCOD9141408
Probable space group: P 2/M
;
_chemical_formula_sum "Si O2"
_cell_formula_units_Z 32
_cell_length_a 15.275841
_cell_length_b 17.584008
_cell_length_c 21.402868
_cell_angle_alpha 90.000000
_cell_angle_beta 17.703008
_cell_angle_gamma 90.000000
_cell_volume 1748.184330
_symmetry_space_group_name_H-M "P 2/M"
_symmetry_group_IT_number 10
_symmetry_cell_setting 'monoclinic'
loop_
_space_group_symop_operation_xyz
x,y,z
-x,y,-z
-x,-y,-z
x,-y,z
loop_
_atom_site_type_symbol
_atom_site_label
_atom_site_fract_x
_atom_site_fract_y
_atom_site_fract_z
Si Si1 0.065442 0.412160 0.310825
Si Si2 0.691637 0.685994 0.744243
Si Si3 0.161550 0.590782 0.802157
Si Si4 0.571879 0.152847 0.046915
Si Si5 0.549830 0.411289 0.203830
Si Si6 0.274747 0.909001 0.356039
Si Si7 0.073022 0.090547 0.295926
Si Si8 0.796551 0.407991 0.374338
O O1 0.160796 0.500000 0.246437
O O2 0.736002 0.410209 0.560110
O O3 0.035088 0.380916 0.261207
O O4 0.244194 0.364843 0.238828
O O5 0.533257 0.761307 0.875243
O O6 0.515020 0.639543 0.812418
O O7 0.000000 0.703391 0.500000
O O8 0.180494 0.500000 0.801121
O O9 0.147481 0.604171 0.736612
O O10 0.474103 0.621664 0.608534
O O11 0.841667 0.613614 0.040910
O O12 0.550083 0.120908 0.131916
O O13 0.337142 0.106529 0.164538
O O14 0.860391 0.137331 0.811835
O O15 0.590719 0.500000 0.156898
O O16 0.000000 0.885478 0.500000
O O17 0.203110 0.884769 0.475262
O O18 0.279595 0.000000 0.352792
O O19 0.062298 0.000000 0.290633
O O20 0.792563 0.500000 0.384910
#
# Coordination Sequence:
#
# PCOD9141408 Si02
#       8
#     4   4   4   4   4   4   4   4
#     4   9  17  29  43  57  75 103 140 176 208 244
#     4  10  19  29  39  53  80 115 143 168 201 241
#     4   8  14  26  43  60  76  92 117 164 220 259
#     4  10  16  25  38  53  77 107 138 171 205 237
#     4   9  17  29  43  57  75 103 140 176 208 244
#     4   8  13  22  38  56  73  97 130 169 207 240
#     4   9  16  26  40  58  76  96 134 176 204 238
#     4   8  14  26  43  60  76  92 117 164 220 259
#
# _framework density 18.304707000000001
#
# number of rings (size 3 to 8) (size 9 to 14) (size 15 to 20)
#    0.000    3.125    0.000    4.500    0.000    2.000 
#    4.500    2.500    0.000    3.000    0.000    0.000 
#    0.000    0.000    0.000    0.000    0.000   16.250 
#
# Total GULP energy -178184.438055 kJ/mol
# GULP energy per Si atom -5568.263689 kJ/mol
# Density = 1.826304 g / cm^3
# Si number density = 18.304707 Si / 1000 Ang^3
#
#
#
# Elastic Constant Matrix: (Units=GPa)
#
#
# Indices 1 2 3 4 5 6 
#
# 1 62.9341 26.4528 21.7346 0.0000 13.9369 0.0000
# 2 26.4528 52.9319 18.8138 0.0000 8.6004 0.0000
# 3 21.7346 18.8138 78.4713 0.0000 17.9607 0.0000
# 4 0.0000 0.0000 0.0000 80.0469 0.0000 63.4774
# 5 13.9369 8.6004 17.9607 0.0000 32.2345 0.0000
# 6 0.0000 0.0000 0.0000 63.4774 0.0000 46.4955
#
#
#
# Elastic Compliance Matrix: (Units=1/GPa)
#
#
# Indices 1 2 3 4 5 6 
#
# 1 0.021839 -0.009086 -0.002595 0.000000 -0.005572 0.000000
# 2 -0.009086 0.024716 -0.003208 0.000000 -0.000878 0.000000
# 3 -0.002595 -0.003208 0.015793 0.000000 -0.006822 0.000000
# 4 0.000000 0.000000 0.000000 -0.151175 0.000000 0.206390
# 5 -0.005572 -0.000878 -0.006822 0.000000 0.037467 0.000000
# 6 0.000000 0.000000 0.000000 0.206390 0.000000 -0.260264
#
#
# Mechanical properties :
#
#
# Convention : Reuss Voigt Hill
#
# Bulk Modulus (GPa) = 30.70403 36.48220 33.59312
# Shear Modulus (GPa) = -18.45093 40.24444 10.89675
#
# Velocity S-wave (km/s) = -3.17833 4.69399 2.44252
# Velocity P-wave (km/s) = 1.82791 7.02509 5.13289
#
# Compressibility (1/GPa) = 0.03256901
#
# Stress axis : x y z
#
# Youngs Moduli (GPa) = 45.78959 40.45953 63.32017
#
# Poissons Ratio (x) = 0.36763 0.16432
# Poissons Ratio (y) = 0.41606 0.20313
# Poissons Ratio (z) = 0.11883 0.12980
#
# Static dielectric constant tensor:
#      x y z
#    x 1.659860 0.000000 0.071970 
#    y 0.000000 1.610370 0.000000 
#    z 0.071970 0.000000 1.742280 
# 
# From -- ./inp_files/85478.got.cif
#   From: 2010.05.17/outbox.cif.g08.bks.cpg/sg10_43_cif.got.tgz:85478.got - 2010.06.03 11:33:40.
