data_PCOD9141299
_publ_section_title
;
Structure prediction by ZEFSAII (Michael W. Deem and Ramdas Pophale) SiO2 
 PCOD9141299
Probable space group: P 2/M
;
_chemical_formula_sum "Si O2"
_cell_formula_units_Z 28
_cell_length_a 5.428908
_cell_length_b 33.450981
_cell_length_c 6.911514
_cell_angle_alpha 90.000000
_cell_angle_beta 100.049882
_cell_angle_gamma 90.000000
_cell_volume 1235.888107
_symmetry_space_group_name_H-M "P 2/M"
_symmetry_group_IT_number 10
_symmetry_cell_setting 'monoclinic'
loop_
_space_group_symop_operation_xyz
x,y,z
-x,y,-z
-x,-y,-z
x,-y,z
loop_
_atom_site_type_symbol
_atom_site_label
_atom_site_fract_x
_atom_site_fract_y
_atom_site_fract_z
Si Si1 0.916155 0.128825 0.273734
Si Si2 0.278532 0.245994 0.129031
Si Si3 0.221913 0.955946 0.870845
Si Si4 0.278368 0.334395 0.131184
Si Si5 0.794915 0.452964 0.201753
Si Si6 0.694459 0.420363 0.755565
Si Si7 0.416023 0.838768 0.273719
O O1 0.830635 0.082904 0.263532
O O2 0.670940 0.154660 0.188230
O O3 0.000000 0.141537 0.500000
O O4 0.170981 0.135379 0.188127
O O5 0.294250 0.290135 0.224531
O O6 0.329537 0.207116 0.263424
O O7 0.500000 0.245531 0.000000
O O8 0.000000 0.242372 0.000000
O O9 0.786505 0.000000 0.225784
O O10 0.500000 0.951980 0.000000
O O11 0.000000 0.955725 0.000000
O O12 0.303607 0.372872 0.270111
O O13 0.500000 0.337298 0.000000
O O14 0.000000 0.336965 0.000000
O O15 0.773380 0.500000 0.161216
O O16 0.577338 0.438409 0.311893
O O17 0.071533 0.442217 0.305252
O O18 0.746986 0.429655 0.992811
O O19 0.500000 0.851456 0.500000
#
# Coordination Sequence:
#
# PCOD9141299 Si02
#       7
#     4   4   4   4   4   4   4
#     4  10  21  36  56  77 101 135 171 205 245 298
#     4  10  21  32  50  73  96 121 163 207 237 293
#     4  10  21  36  54  80 110 140 171 207 249 293
#     4  10  16  27  38  54  77 107 141 184 226 271
#     4  10  16  20  29  45  65  96 142 175 206 262
#     4  10  14  22  31  42  65  97 131 175 213 254
#     4  10  21  37  53  75 104 132 164 205 257 298
#
# _framework density 22.655774000000001
#
# number of rings (size 3 to 8) (size 9 to 14) (size 15 to 20)
#    0.000    2.000    2.857    3.857    0.000    3.714 
#    0.000    0.000    0.000    5.143    0.000    0.000 
#    0.000    0.000    0.000    0.000    0.000    7.857 
#
# Total GULP energy -156311.307856 kJ/mol
# GULP energy per Si atom -5582.546709 kJ/mol
# Density = 2.260421 g / cm^3
# Si number density = 22.655774 Si / 1000 Ang^3
#
#
#
# Elastic Constant Matrix: (Units=GPa)
#
#
# Indices 1 2 3 4 5 6 
#
# 1 213.8774 36.2014 31.1356 0.0000 31.6959 0.0000
# 2 36.2014 166.6037 1.5973 0.0000 26.6549 0.0000
# 3 31.1356 1.5973 45.3033 0.0000 14.6704 0.0000
# 4 0.0000 0.0000 0.0000 -32.5442 0.0000 2.4785
# 5 31.6959 26.6549 14.6704 0.0000 34.7947 0.0000
# 6 0.0000 0.0000 0.0000 2.4785 0.0000 42.7623
#
#
#
# Elastic Compliance Matrix: (Units=1/GPa)
#
#
# Indices 1 2 3 4 5 6 
#
# 1 0.005712 -0.000647 -0.002754 0.000000 -0.003546 0.000000
# 2 -0.000647 0.007027 0.002026 0.000000 -0.005648 0.000000
# 3 -0.002754 0.002026 0.027314 0.000000 -0.010560 0.000000
# 4 0.000000 0.000000 0.000000 -0.030592 0.000000 0.001773
# 5 -0.003546 -0.005648 -0.010560 0.000000 0.040748 0.000000
# 6 0.000000 0.000000 0.000000 0.001773 0.000000 0.023282
#
#
# Mechanical properties :
#
#
# Convention : Reuss Voigt Hill
#
# Bulk Modulus (GPa) = 26.80846 62.62812 44.71829
# Shear Modulus (GPa) = 56.38445 32.79259 44.58852
#
# Velocity S-wave (km/s) = 4.99414 3.80863 4.44112
# Velocity P-wave (km/s) = 6.71669 6.85888 6.78816
#
# Compressibility (1/GPa) = 0.03730166
#
# Stress axis : x y z
#
# Youngs Moduli (GPa) = 175.08282 142.30647 36.61060
#
# Poissons Ratio (x) = 0.09213 0.10084
# Poissons Ratio (y) = 0.11335 -0.07417
# Poissons Ratio (z) = 0.48225 -0.28832
#
# Static dielectric constant tensor:
#      x y z
#    x 1.960130 0.000000 -0.019510 
#    y 0.000000 1.807700 0.000000 
#    z -0.019510 0.000000 1.832930 
# 
# From -- ./inp_files/15841.got.cif
#   From: 2010.05.17/outbox.cif.g08.bks.cpg/sg10_8_cif.got.tgz:15841.got - 2010.06.03 11:33:40.
