data_PCOD9141778
_publ_section_title
;
Structure prediction by ZEFSAII (Michael W. Deem and Ramdas Pophale) SiO2 
 PCOD9141778
Probable space group: P 2/M
;
_chemical_formula_sum "Si O2"
_cell_formula_units_Z 28
_cell_length_a 15.027453
_cell_length_b 15.148280
_cell_length_c 7.152679
_cell_angle_alpha 90.000000
_cell_angle_beta 122.101208
_cell_angle_gamma 90.000000
_cell_volume 1379.296435
_symmetry_space_group_name_H-M "P 2/M"
_symmetry_group_IT_number 10
_symmetry_cell_setting 'monoclinic'
loop_
_space_group_symop_operation_xyz
x,y,z
-x,y,-z
-x,-y,-z
x,-y,z
loop_
_atom_site_type_symbol
_atom_site_label
_atom_site_fract_x
_atom_site_fract_y
_atom_site_fract_z
Si Si1 0.086529 0.402682 0.320811
Si Si2 0.153530 0.597075 0.833381
Si Si3 0.352933 0.901036 0.497868
Si Si4 0.224756 0.217861 0.870414
Si Si5 0.582521 0.900736 0.865112
Si Si6 0.157663 0.216423 0.367398
Si Si7 0.034937 0.101200 0.759365
O O1 0.108762 0.500000 0.264441
O O2 0.128474 0.405094 0.582034
O O3 0.133840 0.316108 0.277236
O O4 0.960944 0.391780 0.200005
O O5 0.196236 0.500000 0.929935
O O6 0.223742 0.682990 0.948144
O O7 0.458067 0.882604 0.736277
O O8 0.390317 0.903827 0.325551
O O9 0.262487 0.829486 0.412469
O O10 0.314159 0.000000 0.504124
O O11 0.175021 0.223731 0.609686
O O12 0.143645 0.155283 0.892011
O O13 0.336852 0.171763 0.972938
O O14 0.603426 0.000000 0.961580
O O15 0.057881 0.152331 0.238804
O O16 0.000000 0.099042 0.500000
O O17 0.048579 0.000000 0.834141
#
# Coordination Sequence:
#
# PCOD9141778 Si02
#       7
#     4   4   4   4   4   4   4
#     4   8  13  23  41  66  95 123 150 180 217 265
#     4   8  13  23  41  66  95 123 150 180 217 265
#     4   9  19  35  50  63  85 120 157 190 227 270
#     4  10  17  27  46  71  94 118 150 186 224 266
#     4   9  19  35  50  63  85 120 157 190 227 270
#     4  10  17  27  46  71  94 118 150 186 224 266
#     4   9  16  24  36  62  98 123 137 169 224 271
#
# _framework density 20.300201999999999
#
# number of rings (size 3 to 8) (size 9 to 14) (size 15 to 20)
#    0.000    3.000    1.429    2.571    0.000    2.286 
#    0.000    2.143    0.000    4.286    0.000    8.000 
#    0.000    0.000    0.000    0.000    0.000    0.000 
#
# Total GULP energy -156356.917617 kJ/mol
# GULP energy per Si atom -5584.175629 kJ/mol
# Density = 2.025400 g / cm^3
# Si number density = 20.300202 Si / 1000 Ang^3
#
#
#
# Elastic Constant Matrix: (Units=GPa)
#
#
# Indices 1 2 3 4 5 6 
#
# 1 87.7640 72.7543 8.9034 0.0000 15.9960 0.0000
# 2 72.7543 222.7091 44.2572 0.0000 35.7379 0.0000
# 3 8.9034 44.2572 56.0288 0.0000 4.6024 0.0000
# 4 0.0000 0.0000 0.0000 13.5045 0.0000 10.4337
# 5 15.9960 35.7379 4.6024 0.0000 24.9661 0.0000
# 6 0.0000 0.0000 0.0000 10.4337 0.0000 16.7702
#
#
#
# Elastic Compliance Matrix: (Units=1/GPa)
#
#
# Indices 1 2 3 4 5 6 
#
# 1 0.016001 -0.005024 0.001703 0.000000 -0.003374 0.000000
# 2 -0.005024 0.008435 -0.005216 0.000000 -0.007893 0.000000
# 3 0.001703 -0.005216 0.021499 0.000000 0.002412 0.000000
# 4 0.000000 0.000000 0.000000 0.142592 0.000000 -0.088715
# 5 -0.003374 -0.007893 0.002412 0.000000 0.053070 0.000000
# 6 0.000000 0.000000 0.000000 -0.088715 0.000000 0.114825
#
#
# Mechanical properties :
#
#
# Convention : Reuss Voigt Hill
#
# Bulk Modulus (GPa) = 34.64843 68.70352 51.67598
# Shear Modulus (GPa) = 13.05087 27.08728 20.06908
#
# Velocity S-wave (km/s) = 2.53829 3.65682 3.14764
# Velocity P-wave (km/s) = 5.06908 7.19354 6.22264
#
# Compressibility (1/GPa) = 0.02886134
#
# Stress axis : x y z
#
# Youngs Moduli (GPa) = 62.49430 118.55936 46.51350
#
# Poissons Ratio (x) = 0.59568 -0.07922
# Poissons Ratio (y) = 0.31399 0.24260
# Poissons Ratio (z) = -0.10644 0.61837
#
# Static dielectric constant tensor:
#      x y z
#    x 1.735420 0.000000 -0.075040 
#    y 0.000000 1.734130 0.000000 
#    z -0.075040 0.000000 1.777540 
# 
# From -- ./inp_files/24640.got.cif
#   From: 2010.05.17/outbox.cif.g08.bks.cpg/sg10_13_cif.got.tgz:24640.got - 2010.06.03 11:33:40.
