data_PCOD9141853
_publ_section_title
;
Structure prediction by ZEFSAII (Michael W. Deem and Ramdas Pophale) SiO2 
 PCOD9141853
Probable space group: P 2/M
;
_chemical_formula_sum "Si O2"
_cell_formula_units_Z 28
_cell_length_a 13.867320
_cell_length_b 8.468035
_cell_length_c 14.935861
_cell_angle_alpha 90.000000
_cell_angle_beta 102.303646
_cell_angle_gamma 90.000000
_cell_volume 1713.618887
_symmetry_space_group_name_H-M "P 2/M"
_symmetry_group_IT_number 10
_symmetry_cell_setting 'monoclinic'
loop_
_space_group_symop_operation_xyz
x,y,z
-x,y,-z
-x,-y,-z
x,-y,z
loop_
_atom_site_type_symbol
_atom_site_label
_atom_site_fract_x
_atom_site_fract_y
_atom_site_fract_z
Si Si1 0.714910 0.314721 0.057478
Si Si2 0.414004 0.812979 0.118106
Si Si3 0.244352 0.313567 0.210093
Si Si4 0.363770 0.187964 0.785782
Si Si5 0.113143 0.188000 0.032806
Si Si6 0.366067 0.692258 0.396757
Si Si7 0.588975 0.690902 0.395522
O O1 0.697839 0.500000 0.043657
O O2 0.711792 0.267484 0.160516
O O3 0.627283 0.221934 0.988777
O O4 0.814772 0.267945 0.025462
O O5 0.341326 0.717115 0.168645
O O6 0.526188 0.766841 0.158351
O O7 0.403508 0.000000 0.134117
O O8 0.223779 0.500000 0.209194
O O9 0.157021 0.229433 0.139138
O O10 0.277712 0.255404 0.314708
O O11 0.360255 0.240702 0.682219
O O12 0.354180 0.000000 0.790141
O O13 0.119353 0.000000 0.021097
O O14 0.000000 0.238318 0.000000
O O15 0.366457 0.500000 0.394833
O O16 0.473438 0.740935 0.379262
O O17 0.363075 0.738856 0.500091
O O18 0.590171 0.500000 0.390827
#
# Coordination Sequence:
#
# PCOD9141853 Si02
#       7
#     4   4   4   4   4   4   4
#     4  11  22  33  49  69  90 121 160 198 234 281
#     4  10  19  30  43  63  95 130 160 194 232 274
#     4  10  17  28  49  73  96 124 161 199 235 276
#     4  11  21  31  43  65  97 131 163 196 234 275
#     4  10  21  37  54  72  96 123 150 189 243 293
#     4   8  15  27  45  68  94 127 163 201 236 268
#     4   9  16  29  46  64  93 131 169 199 228 270
#
# _framework density 16.339689
#
# number of rings (size 3 to 8) (size 9 to 14) (size 15 to 20)
#    0.000    2.143    1.429    6.000    0.000    4.571 
#    0.000    2.857    0.000    0.000    0.000    1.000 
#    0.000    8.000    0.000    0.000    0.000    0.000 
#
# Total GULP energy -156159.641957 kJ/mol
# GULP energy per Si atom -5577.130070 kJ/mol
# Density = 1.630250 g / cm^3
# Si number density = 16.339689 Si / 1000 Ang^3
#
#
#
# Elastic Constant Matrix: (Units=GPa)
#
#
# Indices 1 2 3 4 5 6 
#
# 1 56.4476 12.2896 43.8373 0.0000 9.5563 0.0000
# 2 12.2896 25.5262 3.8388 0.0000 0.2583 0.0000
# 3 43.8373 3.8388 121.9386 0.0000 -0.7033 0.0000
# 4 0.0000 0.0000 0.0000 171.9136 0.0000 9.1405
# 5 9.5563 0.2583 -0.7033 0.0000 18.7649 0.0000
# 6 0.0000 0.0000 0.0000 9.1405 0.0000 10.4044
#
#
#
# Elastic Compliance Matrix: (Units=1/GPa)
#
#
# Indices 1 2 3 4 5 6 
#
# 1 0.032259 -0.013669 -0.011263 0.000000 -0.016662 0.000000
# 2 -0.013669 0.045160 0.003530 0.000000 0.006472 0.000000
# 3 -0.011263 0.003530 0.012174 0.000000 0.006144 0.000000
# 4 0.000000 0.000000 0.000000 0.006102 0.000000 -0.005361
# 5 -0.016662 0.006472 0.006144 0.000000 0.061918 0.000000
# 6 0.000000 0.000000 0.000000 -0.005361 0.000000 0.100823
#
#
# Mechanical properties :
#
#
# Convention : Reuss Voigt Hill
#
# Bulk Modulus (GPa) = 21.37258 35.98264 28.67761
# Shear Modulus (GPa) = 15.78100 49.81304 32.79702
#
# Velocity S-wave (km/s) = 3.11112 5.52740 4.48504
# Velocity P-wave (km/s) = 5.10039 7.92500 6.66406
#
# Compressibility (1/GPa) = 0.04678893
#
# Stress axis : x y z
#
# Youngs Moduli (GPa) = 30.99885 22.14351 82.14035
#
# Poissons Ratio (x) = 0.30268 0.92515
# Poissons Ratio (y) = 0.42372 -0.28992
# Poissons Ratio (z) = 0.34914 -0.07816
#
# Static dielectric constant tensor:
#      x y z
#    x 1.523050 0.000000 0.005040 
#    y 0.000000 1.547280 0.000000 
#    z 0.005040 0.000000 1.588260 
# 
# From -- ./inp_files/65797.got.cif
#   From: 2010.05.17/outbox.cif.g08.bks.cpg/sg10_33_cif.got.tgz:65797.got - 2010.06.03 11:33:40.
