data_PCOD9141256
_publ_section_title
;
Structure prediction by ZEFSAII (Michael W. Deem and Ramdas Pophale) SiO2 
 PCOD9141256
Probable space group: C C
;
_chemical_formula_sum "Si O2"
_cell_formula_units_Z 16
_cell_length_a 9.000000
_cell_length_b 21.000000
_cell_length_c 15.000000
_cell_angle_alpha 90.000000
_cell_angle_beta 150.000000
_cell_angle_gamma 90.000000
_cell_volume 1417.500000
_symmetry_space_group_name_H-M "C C"
_symmetry_group_IT_number 9
_symmetry_cell_setting 'monoclinic'
loop_
_space_group_symop_operation_xyz
x,y,z
x,-y,1/2+z
1/2+x,1/2+y,z
1/2+x,1/2-y,1/2+z
loop_
_atom_site_type_symbol
_atom_site_label
_atom_site_fract_x
_atom_site_fract_y
_atom_site_fract_z
Si Si1 0.648960 0.186583 0.019700
Si Si2 0.394070 0.818736 0.188910
Si Si3 0.473156 0.969716 0.828849
Si Si4 0.499342 0.706175 0.738338
Si Si5 0.808529 0.098164 0.776992
Si Si6 0.247063 0.664601 0.415825
Si Si7 0.786998 0.503771 0.539810
Si Si8 0.942514 0.052482 0.188509
O O1 0.868078 0.246351 0.141248
O O2 0.807348 0.121969 0.126289
O O3 0.517441 0.182515 0.852595
O O4 0.355003 0.194646 0.926783
O O5 0.626150 0.861733 0.256043
O O6 0.044283 0.839710 0.008061
O O7 0.626192 0.906552 0.867778
O O8 0.341647 0.010352 0.676240
O O9 0.211795 0.948281 0.758286
O O10 0.700572 0.007929 0.011526
O O11 0.345715 0.652006 0.719702
O O12 0.369401 0.691649 0.573426
O O13 0.499885 0.782758 0.757484
O O14 0.593390 0.035232 0.660956
O O15 0.138362 0.067754 0.962015
O O16 0.568542 0.534877 0.351618
#
# Coordination Sequence:
#
# PCOD9141256 Si02
#       8
#     4   4   4   4   4   4   4   4
#     4  10  24  47  74 106 147 196 247 314 380 450
#     4  10  24  46  73 107 149 192 247 313 379 454
#     4  12  28  49  76 108 153 202 254 317 379 459
#     4  10  24  46  73 107 149 192 247 313 379 454
#     4  12  28  46  76 110 152 194 258 310 378 468
#     4  10  24  47  74 106 147 196 247 314 380 450
#     4  12  28  48  72 114 146 206 254 310 384 458
#     4  12  28  49  76 108 153 202 254 317 379 459
#
# _framework density 11.287478
#
# number of rings (size 3 to 8) (size 9 to 14) (size 15 to 20)
#    0.000    1.000    0.000    4.500   15.750    1.000 
#    0.000    0.000    0.000    0.000    0.000    0.000 
#    0.000    0.000    0.000    0.000    0.000    0.000 
#
# Total GULP energy -89246.019628 kJ/mol
# GULP energy per Si atom -5577.876227 kJ/mol
# Density = 1.126179 g / cm^3
# Si number density = 11.287478 Si / 1000 Ang^3
#
#
#
# Elastic Constant Matrix: (Units=GPa)
#
#
# Indices 1 2 3 4 5 6 
#
# 1 84.3851 50.2855 24.4302 -0.0025 -3.2034 0.0015
# 2 50.2855 123.2276 29.1844 -0.0127 9.5221 0.0030
# 3 24.4302 29.1844 74.7388 -0.0198 -25.8401 0.0125
# 4 -0.0025 -0.0127 -0.0198 81.6818 -0.0098 -6.2985
# 5 -3.2034 9.5221 -25.8401 -0.0098 29.8990 0.0028
# 6 0.0015 0.0030 0.0125 -6.2985 0.0028 55.7463
#
#
#
# Elastic Compliance Matrix: (Units=1/GPa)
#
#
# Indices 1 2 3 4 5 6 
#
# 1 0.016301 -0.006250 -0.002276 -0.000001 0.001770 0.000000
# 2 -0.006250 0.013093 -0.006764 -0.000001 -0.010685 0.000001
# 3 -0.002276 -0.006764 0.024851 0.000007 0.023388 -0.000006
# 4 -0.000001 -0.000001 0.000007 0.012350 0.000010 0.001395
# 5 0.001770 -0.010685 0.023388 0.000010 0.057252 -0.000006
# 6 0.000000 0.000001 -0.000006 0.001395 -0.000006 0.018096
#
#
# Mechanical properties :
#
#
# Convention : Reuss Voigt Hill
#
# Bulk Modulus (GPa) = 42.25538 54.46132 48.35835
# Shear Modulus (GPa) = 27.71453 45.36219 36.53836
#
# Velocity S-wave (km/s) = 3.50761 4.48750 4.02747
# Velocity P-wave (km/s) = 5.92983 7.14334 6.56468
#
# Compressibility (1/GPa) = 0.02366562
#
# Stress axis : x y z
#
# Youngs Moduli (GPa) = 61.34713 76.37706 40.23920
#
# Poissons Ratio (x) = 0.47732 0.09159
# Poissons Ratio (y) = 0.38339 0.27218
# Poissons Ratio (z) = 0.13963 0.51662
#
# Static dielectric constant tensor:
#      x y z
#    x 1.890540 0.000000 0.024780 
#    y 0.000000 1.865620 0.000000 
#    z 0.024780 0.000000 1.837580 
# 
# From -- ./inp_files/23812.got.cif
#   From: 2010.05.17/outbox.ucp.g08.bks.cvg/sg9_12_cif.got.tgz:23812.got - 2010.06.11 13:03:20.
