data_PCOD9141887
_publ_section_title
;
Structure prediction by ZEFSAII (Michael W. Deem and Ramdas Pophale) SiO2 
 PCOD9141887
Probable space group: P 2/M
;
_chemical_formula_sum "Si O2"
_cell_formula_units_Z 32
_cell_length_a 26.318153
_cell_length_b 7.758891
_cell_length_c 17.450810
_cell_angle_alpha 90.000000
_cell_angle_beta 155.047714
_cell_angle_gamma 90.000000
_cell_volume 1503.288962
_symmetry_space_group_name_H-M "P 2/M"
_symmetry_group_IT_number 10
_symmetry_cell_setting 'monoclinic'
loop_
_space_group_symop_operation_xyz
x,y,z
-x,y,-z
-x,-y,-z
x,-y,z
loop_
_atom_site_type_symbol
_atom_site_label
_atom_site_fract_x
_atom_site_fract_y
_atom_site_fract_z
Si Si1 0.682551 0.207880 0.335784
Si Si2 0.891343 0.790190 0.738402
Si Si3 0.764883 0.799595 0.136874
Si Si4 0.492631 0.211296 0.773036
Si Si5 0.288374 0.790321 0.376673
Si Si6 0.077654 0.697493 0.787361
Si Si7 0.154178 0.795553 0.052392
Si Si8 0.176616 0.703563 0.612879
O O1 0.797272 0.263121 0.544118
O O2 0.567045 0.264080 0.227398
O O3 0.709901 0.269099 0.287806
O O4 0.680003 0.000000 0.330011
O O5 0.829223 0.743854 0.733583
O O6 0.024753 0.725911 0.904062
O O7 0.894758 0.000000 0.741626
O O8 0.853245 0.709724 0.198243
O O9 0.807319 0.785309 0.282292
O O10 0.763120 0.000000 0.111883
O O11 0.628671 0.730204 0.948077
O O12 0.404237 0.268393 0.583398
O O13 0.493717 0.000000 0.775248
O O14 0.297852 0.000000 0.390430
O O15 0.261450 0.730217 0.253589
O O16 0.059380 0.500000 0.784026
O O17 0.155403 0.772719 0.963113
O O18 0.944410 0.775746 0.593351
O O19 0.150890 0.000000 0.061596
O O20 0.159579 0.500000 0.601604
#
# Coordination Sequence:
#
# PCOD9141887 Si02
#       8
#     4   4   4   4   4   4   4   4
#     4   9  16  31  56  83 113 143 172 213 263 318
#     4   8  13  23  45  80 114 138 167 210 257 307
#     4  11  23  39  60  80 101 137 186 230 267 316
#     4   8  17  34  55  83 114 141 174 221 270 309
#     4   8  14  26  49  82 115 140 168 215 267 311
#     4  11  24  40  55  75 110 145 176 222 276 321
#     4  10  17  28  53  85 109 137 180 219 258 314
#     4  11  23  38  56  80 110 140 174 219 276 328
#
# _framework density 21.286659
#
# number of rings (size 3 to 8) (size 9 to 14) (size 15 to 20)
#    0.000    2.500    1.250    3.375    0.000    5.000 
#    0.000    4.375    0.000    9.750    0.000    0.000 
#    0.000    0.000    0.000    0.000    0.000    0.000 
#
# Total GULP energy -178543.879479 kJ/mol
# GULP energy per Si atom -5579.496234 kJ/mol
# Density = 2.123821 g / cm^3
# Si number density = 21.286659 Si / 1000 Ang^3
#
#
#
# Elastic Constant Matrix: (Units=GPa)
#
#
# Indices 1 2 3 4 5 6 
#
# 1 273.3710 -33.2356 47.1729 0.0000 -12.7313 0.0000
# 2 -33.2356 32.0581 0.8319 0.0000 4.1328 0.0000
# 3 47.1729 0.8319 51.1594 0.0000 -9.1237 0.0000
# 4 0.0000 0.0000 0.0000 -30.4969 0.0000 74.2359
# 5 -12.7313 4.1328 -9.1237 0.0000 33.3538 0.0000
# 6 0.0000 0.0000 0.0000 74.2359 0.0000 -158.5530
#
#
#
# Elastic Compliance Matrix: (Units=1/GPa)
#
#
# Indices 1 2 3 4 5 6 
#
# 1 0.005160 0.005480 -0.004854 0.000000 -0.000037 0.000000
# 2 0.005480 0.037600 -0.006437 0.000000 -0.004328 0.000000
# 3 -0.004854 -0.006437 0.025167 0.000000 0.005829 0.000000
# 4 0.000000 0.000000 0.000000 0.234688 0.000000 0.109883
# 5 -0.000037 -0.004328 0.005829 0.000000 0.032098 0.000000
# 6 0.000000 0.000000 0.000000 0.109883 0.000000 0.045141
#
#
# Mechanical properties :
#
#
# Convention : Reuss Voigt Hill
#
# Bulk Modulus (GPa) = 17.75983 42.90299 30.33141
# Shear Modulus (GPa) = 12.18789 -8.35128 1.91830
#
# Velocity S-wave (km/s) = 2.39542 -1.98287 0.95033
# Velocity P-wave (km/s) = 4.00150 3.86733 3.93499
#
# Compressibility (1/GPa) = 0.05630684
#
# Stress axis : x y z
#
# Youngs Moduli (GPa) = 193.79186 26.59568 39.73528
#
# Poissons Ratio (x) = -0.14576 0.19287
# Poissons Ratio (y) = -1.06207 0.25576
# Poissons Ratio (z) = 0.94063 0.17119
#
# Static dielectric constant tensor:
#      x y z
#    x 1.745170 0.000000 -0.016620 
#    y 0.000000 1.800660 0.000000 
#    z -0.016620 0.000000 1.790840 
# 
# From -- ./inp_files/71597.got.cif
#   From: 2010.05.17/outbox.cif.g08.bks.cpg/sg10_36_cif.got.tgz:71597.got - 2010.06.03 11:33:40.
