data_PCOD9141682
_publ_section_title
;
Structure prediction by ZEFSAII (Michael W. Deem and Ramdas Pophale) SiO2 
 PCOD9141682
Probable space group: P 2/M
;
_chemical_formula_sum "Si O2"
_cell_formula_units_Z 24
_cell_length_a 14.814063
_cell_length_b 8.583126
_cell_length_c 22.498588
_cell_angle_alpha 90.000000
_cell_angle_beta 31.677405
_cell_angle_gamma 90.000000
_cell_volume 1502.265874
_symmetry_space_group_name_H-M "P 2/M"
_symmetry_group_IT_number 10
_symmetry_cell_setting 'monoclinic'
loop_
_space_group_symop_operation_xyz
x,y,z
-x,y,-z
-x,-y,-z
x,-y,z
loop_
_atom_site_type_symbol
_atom_site_label
_atom_site_fract_x
_atom_site_fract_y
_atom_site_fract_z
Si Si1 0.085936 0.311547 0.246038
Si Si2 0.657440 0.186596 0.338275
Si Si3 0.232825 0.814446 0.039749
Si Si4 0.020902 0.189901 0.921002
Si Si5 0.705018 0.313398 0.444476
Si Si6 0.573041 0.318922 0.891345
O O1 0.093594 0.500000 0.241441
O O2 0.141598 0.256025 0.149262
O O3 0.232564 0.257754 0.210179
O O4 0.889558 0.264663 0.367196
O O5 0.799035 0.234060 0.210636
O O6 0.702203 0.262712 0.376799
O O7 0.463503 0.237589 0.432376
O O8 0.663936 0.000000 0.341847
O O9 0.132069 0.760707 0.037532
O O10 0.217027 0.000000 0.052608
O O11 0.433007 0.768775 0.930516
O O12 0.017898 0.000000 0.924219
O O13 0.000000 0.245960 0.000000
O O14 0.690477 0.500000 0.455657
O O15 0.576161 0.500000 0.871732
O O16 0.500000 0.312975 0.000000
#
# Coordination Sequence:
#
# PCOD9141682 Si02
#       6
#     4   4   4   4   4   4
#     4   9  17  28  42  60  87 120 143 164 211 268
#     4  10  18  29  44  63  86 114 147 180 215 257
#     4  10  17  26  42  63  85 111 144 183 215 247
#     4   9  18  31  45  62  87 119 150 179 217 259
#     4  10  18  28  44  64  89 117 142 174 216 261
#     4   8  15  27  40  57  84 116 142 167 210 266
#
# _framework density 15.975866999999999
#
# number of rings (size 3 to 8) (size 9 to 14) (size 15 to 20)
#    0.000    2.667    1.667    3.500    0.000    3.667 
#    0.000    0.000    0.000    8.000    0.000    1.167 
#    0.000    9.333    0.000    0.000    0.000    0.000 
#
# Total GULP energy -133657.095637 kJ/mol
# GULP energy per Si atom -5569.045652 kJ/mol
# Density = 1.593951 g / cm^3
# Si number density = 15.975867 Si / 1000 Ang^3
#
#
#
# Elastic Constant Matrix: (Units=GPa)
#
#
# Indices 1 2 3 4 5 6 
#
# 1 97.9966 11.7458 70.5038 0.0000 -24.8857 0.0000
# 2 11.7458 11.8919 11.0463 0.0000 -4.1594 0.0000
# 3 70.5038 11.0463 98.8055 0.0000 -25.7821 0.0000
# 4 0.0000 0.0000 0.0000 -13.5458 0.0000 -26.0231
# 5 -24.8857 -4.1594 -25.7821 0.0000 33.1458 0.0000
# 6 0.0000 0.0000 0.0000 -26.0231 0.0000 4.5654
#
#
#
# Elastic Compliance Matrix: (Units=1/GPa)
#
#
# Indices 1 2 3 4 5 6 
#
# 1 0.022269 -0.007461 -0.013723 0.000000 0.005109 0.000000
# 2 -0.007461 0.096882 -0.004763 0.000000 0.002850 0.000000
# 3 -0.013723 -0.004763 0.022084 0.000000 0.006276 0.000000
# 4 0.000000 0.000000 0.000000 -0.006177 0.000000 -0.035212
# 5 0.005109 0.002850 0.006276 0.000000 0.039245 0.000000
# 6 0.000000 0.000000 0.000000 -0.035212 0.000000 0.018329
#
#
# Mechanical properties :
#
#
# Convention : Reuss Voigt Hill
#
# Bulk Modulus (GPa) = 11.19328 43.92063 27.55695
# Shear Modulus (GPa) = 18.22773 12.52630 15.37701
#
# Velocity S-wave (km/s) = 3.38147 2.80317 3.10581
# Velocity P-wave (km/s) = 4.71883 6.16673 5.49072
#
# Compressibility (1/GPa) = 0.08933930
#
# Stress axis : x y z
#
# Youngs Moduli (GPa) = 44.90476 10.32180 45.28255
#
# Poissons Ratio (x) = 0.07701 0.62143
# Poissons Ratio (y) = 0.33505 0.21570
# Poissons Ratio (z) = 0.61624 0.04917
#
# Static dielectric constant tensor:
#      x y z
#    x 1.539900 0.000000 -0.050550 
#    y 0.000000 1.543370 0.000000 
#    z -0.050550 0.000000 1.548920 
# 
# From -- ./inp_files/56322.got.cif
#   From: 2010.05.17/outbox.cif.g08.bks.cpg/sg10_29_cif.got.tgz:56322.got - 2010.06.03 11:33:40.
