data_PCOD9141631
_publ_section_title
;
Structure prediction by ZEFSAII (Michael W. Deem and Ramdas Pophale) SiO2 
 PCOD9141631
Probable space group: P 2/M
;
_chemical_formula_sum "Si O2"
_cell_formula_units_Z 32
_cell_length_a 18.274056
_cell_length_b 7.440867
_cell_length_c 24.753431
_cell_angle_alpha 90.000000
_cell_angle_beta 31.258949
_cell_angle_gamma 90.000000
_cell_volume 1746.558925
_symmetry_space_group_name_H-M "P 2/M"
_symmetry_group_IT_number 10
_symmetry_cell_setting 'monoclinic'
loop_
_space_group_symop_operation_xyz
x,y,z
-x,y,-z
-x,-y,-z
x,-y,z
loop_
_atom_site_type_symbol
_atom_site_label
_atom_site_fract_x
_atom_site_fract_y
_atom_site_fract_z
Si Si1 0.951575 0.719760 0.141683
Si Si2 0.677994 0.719512 0.245876
Si Si3 0.167314 0.215756 0.174591
Si Si4 0.259786 0.286530 0.912188
Si Si5 0.559502 0.280522 0.521253
Si Si6 0.612643 0.216368 0.054531
Si Si7 0.382588 0.791986 0.122029
Si Si8 0.874984 0.713888 0.310255
O O1 0.954933 0.500000 0.140393
O O2 0.823226 0.771427 0.183868
O O3 0.919848 0.781993 0.222633
O O4 0.103580 0.783305 0.025215
O O5 0.674251 0.500000 0.248618
O O6 0.681645 0.781711 0.181688
O O7 0.545891 0.779727 0.365213
O O8 0.244561 0.285577 0.179925
O O9 0.004006 0.254673 0.269224
O O10 0.182928 0.000000 0.165768
O O11 0.257309 0.280166 0.065536
O O12 0.243251 0.500000 0.915677
O O13 0.357728 0.258914 0.902346
O O14 0.500000 0.228367 0.500000
O O15 0.558172 0.500000 0.523035
O O16 0.721069 0.219166 0.424356
O O17 0.467119 0.285136 0.119698
O O18 0.609764 0.000000 0.051504
O O19 0.350598 0.000000 0.155424
O O20 0.500000 0.791431 0.000000
O O21 0.860103 0.500000 0.313669
#
# Coordination Sequence:
#
# PCOD9141631 Si02
#       8
#     4   4   4   4   4   4   4   4
#     4   9  15  24  38  59  85 110 137 170 205 239
#     4   9  16  26  40  59  82 113 148 175 201 239
#     4   9  16  27  43  62  85 111 138 166 202 252
#     4  10  18  26  40  63  89 111 136 172 210 246
#     4   9  15  25  41  61  82 107 144 182 207 233
#     4   9  16  27  43  61  84 113 140 164 198 248
#     4   7  12  24  41  59  79 108 141 165 190 241
#     4  10  17  25  42  65  86 107 136 177 213 238
#
# _framework density 18.321739000000001
#
# number of rings (size 3 to 8) (size 9 to 14) (size 15 to 20)
#    0.000    3.000    2.500    1.875    0.000    1.500 
#    0.000    0.625    0.000    5.625    0.000    0.875 
#    0.000    7.000    0.000    0.000    0.000    0.000 
#
# Total GULP energy -178383.223729 kJ/mol
# GULP energy per Si atom -5574.475742 kJ/mol
# Density = 1.828004 g / cm^3
# Si number density = 18.321739 Si / 1000 Ang^3
#
#
#
# Elastic Constant Matrix: (Units=GPa)
#
#
# Indices 1 2 3 4 5 6 
#
# 1 174.1574 -1.3096 112.0965 0.0000 -18.0238 0.0000
# 2 -1.3096 54.6423 8.0792 0.0000 2.3982 0.0000
# 3 112.0965 8.0792 129.8689 0.0000 0.0523 0.0000
# 4 0.0000 0.0000 0.0000 0.7492 0.0000 -4.4117
# 5 -18.0238 2.3982 0.0523 0.0000 24.0546 0.0000
# 6 0.0000 0.0000 0.0000 -4.4117 0.0000 16.3753
#
#
#
# Elastic Compliance Matrix: (Units=1/GPa)
#
#
# Indices 1 2 3 4 5 6 
#
# 1 0.015861 0.001908 -0.013814 0.000000 0.011724 0.000000
# 2 0.001908 0.018782 -0.002815 0.000000 -0.000437 0.000000
# 3 -0.013814 -0.002815 0.019803 0.000000 -0.010113 0.000000
# 4 0.000000 0.000000 0.000000 -2.276000 0.000000 -0.613180
# 5 0.011724 -0.000437 -0.010113 0.000000 0.050422 0.000000
# 6 0.000000 0.000000 0.000000 -0.613180 0.000000 -0.104130
#
#
# Mechanical properties :
#
#
# Convention : Reuss Voigt Hill
#
# Bulk Modulus (GPa) = 39.99410 66.26673 53.13041
# Shear Modulus (GPa) = -2.23465 24.22267 10.99401
#
# Velocity S-wave (km/s) = -1.10559 3.63998 2.45226
# Velocity P-wave (km/s) = 4.49960 7.34253 6.08930
#
# Compressibility (1/GPa) = 0.02500369
#
# Stress axis : x y z
#
# Youngs Moduli (GPa) = 63.04835 53.24254 50.49838
#
# Poissons Ratio (x) = -0.10159 0.69757
# Poissons Ratio (y) = -0.12030 0.14216
# Poissons Ratio (z) = 0.87093 0.14989
#
# Static dielectric constant tensor:
#      x y z
#    x 1.650380 0.000000 -0.016700 
#    y 0.000000 1.715710 0.000000 
#    z -0.016700 0.000000 1.608120 
# 
# From -- ./inp_files/53357.got.cif
#   From: 2010.05.17/outbox.cif.g08.bks.cpg/sg10_27_cif.got.tgz:53357.got - 2010.06.03 11:33:40.
