data_PCOD9141173
_publ_section_title
;
Structure prediction by ZEFSAII (Michael W. Deem and Ramdas Pophale) SiO2 
 PCOD9141173
Probable space group: C C
;
_chemical_formula_sum "Si O2"
_cell_formula_units_Z 24
_cell_length_a 12.241192
_cell_length_b 5.667461
_cell_length_c 28.925865
_cell_angle_alpha 90.000000
_cell_angle_beta 153.870900
_cell_angle_gamma 90.000000
_cell_volume 883.773947
_symmetry_space_group_name_H-M "C C"
_symmetry_group_IT_number 9
_symmetry_cell_setting 'monoclinic'
loop_
_space_group_symop_operation_xyz
x,y,z
x,-y,1/2+z
1/2+x,1/2+y,z
1/2+x,1/2-y,1/2+z
loop_
_atom_site_type_symbol
_atom_site_label
_atom_site_fract_x
_atom_site_fract_y
_atom_site_fract_z
Si Si1 0.059450 0.814732 0.527280
Si Si2 0.042251 0.114400 0.783564
Si Si3 0.213213 0.004114 0.948049
Si Si4 0.538656 0.531020 0.189534
Si Si5 0.636816 0.688472 0.631420
Si Si6 0.223330 0.556148 0.811925
O O1 0.283261 0.624703 0.600707
O O2 0.897351 0.708064 0.507777
O O3 0.875878 0.837393 0.413939
O O4 0.118057 0.067192 0.573433
O O5 0.164545 0.112134 0.879291
O O6 0.190773 0.039571 0.793768
O O7 0.023600 0.389558 0.762326
O O8 0.835904 0.905132 0.707426
O O9 0.954734 0.944364 0.872559
O O10 0.368146 0.189045 0.036119
O O11 0.653719 0.466969 0.184376
O O12 0.575970 0.809093 0.214181
#
# Coordination Sequence:
#
# PCOD9141173 Si02
#       6
#     4   4   4   4   4   4
#     4  12  28  52  86 123 173 229 295 369 442 535
#     4  12  28  53  83 128 174 228 288 371 445 527
#     4  12  27  52  82 126 166 235 293 364 451 527
#     4  12  29  49  86 131 166 232 298 368 441 531
#     4  12  29  52  88 126 177 227 300 370 446 529
#     4  12  29  54  87 124 178 231 300 366 449 533
#
# _framework density 27.156264
#
# number of rings (size 3 to 8) (size 9 to 14) (size 15 to 20)
#    0.000    0.000    6.667    1.000    4.667    6.667 
#    0.000    0.000    0.000    0.000    0.000    0.000 
#    0.000    0.000    0.000    0.000    0.000    0.000 
#
# Total GULP energy -66826.894862 kJ/mol
# GULP energy per Si atom -5568.907905 kJ/mol
# Density = 2.709446 g / cm^3
# Si number density = 27.156264 Si / 1000 Ang^3
#
#
#
# Elastic Constant Matrix: (Units=GPa)
#
#
# Indices 1 2 3 4 5 6 
#
# 1 184.1399 64.3199 63.4066 0.0003 6.9081 0.0025
# 2 64.3199 120.4111 89.0633 -0.0036 2.5322 0.0034
# 3 63.4066 89.0633 118.3613 -0.0012 -7.0423 0.0002
# 4 0.0003 -0.0036 -0.0012 33.7526 0.0011 -7.9768
# 5 6.9081 2.5322 -7.0423 0.0011 66.9610 -0.0024
# 6 0.0025 0.0034 0.0002 -7.9768 -0.0024 53.9162
#
#
#
# Elastic Compliance Matrix: (Units=1/GPa)
#
#
# Indices 1 2 3 4 5 6 
#
# 1 0.006946 -0.002032 -0.002244 0.000000 -0.000876 0.000000
# 2 -0.002032 0.019652 -0.013817 0.000001 -0.001987 -0.000001
# 3 -0.002244 -0.013817 0.020219 -0.000001 0.002880 0.000001
# 4 0.000000 0.000001 -0.000001 0.030701 0.000000 0.004542
# 5 -0.000876 -0.001987 0.002880 0.000000 0.015402 0.000001
# 6 0.000000 -0.000001 0.000001 0.004542 0.000001 0.019219
#
#
# Mechanical properties :
#
#
# Convention : Reuss Voigt Hill
#
# Bulk Modulus (GPa) = 94.06706 95.16577 94.61641
# Shear Modulus (GPa) = 32.92275 44.66746 38.79510
#
# Velocity S-wave (km/s) = 3.48565 4.06005 3.78377
# Velocity P-wave (km/s) = 7.13541 7.55636 7.34890
#
# Compressibility (1/GPa) = 0.01063071
#
# Stress axis : x y z
#
# Youngs Moduli (GPa) = 143.96715 50.88470 49.45768
#
# Poissons Ratio (x) = 0.10341 0.11098
# Poissons Ratio (y) = 0.29256 0.68337
# Poissons Ratio (z) = 0.32306 0.70309
#
# Static dielectric constant tensor:
#      x y z
#    x 2.050420 -0.000020 0.070200 
#    y -0.000020 3.100710 0.000010 
#    z 0.070200 0.000010 2.152120 
# 
# From -- ./inp_files/37241.got.cif
#   From: 2010.05.17/outbox.cif.g08.bks.cpg/sg9_19_cif.got.tgz:37241.got - 2010.06.03 20:04:27.
