data_PCOD9141963
_publ_section_title
;
Structure prediction by ZEFSAII (Michael W. Deem and Ramdas Pophale) SiO2 
 PCOD9141963
Probable space group: P 2/M
;
_chemical_formula_sum "Si O2"
_cell_formula_units_Z 28
_cell_length_a 12.421599
_cell_length_b 11.332717
_cell_length_c 14.146227
_cell_angle_alpha 90.000000
_cell_angle_beta 43.635886
_cell_angle_gamma 90.000000
_cell_volume 1374.191295
_symmetry_space_group_name_H-M "P 2/M"
_symmetry_group_IT_number 10
_symmetry_cell_setting 'monoclinic'
loop_
_space_group_symop_operation_xyz
x,y,z
-x,y,-z
-x,-y,-z
x,-y,z
loop_
_atom_site_type_symbol
_atom_site_label
_atom_site_fract_x
_atom_site_fract_y
_atom_site_fract_z
Si Si1 0.624223 0.367507 0.708393
Si Si2 0.274217 0.132785 0.669953
Si Si3 0.726473 0.000000 0.856787
Si Si4 0.743845 0.370066 0.009253
Si Si5 0.486664 0.000000 0.186397
Si Si6 0.062861 0.137376 0.067013
Si Si7 0.534223 0.811212 0.633354
Si Si8 0.312692 0.251820 0.139367
O O1 0.683402 0.500000 0.670280
O O2 0.631077 0.301494 0.605125
O O3 0.698041 0.293978 0.746917
O O4 0.437236 0.369776 0.845620
O O5 0.363133 0.130703 0.514220
O O6 0.370312 0.210884 0.684029
O O7 0.093698 0.161368 0.773393
O O8 0.282098 0.000000 0.706370
O O9 0.786260 0.134236 0.821753
O O10 0.662568 0.000000 0.787991
O O11 0.611282 0.000000 0.021635
O O12 0.809547 0.500000 0.993193
O O13 0.823579 0.249331 0.994656
O O14 0.737124 0.353459 0.900434
O O15 0.491311 0.890415 0.256369
O O16 0.114898 0.000000 0.052467
O O17 0.000000 0.136633 0.000000
O O18 0.500000 0.226243 0.000000
#
# Coordination Sequence:
#
# PCOD9141963 Si02
#       8
#     4   4   2   4   2   4   4   4
#     4  10  20  33  52  80 114 148 181 223 278 332
#     4  10  20  35  56  83 110 142 186 224 285 336
#     4  11  18  26  44  90 120 140 172 217 279 331
#     4  10  21  36  54  77 110 153 188 223 277 336
#     4  11  16  27  48  80 115 141 164 216 266 336
#     4  10  22  39  55  81 110 143 186 242 284 324
#     4  11  18  33  56  82 111 146 177 223 279 336
#     4  10  17  30  48  79 116 140 173 223 276 331
#
# _framework density 20.375622
#
# number of rings (size 3 to 8) (size 9 to 14) (size 15 to 20)
#    0.000    1.714    4.286    2.571    1.000    2.000 
#    2.571    2.857    0.000    0.857    0.000    5.000 
#    0.000    0.000    0.000    0.000    0.000    0.000 
#
# Total GULP energy -155917.004368 kJ/mol
# GULP energy per Si atom -5568.464442 kJ/mol
# Density = 2.032925 g / cm^3
# Si number density = 20.375622 Si / 1000 Ang^3
#
#
#
# Elastic Constant Matrix: (Units=GPa)
#
#
# Indices 1 2 3 4 5 6 
#
# 1 45.2529 20.8187 24.4062 0.0000 14.8892 0.0000
# 2 20.8187 123.4755 19.8655 0.0000 5.9200 0.0000
# 3 24.4062 19.8655 47.1886 0.0000 15.7689 0.0000
# 4 0.0000 0.0000 0.0000 15.2226 0.0000 0.5967
# 5 14.8892 5.9200 15.7689 0.0000 25.8928 0.0000
# 6 0.0000 0.0000 0.0000 0.5967 0.0000 23.3723
#
#
#
# Elastic Compliance Matrix: (Units=1/GPa)
#
#
# Indices 1 2 3 4 5 6 
#
# 1 0.033988 -0.003183 -0.012493 0.000000 -0.011208 0.000000
# 2 -0.003183 0.008987 -0.002589 0.000000 0.001352 0.000000
# 3 -0.012493 -0.002589 0.032825 0.000000 -0.012215 0.000000
# 4 0.000000 0.000000 0.000000 0.065758 0.000000 -0.001679
# 5 -0.011208 0.001352 -0.012215 0.000000 0.052195 0.000000
# 6 0.000000 0.000000 0.000000 -0.001679 0.000000 0.042829
#
#
# Mechanical properties :
#
#
# Convention : Reuss Voigt Hill
#
# Bulk Modulus (GPa) = 25.46545 38.45531 31.96038
# Shear Modulus (GPa) = 17.47013 22.95263 20.21138
#
# Velocity S-wave (km/s) = 2.93132 3.35994 3.15292
# Velocity P-wave (km/s) = 4.89714 5.82807 5.38277
#
# Compressibility (1/GPa) = 0.03926889
#
# Stress axis : x y z
#
# Youngs Moduli (GPa) = 29.42198 111.26976 30.46471
#
# Poissons Ratio (x) = 0.35420 0.38061
# Poissons Ratio (y) = 0.09366 0.07887
# Poissons Ratio (z) = 0.36758 0.28807
#
# Static dielectric constant tensor:
#      x y z
#    x 1.773470 0.000000 -0.028900 
#    y 0.000000 1.798330 0.000000 
#    z -0.028900 0.000000 1.744340 
# 
# From -- ./inp_files/67114.got.cif
#   From: 2010.05.17/outbox.cif.g08.bks.cpg/sg10_34_cif.got.tgz:67114.got - 2010.06.03 11:33:40.
