data_PCOD9141007
_publ_section_title
;
Structure prediction by ZEFSAII (Michael W. Deem and Ramdas Pophale) SiO2 
 PCOD9141007
Probable space group: C C
;
_chemical_formula_sum "Si O2"
_cell_formula_units_Z 24
_cell_length_a 23.634988
_cell_length_b 8.764947
_cell_length_c 8.721236
_cell_angle_alpha 90.000000
_cell_angle_beta 31.073628
_cell_angle_gamma 90.000000
_cell_volume 932.501468
_symmetry_space_group_name_H-M "C C"
_symmetry_group_IT_number 9
_symmetry_cell_setting 'monoclinic'
loop_
_space_group_symop_operation_xyz
x,y,z
x,-y,1/2+z
1/2+x,1/2+y,z
1/2+x,1/2-y,1/2+z
loop_
_atom_site_type_symbol
_atom_site_label
_atom_site_fract_x
_atom_site_fract_y
_atom_site_fract_z
Si Si1 0.717790 0.662021 0.250000
Si Si2 0.421571 0.040117 0.253955
Si Si3 0.835077 0.917314 0.830598
Si Si4 0.747737 0.233523 0.023715
Si Si5 0.542282 0.166647 0.715999
Si Si6 0.989088 0.995320 0.253919
O O1 0.718116 0.674006 0.435919
O O2 0.610414 0.571212 0.448165
O O3 0.828966 0.585801 0.925711
O O4 0.734913 0.824881 0.133076
O O5 0.342276 0.184432 0.403563
O O6 0.466339 0.954276 0.299882
O O7 0.530272 0.089032 0.908729
O O8 0.921070 0.956868 0.764249
O O9 0.918980 0.864707 0.503787
O O10 0.786741 0.070947 0.872423
O O11 0.652205 0.192499 0.364899
O O12 0.501546 0.342792 0.814703
#
# Coordination Sequence:
#
# PCOD9141007 Si02
#       6
#     4   4   4   4   4   4
#     4  12  27  49  82 115 158 216 264 331 409 481
#     4  12  24  50  79 111 159 204 265 332 389 480
#     4  12  25  50  76 115 157 203 268 326 394 479
#     4  12  27  51  75 117 164 205 268 334 401 479
#     4  12  27  49  77 119 154 207 271 329 398 484
#     4  12  26  51  79 111 160 207 264 332 401 477
#
# _framework density 25.737224999999999
#
# number of rings (size 3 to 8) (size 9 to 14) (size 15 to 20)
#    0.000    0.000    8.333    1.000    2.333    2.667 
#    3.000    0.000    0.000    0.000    0.000    0.000 
#    0.000    0.000    0.000    0.000    0.000    0.000 
#
# Total GULP energy -66937.187405 kJ/mol
# GULP energy per Si atom -5578.098950 kJ/mol
# Density = 2.567865 g / cm^3
# Si number density = 25.737225 Si / 1000 Ang^3
#
#
#
# Elastic Constant Matrix: (Units=GPa)
#
#
# Indices 1 2 3 4 5 6 
#
# 1 96.7369 43.8982 24.7923 0.0000 -15.3589 0.0000
# 2 43.8982 91.6054 19.7730 0.0000 0.1899 0.0000
# 3 24.7923 19.7730 134.5849 0.0000 -9.7672 0.0000
# 4 0.0000 0.0000 0.0000 49.3198 0.0000 -4.9067
# 5 -15.3589 0.1899 -9.7672 0.0000 21.4448 0.0000
# 6 0.0000 0.0000 0.0000 -4.9067 0.0000 32.7151
#
#
#
# Elastic Compliance Matrix: (Units=1/GPa)
#
#
# Indices 1 2 3 4 5 6 
#
# 1 0.015618 -0.007286 -0.001024 0.000000 0.010784 0.000000
# 2 -0.007286 0.014689 -0.001245 0.000000 -0.005915 0.000000
# 3 -0.001024 -0.001245 0.008014 0.000000 0.002928 0.000000
# 4 0.000000 0.000000 0.000000 0.020583 0.000000 0.003087
# 5 0.010784 -0.005915 0.002928 0.000000 0.055741 0.000000
# 6 0.000000 0.000000 0.000000 0.003087 0.000000 0.031030
#
#
# Mechanical properties :
#
#
# Convention : Reuss Voigt Hill
#
# Bulk Modulus (GPa) = 52.05257 55.53935 53.79596
# Shear Modulus (GPa) = 29.20755 36.32684 32.76720
#
# Velocity S-wave (km/s) = 3.37239 3.76100 3.57199
# Velocity P-wave (km/s) = 5.95252 6.36290 6.16113
#
# Compressibility (1/GPa) = 0.01921135
#
# Stress axis : x y z
#
# Youngs Moduli (GPa) = 64.02827 68.07905 124.77660
#
# Poissons Ratio (x) = 0.49600 0.12778
# Poissons Ratio (y) = 0.46649 0.15538
# Poissons Ratio (z) = 0.06557 0.08477
#
# Static dielectric constant tensor:
#      x y z
#    x 1.985650 0.000000 -0.007890 
#    y 0.000000 2.117650 0.000000 
#    z -0.007890 0.000000 2.141100 
# 
# From -- ./inp_files/6723.got.cif
#   From: 2010.05.17/outbox.cif.g08.bks.cpg/sg9_4_cif.got.tgz:6723.got - 2010.06.03 20:04:27.
