data_PCOD9141842
_publ_section_title
;
Structure prediction by ZEFSAII (Michael W. Deem and Ramdas Pophale) SiO2 
 PCOD9141842
Probable space group: P 2/M
;
_chemical_formula_sum "Si O2"
_cell_formula_units_Z 20
_cell_length_a 12.635869
_cell_length_b 7.736336
_cell_length_c 12.569575
_cell_angle_alpha 90.000000
_cell_angle_beta 61.956381
_cell_angle_gamma 90.000000
_cell_volume 1084.476137
_symmetry_space_group_name_H-M "P 2/M"
_symmetry_group_IT_number 10
_symmetry_cell_setting 'monoclinic'
loop_
_space_group_symop_operation_xyz
x,y,z
-x,y,-z
-x,-y,-z
x,-y,z
loop_
_atom_site_type_symbol
_atom_site_label
_atom_site_fract_x
_atom_site_fract_y
_atom_site_fract_z
Si Si1 0.510816 0.790931 0.166373
Si Si2 0.930016 0.198838 0.692283
Si Si3 0.306484 0.788739 0.096182
Si Si4 0.572471 0.296204 0.565471
Si Si5 0.828895 0.701107 0.514825
O O1 0.395037 0.736842 0.150933
O O2 0.499502 0.724331 0.290693
O O3 0.509846 0.000000 0.170109
O O4 0.627230 0.736777 0.043607
O O5 0.828364 0.271758 0.818693
O O6 0.868047 0.205847 0.604807
O O7 0.058051 0.287809 0.617735
O O8 0.953306 0.000000 0.708979
O O9 0.303681 0.000000 0.099303
O O10 0.500000 0.221470 0.500000
O O11 0.589742 0.500000 0.535472
O O12 0.706131 0.226276 0.524623
O O13 0.810988 0.500000 0.551984
#
# Coordination Sequence:
#
# PCOD9141842 Si02
#       5
#     4   4   4   4   4
#     4   9  16  30  49  70  94 121 156 190 233 281
#     4  10  17  28  48  71  96 122 148 185 236 286
#     4   8  15  27  47  72  98 121 143 189 242 281
#     4  10  21  35  48  65  95 130 161 196 232 268
#     4  10  19  30  44  66  95 124 156 192 231 272
#
# _framework density 18.442084000000001
#
# number of rings (size 3 to 8) (size 9 to 14) (size 15 to 20)
#    0.000    2.600    2.000    3.600    0.000    1.200 
#    0.000    4.000    0.000    1.200    0.000    8.400 
#    0.000    0.000    0.000    0.000    0.000    0.000 
#
# Total GULP energy -111486.701405 kJ/mol
# GULP energy per Si atom -5574.335070 kJ/mol
# Density = 1.840011 g / cm^3
# Si number density = 18.442084 Si / 1000 Ang^3
#
#
#
# Elastic Constant Matrix: (Units=GPa)
#
#
# Indices 1 2 3 4 5 6 
#
# 1 86.6149 -2.0495 64.0108 0.0000 -6.3643 0.0000
# 2 -2.0495 28.8790 -14.6284 0.0000 1.3860 0.0000
# 3 64.0108 -14.6284 112.3249 0.0000 -17.1485 0.0000
# 4 0.0000 0.0000 0.0000 17.1551 0.0000 -10.4945
# 5 -6.3643 1.3860 -17.1485 0.0000 32.6100 0.0000
# 6 0.0000 0.0000 0.0000 -10.4945 0.0000 5.7442
#
#
#
# Elastic Compliance Matrix: (Units=1/GPa)
#
#
# Indices 1 2 3 4 5 6 
#
# 1 0.020731 -0.004910 -0.012834 0.000000 -0.002494 0.000000
# 2 -0.004910 0.038269 0.008032 0.000000 0.001639 0.000000
# 3 -0.012834 0.008032 0.018297 0.000000 0.006776 0.000000
# 4 0.000000 0.000000 0.000000 -0.495536 0.000000 -0.905332
# 5 -0.002494 0.001639 0.006776 0.000000 0.033672 0.000000
# 6 0.000000 0.000000 0.000000 -0.905332 0.000000 -1.479929
#
#
# Mechanical properties :
#
#
# Convention : Reuss Voigt Hill
#
# Bulk Modulus (GPa) = 17.27935 35.83164 26.55549
# Shear Modulus (GPa) = -2.73855 23.13425 10.19785
#
# Velocity S-wave (km/s) = -1.21991 3.54563 2.35407
# Velocity P-wave (km/s) = 2.72133 6.01942 4.67114
#
# Compressibility (1/GPa) = 0.05787254
#
# Stress axis : x y z
#
# Youngs Moduli (GPa) = 48.23783 26.13096 54.65377
#
# Poissons Ratio (x) = 0.12830 0.70143
# Poissons Ratio (y) = 0.23685 -0.43899
# Poissons Ratio (z) = 0.61909 -0.20989
#
# Static dielectric constant tensor:
#      x y z
#    x 1.644350 0.000000 -0.037630 
#    y 0.000000 1.662170 0.000000 
#    z -0.037630 0.000000 1.646200 
# 
# From -- ./inp_files/44322.got.cif
#   From: 2010.05.17/outbox.cif.g08.bks.cpg/sg10_23_cif.got.tgz:44322.got - 2010.06.03 11:33:40.
