data_PCOD9141171
_publ_section_title
;
Structure prediction by ZEFSAII (Michael W. Deem and Ramdas Pophale) SiO2 
 PCOD9141171
Probable space group: C C
;
_chemical_formula_sum "Si O2"
_cell_formula_units_Z 16
_cell_length_a 7.996024
_cell_length_b 12.244270
_cell_length_c 9.813550
_cell_angle_alpha 90.000000
_cell_angle_beta 38.292680
_cell_angle_gamma 90.000000
_cell_volume 595.387538
_symmetry_space_group_name_H-M "C C"
_symmetry_group_IT_number 9
_symmetry_cell_setting 'monoclinic'
loop_
_space_group_symop_operation_xyz
x,y,z
x,-y,1/2+z
1/2+x,1/2+y,z
1/2+x,1/2-y,1/2+z
loop_
_atom_site_type_symbol
_atom_site_label
_atom_site_fract_x
_atom_site_fract_y
_atom_site_fract_z
Si Si1 0.149880 0.785912 0.555320
Si Si2 0.281776 0.805747 0.052393
Si Si3 0.505790 0.980294 0.302568
Si Si4 0.742399 0.098405 0.920351
O O1 0.453510 0.735713 0.315104
O O2 0.951039 0.749236 0.562802
O O3 0.230565 0.912635 0.492559
O O4 0.147743 0.720117 0.030819
O O5 0.051141 0.882858 0.260507
O O6 0.470286 0.893611 0.861141
O O7 0.617556 0.994558 0.078975
O O8 0.699164 0.924890 0.289626
#
# Coordination Sequence:
#
# PCOD9141171 Si02
#       4
#     4   4   4   4
#     4  12  28  53  83 122 173 226 286 358 432 518
#     4  12  27  52  81 118 175 220 285 358 424 519
#     4  12  31  50  86 121 170 230 282 356 443 505
#     4  12  28  53  84 123 168 222 293 350 433 516
#
# _framework density 26.873253999999999
#
# number of rings (size 3 to 8) (size 9 to 14) (size 15 to 20)
#    0.000    0.000    5.000    1.500   14.000    0.000 
#    0.000    0.000    0.000    0.000    0.000    0.000 
#    0.000    0.000    0.000    0.000    0.000    0.000 
#
# Total GULP energy -44607.611563 kJ/mol
# GULP energy per Si atom -5575.951445 kJ/mol
# Density = 2.681209 g / cm^3
# Si number density = 26.873254 Si / 1000 Ang^3
#
#
#
# Elastic Constant Matrix: (Units=GPa)
#
#
# Indices 1 2 3 4 5 6 
#
# 1 80.2448 42.5896 7.6429 -0.0053 -17.9306 0.0057
# 2 42.5896 134.8112 36.7629 -0.0029 -4.2082 0.0020
# 3 7.6429 36.7629 132.9219 -0.0127 -28.7739 0.0055
# 4 -0.0053 -0.0029 -0.0127 75.3028 0.0071 -17.9646
# 5 -17.9306 -4.2082 -28.7739 0.0071 24.1156 -0.0038
# 6 0.0057 0.0020 0.0055 -17.9646 -0.0038 33.1316
#
#
#
# Elastic Compliance Matrix: (Units=1/GPa)
#
#
# Indices 1 2 3 4 5 6 
#
# 1 0.020225 -0.007167 0.005128 0.000000 0.019906 -0.000002
# 2 -0.007167 0.010613 -0.004417 0.000000 -0.008746 0.000000
# 3 0.005128 -0.004417 0.012280 0.000001 0.017695 0.000000
# 4 0.000000 0.000000 0.000001 0.015253 -0.000003 0.008270
# 5 0.019906 -0.008746 0.017695 -0.000003 0.075854 0.000001
# 6 -0.000002 0.000000 0.000000 0.008270 0.000001 0.034667
#
#
# Mechanical properties :
#
#
# Convention : Reuss Voigt Hill
#
# Bulk Modulus (GPa) = 33.10296 57.99654 45.54975
# Shear Modulus (GPa) = 26.05905 43.90884 34.98394
#
# Velocity S-wave (km/s) = 3.11738 4.04657 3.61198
# Velocity P-wave (km/s) = 5.03014 6.59252 5.86360
#
# Compressibility (1/GPa) = 0.03020878
#
# Stress axis : x y z
#
# Youngs Moduli (GPa) = 49.44356 94.22179 81.43129
#
# Poissons Ratio (x) = 0.67525 -0.41761
# Poissons Ratio (y) = 0.35434 0.35965
# Poissons Ratio (z) = -0.25356 0.41614
#
# Static dielectric constant tensor:
#      x y z
#    x 2.021750 0.000000 0.088900 
#    y 0.000000 2.160930 0.000000 
#    z 0.088900 0.000000 2.440310 
# 
# From -- ./inp_files/4720.got.cif
#   From: 2010.05.17/outbox.cif.g08.bks.cpg/sg9_3_cif.got.tgz:4720.got - 2010.06.03 20:04:27.
