data_PCOD9141137
_publ_section_title
;
Structure prediction by ZEFSAII (Michael W. Deem and Ramdas Pophale) SiO2 
 PCOD9141137
Probable space group: C C
;
_chemical_formula_sum "Si O2"
_cell_formula_units_Z 28
_cell_length_a 6.964970
_cell_length_b 12.452625
_cell_length_c 13.110226
_cell_angle_alpha 90.000000
_cell_angle_beta 119.288391
_cell_angle_gamma 90.000000
_cell_volume 991.723698
_symmetry_space_group_name_H-M "C C"
_symmetry_group_IT_number 9
_symmetry_cell_setting 'monoclinic'
loop_
_space_group_symop_operation_xyz
x,y,z
x,-y,1/2+z
1/2+x,1/2+y,z
1/2+x,1/2-y,1/2+z
loop_
_atom_site_type_symbol
_atom_site_label
_atom_site_fract_x
_atom_site_fract_y
_atom_site_fract_z
Si Si1 0.100150 0.765112 0.876020
Si Si2 0.639254 0.554216 0.753658
Si Si3 0.066707 0.337255 0.035276
Si Si4 0.453951 0.603790 0.518717
Si Si5 0.258251 0.392081 0.689402
Si Si6 0.095006 0.441347 0.272338
Si Si7 0.231936 0.103859 0.011516
O O1 0.315035 0.839066 0.930836
O O2 0.903579 0.786914 0.745661
O O3 0.181736 0.646563 0.873762
O O4 0.996812 0.795327 0.956659
O O5 0.450180 0.464860 0.689742
O O6 0.867871 0.522142 0.762540
O O7 0.669363 0.597012 0.875238
O O8 0.203127 0.407193 0.989877
O O9 0.148939 0.213567 0.044133
O O10 0.084006 0.383328 0.156195
O O11 0.548311 0.643738 0.653814
O O12 0.603616 0.501596 0.523425
O O13 0.244005 0.454921 0.794465
O O14 0.002490 0.398890 0.589970
#
# Coordination Sequence:
#
# PCOD9141137 Si02
#       7
#     4   4   4   4   4   4   4
#     4  12  29  52  83 123 162 226 275 358 439 505
#     4  12  26  53  79 120 167 216 285 349 423 515
#     4  12  29  52  81 124 172 218 290 353 436 520
#     4  12  27  55  80 120 169 219 289 351 424 520
#     4  12  28  50  83 122 164 221 288 349 433 510
#     4  12  28  50  80 119 172 215 280 359 420 524
#     4  12  29  54  86 126 164 237 279 363 435 508
#
# _framework density 28.233671999999999
#
# number of rings (size 3 to 8) (size 9 to 14) (size 15 to 20)
#    0.000    0.000    5.714    1.714    4.000    4.571 
#    0.000    0.000    0.000    0.000    0.000    0.000 
#    0.000    0.000    0.000    0.000    0.000    0.000 
#
# Total GULP energy -78270.237494 kJ/mol
# GULP energy per Si atom -5590.731250 kJ/mol
# Density = 2.816941 g / cm^3
# Si number density = 28.233672 Si / 1000 Ang^3
#
#
#
# Elastic Constant Matrix: (Units=GPa)
#
#
# Indices 1 2 3 4 5 6 
#
# 1 220.7202 51.5310 54.8032 0.0000 7.4784 0.0000
# 2 51.5310 126.0914 31.4187 0.0000 -5.8352 0.0000
# 3 54.8032 31.4187 121.8905 0.0000 12.7549 0.0000
# 4 0.0000 0.0000 0.0000 33.0410 0.0000 3.8046
# 5 7.4784 -5.8352 12.7549 0.0000 70.2033 0.0000
# 6 0.0000 0.0000 0.0000 3.8046 0.0000 66.1640
#
#
#
# Elastic Compliance Matrix: (Units=1/GPa)
#
#
# Indices 1 2 3 4 5 6 
#
# 1 0.005438 -0.001752 -0.001954 0.000000 -0.000370 0.000000
# 2 -0.001752 0.009128 -0.001696 0.000000 0.001253 0.000000
# 3 -0.001954 -0.001696 0.009697 0.000000 -0.001695 0.000000
# 4 0.000000 0.000000 0.000000 0.030467 0.000000 -0.001752
# 5 -0.000370 0.001253 -0.001695 0.000000 0.014696 0.000000
# 6 0.000000 0.000000 0.000000 -0.001752 0.000000 0.015215
#
#
# Mechanical properties :
#
#
# Convention : Reuss Voigt Hill
#
# Bulk Modulus (GPa) = 74.31163 82.68978 78.50070
# Shear Modulus (GPa) = 50.03445 55.94493 52.98969
#
# Velocity S-wave (km/s) = 4.21426 4.45623 4.33693
# Velocity P-wave (km/s) = 7.07512 7.47185 7.27619
#
# Compressibility (1/GPa) = 0.01345684
#
# Stress axis : x y z
#
# Youngs Moduli (GPa) = 183.90714 109.55887 103.12157
#
# Poissons Ratio (x) = 0.19198 0.20154
# Poissons Ratio (y) = 0.32227 0.17490
# Poissons Ratio (z) = 0.35942 0.18581
#
# Static dielectric constant tensor:
#      x y z
#    x 2.195780 0.000000 -0.031350 
#    y 0.000000 2.241370 0.000000 
#    z -0.031350 0.000000 2.384900 
# 
# From -- ./inp_files/23015.got.cif
#   From: 2010.05.17/outbox.cif.g08.bks.cpg/sg9_12_cif.got.tgz:23015.got - 2010.06.03 20:04:27.
