data_PCOD9141414
_publ_section_title
;
Structure prediction by ZEFSAII (Michael W. Deem and Ramdas Pophale) SiO2 
 PCOD9141414
Probable space group: P 2/M
;
_chemical_formula_sum "Si O2"
_cell_formula_units_Z 26
_cell_length_a 7.673973
_cell_length_b 7.460922
_cell_length_c 23.574091
_cell_angle_alpha 90.000000
_cell_angle_beta 48.879175
_cell_angle_gamma 90.000000
_cell_volume 1016.786478
_symmetry_space_group_name_H-M "P 2/M"
_symmetry_group_IT_number 10
_symmetry_cell_setting 'monoclinic'
loop_
_space_group_symop_operation_xyz
x,y,z
-x,y,-z
-x,-y,-z
x,-y,z
loop_
_atom_site_type_symbol
_atom_site_label
_atom_site_fract_x
_atom_site_fract_y
_atom_site_fract_z
Si Si1 0.456924 0.709961 0.237172
Si Si2 0.797482 0.704645 0.079300
Si Si3 0.373677 0.704324 0.082376
Si Si4 0.678945 0.789570 0.612386
Si Si5 0.025382 0.805105 0.251837
Si Si6 0.757453 0.500000 0.372115
Si Si7 0.782578 0.215985 0.469606
O O1 0.437719 0.500000 0.225925
O O2 0.691593 0.783251 0.159146
O O3 0.456700 0.722732 0.304350
O O4 0.231760 0.794951 0.255521
O O5 0.875418 0.500000 0.075732
O O6 0.577129 0.699000 0.085257
O O7 0.000000 0.792460 0.000000
O O8 0.308724 0.500000 0.080640
O O9 0.157069 0.783099 0.163221
O O10 0.500000 0.785907 0.000000
O O11 0.655172 0.712953 0.554335
O O12 0.946594 0.765071 0.573122
O O13 0.641977 0.000000 0.614694
O O14 0.846654 0.654237 0.306983
O O15 0.916294 0.000000 0.278165
O O16 0.739871 0.341597 0.425792
O O17 0.742612 0.000000 0.469721
#
# Coordination Sequence:
#
# PCOD9141414 Si02
#       7
#     4   4   4   4   4   2   4
#     4  10  16  25  41  58  81 116 155 189 230 278
#     4   8  15  27  44  68  94 122 158 198 238 280
#     4   9  17  31  49  68  91 122 160 198 238 284
#     4   9  16  25  34  51  76 109 151 187 225 272
#     4  11  19  28  42  61  85 115 153 191 232 279
#     4  12  18  27  39  56  83 114 153 190 231 276
#     4   9  18  26  35  52  79 113 151 190 228 274
#
# _framework density 25.570754999999998
#
# number of rings (size 3 to 8) (size 9 to 14) (size 15 to 20)
#    0.000    2.462    3.077    2.769    1.077    0.923 
#    0.000    0.000    0.000   11.538    0.000    0.000 
#    0.000    0.000    0.000    2.769    0.308    8.923 
#
# Total GULP energy -144880.404049 kJ/mol
# GULP energy per Si atom -5572.323233 kJ/mol
# Density = 2.551256 g / cm^3
# Si number density = 25.570755 Si / 1000 Ang^3
#
#
#
# Elastic Constant Matrix: (Units=GPa)
#
#
# Indices 1 2 3 4 5 6 
#
# 1 91.9846 9.0248 42.0879 0.0000 7.9685 0.0000
# 2 9.0248 124.7417 36.9436 0.0000 19.1992 0.0000
# 3 42.0879 36.9436 247.4950 0.0000 26.4315 0.0000
# 4 0.0000 0.0000 0.0000 164.8290 0.0000 56.1346
# 5 7.9685 19.1992 26.4315 0.0000 32.6207 0.0000
# 6 0.0000 0.0000 0.0000 56.1346 0.0000 -3.0297
#
#
#
# Elastic Compliance Matrix: (Units=1/GPa)
#
#
# Indices 1 2 3 4 5 6 
#
# 1 0.011846 -0.000103 -0.001857 0.000000 -0.001329 0.000000
# 2 -0.000103 0.008976 -0.000833 0.000000 -0.004583 0.000000
# 3 -0.001857 -0.000833 0.004795 0.000000 -0.002941 0.000000
# 4 0.000000 0.000000 0.000000 0.000830 0.000000 0.015377
# 5 -0.001329 -0.004583 -0.002941 0.000000 0.036060 0.000000
# 6 0.000000 0.000000 0.000000 0.015377 0.000000 -0.045153
#
#
# Mechanical properties :
#
#
# Convention : Reuss Voigt Hill
#
# Bulk Modulus (GPa) = 49.92140 71.14821 60.53481
# Shear Modulus (GPa) = 168.81876 63.96168 116.39022
#
# Velocity S-wave (km/s) = 8.13410 5.00679 6.75394
# Velocity P-wave (km/s) = 10.38187 7.82996 9.19488
#
# Compressibility (1/GPa) = 0.02003149
#
# Stress axis : x y z
#
# Youngs Moduli (GPa) = 84.41407 111.40761 208.56048
#
# Poissons Ratio (x) = 0.01142 0.38737
# Poissons Ratio (y) = 0.00865 0.17373
# Poissons Ratio (z) = 0.15679 0.09280
#
# Static dielectric constant tensor:
#      x y z
#    x 2.040160 0.000000 -0.037370 
#    y 0.000000 2.003050 0.000000 
#    z -0.037370 0.000000 2.072400 
# 
# From -- ./inp_files/92446.got.cif
#   From: 2010.05.17/outbox.cif.g08.bks.cpg/sg10_47_cif.got.tgz:92446.got - 2010.06.03 11:33:40.
