data_PCOD9141298
_publ_section_title
;
Structure prediction by ZEFSAII (Michael W. Deem and Ramdas Pophale) SiO2 
 PCOD9141298
Probable space group: P 2/M
;
_chemical_formula_sum "Si O2"
_cell_formula_units_Z 18
_cell_length_a 8.939473
_cell_length_b 13.461730
_cell_length_c 6.907002
_cell_angle_alpha 90.000000
_cell_angle_beta 81.937193
_cell_angle_gamma 90.000000
_cell_volume 822.977528
_symmetry_space_group_name_H-M "P 2/M"
_symmetry_group_IT_number 10
_symmetry_cell_setting 'monoclinic'
loop_
_space_group_symop_operation_xyz
x,y,z
-x,y,-z
-x,-y,-z
x,-y,z
loop_
_atom_site_type_symbol
_atom_site_label
_atom_site_fract_x
_atom_site_fract_y
_atom_site_fract_z
Si Si1 0.155867 0.890281 0.857521
Si Si2 0.000000 0.835276 0.500000
Si Si3 0.608718 0.500000 0.281927
Si Si4 0.282950 0.287463 0.353775
Si Si5 0.609653 0.279511 0.214205
Si Si6 0.823814 0.500000 0.569561
O O1 0.100686 0.888952 0.643331
O O2 0.270213 0.800566 0.883637
O O3 0.220713 0.000000 0.888804
O O4 0.000000 0.878856 0.000000
O O5 0.126470 0.770733 0.365425
O O6 0.500000 0.500000 0.500000
O O7 0.602574 0.397078 0.167532
O O8 0.767743 0.500000 0.359005
O O9 0.336981 0.284146 0.568916
O O10 0.240988 0.401561 0.318113
O O11 0.434255 0.248449 0.223327
O O12 0.000000 0.500000 0.500000
#
# Coordination Sequence:
#
# PCOD9141298 Si02
#       6
#     4   2   2   4   4   2
#     4  10  22  40  58  78 110 147 184 232 280 323
#     4  10  19  33  58  84 108 137 184 232 269 326
#     4  10  14  26  49  77 114 144 176 222 270 328
#     4   9  15  26  47  80 112 139 182 222 266 322
#     4   9  16  30  51  78 112 146 183 223 272 328
#     4  10  14  20  40  77 114 144 176 217 264 326
#
# _framework density 21.871798999999999
#
# number of rings (size 3 to 8) (size 9 to 14) (size 15 to 20)
#    0.000    2.444    5.556    0.333    0.000    0.000 
#    0.000   11.667    0.000    2.667    0.000    3.111 
#    0.000    0.000    0.000    0.000    0.000    0.000 
#
# Total GULP energy -100219.271131 kJ/mol
# GULP energy per Si atom -5567.737285 kJ/mol
# Density = 2.182202 g / cm^3
# Si number density = 21.871799 Si / 1000 Ang^3
#
#
#
# Elastic Constant Matrix: (Units=GPa)
#
#
# Indices 1 2 3 4 5 6 
#
# 1 158.2255 73.3560 13.9598 0.0000 -14.0762 0.0000
# 2 73.3560 166.0056 27.7492 0.0000 -26.6282 0.0000
# 3 13.9598 27.7492 53.6813 0.0000 -2.1122 0.0000
# 4 0.0000 0.0000 0.0000 -9.6292 0.0000 -39.7365
# 5 -14.0762 -26.6282 -2.1122 0.0000 38.6242 0.0000
# 6 0.0000 0.0000 0.0000 -39.7365 0.0000 -31.6127
#
#
#
# Elastic Compliance Matrix: (Units=1/GPa)
#
#
# Indices 1 2 3 4 5 6 
#
# 1 0.007963 -0.003379 -0.000302 0.000000 0.000556 0.000000
# 2 -0.003379 0.008855 -0.003515 0.000000 0.004681 0.000000
# 3 -0.000302 -0.003515 0.020468 0.000000 -0.001414 0.000000
# 4 0.000000 0.000000 0.000000 0.024802 0.000000 -0.031176
# 5 0.000556 0.004681 -0.001414 0.000000 0.029243 0.000000
# 6 0.000000 0.000000 0.000000 -0.031176 0.000000 0.007555
#
#
# Mechanical properties :
#
#
# Convention : Reuss Voigt Hill
#
# Bulk Modulus (GPa) = 43.67807 67.56028 55.61917
# Shear Modulus (GPa) = 41.35303 16.99963 29.17633
#
# Velocity S-wave (km/s) = 4.35294 2.79093 3.65632
# Velocity P-wave (km/s) = 6.72885 6.42977 6.58101
#
# Compressibility (1/GPa) = 0.02289478
#
# Stress axis : x y z
#
# Youngs Moduli (GPa) = 125.58466 112.92449 48.85615
#
# Poissons Ratio (x) = 0.38157 0.01476
# Poissons Ratio (y) = 0.42435 0.17172
# Poissons Ratio (z) = 0.03795 0.39690
#
# Static dielectric constant tensor:
#      x y z
#    x 1.788990 0.000000 -0.015270 
#    y 0.000000 1.848220 0.000000 
#    z -0.015270 0.000000 1.916210 
# 
# From -- ./inp_files/6595.got.cif
#   From: 2010.05.17/outbox.cif.g08.bks.cpg/sg10_4_cif.got.tgz:6595.got - 2010.06.03 11:33:40.
