data_PCOD9141864
_publ_section_title
;
Structure prediction by ZEFSAII (Michael W. Deem and Ramdas Pophale) SiO2 
 PCOD9141864
Probable space group: P 2/M
;
_chemical_formula_sum "Si O2"
_cell_formula_units_Z 20
_cell_length_a 15.206184
_cell_length_b 8.499583
_cell_length_c 16.624169
_cell_angle_alpha 90.000000
_cell_angle_beta 25.444986
_cell_angle_gamma 90.000000
_cell_volume 923.138403
_symmetry_space_group_name_H-M "P 2/M"
_symmetry_group_IT_number 10
_symmetry_cell_setting 'monoclinic'
loop_
_space_group_symop_operation_xyz
x,y,z
-x,y,-z
-x,-y,-z
x,-y,z
loop_
_atom_site_type_symbol
_atom_site_label
_atom_site_fract_x
_atom_site_fract_y
_atom_site_fract_z
Si Si1 0.196263 0.813440 0.732093
Si Si2 0.509416 0.310011 0.085180
Si Si3 0.421416 0.686130 0.687715
Si Si4 0.311823 0.186003 0.398023
Si Si5 0.061724 0.687182 0.189225
O O1 0.235473 0.761265 0.791195
O O2 0.377109 0.726498 0.532637
O O3 0.994648 0.765686 0.849572
O O4 0.226096 0.000000 0.701861
O O5 0.491048 0.500000 0.104313
O O6 0.339467 0.235072 0.283080
O O7 0.500000 0.262924 0.000000
O O8 0.727350 0.264528 0.943533
O O9 0.393403 0.500000 0.716992
O O10 0.487479 0.755971 0.718587
O O11 0.119231 0.268174 0.599416
O O12 0.292376 0.000000 0.423692
O O13 0.064117 0.500000 0.174838
#
# Coordination Sequence:
#
# PCOD9141864 Si02
#       5
#     4   4   4   4   4
#     4  10  17  28  49  80 117 151 187 230 280 334
#     4  10  23  43  64  85 111 147 193 243 291 341
#     4  10  17  29  51  79 113 152 194 231 271 330
#     4  11  22  37  59  87 120 153 188 234 288 343
#     4  10  20  37  61  86 115 152 194 236 281 339
#
# _framework density 21.665223999999998
#
# number of rings (size 3 to 8) (size 9 to 14) (size 15 to 20)
#    0.000    1.800    0.000    9.600    0.000    2.800 
#    0.000    5.000    0.000    6.000    0.000    0.000 
#    0.000    0.000    0.000    0.000    0.000    0.000 
#
# Total GULP energy -111832.960733 kJ/mol
# GULP energy per Si atom -5591.648037 kJ/mol
# Density = 2.161591 g / cm^3
# Si number density = 21.665224 Si / 1000 Ang^3
#
#
#
# Elastic Constant Matrix: (Units=GPa)
#
#
# Indices 1 2 3 4 5 6 
#
# 1 111.2210 8.6927 25.7608 0.0000 18.1717 0.0000
# 2 8.6927 39.1104 -10.6320 0.0000 -0.9490 0.0000
# 3 25.7608 -10.6320 63.3202 0.0000 3.7851 0.0000
# 4 0.0000 0.0000 0.0000 -24.6022 0.0000 23.0162
# 5 18.1717 -0.9490 3.7851 0.0000 36.8193 0.0000
# 6 0.0000 0.0000 0.0000 23.0162 0.0000 30.7504
#
#
#
# Elastic Compliance Matrix: (Units=1/GPa)
#
#
# Indices 1 2 3 4 5 6 
#
# 1 0.011294 -0.003983 -0.004955 0.000000 -0.005167 0.000000
# 2 -0.003983 0.028198 0.006232 0.000000 0.002052 0.000000
# 3 -0.004955 0.006232 0.018815 0.000000 0.000672 0.000000
# 4 0.000000 0.000000 0.000000 -0.023907 0.000000 0.017894
# 5 -0.005167 0.002052 0.000672 0.000000 0.029694 0.000000
# 6 0.000000 0.000000 0.000000 0.017894 0.000000 0.019127
#
#
# Mechanical properties :
#
#
# Convention : Reuss Voigt Hill
#
# Bulk Modulus (GPa) = 18.90471 29.03273 23.96872
# Shear Modulus (GPa) = 47.05307 21.24885 34.15096
#
# Velocity S-wave (km/s) = 4.66534 3.13514 3.97458
# Velocity P-wave (km/s) = 6.14535 5.15123 5.67012
#
# Compressibility (1/GPa) = 0.05289687
#
# Stress axis : x y z
#
# Youngs Moduli (GPa) = 88.54075 35.46373 53.14973
#
# Poissons Ratio (x) = 0.14124 0.26334
# Poissons Ratio (y) = 0.35262 -0.33124
# Poissons Ratio (z) = 0.43869 -0.22102
#
# Static dielectric constant tensor:
#      x y z
#    x 1.818390 0.000000 0.021050 
#    y 0.000000 1.719860 0.000000 
#    z 0.021050 0.000000 1.864220 
# 
# From -- ./inp_files/33540.got.cif
#   From: 2010.05.17/outbox.cif.g08.bks.cpg/sg10_17_cif.got.tgz:33540.got - 2010.06.03 11:33:40.
