data_PCOD9141738
_publ_section_title
;
Structure prediction by ZEFSAII (Michael W. Deem and Ramdas Pophale) SiO2 
 PCOD9141738
Probable space group: P 2/M
;
_chemical_formula_sum "Si O2"
_cell_formula_units_Z 28
_cell_length_a 14.699548
_cell_length_b 9.010122
_cell_length_c 14.758996
_cell_angle_alpha 90.000000
_cell_angle_beta 104.131405
_cell_angle_gamma 90.000000
_cell_volume 1895.597090
_symmetry_space_group_name_H-M "P 2/M"
_symmetry_group_IT_number 10
_symmetry_cell_setting 'monoclinic'
loop_
_space_group_symop_operation_xyz
x,y,z
-x,y,-z
-x,-y,-z
x,-y,z
loop_
_atom_site_type_symbol
_atom_site_label
_atom_site_fract_x
_atom_site_fract_y
_atom_site_fract_z
Si Si1 0.402554 0.170990 0.033650
Si Si2 0.858525 0.176548 0.295728
Si Si3 0.960379 0.328967 0.593618
Si Si4 0.300871 0.323497 0.853185
Si Si5 0.433656 0.180651 0.564902
Si Si6 0.218720 0.822284 0.520302
Si Si7 0.530989 0.820328 0.221451
O O1 0.437256 0.216677 0.141867
O O2 0.370237 0.000000 0.026878
O O3 0.500000 0.173976 0.000000
O O4 0.330314 0.270620 0.960819
O O5 0.796870 0.256359 0.204790
O O6 0.808619 0.206604 0.381194
O O7 0.963664 0.238829 0.329967
O O8 0.858514 0.000000 0.282552
O O9 0.955967 0.500000 0.621008
O O10 0.858250 0.256072 0.561037
O O11 0.000000 0.325102 0.500000
O O12 0.300902 0.500000 0.846896
O O13 0.380829 0.255662 0.806297
O O14 0.500000 0.233224 0.500000
O O15 0.325230 0.226995 0.529396
O O16 0.470141 0.221432 0.673698
O O17 0.433134 0.000000 0.562423
O O18 0.212448 0.000000 0.506308
O O19 0.543461 0.000000 0.217345
#
# Coordination Sequence:
#
# PCOD9141738 Si02
#       7
#     4   4   4   4   4   4   4
#     4   8  15  26  40  55  77 108 141 171 204 250
#     4  10  17  27  42  59  82 111 142 170 203 251
#     4   9  17  27  39  58  82 107 137 171 208 248
#     4  11  19  25  38  60  85 110 139 172 209 250
#     4   9  16  27  45  66  84 107 146 187 212 237
#     4   9  16  27  42  58  79 110 143 173 208 246
#     4   9  16  29  43  57  79 111 144 175 212 248
#
# _framework density 14.771070999999999
#
# number of rings (size 3 to 8) (size 9 to 14) (size 15 to 20)
#    0.000    2.714    1.429    3.000    0.000    4.857 
#    0.000    0.000    0.000    1.714    0.000    0.000 
#    0.000    1.143    0.000   13.429    0.000    2.571 
#
# Total GULP energy -155943.955083 kJ/mol
# GULP energy per Si atom -5569.426967 kJ/mol
# Density = 1.473745 g / cm^3
# Si number density = 14.771071 Si / 1000 Ang^3
#
#
#
# Elastic Constant Matrix: (Units=GPa)
#
#
# Indices 1 2 3 4 5 6 
#
# 1 73.0309 31.4069 61.9653 0.0000 19.0222 0.0000
# 2 31.4069 53.8334 47.0735 0.0000 21.3207 0.0000
# 3 61.9653 47.0735 112.1265 0.0000 30.7091 0.0000
# 4 0.0000 0.0000 0.0000 7.5161 0.0000 0.3066
# 5 19.0222 21.3207 30.7091 0.0000 25.9816 0.0000
# 6 0.0000 0.0000 0.0000 0.3066 0.0000 4.4160
#
#
#
# Elastic Compliance Matrix: (Units=1/GPa)
#
#
# Indices 1 2 3 4 5 6 
#
# 1 0.026385 -0.003874 -0.012621 0.000000 -0.001222 0.000000
# 2 -0.003874 0.033871 -0.007753 0.000000 -0.015795 0.000000
# 3 -0.012621 -0.007753 0.021995 0.000000 -0.010395 0.000000
# 4 0.000000 0.000000 0.000000 0.133425 0.000000 -0.009263
# 5 -0.001222 -0.015795 -0.010395 0.000000 0.064631 0.000000
# 6 0.000000 0.000000 0.000000 -0.009263 0.000000 0.227094
#
#
# Mechanical properties :
#
#
# Convention : Reuss Voigt Hill
#
# Bulk Modulus (GPa) = 29.62424 57.76470 43.69447
# Shear Modulus (GPa) = 8.81604 14.15241 11.48422
#
# Velocity S-wave (km/s) = 2.44569 3.09870 2.79136
# Velocity P-wave (km/s) = 5.29852 7.21070 6.32726
#
# Compressibility (1/GPa) = 0.03375614
#
# Stress axis : x y z
#
# Youngs Moduli (GPa) = 37.89985 29.52389 45.46478
#
# Poissons Ratio (x) = 0.11436 0.57379
# Poissons Ratio (y) = 0.14681 0.35251
# Poissons Ratio (z) = 0.47832 0.22891
#
# Static dielectric constant tensor:
#      x y z
#    x 1.467500 0.000000 0.019010 
#    y 0.000000 1.487320 0.000000 
#    z 0.019010 0.000000 1.504500 
# 
# From -- ./inp_files/65812.got.cif
#   From: 2010.05.17/outbox.cif.g08.bks.cpg/sg10_33_cif.got.tgz:65812.got - 2010.06.03 11:33:40.
