data_PCOD9141364
_publ_section_title
;
Structure prediction by ZEFSAII (Michael W. Deem and Ramdas Pophale) SiO2 
 PCOD9141364
Probable space group: P 2/M
;
_chemical_formula_sum "Si O2"
_cell_formula_units_Z 32
_cell_length_a 25.074273
_cell_length_b 8.893630
_cell_length_c 10.459333
_cell_angle_alpha 90.000000
_cell_angle_beta 56.591153
_cell_angle_gamma 90.000000
_cell_volume 1947.038382
_symmetry_space_group_name_H-M "P 2/M"
_symmetry_group_IT_number 10
_symmetry_cell_setting 'monoclinic'
loop_
_space_group_symop_operation_xyz
x,y,z
-x,y,-z
-x,-y,-z
x,-y,z
loop_
_atom_site_type_symbol
_atom_site_label
_atom_site_fract_x
_atom_site_fract_y
_atom_site_fract_z
Si Si1 0.205911 0.826205 0.090401
Si Si2 0.663392 0.678356 0.064230
Si Si3 0.673311 0.679876 0.750805
Si Si4 0.454197 0.180945 0.179563
Si Si5 0.806603 0.175089 0.582792
Si Si6 0.466175 0.818770 0.675212
Si Si7 0.065746 0.181557 0.277668
Si Si8 0.937424 0.679968 0.431828
O O1 0.198336 0.817354 0.255145
O O2 0.135998 0.784146 0.128903
O O3 0.218677 0.000000 0.041831
O O4 0.267431 0.728962 0.975732
O O5 0.657615 0.500000 0.078754
O O6 0.604368 0.754162 0.213026
O O7 0.661147 0.722286 0.916334
O O8 0.677036 0.500000 0.739345
O O9 0.613961 0.742074 0.749527
O O10 0.741088 0.750736 0.621840
O O11 0.490362 0.225334 0.261131
O O12 0.445845 0.000000 0.189881
O O13 0.500000 0.220446 0.000000
O O14 0.871327 0.261052 0.459022
O O15 0.810749 0.000000 0.542847
O O16 0.500000 0.770421 0.500000
O O17 0.461864 0.000000 0.681011
O O18 0.065527 0.258454 0.418106
O O19 0.002914 0.246971 0.292446
O O20 0.061055 0.000000 0.298069
O O21 0.940721 0.500000 0.426735
#
# Coordination Sequence:
#
# PCOD9141364 Si02
#       8
#     4   4   4   4   4   4   4   4
#     4   8  15  25  38  54  75 106 145 185 222 265
#     4  10  19  29  44  65  89 115 145 186 232 277
#     4  10  19  29  44  67  91 114 146 189 232 272
#     4  10  19  32  51  71  90 118 153 190 229 275
#     4   9  16  26  38  53  77 110 146 183 223 270
#     4  10  21  36  52  69  91 120 154 190 230 277
#     4   9  15  23  33  47  69 104 146 183 220 267
#     4  10  16  21  31  48  73 105 141 183 226 268
#
# _framework density 16.435217999999999
#
# number of rings (size 3 to 8) (size 9 to 14) (size 15 to 20)
#    0.000    2.500    1.250    4.125    0.000    5.500 
#    0.000    0.000    0.000    0.000    0.000    0.000 
#    0.000    0.000    0.000    1.125    0.000   23.000 
#
# Total GULP energy -178250.313491 kJ/mol
# GULP energy per Si atom -5570.322297 kJ/mol
# Density = 1.639781 g / cm^3
# Si number density = 16.435218 Si / 1000 Ang^3
#
#
#
# Elastic Constant Matrix: (Units=GPa)
#
#
# Indices 1 2 3 4 5 6 
#
# 1 106.2256 47.2435 63.3289 0.0000 -44.1050 0.0000
# 2 47.2435 64.8695 36.2436 0.0000 -21.7353 0.0000
# 3 63.3289 36.2436 66.9664 0.0000 -23.6712 0.0000
# 4 0.0000 0.0000 0.0000 -92.9162 0.0000 59.5372
# 5 -44.1050 -21.7353 -23.6712 0.0000 34.1355 0.0000
# 6 0.0000 0.0000 0.0000 59.5372 0.0000 -27.0755
#
#
#
# Elastic Compliance Matrix: (Units=1/GPa)
#
#
# Indices 1 2 3 4 5 6 
#
# 1 0.036595 -0.004727 -0.021724 0.000000 0.029208 0.000000
# 2 -0.004727 0.024328 -0.007127 0.000000 0.004441 0.000000
# 3 -0.021724 -0.007127 0.036838 0.000000 -0.007061 0.000000
# 4 0.000000 0.000000 0.000000 0.026314 0.000000 0.057864
# 5 0.029208 0.004441 -0.007061 0.000000 0.064964 0.000000
# 6 0.000000 0.000000 0.000000 0.057864 0.000000 0.090304
#
#
# Mechanical properties :
#
#
# Convention : Reuss Voigt Hill
#
# Bulk Modulus (GPa) = 32.67476 59.07708 45.87592
# Shear Modulus (GPa) = 14.01727 -11.08821 1.46453
#
# Velocity S-wave (km/s) = 2.92358 -2.60024 0.94500
# Velocity P-wave (km/s) = 5.59647 5.19696 5.40042
#
# Compressibility (1/GPa) = 0.03060466
#
# Stress axis : x y z
#
# Youngs Moduli (GPa) = 27.32599 41.10472 27.14573
#
# Poissons Ratio (x) = 0.19432 0.58972
# Poissons Ratio (y) = 0.12918 0.19346
# Poissons Ratio (z) = 0.59364 0.29294
#
# Static dielectric constant tensor:
#      x y z
#    x 1.573120 0.000000 -0.029070 
#    y 0.000000 1.544540 0.000000 
#    z -0.029070 0.000000 1.541790 
# 
# From -- ./inp_files/57171.got.cif
#   From: 2010.05.17/outbox.cif.g08.bks.cpg/sg10_29_cif.got.tgz:57171.got - 2010.06.03 11:33:40.
