data_PCOD9141756
_publ_section_title
;
Structure prediction by ZEFSAII (Michael W. Deem and Ramdas Pophale) SiO2 
 PCOD9141756
Probable space group: P 2/M
;
_chemical_formula_sum "Si O2"
_cell_formula_units_Z 32
_cell_length_a 17.668553
_cell_length_b 7.458478
_cell_length_c 17.661446
_cell_angle_alpha 90.000000
_cell_angle_beta 50.318042
_cell_angle_gamma 90.000000
_cell_volume 1791.195073
_symmetry_space_group_name_H-M "P 2/M"
_symmetry_group_IT_number 10
_symmetry_cell_setting 'monoclinic'
loop_
_space_group_symop_operation_xyz
x,y,z
-x,y,-z
-x,-y,-z
x,-y,z
loop_
_atom_site_type_symbol
_atom_site_label
_atom_site_fract_x
_atom_site_fract_y
_atom_site_fract_z
Si Si1 0.275737 0.716145 0.770515
Si Si2 0.046113 0.281702 0.187082
Si Si3 0.819031 0.281057 0.325630
Si Si4 0.053269 0.718505 0.349882
Si Si5 0.096693 0.719251 0.987521
Si Si6 0.307012 0.712002 0.453491
Si Si7 0.503777 0.791585 0.410813
Si Si8 0.150697 0.281657 0.440761
O O1 0.273677 0.500000 0.773231
O O2 0.230257 0.778028 0.720227
O O3 0.389617 0.767365 0.694770
O O4 0.198762 0.776537 0.883501
O O5 0.051408 0.500000 0.183247
O O6 0.081921 0.222084 0.247167
O O7 0.091211 0.222341 0.078453
O O8 0.931817 0.229957 0.257359
O O9 0.817032 0.500000 0.327216
O O10 0.756359 0.215433 0.436047
O O11 0.053822 0.500000 0.348494
O O12 0.123114 0.778932 0.373878
O O13 0.941479 0.767660 0.445790
O O14 0.094298 0.500000 0.988306
O O15 0.000000 0.773586 0.000000
O O16 0.289430 0.500000 0.462421
O O17 0.419535 0.730268 0.406537
O O18 0.253723 0.779512 0.411339
O O19 0.500000 0.712712 0.500000
O O20 0.483834 0.000000 0.433263
O O21 0.149717 0.500000 0.437805
#
# Coordination Sequence:
#
# PCOD9141756 Si02
#       8
#     4   4   4   4   4   4   4   4
#     4  10  18  29  44  62  85 113 146 179 205 238
#     4   9  13  19  32  57  92 121 138 163 207 250
#     4   9  14  20  36  61  87 112 138 168 202 238
#     4   8  12  18  30  54  91 121 135 159 207 255
#     4   9  15  22  36  61  88 112 141 175 206 240
#     4  10  17  27  44  64  84 112 148 177 202 242
#     4  11  23  34  43  59  84 112 142 177 217 256
#     4   8  13  20  33  57  87 115 140 167 201 247
#
# _framework density 17.865167
#
# number of rings (size 3 to 8) (size 9 to 14) (size 15 to 20)
#    0.000    2.750    3.750    1.125    0.000    0.500 
#    0.000    0.000    0.000    0.375    0.000    2.625 
#    0.000    7.000    0.000    0.000    0.000    0.000 
#
# Total GULP energy -178283.034486 kJ/mol
# GULP energy per Si atom -5571.344828 kJ/mol
# Density = 1.782451 g / cm^3
# Si number density = 17.865167 Si / 1000 Ang^3
#
#
#
# Elastic Constant Matrix: (Units=GPa)
#
#
# Indices 1 2 3 4 5 6 
#
# 1 163.3496 1.2190 83.8327 0.0000 18.0994 0.0000
# 2 1.2190 46.5669 -8.2378 0.0000 4.1689 0.0000
# 3 83.8327 -8.2378 93.0765 0.0000 9.6472 0.0000
# 4 0.0000 0.0000 0.0000 50.9842 0.0000 -50.5304
# 5 18.0994 4.1689 9.6472 0.0000 27.5370 0.0000
# 6 0.0000 0.0000 0.0000 -50.5304 0.0000 28.1355
#
#
#
# Elastic Compliance Matrix: (Units=1/GPa)
#
#
# Indices 1 2 3 4 5 6 
#
# 1 0.011982 -0.001831 -0.010550 0.000000 -0.003903 0.000000
# 2 -0.001831 0.022558 0.004021 0.000000 -0.003620 0.000000
# 3 -0.010550 0.004021 0.020698 0.000000 -0.000926 0.000000
# 4 0.000000 0.000000 0.000000 -0.025147 0.000000 -0.045163
# 5 -0.003903 -0.003620 -0.000926 0.000000 0.039752 0.000000
# 6 0.000000 0.000000 0.000000 -0.045163 0.000000 -0.045568
#
#
# Mechanical properties :
#
#
# Convention : Reuss Voigt Hill
#
# Bulk Modulus (GPa) = 25.96186 50.73563 38.34874
# Shear Modulus (GPa) = 92.87975 36.40995 64.64485
#
# Velocity S-wave (km/s) = 7.21818 4.51936 6.02191
# Velocity P-wave (km/s) = 9.16696 7.46282 8.35844
#
# Compressibility (1/GPa) = 0.03851804
#
# Stress axis : x y z
#
# Youngs Moduli (GPa) = 83.45798 44.33065 48.31492
#
# Poissons Ratio (x) = 0.08115 0.50970
# Poissons Ratio (y) = 0.15277 -0.19425
# Poissons Ratio (z) = 0.88045 -0.17823
#
# Static dielectric constant tensor:
#      x y z
#    x 1.638700 0.000000 0.023000 
#    y 0.000000 1.671360 0.000000 
#    z 0.023000 0.000000 1.604670 
# 
# From -- ./inp_files/78520.got.cif
#   From: 2010.05.17/outbox.cif.g08.bks.cpg/sg10_40_cif.got.tgz:78520.got - 2010.06.03 11:33:40.
