data_PCOD9141996
_publ_section_title
;
Structure prediction by ZEFSAII (Michael W. Deem and Ramdas Pophale) SiO2 
 PCOD9141996
Probable space group: P 2/M
;
_chemical_formula_sum "Si O2"
_cell_formula_units_Z 28
_cell_length_a 7.372267
_cell_length_b 7.996897
_cell_length_c 28.323455
_cell_angle_alpha 90.000000
_cell_angle_beta 46.690450
_cell_angle_gamma 90.000000
_cell_volume 1215.056172
_symmetry_space_group_name_H-M "P 2/M"
_symmetry_group_IT_number 10
_symmetry_cell_setting 'monoclinic'
loop_
_space_group_symop_operation_xyz
x,y,z
-x,y,-z
-x,-y,-z
x,-y,z
loop_
_atom_site_type_symbol
_atom_site_label
_atom_site_fract_x
_atom_site_fract_y
_atom_site_fract_z
Si Si1 0.612001 0.694553 0.199097
Si Si2 0.175979 0.190202 0.217951
Si Si3 0.612980 0.309079 0.667279
Si Si4 0.170473 0.000000 0.421717
Si Si5 0.472058 0.195510 0.078210
Si Si6 0.270903 0.000000 0.574696
Si Si7 0.092424 0.194619 0.058552
Si Si8 0.897101 0.320907 0.350819
O O1 0.533958 0.500000 0.209414
O O2 0.407372 0.814291 0.212978
O O3 0.612049 0.731180 0.255362
O O4 0.856020 0.716883 0.123535
O O5 0.306221 0.271244 0.149238
O O6 0.977915 0.296368 0.282241
O O7 0.089047 0.000000 0.223961
O O8 0.584182 0.500000 0.654562
O O9 0.856869 0.313776 0.659046
O O10 0.668182 0.167727 0.618357
O O11 0.000000 0.000000 0.500000
O O12 0.971874 0.000000 0.414595
O O13 0.293015 0.195460 0.065120
O O14 0.513200 0.000000 0.083951
O O15 0.743658 0.262904 0.014757
O O16 0.500000 0.000000 0.500000
O O17 0.267218 0.164916 0.606200
O O18 0.028435 0.000000 0.060250
O O19 0.777932 0.500000 0.379865
#
# Coordination Sequence:
#
# PCOD9141996 Si02
#       8
#     4   4   4   2   4   2   4   4
#     4  10  20  32  48  75 102 129 170 218 258 303
#     4  10  17  30  53  77  99 130 172 220 263 305
#     4   8  17  32  51  74 105 134 166 208 251 299
#     4  10  20  34  56  80 101 132 171 201 246 305
#     4   8  17  32  50  72  98 132 176 214 258 314
#     4  10  20  36  56  78 107 138 169 205 248 303
#     4   9  17  33  52  69  96 137 174 211 259 313
#     4   9  17  32  53  79 105 136 171 209 255 305
#
# _framework density 23.044203
#
# number of rings (size 3 to 8) (size 9 to 14) (size 15 to 20)
#    0.000    2.857    0.714    2.571    4.000    1.143 
#    0.000    8.571    0.000    1.714    0.000    0.000 
#    0.000    0.000    0.000    0.000    0.000    0.000 
#
# Total GULP energy -156131.031489 kJ/mol
# GULP energy per Si atom -5576.108267 kJ/mol
# Density = 2.299175 g / cm^3
# Si number density = 23.044203 Si / 1000 Ang^3
#
#
#
# Elastic Constant Matrix: (Units=GPa)
#
#
# Indices 1 2 3 4 5 6 
#
# 1 26.8396 -8.2808 -21.8226 0.0000 8.5094 0.0000
# 2 -8.2808 125.7257 74.1651 0.0000 1.2253 0.0000
# 3 -21.8226 74.1651 164.8657 0.0000 8.4915 0.0000
# 4 0.0000 0.0000 0.0000 -57.9246 0.0000 23.0325
# 5 8.5094 1.2253 8.4915 0.0000 28.0423 0.0000
# 6 0.0000 0.0000 0.0000 23.0325 0.0000 -9.3190
#
#
#
# Elastic Compliance Matrix: (Units=1/GPa)
#
#
# Indices 1 2 3 4 5 6 
#
# 1 0.048722 -0.001291 0.007912 0.000000 -0.017124 0.000000
# 2 -0.001291 0.010890 -0.005146 0.000000 0.001474 0.000000
# 3 0.007912 -0.005146 0.009691 0.000000 -0.005111 0.000000
# 4 0.000000 0.000000 0.000000 -1.002018 0.000000 -2.476561
# 5 -0.017124 0.001474 -0.005111 0.000000 0.042340 0.000000
# 6 0.000000 0.000000 0.000000 -2.476561 0.000000 -6.228311
#
#
# Mechanical properties :
#
#
# Convention : Reuss Voigt Hill
#
# Bulk Modulus (GPa) = 13.84025 45.06159 29.45092
# Shear Modulus (GPa) = -0.70447 10.38436 4.83994
#
# Velocity S-wave (km/s) = -0.55350 2.12510 1.45081
# Velocity P-wave (km/s) = 2.36865 5.06145 3.95151
#
# Compressibility (1/GPa) = 0.07225302
#
# Stress axis : x y z
#
# Youngs Moduli (GPa) = 20.52449 91.82907 103.19026
#
# Poissons Ratio (x) = 0.11859 -0.81645
# Poissons Ratio (y) = 0.02651 0.53098
# Poissons Ratio (z) = -0.16239 0.47252
#
# Static dielectric constant tensor:
#      x y z
#    x 2.196560 0.000000 -0.033150 
#    y 0.000000 1.815740 0.000000 
#    z -0.033150 0.000000 1.916520 
# 
# From -- ./inp_files/92039.got.cif
#   From: 2010.05.17/outbox.cif.g08.bks.cpg/sg10_47_cif.got.tgz:92039.got - 2010.06.03 11:33:40.
