data_PCOD9141508
_publ_section_title
;
Structure prediction by ZEFSAII (Michael W. Deem and Ramdas Pophale) SiO2 
 PCOD9141508
Probable space group: P 2/M
;
_chemical_formula_sum "Si O2"
_cell_formula_units_Z 28
_cell_length_a 9.101824
_cell_length_b 15.433685
_cell_length_c 19.998679
_cell_angle_alpha 90.000000
_cell_angle_beta 151.389077
_cell_angle_gamma 90.000000
_cell_volume 1345.263125
_symmetry_space_group_name_H-M "P 2/M"
_symmetry_group_IT_number 10
_symmetry_cell_setting 'monoclinic'
loop_
_space_group_symop_operation_xyz
x,y,z
-x,y,-z
-x,-y,-z
x,-y,z
loop_
_atom_site_type_symbol
_atom_site_label
_atom_site_fract_x
_atom_site_fract_y
_atom_site_fract_z
Si Si1 0.028244 0.407414 0.160051
Si Si2 0.718315 0.253001 0.268429
Si Si3 0.823474 0.344665 0.648342
Si Si4 0.893271 0.097076 0.582515
Si Si5 0.722168 0.771417 0.024488
Si Si6 0.351312 0.596765 0.664120
Si Si7 0.790505 0.153539 0.692655
O O1 0.914437 0.500000 0.088619
O O2 0.990502 0.400822 0.224614
O O3 0.392866 0.403568 0.291409
O O4 0.872384 0.321908 0.069670
O O5 0.570160 0.319996 0.260078
O O6 0.962210 0.313363 0.325825
O O7 0.910926 0.172581 0.373514
O O8 0.481236 0.210918 0.121373
O O9 0.500000 0.385620 0.500000
O O10 0.739451 0.254596 0.653039
O O11 0.911193 0.112227 0.671028
O O12 0.534895 0.110871 0.422525
O O13 0.990237 0.000000 0.605474
O O14 0.972458 0.840337 0.151205
O O15 0.500000 0.760970 0.000000
O O16 0.372018 0.500000 0.704285
O O17 0.000000 0.606690 0.500000
#
# Coordination Sequence:
#
# PCOD9141508 Si02
#       7
#     4   4   4   4   4   4   4
#     4  10  22  36  53  80 116 156 199 246 294 354
#     4  11  21  36  59  89 119 159 196 249 297 357
#     4  10  16  30  55  81 109 149 194 239 294 346
#     4  10  18  32  58  90 120 155 201 247 297 355
#     4  11  20  36  55  85 124 160 199 236 298 362
#     4  10  23  41  61  88 119 155 207 258 301 355
#     4   9  16  30  52  81 119 150 186 237 290 347
#
# _framework density 20.813772
#
# number of rings (size 3 to 8) (size 9 to 14) (size 15 to 20)
#    0.000    1.857    7.143    1.714    2.000    2.286 
#    0.000    3.571    0.000    0.429    0.000    1.000 
#    0.000    0.000    0.000    0.000    0.000    0.000 
#
# Total GULP energy -156119.167414 kJ/mol
# GULP energy per Si atom -5575.684550 kJ/mol
# Density = 2.076640 g / cm^3
# Si number density = 20.813772 Si / 1000 Ang^3
#
#
#
# Elastic Constant Matrix: (Units=GPa)
#
#
# Indices 1 2 3 4 5 6 
#
# 1 24.8086 27.6536 1.2168 0.0000 -1.3046 0.0000
# 2 27.6536 94.4883 11.4766 0.0000 4.4095 0.0000
# 3 1.2168 11.4766 76.9452 0.0000 -3.5245 0.0000
# 4 0.0000 0.0000 0.0000 181.2788 0.0000 65.0055
# 5 -1.3046 4.4095 -3.5245 0.0000 13.5595 0.0000
# 6 0.0000 0.0000 0.0000 65.0055 0.0000 36.3984
#
#
#
# Elastic Compliance Matrix: (Units=1/GPa)
#
#
# Indices 1 2 3 4 5 6 
#
# 1 0.062130 -0.019079 0.002450 0.000000 0.012819 0.000000
# 2 -0.019079 0.016853 -0.002578 0.000000 -0.007986 0.000000
# 3 0.002450 -0.002578 0.013553 0.000000 0.004597 0.000000
# 4 0.000000 0.000000 0.000000 0.015341 0.000000 -0.027399
# 5 0.012819 -0.007986 0.004597 0.000000 0.078774 0.000000
# 6 0.000000 0.000000 0.000000 -0.027399 0.000000 0.076407
#
#
# Mechanical properties :
#
#
# Convention : Reuss Voigt Hill
#
# Bulk Modulus (GPa) = 18.47675 30.77068 24.62372
# Shear Modulus (GPa) = 15.64890 56.64036 36.14463
#
# Velocity S-wave (km/s) = 2.74497 5.22226 4.17174
# Velocity P-wave (km/s) = 4.35235 7.15392 5.92121
#
# Compressibility (1/GPa) = 0.05412207
#
# Stress axis : x y z
#
# Youngs Moduli (GPa) = 16.09540 59.33687 73.78691
#
# Poissons Ratio (x) = 1.13209 -0.18081
# Poissons Ratio (y) = 0.30709 0.19021
# Poissons Ratio (z) = -0.03944 0.15296
#
# Static dielectric constant tensor:
#      x y z
#    x 1.749670 0.000000 -0.022050 
#    y 0.000000 1.739680 0.000000 
#    z -0.022050 0.000000 1.794560 
# 
# From -- ./inp_files/82942.got.cif
#   From: 2010.05.17/outbox.cif.g08.bks.cpg/sg10_42_cif.got.tgz:82942.got - 2010.06.03 11:33:40.
