data_PCOD9141443
_publ_section_title
;
Structure prediction by ZEFSAII (Michael W. Deem and Ramdas Pophale) SiO2 
 PCOD9141443
Probable space group: P 2/M
;
_chemical_formula_sum "Si O2"
_cell_formula_units_Z 28
_cell_length_a 24.945556
_cell_length_b 18.855807
_cell_length_c 22.676778
_cell_angle_alpha 90.000000
_cell_angle_beta 168.857577
_cell_angle_gamma 90.000000
_cell_volume 2061.274142
_symmetry_space_group_name_H-M "P 2/M"
_symmetry_group_IT_number 10
_symmetry_cell_setting 'monoclinic'
loop_
_space_group_symop_operation_xyz
x,y,z
-x,y,-z
-x,-y,-z
x,-y,z
loop_
_atom_site_type_symbol
_atom_site_label
_atom_site_fract_x
_atom_site_fract_y
_atom_site_fract_z
Si Si1 0.681740 0.000000 0.137962
Si Si2 0.852487 0.275244 0.275967
Si Si3 0.021042 0.085303 0.305892
Si Si4 0.184842 0.500000 0.638568
Si Si5 0.972190 0.913588 0.902316
Si Si6 0.375432 0.126595 0.014546
Si Si7 0.652238 0.353533 0.227849
Si Si8 0.357969 0.913897 0.213778
O O1 0.000000 0.000000 0.500000
O O2 0.500000 0.000000 0.000000
O O3 0.620719 0.931213 0.033144
O O4 0.000000 0.271458 0.500000
O O5 0.107209 0.295273 0.508488
O O6 0.713520 0.201651 0.108323
O O7 0.609211 0.335135 0.013097
O O8 0.317381 0.123681 0.626348
O O9 0.069456 0.000000 0.354892
O O10 0.849237 0.102490 0.179438
O O11 0.831176 0.106922 0.045491
O O12 0.182190 0.428251 0.596997
O O13 0.000000 0.500000 0.500000
O O14 0.500000 0.500000 0.000000
O O15 0.676867 0.891202 0.556761
O O16 0.976167 0.000000 0.907620
O O17 0.000000 0.890356 0.000000
O O18 0.217162 0.891432 0.123178
O O19 0.500000 0.347854 0.000000
O O20 0.361092 0.000000 0.216595
#
# Coordination Sequence:
#
# PCOD9141443 Si02
#       8
#     2   4   4   2   4   4   4   4
#     4  12  24  36  46  58  70  88 121 168 215 256
#     4  10  20  32  44  59  78 100 122 155 201 249
#     4  11  20  34  46  58  73  95 132 171 204 241
#     4  10  16  26  44  66  84 102 118 136 166 220
#     4   9  15  24  37  57  79  97 114 137 177 235
#     4  12  22  35  47  58  74  98 129 170 210 253
#     4   9  17  29  44  62  82  99 118 140 176 234
#     4   9  17  26  40  56  73  96 119 150 188 228
#
# _framework density 13.583831
#
# number of rings (size 3 to 8) (size 9 to 14) (size 15 to 20)
#    0.000    1.857    1.429    5.571    0.000    5.714 
#    0.000    0.000    0.000    0.000    0.000    0.000 
#    0.000    0.000    0.000    0.000    0.000    0.000 
#
# Total GULP energy -155948.676926 kJ/mol
# GULP energy per Si atom -5569.595605 kJ/mol
# Density = 1.355291 g / cm^3
# Si number density = 13.583831 Si / 1000 Ang^3
#
#
#
# Elastic Constant Matrix: (Units=GPa)
#
#
# Indices 1 2 3 4 5 6 
#
# 1 26.8312 6.7630 -2.7267 0.0000 4.7742 0.0000
# 2 6.7630 50.6559 15.3158 0.0000 0.1222 0.0000
# 3 -2.7267 15.3158 59.2719 0.0000 7.9181 0.0000
# 4 0.0000 0.0000 0.0000 -39.1103 0.0000 -1.3389
# 5 4.7742 0.1222 7.9181 0.0000 23.4867 0.0000
# 6 0.0000 0.0000 0.0000 -1.3389 0.0000 5.7247
#
#
#
# Elastic Compliance Matrix: (Units=1/GPa)
#
#
# Indices 1 2 3 4 5 6 
#
# 1 0.041349 -0.007027 0.005064 0.000000 -0.010076 0.000000
# 2 -0.007027 0.022684 -0.006660 0.000000 0.003556 0.000000
# 3 0.005064 -0.006660 0.019852 0.000000 -0.007688 0.000000
# 4 0.000000 0.000000 0.000000 -0.025366 0.000000 -0.005932
# 5 -0.010076 0.003556 -0.007688 0.000000 0.047199 0.000000
# 6 0.000000 0.000000 0.000000 -0.005932 0.000000 0.173294
#
#
# Mechanical properties :
#
#
# Convention : Reuss Voigt Hill
#
# Bulk Modulus (GPa) = 15.00622 19.49591 17.25106
# Shear Modulus (GPa) = 15.70003 5.84737 10.77370
#
# Velocity S-wave (km/s) = 3.40338 2.07702 2.81931
# Velocity P-wave (km/s) = 5.14928 4.48725 4.82962
#
# Compressibility (1/GPa) = 0.06663905
#
# Stress axis : x y z
#
# Youngs Moduli (GPa) = 24.18456 44.08346 50.37216
#
# Poissons Ratio (x) = 0.30978 -0.25508
# Poissons Ratio (y) = 0.16995 0.33547
# Poissons Ratio (z) = -0.12247 0.29359
#
# Static dielectric constant tensor:
#      x y z
#    x 1.447400 0.000000 0.018870 
#    y 0.000000 1.484510 0.000000 
#    z 0.018870 0.000000 1.454080 
# 
# From -- ./inp_files/91326.got.cif
#   From: 2010.05.17/outbox.cif.g08.bks.cpg/sg10_46_cif.got.tgz:91326.got - 2010.06.03 11:33:40.
