data_PCOD9141464
_publ_section_title
;
Structure prediction by ZEFSAII (Michael W. Deem and Ramdas Pophale) SiO2 
 PCOD9141464
Probable space group: P 2/M
;
_chemical_formula_sum "Si O2"
_cell_formula_units_Z 28
_cell_length_a 21.026724
_cell_length_b 7.965654
_cell_length_c 26.546526
_cell_angle_alpha 90.000000
_cell_angle_beta 158.072934
_cell_angle_gamma 90.000000
_cell_volume 1660.371804
_symmetry_space_group_name_H-M "P 2/M"
_symmetry_group_IT_number 10
_symmetry_cell_setting 'monoclinic'
loop_
_space_group_symop_operation_xyz
x,y,z
-x,y,-z
-x,-y,-z
x,-y,z
loop_
_atom_site_type_symbol
_atom_site_label
_atom_site_fract_x
_atom_site_fract_y
_atom_site_fract_z
Si Si1 0.912805 0.696391 0.092210
Si Si2 0.459369 0.297021 0.413128
Si Si3 0.923989 0.705548 0.890922
Si Si4 0.048171 0.192047 0.713419
Si Si5 0.504751 0.500000 0.088050
Si Si6 0.213885 0.500000 0.786319
Si Si7 0.192867 0.198528 0.376606
Si Si8 0.655323 0.184396 0.983125
O O1 0.868998 0.500000 0.056740
O O2 0.965357 0.760359 0.075882
O O3 0.079270 0.712720 0.250299
O O4 0.759109 0.786762 0.007902
O O5 0.500000 0.240921 0.500000
O O6 0.460704 0.500000 0.414042
O O7 0.271327 0.240540 0.259507
O O8 0.610899 0.237409 0.488588
O O9 0.924302 0.500000 0.889948
O O10 0.000000 0.759008 0.000000
O O11 0.103158 0.332689 0.714185
O O12 0.882268 0.243865 0.623912
O O13 0.030519 0.000000 0.681675
O O14 0.198295 0.188672 0.865989
O O15 0.682709 0.500000 0.189586
O O16 0.470645 0.334981 0.096122
O O17 0.358216 0.500000 0.936714
O O18 0.161815 0.000000 0.348049
O O19 0.575969 0.000000 0.925733
#
# Coordination Sequence:
#
# PCOD9141464 Si02
#       8
#     4   4   4   4   2   2   4   4
#     4  10  16  27  46  63  84 116 156 195 235 282
#     4  10  18  30  46  68  87 113 157 200 237 273
#     4   9  18  31  46  66  93 123 155 195 245 289
#     4   8  16  26  36  57  82 113 148 182 229 276
#     4   9  16  26  36  60  80 113 156 179 229 273
#     4   9  16  24  40  54  82 118 146 186 221 277
#     4  10  19  28  42  64  88 114 151 197 239 272
#     4   9  16  26  39  58  84 111 149 195 230 268
#
# _framework density 16.863693999999999
#
# number of rings (size 3 to 8) (size 9 to 14) (size 15 to 20)
#    0.000    2.714    2.143    1.714    4.000    0.857 
#    0.000    2.857    0.000    3.857    0.000    0.000 
#    0.000    0.000    0.000    2.571    0.000    8.429 
#
# Total GULP energy -156031.055075 kJ/mol
# GULP energy per Si atom -5572.537681 kJ/mol
# Density = 1.682531 g / cm^3
# Si number density = 16.863694 Si / 1000 Ang^3
#
#
#
# Elastic Constant Matrix: (Units=GPa)
#
#
# Indices 1 2 3 4 5 6 
#
# 1 127.4559 59.2353 50.3956 0.0000 34.8111 0.0000
# 2 59.2353 80.9167 23.8277 0.0000 19.4891 0.0000
# 3 50.3956 23.8277 50.4174 0.0000 9.4398 0.0000
# 4 0.0000 0.0000 0.0000 6.4373 0.0000 3.6466
# 5 34.8111 19.4891 9.4398 0.0000 24.4207 0.0000
# 6 0.0000 0.0000 0.0000 3.6466 0.0000 -1.6738
#
#
#
# Elastic Compliance Matrix: (Units=1/GPa)
#
#
# Indices 1 2 3 4 5 6 
#
# 1 0.023326 -0.007263 -0.015893 0.000000 -0.021311 0.000000
# 2 -0.007263 0.019016 -0.000889 0.000000 -0.004479 0.000000
# 3 -0.015893 -0.000889 0.034245 0.000000 0.010127 0.000000
# 4 0.000000 0.000000 0.000000 0.069531 0.000000 0.151486
# 5 -0.021311 -0.004479 0.010127 0.000000 0.070986 0.000000
# 6 0.000000 0.000000 0.000000 0.151486 0.000000 -0.267418
#
#
# Mechanical properties :
#
#
# Convention : Reuss Voigt Hill
#
# Bulk Modulus (GPa) = 35.09176 58.41191 46.75184
# Shear Modulus (GPa) = 687.39224 14.19228 350.79226
#
# Velocity S-wave (km/s) = 20.21142 2.90416 14.43842
# Velocity P-wave (km/s) = 23.78073 6.77926 17.48544
#
# Compressibility (1/GPa) = 0.02849672
#
# Stress axis : x y z
#
# Youngs Moduli (GPa) = 42.87108 52.58826 29.20176
#
# Poissons Ratio (x) = 0.38194 0.46411
# Poissons Ratio (y) = 0.31137 0.02595
# Poissons Ratio (z) = 0.68136 0.04673
#
# Static dielectric constant tensor:
#      x y z
#    x 1.570440 0.000000 0.016740 
#    y 0.000000 1.606140 0.000000 
#    z 0.016740 0.000000 1.533290 
# 
# From -- ./inp_files/93559.got.cif
#   From: 2010.05.17/outbox.cif.g08.bks.cpg/sg10_47_cif.got.tgz:93559.got - 2010.06.03 11:33:40.
