data_PCOD9141581
_publ_section_title
;
Structure prediction by ZEFSAII (Michael W. Deem and Ramdas Pophale) SiO2 
 PCOD9141581
Probable space group: P 2/M
;
_chemical_formula_sum "Si O2"
_cell_formula_units_Z 24
_cell_length_a 22.151733
_cell_length_b 9.283004
_cell_length_c 17.865699
_cell_angle_alpha 90.000000
_cell_angle_beta 18.208901
_cell_angle_gamma 90.000000
_cell_volume 1148.000167
_symmetry_space_group_name_H-M "P 2/M"
_symmetry_group_IT_number 10
_symmetry_cell_setting 'monoclinic'
loop_
_space_group_symop_operation_xyz
x,y,z
-x,y,-z
-x,-y,-z
x,-y,z
loop_
_atom_site_type_symbol
_atom_site_label
_atom_site_fract_x
_atom_site_fract_y
_atom_site_fract_z
Si Si1 0.055633 0.839251 0.600045
Si Si2 0.297301 0.835371 0.690994
Si Si3 0.485926 0.328657 0.342796
Si Si4 0.703815 0.339775 0.800451
Si Si5 0.623257 0.162740 0.044445
Si Si6 0.858418 0.173139 0.974293
O O1 0.156166 0.730399 0.425601
O O2 0.832405 0.846469 0.837827
O O3 0.040907 0.800719 0.705307
O O4 0.139939 0.000000 0.491978
O O5 0.500000 0.831646 0.500000
O O6 0.323120 0.730930 0.590758
O O7 0.273363 0.000000 0.692983
O O8 0.136015 0.800959 0.943403
O O9 0.484419 0.500000 0.339090
O O10 0.488680 0.254637 0.258177
O O11 0.685041 0.271476 0.146781
O O12 0.768625 0.500000 0.746805
O O13 0.668202 0.239655 0.913653
O O14 0.500000 0.351121 0.000000
O O15 0.550330 0.000000 0.120469
O O16 0.812229 0.000000 0.020759
#
# Coordination Sequence:
#
# PCOD9141581 Si02
#       6
#     4   4   4   4   4   4
#     4   9  18  33  53  76  99 127 166 206 242 285
#     4   8  13  23  38  58  91 131 162 192 234 280
#     4  10  17  24  39  66  98 128 159 197 240 286
#     4  11  24  38  51  72 101 129 159 199 248 299
#     4  10  20  35  54  74  97 128 167 206 243 288
#     4   8  15  27  42  63  94 129 163 199 237 280
#
# _framework density 20.905919999999998
#
# number of rings (size 3 to 8) (size 9 to 14) (size 15 to 20)
#    0.000    2.667    0.000    5.000    0.000    9.667 
#    0.000    0.000    0.000    0.000    0.000    1.167 
#    0.000    9.333    0.000    0.000    0.000    0.000 
#
# Total GULP energy -133847.540386 kJ/mol
# GULP energy per Si atom -5576.980849 kJ/mol
# Density = 2.085834 g / cm^3
# Si number density = 20.905920 Si / 1000 Ang^3
#
#
#
# Elastic Constant Matrix: (Units=GPa)
#
#
# Indices 1 2 3 4 5 6 
#
# 1 17.1066 53.3558 96.2760 0.0000 28.7883 0.0000
# 2 53.3558 169.9831 79.5438 0.0000 56.3960 0.0000
# 3 96.2760 79.5438 44.5497 0.0000 64.3609 0.0000
# 4 0.0000 0.0000 0.0000 19.7682 0.0000 19.1240
# 5 28.7883 56.3960 64.3609 0.0000 57.5900 0.0000
# 6 0.0000 0.0000 0.0000 19.1240 0.0000 97.6785
#
#
#
# Elastic Compliance Matrix: (Units=1/GPa)
#
#
# Indices 1 2 3 4 5 6 
#
# 1 0.008324 -0.004261 0.016920 0.000000 -0.018898 0.000000
# 2 -0.004261 0.010199 -0.003823 0.000000 -0.003585 0.000000
# 3 0.016920 -0.003823 0.000784 0.000000 -0.005590 0.000000
# 4 0.000000 0.000000 0.000000 0.062406 0.000000 -0.012218
# 5 -0.018898 -0.003585 -0.005590 0.000000 0.036569 0.000000
# 6 0.000000 0.000000 0.000000 -0.012218 0.000000 0.012630
#
#
# Mechanical properties :
#
#
# Convention : Reuss Voigt Hill
#
# Bulk Modulus (GPa) = 27.04246 76.66562 51.85404
# Shear Modulus (GPa) = 39.81963 35.17159 37.49561
#
# Velocity S-wave (km/s) = 4.36903 4.10613 4.23962
# Velocity P-wave (km/s) = 6.19795 7.69621 6.98736
#
# Compressibility (1/GPa) = 0.03697889
#
# Stress axis : x y z
#
# Youngs Moduli (GPa) = 120.13126 98.05178 1275.57237
#
# Poissons Ratio (x) = 0.41777 -21.58244
# Poissons Ratio (y) = 0.51184 4.87664
# Poissons Ratio (z) = -2.03260 0.37486
#
# Static dielectric constant tensor:
#      x y z
#    x 1.796530 0.000000 0.026360 
#    y 0.000000 1.730080 0.000000 
#    z 0.026360 0.000000 1.795630 
# 
# From -- ./inp_files/60179.got.cif
#   From: 2010.05.17/outbox.cif.g08.bks.cpg/sg10_31_cif.got.tgz:60179.got - 2010.06.03 11:33:40.
