data_PCOD9141178
_publ_section_title
;
Structure prediction by ZEFSAII (Michael W. Deem and Ramdas Pophale) SiO2 
 PCOD9141178
Probable space group: C C
;
_chemical_formula_sum "Si O2"
_cell_formula_units_Z 24
_cell_length_a 5.027505
_cell_length_b 14.018940
_cell_length_c 16.183665
_cell_angle_alpha 90.000000
_cell_angle_beta 124.478626
_cell_angle_gamma 90.000000
_cell_volume 940.263520
_symmetry_space_group_name_H-M "C C"
_symmetry_group_IT_number 9
_symmetry_cell_setting 'monoclinic'
loop_
_space_group_symop_operation_xyz
x,y,z
x,-y,1/2+z
1/2+x,1/2+y,z
1/2+x,1/2-y,1/2+z
loop_
_atom_site_type_symbol
_atom_site_label
_atom_site_fract_x
_atom_site_fract_y
_atom_site_fract_z
Si Si1 0.251990 0.670920 0.090750
Si Si2 0.146281 0.053761 0.463266
Si Si3 0.901454 0.422467 0.686794
Si Si4 0.000773 0.356545 0.887343
Si Si5 0.089443 0.624620 0.673936
Si Si6 0.616572 0.348565 0.391143
O O1 0.527373 0.599417 0.110227
O O2 0.410239 0.773117 0.142109
O O3 0.088338 0.626705 0.143931
O O4 0.992369 0.675345 0.971090
O O5 0.214463 0.089686 0.382708
O O6 0.485154 0.081271 0.566867
O O7 0.861188 0.102775 0.464919
O O8 0.068628 0.943870 0.435178
O O9 0.982077 0.371520 0.786434
O O10 0.963314 0.535390 0.706406
O O11 0.960082 0.246237 0.901379
O O12 0.452920 0.639099 0.772124
#
# Coordination Sequence:
#
# PCOD9141178 Si02
#       6
#     4   4   4   4   4   4
#     4  12  29  50  79 116 161 203 266 330 396 471
#     4  12  29  50  76 119 159 208 260 335 390 474
#     4  12  28  53  78 118 158 210 266 332 393 474
#     4  12  28  50  80 116 162 204 270 322 398 473
#     4  12  28  51  84 117 159 213 266 327 401 467
#     4  12  28  50  83 118 159 214 262 328 398 473
#
# _framework density 25.524757999999999
#
# number of rings (size 3 to 8) (size 9 to 14) (size 15 to 20)
#    0.000    0.000    6.667    1.000    4.667    4.000 
#    0.000    0.000    0.000    0.000    0.000    0.000 
#    0.000    0.000    0.000    0.000    0.000    0.000 
#
# Total GULP energy -67095.772711 kJ/mol
# GULP energy per Si atom -5591.314393 kJ/mol
# Density = 2.546666 g / cm^3
# Si number density = 25.524758 Si / 1000 Ang^3
#
#
#
# Elastic Constant Matrix: (Units=GPa)
#
#
# Indices 1 2 3 4 5 6 
#
# 1 120.9125 47.3127 38.5813 0.0000 -11.9386 0.0000
# 2 47.3127 190.3395 33.6607 0.0000 3.2698 0.0000
# 3 38.5813 33.6607 172.2805 0.0000 32.8139 0.0000
# 4 0.0000 0.0000 0.0000 42.1249 0.0000 0.9272
# 5 -11.9386 3.2698 32.8139 0.0000 32.2131 0.0000
# 6 0.0000 0.0000 0.0000 0.9272 0.0000 19.9623
#
#
#
# Elastic Compliance Matrix: (Units=1/GPa)
#
#
# Indices 1 2 3 4 5 6 
#
# 1 0.011074 -0.002261 -0.003553 0.000000 0.007953 0.000000
# 2 -0.002261 0.005915 -0.000466 0.000000 -0.000964 0.000000
# 3 -0.003553 -0.000466 0.008602 0.000000 -0.010032 0.000000
# 4 0.000000 0.000000 0.000000 0.023763 0.000000 -0.001104
# 5 0.007953 -0.000964 -0.010032 0.000000 0.044308 0.000000
# 6 0.000000 0.000000 0.000000 -0.001104 0.000000 0.050146
#
#
# Mechanical properties :
#
#
# Convention : Reuss Voigt Hill
#
# Bulk Modulus (GPa) = 76.73817 80.29352 78.51585
# Shear Modulus (GPa) = 31.11184 43.12524 37.11854
#
# Velocity S-wave (km/s) = 3.49505 4.11487 3.81756
# Velocity P-wave (km/s) = 6.81297 7.35538 7.08937
#
# Compressibility (1/GPa) = 0.01303132
#
# Stress axis : x y z
#
# Youngs Moduli (GPa) = 90.30047 169.07027 116.25330
#
# Poissons Ratio (x) = 0.38227 0.41305
# Poissons Ratio (y) = 0.20417 0.05414
# Poissons Ratio (z) = 0.32084 0.07873
#
# Static dielectric constant tensor:
#      x y z
#    x 1.946440 0.000000 0.063520 
#    y 0.000000 2.013670 0.000000 
#    z 0.063520 0.000000 2.169500 
# 
# From -- ./inp_files/28555.got.cif
#   From: 2010.05.17/outbox.cif.g08.bks.cpg/sg9_15_cif.got.tgz:28555.got - 2010.06.03 20:04:27.
