data_PCOD9141647
_publ_section_title
;
Structure prediction by ZEFSAII (Michael W. Deem and Ramdas Pophale) SiO2 
 PCOD9141647
Probable space group: P 2/M
;
_chemical_formula_sum "Si O2"
_cell_formula_units_Z 24
_cell_length_a 14.094488
_cell_length_b 10.301126
_cell_length_c 20.916300
_cell_angle_alpha 90.000000
_cell_angle_beta 157.575199
_cell_angle_gamma 90.000000
_cell_volume 1158.456868
_symmetry_space_group_name_H-M "P 2/M"
_symmetry_group_IT_number 10
_symmetry_cell_setting 'monoclinic'
loop_
_space_group_symop_operation_xyz
x,y,z
-x,y,-z
-x,-y,-z
x,-y,z
loop_
_atom_site_type_symbol
_atom_site_label
_atom_site_fract_x
_atom_site_fract_y
_atom_site_fract_z
Si Si1 0.400051 0.149767 0.331337
Si Si2 0.581152 0.849961 0.298978
Si Si3 0.287493 0.139131 0.814836
Si Si4 0.892533 0.846303 0.084366
Si Si5 0.912725 0.749597 0.667678
Si Si6 0.001550 0.646189 0.593196
O O1 0.445001 0.159976 0.283413
O O2 0.625178 0.228551 0.503131
O O3 0.438743 0.000000 0.373717
O O4 0.123867 0.183571 0.181543
O O5 0.366417 0.830929 0.113064
O O6 0.790912 0.737969 0.430278
O O7 0.677458 0.000000 0.353866
O O8 0.030766 0.137600 0.695838
O O9 0.248362 0.263922 0.746450
O O10 0.325232 0.000000 0.806397
O O11 0.500000 0.157099 0.000000
O O12 0.913485 0.000000 0.115913
O O13 0.930352 0.757698 0.170227
O O14 0.942835 0.639034 0.633300
O O15 0.021914 0.500000 0.582370
#
# Coordination Sequence:
#
# PCOD9141647 Si02
#       6
#     4   4   4   4   4   4
#     4   9  15  25  43  69  99 127 158 195 236 283
#     4   9  17  29  47  70  98 127 161 197 235 279
#     4   9  17  30  52  78  97 117 152 197 242 285
#     4  10  17  25  44  75 102 125 156 198 242 284
#     4   9  18  28  46  69 101 123 155 194 246 278
#     4   9  19  33  50  69  94 128 166 194 231 281
#
# _framework density 20.717216000000001
#
# number of rings (size 3 to 8) (size 9 to 14) (size 15 to 20)
#    1.000    1.833    0.000    3.000    0.000    3.667 
#    0.000    0.833    0.000   17.000    0.000    5.833 
#    0.000    0.000    0.000    0.000    0.000    0.000 
#
# Total GULP energy -133606.851515 kJ/mol
# GULP energy per Si atom -5566.952146 kJ/mol
# Density = 2.067006 g / cm^3
# Si number density = 20.717216 Si / 1000 Ang^3
#
#
#
# Elastic Constant Matrix: (Units=GPa)
#
#
# Indices 1 2 3 4 5 6 
#
# 1 71.9293 27.0509 30.1766 0.0000 -8.8916 0.0000
# 2 27.0509 139.0226 66.0412 0.0000 -10.9872 0.0000
# 3 30.1766 66.0412 123.8734 0.0000 -18.3417 0.0000
# 4 0.0000 0.0000 0.0000 3.9379 0.0000 11.6257
# 5 -8.8916 -10.9872 -18.3417 0.0000 41.4898 0.0000
# 6 0.0000 0.0000 0.0000 11.6257 0.0000 -9.1650
#
#
#
# Elastic Compliance Matrix: (Units=1/GPa)
#
#
# Indices 1 2 3 4 5 6 
#
# 1 0.015887 -0.001657 -0.002726 0.000000 0.001761 0.000000
# 2 -0.001657 0.009809 -0.004809 0.000000 0.000117 0.000000
# 3 -0.002726 -0.004809 0.011798 0.000000 0.003358 0.000000
# 4 0.000000 0.000000 0.000000 0.053519 0.000000 0.067888
# 5 0.001761 0.000117 0.003358 0.000000 0.025995 0.000000
# 6 0.000000 0.000000 0.000000 0.067888 0.000000 -0.022995
#
#
# Mechanical properties :
#
#
# Convention : Reuss Voigt Hill
#
# Bulk Modulus (GPa) = 52.32792 64.59586 58.46189
# Shear Modulus (GPa) = 42.09960 21.35632 31.72796
#
# Velocity S-wave (km/s) = 4.51278 3.21417 3.91766
# Velocity P-wave (km/s) = 7.24338 6.70984 6.98171
#
# Compressibility (1/GPa) = 0.01911026
#
# Stress axis : x y z
#
# Youngs Moduli (GPa) = 62.94423 101.94730 84.76278
#
# Poissons Ratio (x) = 0.16894 0.23106
# Poissons Ratio (y) = 0.10431 0.40758
# Poissons Ratio (z) = 0.17159 0.49022
#
# Static dielectric constant tensor:
#      x y z
#    x 1.817510 0.000000 -0.017310 
#    y 0.000000 1.728240 0.000000 
#    z -0.017310 0.000000 1.754650 
# 
# From -- ./inp_files/32250.got.cif
#   From: 2010.05.17/outbox.cif.g08.bks.cpg/sg10_17_cif.got.tgz:32250.got - 2010.06.03 11:33:40.
