data_PCOD9141398
_publ_section_title
;
Structure prediction by ZEFSAII (Michael W. Deem and Ramdas Pophale) SiO2 
 PCOD9141398
Probable space group: P 2/M
;
_chemical_formula_sum "Si O2"
_cell_formula_units_Z 18
_cell_length_a 15.948460
_cell_length_b 8.125004
_cell_length_c 21.810765
_cell_angle_alpha 90.000000
_cell_angle_beta 21.677898
_cell_angle_gamma 90.000000
_cell_volume 1043.990118
_symmetry_space_group_name_H-M "P 2/M"
_symmetry_group_IT_number 10
_symmetry_cell_setting 'monoclinic'
loop_
_space_group_symop_operation_xyz
x,y,z
-x,y,-z
-x,-y,-z
x,-y,z
loop_
_atom_site_type_symbol
_atom_site_label
_atom_site_fract_x
_atom_site_fract_y
_atom_site_fract_z
Si Si1 0.582732 0.500000 0.371444
Si Si2 0.416017 0.813944 0.127692
Si Si3 0.743422 0.822284 0.299280
Si Si4 0.902181 0.500000 0.634078
Si Si5 0.120128 0.500000 0.611365
Si Si6 0.917283 0.187950 0.818233
O O1 0.500000 0.500000 0.500000
O O2 0.724648 0.666163 0.268543
O O3 0.368371 0.500000 0.472675
O O4 0.248657 0.664116 0.253930
O O5 0.323658 0.000000 0.199744
O O6 0.500000 0.804248 0.000000
O O7 0.647408 0.796716 0.009642
O O8 0.500000 0.830660 0.500000
O O9 0.936420 0.797038 0.219294
O O10 0.777683 0.000000 0.246104
O O11 0.000000 0.500000 0.500000
O O12 0.094478 0.500000 0.555968
O O13 0.998330 0.335001 0.719432
O O14 0.957854 0.000000 0.766935
#
# Coordination Sequence:
#
# PCOD9141398 Si02
#       6
#     2   4   4   2   2   4
#     4  10  16  24  40  69 102 135 157 199 265 311
#     4  10  20  36  58  81 103 133 179 231 277 316
#     4   9  15  24  39  68 109 132 151 195 259 322
#     4  12  26  39  53  75 108 150 186 219 264 319
#     4  12  19  30  48  71 107 137 172 214 257 313
#     4  10  18  28  49  79 105 131 164 210 267 316
#
# _framework density 17.241541999999999
#
# number of rings (size 3 to 8) (size 9 to 14) (size 15 to 20)
#    0.000    1.778    6.667    1.000    0.000    0.444 
#    0.000    0.000    0.000    0.000    0.000    3.111 
#    0.000    5.333    0.000    0.000    0.000    0.000 
#
# Total GULP energy -100253.847108 kJ/mol
# GULP energy per Si atom -5569.658173 kJ/mol
# Density = 1.720230 g / cm^3
# Si number density = 17.241542 Si / 1000 Ang^3
#
#
#
# Elastic Constant Matrix: (Units=GPa)
#
#
# Indices 1 2 3 4 5 6 
#
# 1 97.8527 59.5067 44.1928 0.0000 -28.1199 0.0000
# 2 59.5067 175.0116 36.1339 0.0000 -0.0233 0.0000
# 3 44.1928 36.1339 35.0514 0.0000 -14.8209 0.0000
# 4 0.0000 0.0000 0.0000 -42.2997 0.0000 -29.7989
# 5 -28.1199 -0.0233 -14.8209 0.0000 29.6457 0.0000
# 6 0.0000 0.0000 0.0000 -29.7989 0.0000 8.9819
#
#
#
# Elastic Compliance Matrix: (Units=1/GPa)
#
#
# Indices 1 2 3 4 5 6 
#
# 1 0.028437 -0.004473 -0.025156 0.000000 0.014394 0.000000
# 2 -0.004473 0.008528 -0.006268 0.000000 -0.007370 0.000000
# 3 -0.025156 -0.006268 0.071792 0.000000 0.012025 0.000000
# 4 0.000000 0.000000 0.000000 -0.007084 0.000000 -0.023502
# 5 0.014394 -0.007370 0.012025 0.000000 0.053390 0.000000
# 6 0.000000 0.000000 0.000000 -0.023502 0.000000 0.033362
#
#
# Mechanical properties :
#
#
# Convention : Reuss Voigt Hill
#
# Bulk Modulus (GPa) = 27.05379 65.28694 46.17036
# Shear Modulus (GPa) = 18.34591 10.47108 14.40849
#
# Velocity S-wave (km/s) = 3.26552 2.46705 2.89396
# Velocity P-wave (km/s) = 5.47205 6.78700 6.16469
#
# Compressibility (1/GPa) = 0.03696340
#
# Stress axis : x y z
#
# Youngs Moduli (GPa) = 35.16527 117.26137 13.92911
#
# Poissons Ratio (x) = 0.52454 0.35040
# Poissons Ratio (y) = 0.15730 0.08730
# Poissons Ratio (z) = 0.88462 0.73494
#
# Static dielectric constant tensor:
#      x y z
#    x 1.584390 0.000000 -0.040280 
#    y 0.000000 1.660750 0.000000 
#    z -0.040280 0.000000 1.554210 
# 
# From -- ./inp_files/84619.got.cif
#   From: 2010.05.17/outbox.cif.g08.bks.cpg/sg10_43_cif.got.tgz:84619.got - 2010.06.03 11:33:40.
