data_PCOD9141723
_publ_section_title
;
Structure prediction by ZEFSAII (Michael W. Deem and Ramdas Pophale) SiO2 
 PCOD9141723
Probable space group: P 2/M
;
_chemical_formula_sum "Si O2"
_cell_formula_units_Z 24
_cell_length_a 12.595064
_cell_length_b 7.775899
_cell_length_c 15.979525
_cell_angle_alpha 90.000000
_cell_angle_beta 73.692877
_cell_angle_gamma 90.000000
_cell_volume 1502.042439
_symmetry_space_group_name_H-M "P 2/M"
_symmetry_group_IT_number 10
_symmetry_cell_setting 'monoclinic'
loop_
_space_group_symop_operation_xyz
x,y,z
-x,y,-z
-x,-y,-z
x,-y,z
loop_
_atom_site_type_symbol
_atom_site_label
_atom_site_fract_x
_atom_site_fract_y
_atom_site_fract_z
Si Si1 0.317779 0.000000 0.564576
Si Si2 0.940593 0.791345 0.142095
Si Si3 0.450234 0.703311 0.752168
Si Si4 0.543205 0.000000 0.625684
Si Si5 0.414436 0.294830 0.950670
Si Si6 0.231944 0.693950 0.686450
Si Si7 0.836425 0.793096 0.988516
O O1 0.432559 0.000000 0.592278
O O2 0.354069 0.000000 0.460274
O O3 0.251602 0.166867 0.610283
O O4 0.880328 0.721399 0.236939
O O5 0.873054 0.736297 0.073669
O O6 0.936280 0.000000 0.146746
O O7 0.067020 0.737718 0.096533
O O8 0.480501 0.500000 0.742872
O O9 0.436393 0.764365 0.850870
O O10 0.331568 0.718384 0.731831
O O11 0.532524 0.829506 0.684688
O O12 0.429114 0.500000 0.944084
O O13 0.287580 0.261381 0.002614
O O14 0.500000 0.224134 0.000000
O O15 0.239442 0.500000 0.652883
O O16 0.839541 0.000000 0.989232
#
# Coordination Sequence:
#
# PCOD9141723 Si02
#       7
#     2   4   4   2   4   4   4
#     4   9  18  30  42  64  92 113 147 193 230 274
#     4   9  16  28  43  64  94 122 151 191 228 270
#     4   9  18  30  44  64  89 119 158 191 220 271
#     4   9  18  30  47  61  83 124 150 184 238 274
#     4  10  20  32  44  62  93 127 158 196 230 256
#     4  10  17  26  45  66  89 122 152 182 227 278
#     4   9  18  28  44  65  88 122 158 190 226 264
#
# _framework density 15.978244
#
# number of rings (size 3 to 8) (size 9 to 14) (size 15 to 20)
#    0.000    2.667    2.500    1.000    1.167    1.667 
#    0.000    5.000    0.000    0.000    0.000    0.000 
#    0.000    2.667    0.000    7.500    0.000    0.333 
#
# Total GULP energy -133724.090478 kJ/mol
# GULP energy per Si atom -5571.837103 kJ/mol
# Density = 1.594188 g / cm^3
# Si number density = 15.978244 Si / 1000 Ang^3
#
#
#
# Elastic Constant Matrix: (Units=GPa)
#
#
# Indices 1 2 3 4 5 6 
#
# 1 69.3701 18.2912 47.3917 0.0000 -10.9398 0.0000
# 2 18.2912 65.9292 53.2431 0.0000 -9.6570 0.0000
# 3 47.3917 53.2431 116.3791 0.0000 -32.7627 0.0000
# 4 0.0000 0.0000 0.0000 -17.8896 0.0000 26.8689
# 5 -10.9398 -9.6570 -32.7627 0.0000 19.7151 0.0000
# 6 0.0000 0.0000 0.0000 26.8689 0.0000 -16.5230
#
#
#
# Elastic Compliance Matrix: (Units=1/GPa)
#
#
# Indices 1 2 3 4 5 6 
#
# 1 0.020419 0.002423 -0.011086 0.000000 -0.005906 0.000000
# 2 0.002423 0.026020 -0.016770 0.000000 -0.013778 0.000000
# 3 -0.011086 -0.016770 0.031446 0.000000 0.037892 0.000000
# 4 0.000000 0.000000 0.000000 0.038755 0.000000 0.063021
# 5 -0.005906 -0.013778 0.037892 0.000000 0.103667 0.000000
# 6 0.000000 0.000000 0.000000 0.063021 0.000000 0.041960
#
#
# Mechanical properties :
#
#
# Convention : Reuss Voigt Hill
#
# Bulk Modulus (GPa) = 37.00946 54.39228 45.70087
# Shear Modulus (GPa) = 15.52126 5.91064 10.71595
#
# Velocity S-wave (km/s) = 3.12011 1.92541 2.59252
# Velocity P-wave (km/s) = 6.01605 6.24966 6.13397
#
# Compressibility (1/GPa) = 0.02702012
#
# Stress axis : x y z
#
# Youngs Moduli (GPa) = 48.97442 38.43164 31.80026
#
# Poissons Ratio (x) = -0.09311 0.35253
# Poissons Ratio (y) = -0.11865 0.53328
# Poissons Ratio (z) = 0.54292 0.64448
#
# Static dielectric constant tensor:
#      x y z
#    x 1.520940 0.000000 -0.010960 
#    y 0.000000 1.567180 0.000000 
#    z -0.010960 0.000000 1.525530 
# 
# From -- ./inp_files/48679.got.cif
#   From: 2010.05.17/outbox.cif.g08.bks.cpg/sg10_25_cif.got.tgz:48679.got - 2010.06.03 11:33:40.
