data_PCOD9141587
_publ_section_title
;
Structure prediction by ZEFSAII (Michael W. Deem and Ramdas Pophale) SiO2 
 PCOD9141587
Probable space group: P 2/M
;
_chemical_formula_sum "Si O2"
_cell_formula_units_Z 28
_cell_length_a 23.404956
_cell_length_b 8.348243
_cell_length_c 12.569114
_cell_angle_alpha 90.000000
_cell_angle_beta 135.016627
_cell_angle_gamma 90.000000
_cell_volume 1736.067118
_symmetry_space_group_name_H-M "P 2/M"
_symmetry_group_IT_number 10
_symmetry_cell_setting 'monoclinic'
loop_
_space_group_symop_operation_xyz
x,y,z
-x,y,-z
-x,-y,-z
x,-y,z
loop_
_atom_site_type_symbol
_atom_site_label
_atom_site_fract_x
_atom_site_fract_y
_atom_site_fract_z
Si Si1 0.106247 0.813612 0.070487
Si Si2 0.492158 0.693798 0.162761
Si Si3 0.370340 0.305228 0.827878
Si Si4 0.269935 0.309123 0.336048
Si Si5 0.550310 0.191023 0.464238
Si Si6 0.048028 0.687762 0.219274
Si Si7 0.217533 0.695520 0.505733
O O1 0.198892 0.768579 0.171983
O O2 0.081356 0.712629 0.142556
O O3 0.100125 0.000000 0.089883
O O4 0.038492 0.773601 0.893644
O O5 0.491937 0.500000 0.170302
O O6 0.567930 0.737117 0.186326
O O7 0.505044 0.764112 0.295587
O O8 0.412206 0.746110 0.992826
O O9 0.368984 0.500000 0.828681
O O10 0.280953 0.250088 0.678330
O O11 0.261048 0.500000 0.320460
O O12 0.359872 0.262785 0.422259
O O13 0.253311 0.257831 0.437023
O O14 0.500000 0.248776 0.500000
O O15 0.557942 0.000000 0.480857
O O16 0.035730 0.500000 0.222290
O O17 0.124078 0.747987 0.388920
O O18 0.215952 0.500000 0.504490
#
# Coordination Sequence:
#
# PCOD9141587 Si02
#       7
#     4   4   4   4   4   4   4
#     4  10  17  25  37  55  83 114 142 178 222 261
#     4   9  16  28  48  66  84 112 149 185 218 262
#     4   8  13  24  44  69  89 110 143 184 223 257
#     4  10  18  30  47  62  79 109 150 186 217 263
#     4  11  23  35  45  61  89 119 148 186 228 264
#     4   9  15  23  36  56  82 116 153 179 203 249
#     4   8  13  22  40  63  86 110 141 179 215 251
#
# _framework density 16.128408
#
# number of rings (size 3 to 8) (size 9 to 14) (size 15 to 20)
#    0.000    2.714    1.429    5.143    0.000    1.143 
#    0.000    1.429    0.000    0.000    0.000    0.000 
#    0.000    1.143    0.000   13.143    0.000    3.571 
#
# Total GULP energy -155878.029240 kJ/mol
# GULP energy per Si atom -5567.072473 kJ/mol
# Density = 1.609170 g / cm^3
# Si number density = 16.128408 Si / 1000 Ang^3
#
#
#
# Elastic Constant Matrix: (Units=GPa)
#
#
# Indices 1 2 3 4 5 6 
#
# 1 48.6355 9.3831 51.4321 0.0000 7.7855 0.0000
# 2 9.3831 21.8794 12.9049 0.0000 3.7144 0.0000
# 3 51.4321 12.9049 153.4017 0.0000 34.2915 0.0000
# 4 0.0000 0.0000 0.0000 -4.6365 0.0000 0.2771
# 5 7.7855 3.7144 34.2915 0.0000 23.3536 0.0000
# 6 0.0000 0.0000 0.0000 0.2771 0.0000 15.1496
#
#
#
# Elastic Compliance Matrix: (Units=1/GPa)
#
#
# Indices 1 2 3 4 5 6 
#
# 1 0.034266 -0.008674 -0.012674 0.000000 0.008566 0.000000
# 2 -0.008674 0.050389 -0.000276 0.000000 -0.004717 0.000000
# 3 -0.012674 -0.000276 0.014644 0.000000 -0.017233 0.000000
# 4 0.000000 0.000000 0.000000 -0.215447 0.000000 0.003941
# 5 0.008566 -0.004717 -0.017233 0.000000 0.066019 0.000000
# 6 0.000000 0.000000 0.000000 0.003941 0.000000 0.065936
#
#
# Mechanical properties :
#
#
# Convention : Reuss Voigt Hill
#
# Bulk Modulus (GPa) = 17.84120 41.26190 29.55155
# Shear Modulus (GPa) = 64.31814 16.78643 40.55228
#
# Velocity S-wave (km/s) = 6.32182 3.22964 5.01976
# Velocity P-wave (km/s) = 8.02329 6.28859 7.20831
#
# Compressibility (1/GPa) = 0.05605005
#
# Stress axis : x y z
#
# Youngs Moduli (GPa) = 29.18363 19.84565 68.28950
#
# Poissons Ratio (x) = 0.17214 0.86548
# Poissons Ratio (y) = 0.25314 0.01887
# Poissons Ratio (z) = 0.36986 0.00548
#
# Static dielectric constant tensor:
#      x y z
#    x 1.511520 0.000000 0.039680 
#    y 0.000000 1.547540 0.000000 
#    z 0.039680 0.000000 1.601680 
# 
# From -- ./inp_files/54961.got.cif
#   From: 2010.05.17/outbox.cif.g08.bks.cpg/sg10_28_cif.got.tgz:54961.got - 2010.06.03 11:33:40.
