data_PCOD9141669
_publ_section_title
;
Structure prediction by ZEFSAII (Michael W. Deem and Ramdas Pophale) SiO2 
 PCOD9141669
Probable space group: P 2/M
;
_chemical_formula_sum "Si O2"
_cell_formula_units_Z 32
_cell_length_a 17.864784
_cell_length_b 13.307189
_cell_length_c 16.089599
_cell_angle_alpha 90.000000
_cell_angle_beta 147.100473
_cell_angle_gamma 90.000000
_cell_volume 2077.605595
_symmetry_space_group_name_H-M "P 2/M"
_symmetry_group_IT_number 10
_symmetry_cell_setting 'monoclinic'
loop_
_space_group_symop_operation_xyz
x,y,z
-x,y,-z
-x,-y,-z
x,-y,z
loop_
_atom_site_type_symbol
_atom_site_label
_atom_site_fract_x
_atom_site_fract_y
_atom_site_fract_z
Si Si1 0.395091 0.116692 0.769948
Si Si2 0.931921 0.118762 0.214479
Si Si3 0.637997 0.121257 0.877992
Si Si4 0.226435 0.814302 0.453737
Si Si5 0.652493 0.688914 0.173358
Si Si6 0.928878 0.712061 0.345387
Si Si7 0.193146 0.386140 0.519129
Si Si8 0.538251 0.878141 0.442778
O O1 0.540466 0.151160 0.864434
O O2 0.290586 0.128128 0.594315
O O3 0.354891 0.193719 0.804688
O O4 0.401074 0.000000 0.800988
O O5 0.072169 0.146814 0.298788
O O6 0.930478 0.185095 0.295892
O O7 0.927150 0.000000 0.226575
O O8 0.795159 0.149294 0.037301
O O9 0.573049 0.154528 0.730438
O O10 0.630221 0.000000 0.870653
O O11 0.227648 0.698390 0.483283
O O12 0.319262 0.837065 0.461016
O O13 0.773271 0.676581 0.217857
O O14 0.709192 0.633560 0.309210
O O15 0.500000 0.659478 0.000000
O O16 0.000000 0.730666 0.500000
O O17 0.034807 0.636074 0.399196
O O18 0.208796 0.500000 0.505891
O O19 0.500000 0.846692 0.500000
O O20 0.545211 0.000000 0.448375
#
# Coordination Sequence:
#
# PCOD9141669 Si02
#       8
#     4   4   4   4   4   4   4   4
#     4   9  16  27  41  57  85 123 150 170 206 259
#     4  10  17  26  41  61  88 117 146 182 213 241
#     4   8  15  26  40  60  87 121 151 170 199 244
#     4   9  17  29  46  65  82 107 148 181 205 250
#     4  10  19  28  41  64  87 108 144 190 226 258
#     4   9  19  30  41  60  84 114 148 180 221 266
#     4   9  19  35  49  58  76 110 146 183 228 270
#     4   9  16  28  47  70  97 124 141 157 194 252
#
# _framework density 15.402346
#
# number of rings (size 3 to 8) (size 9 to 14) (size 15 to 20)
#    0.000    2.875    0.000    3.375    0.000    3.500 
#    0.000    0.625    0.000    3.375    0.000    0.000 
#    0.000    4.000    0.000    0.000    0.000    0.000 
#
# Total GULP energy -178231.163631 kJ/mol
# GULP energy per Si atom -5569.723863 kJ/mol
# Density = 1.536729 g / cm^3
# Si number density = 15.402346 Si / 1000 Ang^3
#
#
#
# Elastic Constant Matrix: (Units=GPa)
#
#
# Indices 1 2 3 4 5 6 
#
# 1 36.5132 -8.7752 8.5181 0.0000 12.7541 0.0000
# 2 -8.7752 45.3232 2.3916 0.0000 0.1401 0.0000
# 3 8.5181 2.3916 75.0272 0.0000 31.5770 0.0000
# 4 0.0000 0.0000 0.0000 6.2198 0.0000 1.6412
# 5 12.7541 0.1401 31.5770 0.0000 18.5429 0.0000
# 6 0.0000 0.0000 0.0000 1.6412 0.0000 6.3586
#
#
#
# Elastic Compliance Matrix: (Units=1/GPa)
#
#
# Indices 1 2 3 4 5 6 
#
# 1 0.054695 0.009136 0.033046 0.000000 -0.093964 0.000000
# 2 0.009136 0.023697 0.003274 0.000000 -0.012039 0.000000
# 3 0.033046 0.003274 0.067242 0.000000 -0.137262 0.000000
# 4 0.000000 0.000000 0.000000 0.172527 0.000000 -0.044530
# 5 -0.093964 -0.012039 -0.137262 0.000000 0.352395 0.000000
# 6 0.000000 0.000000 0.000000 -0.044530 0.000000 0.168761
#
#
# Mechanical properties :
#
#
# Convention : Reuss Voigt Hill
#
# Bulk Modulus (GPa) = 4.22747 17.90362 11.06555
# Shear Modulus (GPa) = 6.04409 16.53954 11.29181
#
# Velocity S-wave (km/s) = 1.98309 3.28049 2.71056
# Velocity P-wave (km/s) = 2.82740 5.09883 4.12263
#
# Compressibility (1/GPa) = 0.23654801
#
# Stress axis : x y z
#
# Youngs Moduli (GPa) = 18.28306 42.19914 14.87156
#
# Poissons Ratio (x) = -0.38555 -0.49144
# Poissons Ratio (y) = -0.16704 -0.04869
# Poissons Ratio (z) = -0.60418 -0.13817
#
# Static dielectric constant tensor:
#      x y z
#    x 1.505090 0.000000 0.024220 
#    y 0.000000 1.501230 0.000000 
#    z 0.024220 0.000000 1.545790 
# 
# From -- ./inp_files/32200.got.cif
#   From: 2010.05.17/outbox.cif.g08.bks.cpg/sg10_17_cif.got.tgz:32200.got - 2010.06.03 11:33:40.
