data_PCOD9141942
_publ_section_title
;
Structure prediction by ZEFSAII (Michael W. Deem and Ramdas Pophale) SiO2 
 PCOD9141942
Probable space group: P 2/M
;
_chemical_formula_sum "Si O2"
_cell_formula_units_Z 20
_cell_length_a 9.651592
_cell_length_b 11.221509
_cell_length_c 19.560319
_cell_angle_alpha 90.000000
_cell_angle_beta 29.720111
_cell_angle_gamma 90.000000
_cell_volume 1050.269433
_symmetry_space_group_name_H-M "P 2/M"
_symmetry_group_IT_number 10
_symmetry_cell_setting 'monoclinic'
loop_
_space_group_symop_operation_xyz
x,y,z
-x,y,-z
-x,-y,-z
x,-y,z
loop_
_atom_site_type_symbol
_atom_site_label
_atom_site_fract_x
_atom_site_fract_y
_atom_site_fract_z
Si Si1 0.023943 0.000000 0.345430
Si Si2 0.963097 0.000000 0.812748
Si Si3 0.349652 0.358908 0.495800
Si Si4 0.659276 0.252056 0.647403
Si Si5 0.495767 0.000000 0.327780
Si Si6 0.726890 0.264349 0.763605
Si Si7 0.500000 0.202536 0.000000
O O1 0.908212 0.000000 0.318135
O O2 0.199797 0.877717 0.275999
O O3 0.768645 0.000000 0.507114
O O4 0.761883 0.114977 0.902825
O O5 0.210363 0.000000 0.760205
O O6 0.500000 0.310635 0.500000
O O7 0.394951 0.500000 0.473796
O O8 0.434212 0.307038 0.385188
O O9 0.023622 0.329078 0.643622
O O10 0.540354 0.119503 0.698875
O O11 0.590200 0.307381 0.750984
O O12 0.000000 0.250330 0.500000
O O13 0.560209 0.275258 0.905383
#
# Coordination Sequence:
#
# PCOD9141942 Si02
#       7
#     2   2   4   4   2   4   2
#     4  10  17  29  52  83 113 136 176 218 272 325
#     4   9  21  30  48  77 112 158 180 216 257 317
#     4  10  22  37  57  84 109 133 174 234 286 324
#     4  10  20  32  53  85 115 140 171 221 277 328
#     4  12  18  28  53  86 116 139 177 218 277 328
#     4  10  20  35  57  76 112 149 179 218 266 320
#     4   9  20  38  49  72 114 152 191 215 252 310
#
# _framework density 19.042732000000001
#
# number of rings (size 3 to 8) (size 9 to 14) (size 15 to 20)
#    0.000    2.000    4.000    1.800    5.600    3.600 
#    0.000    2.500    0.000    0.000    0.000    2.800 
#    0.000    0.000    0.000    0.000    0.000    0.000 
#
# Total GULP energy -111492.638863 kJ/mol
# GULP energy per Si atom -5574.631943 kJ/mol
# Density = 1.899939 g / cm^3
# Si number density = 19.042732 Si / 1000 Ang^3
#
#
#
# Elastic Constant Matrix: (Units=GPa)
#
#
# Indices 1 2 3 4 5 6 
#
# 1 166.5407 23.1341 49.6194 0.0000 41.6510 0.0000
# 2 23.1341 30.2724 -6.2751 0.0000 5.9656 0.0000
# 3 49.6194 -6.2751 64.9783 0.0000 37.0459 0.0000
# 4 0.0000 0.0000 0.0000 3.6919 0.0000 8.6890
# 5 41.6510 5.9656 37.0459 0.0000 28.0061 0.0000
# 6 0.0000 0.0000 0.0000 8.6890 0.0000 45.6715
#
#
#
# Elastic Compliance Matrix: (Units=1/GPa)
#
#
# Indices 1 2 3 4 5 6 
#
# 1 0.010273 -0.005878 -0.001691 0.000000 -0.011789 0.000000
# 2 -0.005878 0.064195 0.054914 0.000000 -0.077571 0.000000
# 3 -0.001691 0.054914 0.110717 0.000000 -0.155637 0.000000
# 4 0.000000 0.000000 0.000000 0.490487 0.000000 -0.093315
# 5 -0.011789 -0.077571 -0.155637 0.000000 0.275637 0.000000
# 6 0.000000 0.000000 0.000000 -0.093315 0.000000 0.039649
#
#
# Mechanical properties :
#
#
# Convention : Reuss Voigt Hill
#
# Bulk Modulus (GPa) = 3.57304 43.86089 23.71697
# Shear Modulus (GPa) = 5.05274 28.49475 16.77375
#
# Velocity S-wave (km/s) = 1.63068 3.87248 2.97113
# Velocity P-wave (km/s) = 2.32936 6.56336 4.92461
#
# Compressibility (1/GPa) = 0.27987339
#
# Stress axis : x y z
#
# Youngs Moduli (GPa) = 97.33798 15.57756 9.03201
#
# Poissons Ratio (x) = 0.09157 0.01528
# Poissons Ratio (y) = 0.57218 -0.49598
# Poissons Ratio (z) = 0.16463 -0.85542
#
# Static dielectric constant tensor:
#      x y z
#    x 1.702180 0.000000 0.045660 
#    y 0.000000 1.679040 0.000000 
#    z 0.045660 0.000000 1.664320 
# 
# From -- ./inp_files/74599.got.cif
#   From: 2010.05.17/outbox.cif.g08.bks.cpg/sg10_38_cif.got.tgz:74599.got - 2010.06.03 11:33:40.
