data_PCOD9141708
_publ_section_title
;
Structure prediction by ZEFSAII (Michael W. Deem and Ramdas Pophale) SiO2 
 PCOD9141708
Probable space group: P 2/M
;
_chemical_formula_sum "Si O2"
_cell_formula_units_Z 20
_cell_length_a 5.649404
_cell_length_b 21.959026
_cell_length_c 7.398970
_cell_angle_alpha 90.000000
_cell_angle_beta 107.697578
_cell_angle_gamma 90.000000
_cell_volume 874.442862
_symmetry_space_group_name_H-M "P 2/M"
_symmetry_group_IT_number 10
_symmetry_cell_setting 'monoclinic'
loop_
_space_group_symop_operation_xyz
x,y,z
-x,y,-z
-x,-y,-z
x,-y,z
loop_
_atom_site_type_symbol
_atom_site_label
_atom_site_fract_x
_atom_site_fract_y
_atom_site_fract_z
Si Si1 0.654376 0.571598 0.301016
Si Si2 0.947774 0.752925 0.703194
Si Si3 0.861523 0.383596 0.733165
Si Si4 0.500000 0.176062 0.500000
Si Si5 0.276952 0.131466 0.804109
Si Si6 0.801066 0.000000 0.113248
O O1 0.629726 0.500000 0.333909
O O2 0.377259 0.597308 0.202873
O O3 0.752506 0.605805 0.504484
O O4 0.879857 0.579376 0.211120
O O5 0.944939 0.685824 0.781485
O O6 0.674600 0.780211 0.656040
O O7 0.000000 0.746511 0.500000
O O8 0.123207 0.807208 0.811536
O O9 0.356275 0.137594 0.614122
O O10 0.149196 0.065604 0.785621
O O11 0.500000 0.130468 0.000000
O O12 0.500000 0.000000 0.000000
O O13 0.000000 0.000000 0.000000
#
# Coordination Sequence:
#
# PCOD9141708 Si02
#       6
#     4   4   4   2   4   2
#     4  10  17  26  43  72 113 161 207 257 314 375
#     4  10  20  35  56  88 123 170 209 264 331 384
#     4  10  17  27  45  69 113 159 198 256 316 366
#     4  10  22  39  64  96 131 168 216 266 336 382
#     4  10  24  42  68  95 129 172 220 272 328 397
#     4  10  24  45  71  97 130 173 221 275 333 384
#
# _framework density 22.871704999999999
#
# number of rings (size 3 to 8) (size 9 to 14) (size 15 to 20)
#    0.000    2.000    2.000    4.200    8.400    0.400 
#    0.000    4.500    0.000    0.000    0.000    0.000 
#    0.000    8.800    0.000    0.000    0.000    0.000 
#
# Total GULP energy -111550.039616 kJ/mol
# GULP energy per Si atom -5577.501981 kJ/mol
# Density = 2.281965 g / cm^3
# Si number density = 22.871705 Si / 1000 Ang^3
#
#
#
# Elastic Constant Matrix: (Units=GPa)
#
#
# Indices 1 2 3 4 5 6 
#
# 1 158.7549 56.4017 2.1265 0.0000 -2.1285 0.0000
# 2 56.4017 223.2477 22.6985 0.0000 0.0066 0.0000
# 3 2.1265 22.6985 62.4499 0.0000 10.5515 0.0000
# 4 0.0000 0.0000 0.0000 100.1005 0.0000 -129.8518
# 5 -2.1285 0.0066 10.5515 0.0000 13.5706 0.0000
# 6 0.0000 0.0000 0.0000 -129.8518 0.0000 236.9442
#
#
#
# Elastic Compliance Matrix: (Units=1/GPa)
#
#
# Indices 1 2 3 4 5 6 
#
# 1 0.006940 -0.001780 0.000261 0.000000 0.000887 0.000000
# 2 -0.001780 0.005135 -0.002024 0.000000 0.001292 0.000000
# 3 0.000261 -0.002024 0.019263 0.000000 -0.014936 0.000000
# 4 0.000000 0.000000 0.000000 0.034556 0.000000 0.018938
# 5 0.000887 0.001292 -0.014936 0.000000 0.085440 0.000000
# 6 0.000000 0.000000 0.000000 0.018938 0.000000 0.014599
#
#
# Mechanical properties :
#
#
# Convention : Reuss Voigt Hill
#
# Bulk Modulus (GPa) = 41.23440 67.43397 54.33419
# Shear Modulus (GPa) = 27.60866 94.33812 60.97339
#
# Velocity S-wave (km/s) = 3.47812 6.42932 5.16882
# Velocity P-wave (km/s) = 5.84786 9.20122 7.70908
#
# Compressibility (1/GPa) = 0.02425159
#
# Stress axis : x y z
#
# Youngs Moduli (GPa) = 144.09772 194.75205 51.91257
#
# Poissons Ratio (x) = 0.34662 -0.01354
# Poissons Ratio (y) = 0.25647 0.10507
# Poissons Ratio (z) = -0.03758 0.39418
#
# Static dielectric constant tensor:
#      x y z
#    x 1.934630 0.000000 -0.014920 
#    y 0.000000 1.851180 0.000000 
#    z -0.014920 0.000000 1.894750 
# 
# From -- ./inp_files/15035.got.cif
#   From: 2010.05.17/outbox.cif.g08.bks.cpg/sg10_8_cif.got.tgz:15035.got - 2010.06.03 11:33:40.
