data_PCOD9141550
_publ_section_title
;
Structure prediction by ZEFSAII (Michael W. Deem and Ramdas Pophale) SiO2 
 PCOD9141550
Probable space group: P 2/M
;
_chemical_formula_sum "Si O2"
_cell_formula_units_Z 28
_cell_length_a 25.380133
_cell_length_b 8.439149
_cell_length_c 19.663826
_cell_angle_alpha 90.000000
_cell_angle_beta 157.168583
_cell_angle_gamma 90.000000
_cell_volume 1634.239927
_symmetry_space_group_name_H-M "P 2/M"
_symmetry_group_IT_number 10
_symmetry_cell_setting 'monoclinic'
loop_
_space_group_symop_operation_xyz
x,y,z
-x,y,-z
-x,-y,-z
x,-y,z
loop_
_atom_site_type_symbol
_atom_site_label
_atom_site_fract_x
_atom_site_fract_y
_atom_site_fract_z
Si Si1 0.648306 0.809356 0.644773
Si Si2 0.881500 0.811179 0.178140
Si Si3 0.607906 0.191867 0.071416
Si Si4 0.745749 0.314113 0.891945
Si Si5 0.527942 0.812803 0.366276
Si Si6 0.606930 0.313709 0.920090
Si Si7 0.084782 0.193166 0.534649
O O1 0.500000 0.768569 0.500000
O O2 0.754754 0.734202 0.823720
O O3 0.638093 0.759351 0.553679
O O4 0.661102 0.000000 0.661872
O O5 0.006993 0.756870 0.373881
O O6 0.888681 0.000000 0.177273
O O7 0.866423 0.729929 0.086790
O O8 0.744422 0.772608 0.057793
O O9 0.759714 0.242700 0.273086
O O10 0.607251 0.000000 0.066065
O O11 0.500000 0.239711 0.000000
O O12 0.575662 0.258957 0.958809
O O13 0.716207 0.500000 0.862099
O O14 0.617612 0.217886 0.770393
O O15 0.511355 0.728629 0.274431
O O16 0.544026 0.000000 0.374863
O O17 0.632823 0.500000 0.948246
O O18 0.000000 0.245207 0.500000
O O19 0.082539 0.000000 0.532086
#
# Coordination Sequence:
#
# PCOD9141550 Si02
#       7
#     4   4   4   4   4   4   4
#     4   8  14  24  36  52  77 113 152 184 221 269
#     4  10  17  28  46  63  87 119 155 192 228 270
#     4  10  20  35  53  70  90 120 156 193 234 278
#     4  10  17  23  34  56  87 116 147 185 228 273
#     4   9  16  26  40  56  79 114 155 190 222 268
#     4  11  20  29  43  65  93 119 151 190 233 276
#     4   9  16  29  50  72  90 113 154 198 231 269
#
# _framework density 17.133346
#
# number of rings (size 3 to 8) (size 9 to 14) (size 15 to 20)
#    0.000    2.429    1.429    6.000    0.000    3.429 
#    0.000    2.143    0.000    0.000    0.000    0.000 
#    0.000    1.143    0.000   13.143    0.000    5.714 
#
# Total GULP energy -155959.773650 kJ/mol
# GULP energy per Si atom -5569.991916 kJ/mol
# Density = 1.709435 g / cm^3
# Si number density = 17.133346 Si / 1000 Ang^3
#
#
#
# Elastic Constant Matrix: (Units=GPa)
#
#
# Indices 1 2 3 4 5 6 
#
# 1 87.5298 9.8255 71.7920 0.0000 -34.9307 0.0000
# 2 9.8255 12.7614 8.7788 0.0000 -4.4971 0.0000
# 3 71.7920 8.7788 94.3371 0.0000 -36.9475 0.0000
# 4 0.0000 0.0000 0.0000 -9.4022 0.0000 2.3556
# 5 -34.9307 -4.4971 -36.9475 0.0000 39.1811 0.0000
# 6 0.0000 0.0000 0.0000 2.3556 0.0000 -1.0418
#
#
#
# Elastic Compliance Matrix: (Units=1/GPa)
#
#
# Indices 1 2 3 4 5 6 
#
# 1 0.032968 -0.007904 -0.020926 0.000000 0.008751 0.000000
# 2 -0.007904 0.085935 -0.001393 0.000000 0.001503 0.000000
# 3 -0.020926 -0.001393 0.030580 0.000000 0.010020 0.000000
# 4 0.000000 0.000000 0.000000 -0.245344 0.000000 -0.554750
# 5 0.008751 0.001503 0.010020 0.000000 0.042946 0.000000
# 6 0.000000 0.000000 0.000000 -0.554750 0.000000 -2.214235
#
#
# Mechanical properties :
#
#
# Convention : Reuss Voigt Hill
#
# Bulk Modulus (GPa) = 11.23144 41.71342 26.47243
# Shear Modulus (GPa) = -2.29671 12.69621 5.19975
#
# Velocity S-wave (km/s) = -1.15905 2.72513 1.74398
# Velocity P-wave (km/s) = 2.18594 5.85670 4.42037
#
# Compressibility (1/GPa) = 0.08903575
#
# Stress axis : x y z
#
# Youngs Moduli (GPa) = 30.33256 11.63671 32.70156
#
# Poissons Ratio (x) = 0.09198 0.68432
# Poissons Ratio (y) = 0.23975 0.04556
# Poissons Ratio (z) = 0.63474 0.01621
#
# Static dielectric constant tensor:
#      x y z
#    x 1.589650 0.000000 -0.057520 
#    y 0.000000 1.569480 0.000000 
#    z -0.057520 0.000000 1.609100 
# 
# From -- ./inp_files/86688.got.cif
#   From: 2010.05.17/outbox.cif.g08.bks.cpg/sg10_44_cif.got.tgz:86688.got - 2010.06.03 11:33:40.
