data_PCOD9141361
_publ_section_title
;
Structure prediction by ZEFSAII (Michael W. Deem and Ramdas Pophale) SiO2 
 PCOD9141361
Probable space group: P 2/M
;
_chemical_formula_sum "Si O2"
_cell_formula_units_Z 28
_cell_length_a 20.885042
_cell_length_b 8.171685
_cell_length_c 21.622145
_cell_angle_alpha 90.000000
_cell_angle_beta 161.100201
_cell_angle_gamma 90.000000
_cell_volume 1195.296362
_symmetry_space_group_name_H-M "P 2/M"
_symmetry_group_IT_number 10
_symmetry_cell_setting 'monoclinic'
loop_
_space_group_symop_operation_xyz
x,y,z
-x,y,-z
-x,-y,-z
x,-y,z
loop_
_atom_site_type_symbol
_atom_site_label
_atom_site_fract_x
_atom_site_fract_y
_atom_site_fract_z
Si Si1 0.004340 0.692938 0.321807
Si Si2 0.372347 0.309220 0.792818
Si Si3 0.772945 0.188639 0.217895
Si Si4 0.212036 0.303742 0.062779
Si Si5 0.194741 0.698976 0.373238
Si Si6 0.421146 0.695196 0.135985
Si Si7 0.446681 0.193171 0.383962
O O1 0.036548 0.500000 0.360464
O O2 0.964938 0.770477 0.352612
O O3 0.161523 0.751725 0.414221
O O4 0.793362 0.712006 0.093271
O O5 0.317786 0.500000 0.739768
O O6 0.230534 0.221799 0.712210
O O7 0.415491 0.241794 0.763208
O O8 0.591714 0.294863 0.024516
O O9 0.721560 0.000000 0.160433
O O10 0.219196 0.500000 0.064675
O O11 0.376618 0.240335 0.163877
O O12 0.256642 0.257637 0.173585
O O13 0.000566 0.252076 0.843633
O O14 0.206815 0.500000 0.385702
O O15 0.376104 0.765761 0.500628
O O16 0.461171 0.500000 0.177334
O O17 0.500000 0.263449 0.500000
O O18 0.423556 0.000000 0.369165
#
# Coordination Sequence:
#
# PCOD9141361 Si02
#       7
#     4   4   4   4   4   4   4
#     4   8  14  27  45  66  94 129 170 215 268 321
#     4   9  14  22  35  53  86 131 173 216 267 313
#     4  10  16  20  30  56  93 130 171 216 260 309
#     4   9  18  36  61  86 110 139 184 236 279 320
#     4   9  19  37  62  87 109 140 186 237 278 318
#     4   7  12  24  44  68  93 125 168 219 268 314
#     4  11  25  41  56  81 118 153 181 213 265 337
#
# _framework density 23.425152000000001
#
# number of rings (size 3 to 8) (size 9 to 14) (size 15 to 20)
#    0.000    3.000    0.000    5.571    0.000    2.857 
#    0.000    9.286    0.000    0.000    0.000    1.000 
#    0.000    8.000    0.000    0.571    0.000    0.000 
#
# Total GULP energy -156312.240800 kJ/mol
# GULP energy per Si atom -5582.580029 kJ/mol
# Density = 2.337184 g / cm^3
# Si number density = 23.425152 Si / 1000 Ang^3
#
#
#
# Elastic Constant Matrix: (Units=GPa)
#
#
# Indices 1 2 3 4 5 6 
#
# 1 104.2815 -6.2355 14.5353 0.0000 -36.5570 0.0000
# 2 -6.2355 13.9636 -10.4991 0.0000 -4.3210 0.0000
# 3 14.5353 -10.4991 55.8291 0.0000 -13.1255 0.0000
# 4 0.0000 0.0000 0.0000 30.8415 0.0000 -32.8144
# 5 -36.5570 -4.3210 -13.1255 0.0000 35.0500 0.0000
# 6 0.0000 0.0000 0.0000 -32.8144 0.0000 109.4395
#
#
#
# Elastic Compliance Matrix: (Units=1/GPa)
#
#
# Indices 1 2 3 4 5 6 
#
# 1 0.017984 0.017974 0.003979 0.000000 0.022464 0.000000
# 2 0.017974 0.112776 0.026542 0.000000 0.042589 0.000000
# 3 0.003979 0.026542 0.025892 0.000000 0.017118 0.000000
# 4 0.000000 0.000000 0.000000 0.047613 0.000000 0.014276
# 5 0.022464 0.042589 0.017118 0.000000 0.063621 0.000000
# 6 0.000000 0.000000 0.000000 0.014276 0.000000 0.013418
#
#
# Mechanical properties :
#
#
# Convention : Reuss Voigt Hill
#
# Bulk Modulus (GPa) = 3.94256 18.85284 11.39770
# Shear Modulus (GPa) = 18.59685 46.81778 32.70732
#
# Velocity S-wave (km/s) = 2.82065 4.47543 3.74069
# Velocity P-wave (km/s) = 3.50639 5.89674 4.85110
#
# Compressibility (1/GPa) = 0.25364209
#
# Stress axis : x y z
#
# Youngs Moduli (GPa) = 55.60373 8.86710 38.62249
#
# Poissons Ratio (x) = -0.15938 -0.15368
# Poissons Ratio (y) = -0.99943 -1.02510
# Poissons Ratio (z) = -0.22125 -0.23535
#
# Static dielectric constant tensor:
#      x y z
#    x 1.924470 0.000000 -0.023720 
#    y 0.000000 1.821020 0.000000 
#    z -0.023720 0.000000 1.969660 
# 
# From -- ./inp_files/90409.got.cif
#   From: 2010.05.17/outbox.cif.g08.bks.cpg/sg10_46_cif.got.tgz:90409.got - 2010.06.03 11:33:40.
