data_PCOD9141356
_publ_section_title
;
Structure prediction by ZEFSAII (Michael W. Deem and Ramdas Pophale) SiO2 
 PCOD9141356
Probable space group: P 2/M
;
_chemical_formula_sum "Si O2"
_cell_formula_units_Z 32
_cell_length_a 22.795484
_cell_length_b 9.156926
_cell_length_c 25.619756
_cell_angle_alpha 90.000000
_cell_angle_beta 164.357512
_cell_angle_gamma 90.000000
_cell_volume 1441.943162
_symmetry_space_group_name_H-M "P 2/M"
_symmetry_group_IT_number 10
_symmetry_cell_setting 'monoclinic'
loop_
_space_group_symop_operation_xyz
x,y,z
-x,y,-z
-x,-y,-z
x,-y,z
loop_
_atom_site_type_symbol
_atom_site_label
_atom_site_fract_x
_atom_site_fract_y
_atom_site_fract_z
Si Si1 0.020204 0.178703 0.839359
Si Si2 0.648094 0.833776 0.332320
Si Si3 0.669620 0.172382 0.749248
Si Si4 0.815862 0.168088 0.127299
Si Si5 0.157421 0.665832 0.589188
Si Si6 0.457238 0.326314 0.260017
Si Si7 0.170869 0.828587 0.221006
Si Si8 0.399367 0.665583 0.967409
O O1 0.837836 0.220320 0.726177
O O2 0.045072 0.000000 0.863370
O O3 0.016584 0.216826 0.774859
O O4 0.234619 0.257892 0.045540
O O5 0.416793 0.829141 0.103042
O O6 0.824117 0.774927 0.442678
O O7 0.632811 0.730278 0.369095
O O8 0.680768 0.000000 0.376545
O O9 0.528025 0.259011 0.669718
O O10 0.682145 0.230383 0.700474
O O11 0.611265 0.000000 0.699988
O O12 0.920517 0.181163 0.985539
O O13 0.778324 0.255659 0.148532
O O14 0.861030 0.000000 0.178855
O O15 0.098050 0.500000 0.523192
O O16 0.393149 0.657029 0.817188
O O17 0.000000 0.716728 0.500000
O O18 0.447143 0.500000 0.252912
O O19 0.224556 0.000000 0.268600
O O20 0.330033 0.500000 0.895281
O O21 0.500000 0.731958 0.000000
#
# Coordination Sequence:
#
# PCOD9141356 Si02
#       8
#     4   4   4   4   4   4   4   4
#     4   8  13  22  32  42  58  82 113 147 184 224
#     4   9  16  26  38  51  68  91 120 152 185 224
#     4   8  12  19  28  37  52  78 111 144 179 218
#     4   8  14  23  36  52  68  88 117 154 189 219
#     4   9  17  29  44  61  80 100 124 157 194 227
#     4  10  16  20  28  43  62  84 112 148 187 221
#     4   7  10  17  29  39  50  75 110 144 177 217
#     4   9  17  28  41  57  78 103 128 153 185 228
#
# _framework density 22.192274999999999
#
# number of rings (size 3 to 8) (size 9 to 14) (size 15 to 20)
#    0.000    3.500    0.000    3.750    0.000    3.500 
#    0.000    5.000    0.000    0.000    0.000    0.000 
#    0.000    0.000    0.000    0.000    0.000    1.250 
#
# Total GULP energy -178346.235258 kJ/mol
# GULP energy per Si atom -5573.319852 kJ/mol
# Density = 2.214176 g / cm^3
# Si number density = 22.192275 Si / 1000 Ang^3
#
#
#
# Elastic Constant Matrix: (Units=GPa)
#
#
# Indices 1 2 3 4 5 6 
#
# 1 158.1080 67.2892 16.5080 0.0000 41.5334 0.0000
# 2 67.2892 58.6263 5.0655 0.0000 13.9463 0.0000
# 3 16.5080 5.0655 57.9776 0.0000 -13.5873 0.0000
# 4 0.0000 0.0000 0.0000 -6.8720 0.0000 -19.3442
# 5 41.5334 13.9463 -13.5873 0.0000 45.6543 0.0000
# 6 0.0000 0.0000 0.0000 -19.3442 0.0000 138.8160
#
#
#
# Elastic Compliance Matrix: (Units=1/GPa)
#
#
# Indices 1 2 3 4 5 6 
#
# 1 0.017200 -0.016182 -0.006441 0.000000 -0.012621 0.000000
# 2 -0.016182 0.034168 0.002823 0.000000 0.005125 0.000000
# 3 -0.006441 0.002823 0.021507 0.000000 0.011398 0.000000
# 4 0.000000 0.000000 0.000000 -0.104519 0.000000 -0.014565
# 5 -0.012621 0.005125 0.011398 0.000000 0.035212 0.000000
# 6 0.000000 0.000000 0.000000 -0.014565 0.000000 0.005174
#
#
# Mechanical properties :
#
#
# Convention : Reuss Voigt Hill
#
# Bulk Modulus (GPa) = 30.05391 50.27081 40.16236
# Shear Modulus (GPa) = 84.12837 47.90960 66.01899
#
# Velocity S-wave (km/s) = 6.16370 4.65137 5.46015
# Velocity P-wave (km/s) = 8.01416 7.17974 7.60840
#
# Compressibility (1/GPa) = 0.03327355
#
# Stress axis : x y z
#
# Youngs Moduli (GPa) = 58.14022 29.26727 46.49748
#
# Poissons Ratio (x) = 0.47362 0.29950
# Poissons Ratio (y) = 0.94085 -0.13128
# Poissons Ratio (z) = 0.37449 -0.08263
#
# Static dielectric constant tensor:
#      x y z
#    x 1.865740 0.000000 0.004670 
#    y 0.000000 1.745240 0.000000 
#    z 0.004670 0.000000 1.675110 
# 
# From -- ./inp_files/95751.got.cif
#   From: 2010.05.17/outbox.cif.g08.bks.cpg/sg10_48_cif.got.tgz:95751.got - 2010.06.03 11:33:40.
