data_PCOD9141400
_publ_section_title
;
Structure prediction by ZEFSAII (Michael W. Deem and Ramdas Pophale) SiO2 
 PCOD9141400
Probable space group: P 2/M
;
_chemical_formula_sum "Si O2"
_cell_formula_units_Z 24
_cell_length_a 12.899070
_cell_length_b 7.630932
_cell_length_c 14.116826
_cell_angle_alpha 90.000000
_cell_angle_beta 71.916327
_cell_angle_gamma 90.000000
_cell_volume 1320.908650
_symmetry_space_group_name_H-M "P 2/M"
_symmetry_group_IT_number 10
_symmetry_cell_setting 'monoclinic'
loop_
_space_group_symop_operation_xyz
x,y,z
-x,y,-z
-x,-y,-z
x,-y,z
loop_
_atom_site_type_symbol
_atom_site_label
_atom_site_fract_x
_atom_site_fract_y
_atom_site_fract_z
Si Si1 0.431472 0.786878 0.659205
Si Si2 0.100490 0.798314 0.528749
Si Si3 0.903775 0.710906 0.957378
Si Si4 0.042695 0.702919 0.753065
Si Si5 0.341229 0.785618 0.478478
Si Si6 0.238224 0.208058 0.838061
O O1 0.371652 0.736296 0.577884
O O2 0.556767 0.728958 0.614942
O O3 0.355638 0.729838 0.767504
O O4 0.434805 0.000000 0.659246
O O5 0.071350 0.797423 0.648124
O O6 0.221622 0.720494 0.484861
O O7 0.000000 0.716736 0.500000
O O8 0.109664 0.000000 0.492975
O O9 0.910595 0.500000 0.952614
O O10 0.939138 0.771674 0.843049
O O11 0.793902 0.756757 0.044055
O O12 0.000000 0.776182 0.000000
O O13 0.024041 0.500000 0.734045
O O14 0.145089 0.712284 0.796278
O O15 0.338194 0.000000 0.479084
O O16 0.232478 0.000000 0.824646
#
# Coordination Sequence:
#
# PCOD9141400 Si02
#       6
#     4   4   4   4   4   4
#     4   8  13  21  39  62  85 113 137 162 205 257
#     4  10  19  30  46  66  85 108 143 184 215 240
#     4   8  16  28  39  56  84 116 142 165 208 262
#     4  10  19  30  42  57  85 120 145 169 207 257
#     4   8  13  24  39  59  86 112 137 166 207 256
#     4  10  16  24  42  67  87 108 141 177 210 247
#
# _framework density 18.169312000000001
#
# number of rings (size 3 to 8) (size 9 to 14) (size 15 to 20)
#    0.000    3.000    1.667    3.000    0.000    4.000 
#    0.000    0.000    0.000    3.000    0.000    1.167 
#    0.000    9.333    0.000    0.000    0.000    0.000 
#
# Total GULP energy -133607.230217 kJ/mol
# GULP energy per Si atom -5566.967926 kJ/mol
# Density = 1.812796 g / cm^3
# Si number density = 18.169312 Si / 1000 Ang^3
#
#
#
# Elastic Constant Matrix: (Units=GPa)
#
#
# Indices 1 2 3 4 5 6 
#
# 1 119.0606 1.9049 59.3261 0.0000 -32.5601 0.0000
# 2 1.9049 37.8704 -4.0153 0.0000 -1.8621 0.0000
# 3 59.3261 -4.0153 100.3188 0.0000 -48.3785 0.0000
# 4 0.0000 0.0000 0.0000 83.8723 0.0000 -20.3269
# 5 -32.5601 -1.8621 -48.3785 0.0000 34.7530 0.0000
# 6 0.0000 0.0000 0.0000 -20.3269 0.0000 15.9676
#
#
#
# Elastic Compliance Matrix: (Units=1/GPa)
#
#
# Indices 1 2 3 4 5 6 
#
# 1 0.012140 -0.000988 -0.005353 0.000000 0.003870 0.000000
# 2 -0.000988 0.027518 0.005934 0.000000 0.008809 0.000000
# 3 -0.005353 0.005934 0.033790 0.000000 0.042341 0.000000
# 4 0.000000 0.000000 0.000000 0.017243 0.000000 0.021950
# 5 0.003870 0.008809 0.042341 0.000000 0.091813 0.000000
# 6 0.000000 0.000000 0.000000 0.021950 0.000000 0.090569
#
#
# Mechanical properties :
#
#
# Convention : Reuss Voigt Hill
#
# Bulk Modulus (GPa) = 13.76758 41.29790 27.53274
# Shear Modulus (GPa) = 16.77298 40.25419 28.51359
#
# Velocity S-wave (km/s) = 3.04163 4.71202 3.96577
# Velocity P-wave (km/s) = 4.46421 7.23761 6.01299
#
# Compressibility (1/GPa) = 0.07263439
#
# Stress axis : x y z
#
# Youngs Moduli (GPa) = 82.36918 36.34003 29.59464
#
# Poissons Ratio (x) = 0.03590 0.15842
# Poissons Ratio (y) = 0.08137 -0.17561
# Poissons Ratio (z) = 0.44091 -0.21564
#
# Static dielectric constant tensor:
#      x y z
#    x 1.626690 0.000000 -0.055770 
#    y 0.000000 1.673790 0.000000 
#    z -0.055770 0.000000 1.657070 
# 
# From -- ./inp_files/48667.got.cif
#   From: 2010.05.17/outbox.cif.g08.bks.cpg/sg10_25_cif.got.tgz:48667.got - 2010.06.03 11:33:40.
