data_PCOD9141405
_publ_section_title
;
Structure prediction by ZEFSAII (Michael W. Deem and Ramdas Pophale) SiO2 
 PCOD9141405
Probable space group: P 2/M
;
_chemical_formula_sum "Si O2"
_cell_formula_units_Z 22
_cell_length_a 5.415485
_cell_length_b 20.302237
_cell_length_c 15.826869
_cell_angle_alpha 90.000000
_cell_angle_beta 59.119609
_cell_angle_gamma 90.000000
_cell_volume 1493.431540
_symmetry_space_group_name_H-M "P 2/M"
_symmetry_group_IT_number 10
_symmetry_cell_setting 'monoclinic'
loop_
_space_group_symop_operation_xyz
x,y,z
-x,y,-z
-x,-y,-z
x,-y,z
loop_
_atom_site_type_symbol
_atom_site_label
_atom_site_fract_x
_atom_site_fract_y
_atom_site_fract_z
Si Si1 0.907177 0.298610 0.895212
Si Si2 0.571793 0.646241 0.118807
Si Si3 0.348423 0.500000 0.934384
Si Si4 0.829258 0.080216 0.613820
Si Si5 0.159551 0.143042 0.060300
Si Si6 0.838323 0.079557 0.274458
O O1 0.736397 0.321133 0.842524
O O2 0.872656 0.221456 0.918225
O O3 0.236020 0.321133 0.842525
O O4 0.747984 0.335860 0.001344
O O5 0.560889 0.567765 0.126077
O O6 0.500000 0.500000 0.000000
O O7 0.000000 0.500000 0.000000
O O8 0.495696 0.100910 0.669334
O O9 0.000000 0.101201 0.500000
O O10 0.996261 0.100910 0.669341
O O11 0.829173 0.000000 0.613876
O O12 0.004225 0.106000 0.163849
O O13 0.500000 0.127622 0.000000
O O14 0.000000 0.127623 0.000000
O O15 0.840791 0.000000 0.272812
#
# Coordination Sequence:
#
# PCOD9141405 Si02
#       6
#     4   4   2   4   4   4
#     4  10  16  27  37  49  69 103 143 172 199 226
#     4  10  16  25  36  51  70  93 138 182 212 235
#     4  12  16  20  34  52  68  88 118 188 230 230
#     4   9  17  33  54  70  85 103 124 169 234 279
#     4  12  21  31  45  58  83 124 154 177 209 233
#     4  10  21  33  46  69  89 105 142 183 214 263
#
# _framework density 14.731175
#
# number of rings (size 3 to 8) (size 9 to 14) (size 15 to 20)
#    0.000    1.636    7.273    1.636    0.000    2.909 
#    0.000    0.000    0.000    0.000    0.000    0.000 
#    0.000    0.000    0.000    0.000    0.000    0.000 
#
# Total GULP energy -122565.498763 kJ/mol
# GULP energy per Si atom -5571.159035 kJ/mol
# Density = 1.469765 g / cm^3
# Si number density = 14.731175 Si / 1000 Ang^3
#
#
#
# Elastic Constant Matrix: (Units=GPa)
#
#
# Indices 1 2 3 4 5 6 
#
# 1 187.7216 22.6057 69.0088 0.0000 15.6017 0.0000
# 2 22.6057 21.0202 24.3478 0.0000 -0.3355 0.0000
# 3 69.0088 24.3478 87.2169 0.0000 3.7560 0.0000
# 4 0.0000 0.0000 0.0000 -1.2980 0.0000 2.0987
# 5 15.6017 -0.3355 3.7560 0.0000 21.1378 0.0000
# 6 0.0000 0.0000 0.0000 2.0987 0.0000 9.5973
#
#
#
# Elastic Compliance Matrix: (Units=1/GPa)
#
#
# Indices 1 2 3 4 5 6 
#
# 1 0.008046 -0.002377 -0.005488 0.000000 -0.005002 0.000000
# 2 -0.002377 0.071464 -0.018334 0.000000 0.006146 0.000000
# 3 -0.005488 -0.018334 0.020924 0.000000 0.000041 0.000000
# 4 0.000000 0.000000 0.000000 -0.569181 0.000000 0.124465
# 5 -0.005002 0.006146 0.000041 0.000000 0.051090 0.000000
# 6 0.000000 0.000000 0.000000 0.124465 0.000000 0.076978
#
#
# Mechanical properties :
#
#
# Convention : Reuss Voigt Hill
#
# Bulk Modulus (GPa) = 20.81717 58.65370 39.73543
# Shear Modulus (GPa) = -18.36427 17.88718 -0.23855
#
# Velocity S-wave (km/s) = -3.53459 3.48837 -0.40285
# Velocity P-wave (km/s) = 1.57979 7.49183 5.17841
#
# Compressibility (1/GPa) = 0.04803728
#
# Stress axis : x y z
#
# Youngs Moduli (GPa) = 124.28205 13.99300 47.79169
#
# Poissons Ratio (x) = 0.03326 0.26226
# Poissons Ratio (y) = 0.29538 0.87623
# Poissons Ratio (z) = 0.68200 0.25655
#
# Static dielectric constant tensor:
#      x y z
#    x 1.610340 0.000000 0.031410 
#    y 0.000000 1.482790 0.000000 
#    z 0.031410 0.000000 1.447300 
# 
# From -- ./inp_files/39364.got.cif
#   From: 2010.05.17/outbox.cif.g08.bks.cpg/sg10_20_cif.got.tgz:39364.got - 2010.06.03 11:33:40.
