data_PCOD9141482
_publ_section_title
;
Structure prediction by ZEFSAII (Michael W. Deem and Ramdas Pophale) SiO2 
 PCOD9141482
Probable space group: P 2/M
;
_chemical_formula_sum "Si O2"
_cell_formula_units_Z 28
_cell_length_a 26.771627
_cell_length_b 11.732579
_cell_length_c 19.123027
_cell_angle_alpha 90.000000
_cell_angle_beta 17.108779
_cell_angle_gamma 90.000000
_cell_volume 1767.046711
_symmetry_space_group_name_H-M "P 2/M"
_symmetry_group_IT_number 10
_symmetry_cell_setting 'monoclinic'
loop_
_space_group_symop_operation_xyz
x,y,z
-x,y,-z
-x,-y,-z
x,-y,z
loop_
_atom_site_type_symbol
_atom_site_label
_atom_site_fract_x
_atom_site_fract_y
_atom_site_fract_z
Si Si1 0.038943 0.133710 0.029832
Si Si2 0.731757 0.213134 0.518921
Si Si3 0.311191 0.000000 0.330847
Si Si4 0.806125 0.230799 0.752218
Si Si5 0.487969 0.636216 0.934237
Si Si6 0.566756 0.862010 0.484935
Si Si7 0.721676 0.000000 0.787124
Si Si8 0.568037 0.137549 0.184535
O O1 0.912323 0.218221 0.239369
O O2 0.013466 0.000000 0.086284
O O3 0.000000 0.136223 0.000000
O O4 0.234716 0.164539 0.776386
O O5 0.643998 0.315407 0.678901
O O6 0.597545 0.169037 0.640136
O O7 0.751709 0.112934 0.548181
O O8 0.253762 0.000000 0.328204
O O9 0.515949 0.000000 0.068124
O O10 0.796642 0.111394 0.723042
O O11 0.000000 0.269440 0.500000
O O12 0.681060 0.313947 0.876475
O O13 0.721638 0.201583 0.940335
O O14 0.486463 0.500000 0.935395
O O15 0.500000 0.674503 0.000000
O O16 0.500000 0.819180 0.500000
O O17 0.467661 0.826885 0.687804
O O18 0.553966 0.000000 0.501978
O O19 0.591946 0.000000 0.149271
#
# Coordination Sequence:
#
# PCOD9141482 Si02
#       8
#     4   4   2   4   4   4   2   4
#     4  10  17  27  48  74 101 133 170 203 242 308
#     4  11  17  30  51  79 101 130 175 212 257 309
#     4  11  18  28  49  76 108 139 167 210 254 319
#     4  11  21  34  52  79 107 139 174 209 260 321
#     4  10  22  40  58  74 101 138 177 226 272 307
#     4   9  18  30  41  63 103 143 171 198 239 295
#     4  11  19  30  48  74 113 142 163 204 263 318
#     4  10  16  29  47  66 103 144 169 195 248 303
#
# _framework density 15.845647
#
# number of rings (size 3 to 8) (size 9 to 14) (size 15 to 20)
#    0.000    1.714    6.429    1.071    0.000    0.286 
#    5.143    0.000    0.000    0.429    0.000    0.000 
#    0.000    9.714    0.000    0.000    0.000    0.000 
#
# Total GULP energy -156040.284192 kJ/mol
# GULP energy per Si atom -5572.867293 kJ/mol
# Density = 1.580958 g / cm^3
# Si number density = 15.845647 Si / 1000 Ang^3
#
#
#
# Elastic Constant Matrix: (Units=GPa)
#
#
# Indices 1 2 3 4 5 6 
#
# 1 119.3271 24.7191 70.3050 0.0000 14.9550 0.0000
# 2 24.7191 47.9798 21.8444 0.0000 3.7502 0.0000
# 3 70.3050 21.8444 109.5229 0.0000 6.5911 0.0000
# 4 0.0000 0.0000 0.0000 7.2838 0.0000 4.7313
# 5 14.9550 3.7502 6.5911 0.0000 23.2888 0.0000
# 6 0.0000 0.0000 0.0000 4.7313 0.0000 18.5433
#
#
#
# Elastic Compliance Matrix: (Units=1/GPa)
#
#
# Indices 1 2 3 4 5 6 
#
# 1 0.014910 -0.003286 -0.008517 0.000000 -0.006635 0.000000
# 2 -0.003286 0.023785 -0.002575 0.000000 -0.000991 0.000000
# 3 -0.008517 -0.002575 0.015013 0.000000 0.001635 0.000000
# 4 0.000000 0.000000 0.000000 0.164565 0.000000 -0.041988
# 5 -0.006635 -0.000991 0.001635 0.000000 0.046897 0.000000
# 6 0.000000 0.000000 0.000000 -0.041988 0.000000 0.064641
#
#
# Mechanical properties :
#
#
# Convention : Reuss Voigt Hill
#
# Bulk Modulus (GPa) = 40.07522 56.72963 48.40243
# Shear Modulus (GPa) = 13.62833 20.48727 17.05780
#
# Velocity S-wave (km/s) = 2.93587 3.59963 3.28456
# Velocity P-wave (km/s) = 6.06946 7.29079 6.70798
#
# Compressibility (1/GPa) = 0.02495307
#
# Stress axis : x y z
#
# Youngs Moduli (GPa) = 67.06738 42.04377 66.61018
#
# Poissons Ratio (x) = 0.13814 0.56729
# Poissons Ratio (y) = 0.22036 0.17152
# Poissons Ratio (z) = 0.57119 0.10827
#
# Static dielectric constant tensor:
#      x y z
#    x 1.449790 0.000000 0.094460 
#    y 0.000000 1.503720 0.000000 
#    z 0.094460 0.000000 1.489580 
# 
# From -- ./inp_files/80227.got.cif
#   From: 2010.05.17/outbox.cif.g08.bks.cpg/sg10_41_cif.got.tgz:80227.got - 2010.06.03 11:33:40.
