data_PCOD9141286
_publ_section_title
;
Structure prediction by ZEFSAII (Michael W. Deem and Ramdas Pophale) SiO2 
 PCOD9141286
Probable space group: C C
;
_chemical_formula_sum "Si O2"
_cell_formula_units_Z 16
_cell_length_a 12.000000
_cell_length_b 9.000000
_cell_length_c 15.000000
_cell_angle_alpha 90.000000
_cell_angle_beta 120.000000
_cell_angle_gamma 90.000000
_cell_volume 1402.961154
_symmetry_space_group_name_H-M "C C"
_symmetry_group_IT_number 9
_symmetry_cell_setting 'monoclinic'
loop_
_space_group_symop_operation_xyz
x,y,z
x,-y,1/2+z
1/2+x,1/2+y,z
1/2+x,1/2-y,1/2+z
loop_
_atom_site_type_symbol
_atom_site_label
_atom_site_fract_x
_atom_site_fract_y
_atom_site_fract_z
Si Si1 0.747580 0.263398 0.165870
Si Si2 0.240123 0.962513 0.770106
Si Si3 0.818219 0.780326 0.157985
Si Si4 0.151075 0.242160 0.452769
Si Si5 0.614341 0.082115 0.436939
Si Si6 0.405478 0.129835 0.489039
Si Si7 0.544737 0.070790 0.194713
Si Si8 0.476604 0.439970 0.746959
O O1 0.799923 0.399423 0.242788
O O2 0.658572 0.152698 0.186813
O O3 0.865922 0.172432 0.173725
O O4 0.667881 0.336365 0.054103
O O5 0.255214 0.816015 0.713716
O O6 0.305762 0.976485 0.894335
O O7 0.087451 0.981721 0.721614
O O8 0.919206 0.671452 0.152071
O O9 0.734210 0.849986 0.042312
O O10 0.898909 0.911527 0.237536
O O11 0.106467 0.407734 0.457084
O O12 0.295738 0.250233 0.469418
O O13 0.054073 0.150087 0.353514
O O14 0.499402 0.165890 0.443708
O O15 0.596342 0.070808 0.320640
O O16 0.489914 0.064496 0.606704
#
# Coordination Sequence:
#
# PCOD9141286 Si02
#       8
#     4   4   4   4   4   4   4   4
#     4  12  25  48  75 108 151 203 248 319 388 457
#     4  11  26  49  77 109 152 202 256 322 382 459
#     4  12  26  47  76 116 152 202 261 319 386 461
#     4  11  26  45  79 108 149 206 251 320 389 461
#     4  12  27  48  75 116 154 204 264 318 394 467
#     4  11  25  48  76 110 151 203 260 312 388 455
#     4  12  27  47  78 109 161 208 253 330 390 467
#     4  11  26  48  76 110 152 192 263 308 387 459
#
# _framework density 11.404450000000001
#
# number of rings (size 3 to 8) (size 9 to 14) (size 15 to 20)
#    0.000    0.500    5.000    1.500    5.250    4.000 
#    0.000    0.000    0.000    0.000    0.000    0.000 
#    0.000    0.000    0.000    0.000    0.000    0.000 
#
# Total GULP energy -89103.090605 kJ/mol
# GULP energy per Si atom -5568.943163 kJ/mol
# Density = 1.137849 g / cm^3
# Si number density = 11.404450 Si / 1000 Ang^3
#
#
#
# Elastic Constant Matrix: (Units=GPa)
#
#
# Indices 1 2 3 4 5 6 
#
# 1 71.8985 9.3318 24.1615 0.0000 10.7387 0.0000
# 2 9.3318 58.5527 6.2044 0.0000 9.1463 0.0000
# 3 24.1615 6.2044 140.2580 0.0000 1.1706 0.0000
# 4 0.0000 0.0000 0.0000 39.5141 0.0000 0.3395
# 5 10.7387 9.1463 1.1706 0.0000 31.0761 0.0000
# 6 0.0000 0.0000 0.0000 0.3395 0.0000 36.3087
#
#
#
# Elastic Compliance Matrix: (Units=1/GPa)
#
#
# Indices 1 2 3 4 5 6 
#
# 1 0.015703 -0.001462 -0.002600 0.000000 -0.004898 0.000000
# 2 -0.001462 0.018117 -0.000509 0.000000 -0.004808 0.000000
# 3 -0.002600 -0.000509 0.007594 0.000000 0.000762 0.000000
# 4 0.000000 0.000000 0.000000 0.025309 0.000000 -0.000237
# 5 -0.004898 -0.004808 0.000762 0.000000 0.035258 0.000000
# 6 0.000000 0.000000 0.000000 -0.000237 0.000000 0.027544
#
#
# Mechanical properties :
#
#
# Convention : Reuss Voigt Hill
#
# Bulk Modulus (GPa) = 30.98707 38.90051 34.94379
# Shear Modulus (GPa) = 33.46174 36.78056 35.12115
#
# Velocity S-wave (km/s) = 3.83436 4.02002 3.92829
# Velocity P-wave (km/s) = 5.76352 6.21606 5.99406
#
# Compressibility (1/GPa) = 0.03227152
#
# Stress axis : x y z
#
# Youngs Moduli (GPa) = 63.68025 55.19796 131.68804
#
# Poissons Ratio (x) = 0.08071 0.34233
# Poissons Ratio (y) = 0.09311 0.06708
# Poissons Ratio (z) = 0.16554 0.02812
#
# Static dielectric constant tensor:
#      x y z
#    x 1.912360 0.000000 0.012370 
#    y 0.000000 1.861010 0.000000 
#    z 0.012370 0.000000 1.925890 
# 
# From -- ./inp_files/24430.got.cif
#   From: 2010.05.17/outbox.ucp.g08.bks.cvg/sg9_13_cif.got.tgz:24430.got - 2010.06.11 13:03:20.
