data_PCOD9141553
_publ_section_title
;
Structure prediction by ZEFSAII (Michael W. Deem and Ramdas Pophale) SiO2 
 PCOD9141553
Probable space group: P 2/M
;
_chemical_formula_sum "Si O2"
_cell_formula_units_Z 28
_cell_length_a 30.120675
_cell_length_b 7.560145
_cell_length_c 9.351778
_cell_angle_alpha 90.000000
_cell_angle_beta 140.103063
_cell_angle_gamma 90.000000
_cell_volume 1365.915411
_symmetry_space_group_name_H-M "P 2/M"
_symmetry_group_IT_number 10
_symmetry_cell_setting 'monoclinic'
loop_
_space_group_symop_operation_xyz
x,y,z
-x,y,-z
-x,-y,-z
x,-y,z
loop_
_atom_site_type_symbol
_atom_site_label
_atom_site_fract_x
_atom_site_fract_y
_atom_site_fract_z
Si Si1 0.568177 0.216572 0.254385
Si Si2 0.145324 0.799372 0.559370
Si Si3 0.295541 0.782838 0.912186
Si Si4 0.701444 0.787728 0.410237
Si Si5 0.001269 0.213007 0.837511
Si Si6 0.432003 0.783776 0.417920
Si Si7 0.147947 0.703607 0.239279
O O1 0.638240 0.276892 0.349783
O O2 0.565185 0.272691 0.411076
O O3 0.568629 0.000000 0.254813
O O4 0.500000 0.271801 0.000000
O O5 0.220142 0.720147 0.780154
O O6 0.146051 0.806592 0.386156
O O7 0.069968 0.720032 0.409144
O O8 0.145582 0.000000 0.615881
O O9 0.304484 0.726812 0.769165
O O10 0.293373 0.000000 0.906947
O O11 0.361104 0.727716 0.166597
O O12 0.778787 0.742350 0.652534
O O13 0.696771 0.000000 0.395508
O O14 0.996440 0.000000 0.826470
O O15 0.078452 0.258791 0.978352
O O16 0.000000 0.275222 0.000000
O O17 0.500000 0.726629 0.500000
O O18 0.432102 0.000000 0.416459
O O19 0.147019 0.500000 0.278626
#
# Coordination Sequence:
#
# PCOD9141553 Si02
#       7
#     4   4   4   4   4   4   4
#     4   9  16  25  39  61  87 113 139 168 206 252
#     4   8  14  24  37  54  80 114 144 170 208 256
#     4   8  13  22  36  54  79 111 141 168 202 243
#     4   9  16  27  41  57  83 116 143 168 205 253
#     4   8  13  22  35  52  78 111 142 170 208 256
#     4   9  15  22  35  59  88 111 133 168 210 245
#     4  10  17  23  35  57  83 109 140 178 213 244
#
# _framework density 20.499072000000002
#
# number of rings (size 3 to 8) (size 9 to 14) (size 15 to 20)
#    0.000    3.286    0.000    3.857    0.000    6.000 
#    0.000    0.000    0.000    0.429    0.000    5.000 
#    0.000   22.286    0.000    0.000    0.000    0.000 
#
# Total GULP energy -155972.965777 kJ/mol
# GULP energy per Si atom -5570.463063 kJ/mol
# Density = 2.045242 g / cm^3
# Si number density = 20.499072 Si / 1000 Ang^3
#
#
#
# Elastic Constant Matrix: (Units=GPa)
#
#
# Indices 1 2 3 4 5 6 
#
# 1 127.7220 3.0929 108.4837 0.0000 43.4448 0.0000
# 2 3.0929 54.9918 3.6689 0.0000 -0.1418 0.0000
# 3 108.4837 3.6689 181.5741 0.0000 54.7378 0.0000
# 4 0.0000 0.0000 0.0000 -19.7980 0.0000 -11.2614
# 5 43.4448 -0.1418 54.7378 0.0000 41.2924 0.0000
# 6 0.0000 0.0000 0.0000 -11.2614 0.0000 -17.9930
#
#
#
# Elastic Compliance Matrix: (Units=1/GPa)
#
#
# Indices 1 2 3 4 5 6 
#
# 1 0.017178 -0.000451 -0.008003 0.000000 -0.007465 0.000000
# 2 -0.000451 0.018242 -0.000435 0.000000 0.001114 0.000000
# 3 -0.008003 -0.000435 0.012925 0.000000 -0.008715 0.000000
# 4 0.000000 0.000000 0.000000 -0.078433 0.000000 0.049090
# 5 -0.007465 0.001114 -0.008715 0.000000 0.043628 0.000000
# 6 0.000000 0.000000 0.000000 0.049090 0.000000 -0.086301
#
#
# Mechanical properties :
#
#
# Convention : Reuss Voigt Hill
#
# Bulk Modulus (GPa) = 32.71663 66.08654 49.40158
# Shear Modulus (GPa) = -111.61928 17.30311 -47.15809
#
# Velocity S-wave (km/s) = -7.38709 2.90848 -4.80155
# Velocity P-wave (km/s) = 7.53420 6.60210 2.56674
#
# Compressibility (1/GPa) = 0.03056550
#
# Stress axis : x y z
#
# Youngs Moduli (GPa) = 58.21547 54.81914 77.36953
#
# Poissons Ratio (x) = 0.02475 0.61922
# Poissons Ratio (y) = 0.02628 0.03363
# Poissons Ratio (z) = 0.46592 0.02383
#
# Static dielectric constant tensor:
#      x y z
#    x 1.729820 0.000000 0.058020 
#    y 0.000000 1.744760 0.000000 
#    z 0.058020 0.000000 1.743220 
# 
# From -- ./inp_files/38005.got.cif
#   From: 2010.05.17/outbox.cif.g08.bks.cpg/sg10_20_cif.got.tgz:38005.got - 2010.06.03 11:33:40.
