data_PCOD9141965
_publ_section_title
;
Structure prediction by ZEFSAII (Michael W. Deem and Ramdas Pophale) SiO2 
 PCOD9141965
Probable space group: P 2/M
;
_chemical_formula_sum "Si O2"
_cell_formula_units_Z 32
_cell_length_a 22.492754
_cell_length_b 7.383897
_cell_length_c 29.406734
_cell_angle_alpha 90.000000
_cell_angle_beta 162.195927
_cell_angle_gamma 90.000000
_cell_volume 1493.344377
_symmetry_space_group_name_H-M "P 2/M"
_symmetry_group_IT_number 10
_symmetry_cell_setting 'monoclinic'
loop_
_space_group_symop_operation_xyz
x,y,z
-x,y,-z
-x,-y,-z
x,-y,z
loop_
_atom_site_type_symbol
_atom_site_label
_atom_site_fract_x
_atom_site_fract_y
_atom_site_fract_z
Si Si1 0.510656 0.220821 0.955602
Si Si2 0.284558 0.209200 0.532396
Si Si3 0.779754 0.220662 0.332674
Si Si4 0.898552 0.784764 0.091705
Si Si5 0.078111 0.221896 0.788812
Si Si6 0.955867 0.715778 0.897207
Si Si7 0.685761 0.280700 0.780121
Si Si8 0.535455 0.778417 0.243308
O O1 0.328612 0.278701 0.792189
O O2 0.509523 0.000000 0.955162
O O3 0.500000 0.280611 0.000000
O O4 0.711667 0.274521 0.077626
O O5 0.471935 0.214852 0.636138
O O6 0.356817 0.287303 0.632940
O O7 0.096489 0.286337 0.370481
O O8 0.235510 0.000000 0.506345
O O9 0.649756 0.272636 0.281186
O O10 0.000000 0.282144 0.500000
O O11 0.783459 0.000000 0.334485
O O12 0.948114 0.717359 0.178116
O O13 0.044531 0.754417 0.156360
O O14 0.878418 0.000000 0.081698
O O15 0.686762 0.715252 0.922020
O O16 0.073703 0.000000 0.785706
O O17 0.959181 0.500000 0.904718
O O18 0.777872 0.778494 0.799104
O O19 0.157195 0.780443 0.067345
O O20 0.678080 0.500000 0.775491
O O21 0.531252 0.000000 0.242087
#
# Coordination Sequence:
#
# PCOD9141965 Si02
#       8
#     4   4   4   4   4   4   4   4
#     4   9  16  25  37  56  88 130 163 186 229 288
#     4  10  19  30  47  71  96 126 162 197 234 282
#     4   9  16  24  36  58  90 126 160 194 232 276
#     4  10  17  30  49  69  94 128 160 193 237 281
#     4   9  18  30  43  63  97 131 158 195 240 280
#     4   9  18  32  51  73  96 122 154 195 241 285
#     4   9  18  33  50  71  99 124 150 195 246 282
#     4   9  16  26  41  63  92 122 159 200 233 269
#
# _framework density 21.428412999999999
#
# number of rings (size 3 to 8) (size 9 to 14) (size 15 to 20)
#    0.000    2.750    2.500    0.750    1.750    0.500 
#    0.000    2.500    0.000    3.750    0.000    0.000 
#    0.000    6.000    0.000    0.000    0.000    0.000 
#
# Total GULP energy -178649.810617 kJ/mol
# GULP energy per Si atom -5582.806582 kJ/mol
# Density = 2.137964 g / cm^3
# Si number density = 21.428413 Si / 1000 Ang^3
#
#
#
# Elastic Constant Matrix: (Units=GPa)
#
#
# Indices 1 2 3 4 5 6 
#
# 1 154.9288 -3.9487 57.6866 0.0000 -24.8481 0.0000
# 2 -3.9487 73.2140 0.0352 0.0000 -7.3368 0.0000
# 3 57.6866 0.0352 117.5446 0.0000 -26.7639 0.0000
# 4 0.0000 0.0000 0.0000 0.5340 0.0000 16.9792
# 5 -24.8481 -7.3368 -26.7639 0.0000 31.7734 0.0000
# 6 0.0000 0.0000 0.0000 16.9792 0.0000 40.0229
#
#
#
# Elastic Compliance Matrix: (Units=1/GPa)
#
#
# Indices 1 2 3 4 5 6 
#
# 1 0.008297 0.000853 -0.003155 0.000000 0.004028 0.000000
# 2 0.000853 0.014148 0.000585 0.000000 0.004427 0.000000
# 3 -0.003155 0.000585 0.011785 0.000000 0.007595 0.000000
# 4 0.000000 0.000000 0.000000 -0.149944 0.000000 0.063612
# 5 0.004028 0.004427 0.007595 0.000000 0.042042 0.000000
# 6 0.000000 0.000000 0.000000 0.063612 0.000000 -0.002001
#
#
# Mechanical properties :
#
#
# Convention : Reuss Voigt Hill
#
# Bulk Modulus (GPa) = 32.47232 50.35928 41.41580
# Shear Modulus (GPa) = -80.67977 33.92704 -23.37637
#
# Velocity S-wave (km/s) = -6.14268 3.98335 -3.30647
# Velocity P-wave (km/s) = 5.92649 6.68643 2.18918
#
# Compressibility (1/GPa) = 0.03079546
#
# Stress axis : x y z
#
# Youngs Moduli (GPa) = 120.52438 70.68197 84.85494
#
# Poissons Ratio (x) = -0.06027 0.26772
# Poissons Ratio (y) = -0.10276 -0.04966
# Poissons Ratio (z) = 0.38026 -0.04136
#
# Static dielectric constant tensor:
#      x y z
#    x 1.766870 0.000000 -0.010900 
#    y 0.000000 1.834160 0.000000 
#    z -0.010900 0.000000 1.736770 
# 
# From -- ./inp_files/32202.got.cif
#   From: 2010.05.17/outbox.cif.g08.bks.cpg/sg10_17_cif.got.tgz:32202.got - 2010.06.03 11:33:40.
