data_PCOD9141640
_publ_section_title
;
Structure prediction by ZEFSAII (Michael W. Deem and Ramdas Pophale) SiO2 
 PCOD9141640
Probable space group: P 2/M
;
_chemical_formula_sum "Si O2"
_cell_formula_units_Z 32
_cell_length_a 14.861491
_cell_length_b 13.471930
_cell_length_c 13.994689
_cell_angle_alpha 90.000000
_cell_angle_beta 38.907129
_cell_angle_gamma 90.000000
_cell_volume 1759.772423
_symmetry_space_group_name_H-M "P 2/M"
_symmetry_group_IT_number 10
_symmetry_cell_setting 'monoclinic'
loop_
_space_group_symop_operation_xyz
x,y,z
-x,y,-z
-x,-y,-z
x,-y,z
loop_
_atom_site_type_symbol
_atom_site_label
_atom_site_fract_x
_atom_site_fract_y
_atom_site_fract_z
Si Si1 0.701656 0.880425 0.238377
Si Si2 0.454270 0.120505 0.295908
Si Si3 0.109082 0.384895 0.185866
Si Si4 0.665409 0.692305 0.844747
Si Si5 0.109369 0.809953 0.078959
Si Si6 0.789510 0.880052 0.373674
Si Si7 0.875173 0.381151 0.528281
Si Si8 0.338980 0.114992 0.038287
O O1 0.565869 0.849102 0.286965
O O2 0.703455 0.853505 0.347860
O O3 0.706811 0.000000 0.229658
O O4 0.838678 0.838647 0.069109
O O5 0.298740 0.152532 0.460048
O O6 0.522789 0.149152 0.138277
O O7 0.454838 0.000000 0.293485
O O8 0.112106 0.500000 0.155892
O O9 0.231741 0.365531 0.164657
O O10 0.134203 0.305244 0.082567
O O11 0.953762 0.362238 0.362798
O O12 0.730552 0.668354 0.686882
O O13 0.500000 0.664712 0.000000
O O14 0.682626 0.807967 0.859012
O O15 0.946819 0.837689 0.233146
O O16 0.208715 0.871586 0.071148
O O17 0.799432 0.000000 0.367960
O O18 0.855958 0.500000 0.551344
O O19 0.000000 0.351355 0.500000
O O20 0.351849 0.000000 0.055729
#
# Coordination Sequence:
#
# PCOD9141640 Si02
#       8
#     4   4   4   4   4   4   4   4
#     4   9  16  27  43  66  97 126 149 179 220 256
#     4   8  15  27  42  62  91 126 155 178 210 251
#     4   9  19  35  51  65  86 115 142 180 236 281
#     4  10  19  29  49  74  89 108 147 187 220 260
#     4  10  18  28  46  67  89 116 152 187 220 261
#     4  10  17  25  43  70  94 119 155 190 212 242
#     4   8  15  30  49  66  85 107 133 175 230 272
#     4   9  18  32  44  59  94 132 149 168 213 266
#
# _framework density 18.184170000000002
#
# number of rings (size 3 to 8) (size 9 to 14) (size 15 to 20)
#    0.000    2.875    0.000    3.750    0.000    4.750 
#    0.000    0.000    0.000   12.375    0.000    0.000 
#    0.000   10.000    0.000    0.000    0.000    0.000 
#
# Total GULP energy -178321.194233 kJ/mol
# GULP energy per Si atom -5572.537320 kJ/mol
# Density = 1.814278 g / cm^3
# Si number density = 18.184170 Si / 1000 Ang^3
#
#
#
# Elastic Constant Matrix: (Units=GPa)
#
#
# Indices 1 2 3 4 5 6 
#
# 1 23.0707 4.2058 -1.2081 0.0000 -1.5708 0.0000
# 2 4.2058 43.8217 18.7358 0.0000 3.3410 0.0000
# 3 -1.2081 18.7358 93.8032 0.0000 -12.3575 0.0000
# 4 0.0000 0.0000 0.0000 20.5255 0.0000 4.4445
# 5 -1.5708 3.3410 -12.3575 0.0000 16.7561 0.0000
# 6 0.0000 0.0000 0.0000 4.4445 0.0000 9.4407
#
#
#
# Elastic Compliance Matrix: (Units=1/GPa)
#
#
# Indices 1 2 3 4 5 6 
#
# 1 0.045112 -0.006092 0.002786 0.000000 0.007498 0.000000
# 2 -0.006092 0.027244 -0.006990 0.000000 -0.011158 0.000000
# 3 0.002786 -0.006990 0.013635 0.000000 0.011711 0.000000
# 4 0.000000 0.000000 0.000000 0.054250 0.000000 -0.025540
# 5 0.007498 -0.011158 0.011711 0.000000 0.071244 0.000000
# 6 0.000000 0.000000 0.000000 -0.025540 0.000000 0.117948
#
#
# Mechanical properties :
#
#
# Convention : Reuss Voigt Hill
#
# Bulk Modulus (GPa) = 15.29101 22.68473 18.98787
# Shear Modulus (GPa) = 13.44713 18.60859 16.02786
#
# Velocity S-wave (km/s) = 2.72232 3.20244 2.97209
# Velocity P-wave (km/s) = 4.27885 5.11627 4.71619
#
# Compressibility (1/GPa) = 0.06539790
#
# Stress axis : x y z
#
# Youngs Moduli (GPa) = 22.16705 36.70565 73.33835
#
# Poissons Ratio (x) = 0.22362 -0.20430
# Poissons Ratio (y) = 0.13505 0.51263
# Poissons Ratio (z) = -0.06175 0.25657
#
# Static dielectric constant tensor:
#      x y z
#    x 1.650690 0.000000 -0.004450 
#    y 0.000000 1.602870 0.000000 
#    z -0.004450 0.000000 1.660690 
# 
# From -- ./inp_files/78935.got.cif
#   From: 2010.05.17/outbox.cif.g08.bks.cpg/sg10_40_cif.got.tgz:78935.got - 2010.06.03 11:33:40.
