data_PCOD9141908
_publ_section_title
;
Structure prediction by ZEFSAII (Michael W. Deem and Ramdas Pophale) SiO2 
 PCOD9141908
Probable space group: P 2/M
;
_chemical_formula_sum "Si O2"
_cell_formula_units_Z 32
_cell_length_a 19.332774
_cell_length_b 18.133453
_cell_length_c 12.975901
_cell_angle_alpha 90.000000
_cell_angle_beta 155.924190
_cell_angle_gamma 90.000000
_cell_volume 1855.726010
_symmetry_space_group_name_H-M "P 2/M"
_symmetry_group_IT_number 10
_symmetry_cell_setting 'monoclinic'
loop_
_space_group_symop_operation_xyz
x,y,z
-x,y,-z
-x,-y,-z
x,-y,z
loop_
_atom_site_type_symbol
_atom_site_label
_atom_site_fract_x
_atom_site_fract_y
_atom_site_fract_z
Si Si1 0.184415 0.716938 0.800594
Si Si2 0.641212 0.083410 0.605979
Si Si3 0.176469 0.081733 0.680667
Si Si4 0.305339 0.655096 0.752473
Si Si5 0.447057 0.154950 0.160844
Si Si6 0.973323 0.419751 0.338892
Si Si7 0.009122 0.914822 0.136006
Si Si8 0.264095 0.815180 0.606432
O O1 0.285062 0.679100 0.843771
O O2 0.000000 0.739627 0.500000
O O3 0.139577 0.654274 0.823920
O O4 0.307970 0.782806 0.001137
O O5 0.500000 0.082186 0.500000
O O6 0.578212 0.135911 0.429279
O O7 0.663635 0.000000 0.593604
O O8 0.815323 0.101553 0.900876
O O9 0.223842 0.141295 0.658010
O O10 0.000000 0.094683 0.500000
O O11 0.168631 0.000000 0.623701
O O12 0.328060 0.086478 0.969262
O O13 0.156010 0.595545 0.536054
O O14 0.258601 0.728400 0.623691
O O15 0.500000 0.632872 0.000000
O O16 0.556298 0.173405 0.206944
O O17 0.905411 0.500000 0.215341
O O18 0.000000 0.422666 0.500000
O O19 0.129844 0.853656 0.347734
O O20 0.053896 0.000000 0.224894
O O21 0.000000 0.910889 0.000000
#
# Coordination Sequence:
#
# PCOD9141908 Si02
#       8
#     4   4   4   4   4   4   4   4
#     4   9  18  31  51  73 106 139 169 207 252 309
#     4  10  23  38  53  72  97 133 180 232 273 307
#     4  11  25  36  48  74 101 134 178 220 261 314
#     4  10  17  29  47  78 109 134 167 208 259 307
#     4  12  21  35  54  74 102 138 174 218 268 319
#     4   8  17  31  49  72 103 147 176 195 239 308
#     4  10  21  38  54  71  96 136 183 226 272 310
#     4  12  22  34  55  75 103 139 175 217 268 321
#
# _framework density 17.243925999999998
#
# number of rings (size 3 to 8) (size 9 to 14) (size 15 to 20)
#    0.000    2.000    3.750    1.500    3.500    2.250 
#    0.000    0.000    0.000    0.000    0.000    0.000 
#    0.000    5.000    0.000    0.125    0.000    0.000 
#
# Total GULP energy -178159.629321 kJ/mol
# GULP energy per Si atom -5567.488416 kJ/mol
# Density = 1.720468 g / cm^3
# Si number density = 17.243926 Si / 1000 Ang^3
#
#
#
# Elastic Constant Matrix: (Units=GPa)
#
#
# Indices 1 2 3 4 5 6 
#
# 1 50.7679 18.1783 27.5339 0.0000 19.0910 0.0000
# 2 18.1783 92.8142 36.4742 0.0000 8.2393 0.0000
# 3 27.5339 36.4742 87.9183 0.0000 24.0830 0.0000
# 4 0.0000 0.0000 0.0000 7.1423 0.0000 1.0593
# 5 19.0910 8.2393 24.0830 0.0000 33.4361 0.0000
# 6 0.0000 0.0000 0.0000 1.0593 0.0000 9.2994
#
#
#
# Elastic Compliance Matrix: (Units=1/GPa)
#
#
# Indices 1 2 3 4 5 6 
#
# 1 0.027436 -0.002656 -0.004209 0.000000 -0.011979 0.000000
# 2 -0.002656 0.013149 -0.005171 0.000000 0.002001 0.000000
# 3 -0.004209 -0.005171 0.017230 0.000000 -0.008733 0.000000
# 4 0.000000 0.000000 0.000000 0.142416 0.000000 -0.016223
# 5 -0.011979 0.002001 -0.008733 0.000000 0.042544 0.000000
# 6 0.000000 0.000000 0.000000 -0.016223 0.000000 0.109382
#
#
# Mechanical properties :
#
#
# Convention : Reuss Voigt Hill
#
# Bulk Modulus (GPa) = 29.63682 43.98591 36.81136
# Shear Modulus (GPa) = 12.90400 19.92984 16.41692
#
# Velocity S-wave (km/s) = 2.73851 3.40334 3.08886
# Velocity P-wave (km/s) = 5.21761 6.40367 5.84082
#
# Compressibility (1/GPa) = 0.03374182
#
# Stress axis : x y z
#
# Youngs Moduli (GPa) = 36.44855 76.05115 58.03868
#
# Poissons Ratio (x) = 0.20200 0.24429
# Poissons Ratio (y) = 0.09681 0.30014
# Poissons Ratio (z) = 0.15341 0.39329
#
# Static dielectric constant tensor:
#      x y z
#    x 1.618130 0.000000 0.031010 
#    y 0.000000 1.629160 0.000000 
#    z 0.031010 0.000000 1.648610 
# 
# From -- ./inp_files/70894.got.cif
#   From: 2010.05.17/outbox.cif.g08.bks.cpg/sg10_36_cif.got.tgz:70894.got - 2010.06.03 11:33:40.
