data_PCOD9141817
_publ_section_title
;
Structure prediction by ZEFSAII (Michael W. Deem and Ramdas Pophale) SiO2 
 PCOD9141817
Probable space group: P 2/M
;
_chemical_formula_sum "Si O2"
_cell_formula_units_Z 28
_cell_length_a 19.941840
_cell_length_b 7.673164
_cell_length_c 13.297049
_cell_angle_alpha 90.000000
_cell_angle_beta 48.061635
_cell_angle_gamma 90.000000
_cell_volume 1513.521644
_symmetry_space_group_name_H-M "P 2/M"
_symmetry_group_IT_number 10
_symmetry_cell_setting 'monoclinic'
loop_
_space_group_symop_operation_xyz
x,y,z
-x,y,-z
-x,-y,-z
x,-y,z
loop_
_atom_site_type_symbol
_atom_site_label
_atom_site_fract_x
_atom_site_fract_y
_atom_site_fract_z
Si Si1 0.592199 0.802324 0.281290
Si Si2 0.105939 0.212819 0.504589
Si Si3 0.784807 0.790135 0.413774
Si Si4 0.394099 0.696151 0.510270
Si Si5 0.783413 0.786092 0.023585
Si Si6 0.896147 0.787019 0.106805
Si Si7 0.101379 0.212525 0.281962
O O1 0.495666 0.712280 0.368216
O O2 0.613522 0.806011 0.379736
O O3 0.680308 0.727176 0.139404
O O4 0.579491 0.000000 0.259017
O O5 0.173532 0.273451 0.523253
O O6 0.126562 0.268240 0.369772
O O7 0.002683 0.263696 0.632079
O O8 0.107203 0.000000 0.503136
O O9 0.682092 0.742543 0.493097
O O10 0.845014 0.729532 0.258859
O O11 0.790292 0.000000 0.409398
O O12 0.379234 0.500000 0.559801
O O13 0.841382 0.732704 0.062757
O O14 0.781469 0.000000 0.026612
O O15 0.832884 0.729419 0.872417
O O16 0.896321 0.000000 0.107173
O O17 0.000000 0.730931 0.000000
O O18 0.102404 0.000000 0.280118
#
# Coordination Sequence:
#
# PCOD9141817 Si02
#       7
#     4   4   4   4   4   4   4
#     4  10  18  31  49  69  91 118 152 192 230 272
#     4   8  14  23  40  65  97 128 150 183 224 266
#     4  10  17  28  45  68  94 122 155 186 224 270
#     4  11  21  32  46  66  91 122 153 189 233 278
#     4   9  15  23  39  64  92 120 146 181 225 269
#     4   9  15  22  36  63  94 119 145 179 219 264
#     4   8  13  23  38  66 100 123 148 184 229 267
#
# _framework density 18.4999
#
# number of rings (size 3 to 8) (size 9 to 14) (size 15 to 20)
#    0.000    2.714    1.429    4.286    0.000    3.429 
#    0.000    0.000    0.000    1.286    0.000   10.000 
#    0.000    0.000    0.000    0.000    0.000    0.000 
#
# Total GULP energy -156185.736405 kJ/mol
# GULP energy per Si atom -5578.062014 kJ/mol
# Density = 1.845779 g / cm^3
# Si number density = 18.499900 Si / 1000 Ang^3
#
#
#
# Elastic Constant Matrix: (Units=GPa)
#
#
# Indices 1 2 3 4 5 6 
#
# 1 165.8441 3.8775 93.3688 0.0000 -0.8085 0.0000
# 2 3.8775 36.2241 1.8171 0.0000 1.3644 0.0000
# 3 93.3688 1.8171 128.0392 0.0000 -3.8617 0.0000
# 4 0.0000 0.0000 0.0000 -37.8321 0.0000 28.2731
# 5 -0.8085 1.3644 -3.8617 0.0000 22.0201 0.0000
# 6 0.0000 0.0000 0.0000 28.2731 0.0000 -44.7954
#
#
#
# Elastic Compliance Matrix: (Units=1/GPa)
#
#
# Indices 1 2 3 4 5 6 
#
# 1 0.010266 -0.000689 -0.007503 0.000000 -0.000896 0.000000
# 2 -0.000689 0.027742 0.000056 0.000000 -0.001734 0.000000
# 3 -0.007503 0.000056 0.013343 0.000000 0.002061 0.000000
# 4 0.000000 0.000000 0.000000 -0.050032 0.000000 -0.031578
# 5 -0.000896 -0.001734 0.002061 0.000000 0.045849 0.000000
# 6 0.000000 0.000000 0.000000 -0.031578 0.000000 -0.042255
#
#
# Mechanical properties :
#
#
# Convention : Reuss Voigt Hill
#
# Bulk Modulus (GPa) = 28.50676 58.69268 43.59972
# Shear Modulus (GPa) = 152.07651 3.28143 77.67897
#
# Velocity S-wave (km/s) = 9.07648 1.33327 6.48691
# Velocity P-wave (km/s) = 11.19311 5.84508 8.92891
#
# Compressibility (1/GPa) = 0.03507940
#
# Stress axis : x y z
#
# Youngs Moduli (GPa) = 97.41105 36.04620 74.94556
#
# Poissons Ratio (x) = 0.02483 0.56234
# Poissons Ratio (y) = 0.06709 -0.00421
# Poissons Ratio (z) = 0.73090 -0.00203
#
# Static dielectric constant tensor:
#      x y z
#    x 1.623740 0.000000 -0.005300 
#    y 0.000000 1.660090 0.000000 
#    z -0.005300 0.000000 1.621700 
# 
# From -- ./inp_files/54679.got.cif
#   From: 2010.05.17/outbox.cif.g08.bks.cpg/sg10_28_cif.got.tgz:54679.got - 2010.06.03 11:33:40.
