data_PCOD9141764
_publ_section_title
;
Structure prediction by ZEFSAII (Michael W. Deem and Ramdas Pophale) SiO2 
 PCOD9141764
Probable space group: P 2/M
;
_chemical_formula_sum "Si O2"
_cell_formula_units_Z 28
_cell_length_a 18.383965
_cell_length_b 9.088327
_cell_length_c 22.758261
_cell_angle_alpha 90.000000
_cell_angle_beta 153.010306
_cell_angle_gamma 90.000000
_cell_volume 1725.661533
_symmetry_space_group_name_H-M "P 2/M"
_symmetry_group_IT_number 10
_symmetry_cell_setting 'monoclinic'
loop_
_space_group_symop_operation_xyz
x,y,z
-x,y,-z
-x,-y,-z
x,-y,z
loop_
_atom_site_type_symbol
_atom_site_label
_atom_site_fract_x
_atom_site_fract_y
_atom_site_fract_z
Si Si1 0.184602 0.178452 0.634823
Si Si2 0.029225 0.677366 0.716214
Si Si3 0.156235 0.668954 0.305771
Si Si4 0.470305 0.669258 0.616866
Si Si5 0.268802 0.177032 0.566348
Si Si6 0.658032 0.831143 0.655958
Si Si7 0.686396 0.176604 0.145550
O O1 0.271488 0.219732 0.636831
O O2 0.266307 0.223686 0.754288
O O3 0.000000 0.229399 0.500000
O O4 0.180828 0.000000 0.632683
O O5 0.018147 0.500000 0.702934
O O6 0.197821 0.738809 0.815737
O O7 0.985458 0.715451 0.752301
O O8 0.892252 0.752821 0.577430
O O9 0.132271 0.500000 0.270337
O O10 0.313708 0.671694 0.461350
O O11 0.199308 0.766010 0.280707
O O12 0.501625 0.500000 0.654459
O O13 0.416250 0.761618 0.634491
O O14 0.611816 0.738419 0.680065
O O15 0.259954 0.000000 0.554998
O O16 0.500000 0.826122 0.500000
O O17 0.686373 0.000000 0.691758
O O18 0.284831 0.000000 0.838896
O O19 0.500000 0.203580 0.000000
#
# Coordination Sequence:
#
# PCOD9141764 Si02
#       7
#     4   4   4   4   4   4   4
#     4   9  16  29  48  69  91 117 151 193 236 273
#     4  10  19  30  44  64  91 119 151 189 233 277
#     4   8  15  25  36  52  78 114 147 179 221 268
#     4   9  16  25  36  54  85 117 147 183 227 272
#     4  10  17  27  45  64  87 117 154 192 228 271
#     4   9  15  22  34  54  79 111 150 184 219 265
#     4  10  20  34  51  69  90 120 157 194 233 277
#
# _framework density 16.225662
#
# number of rings (size 3 to 8) (size 9 to 14) (size 15 to 20)
#    0.000    2.714    1.429    2.571    0.000    6.000 
#    0.000    2.143    0.000    0.000    0.000    0.000 
#    0.000    1.143    0.000   13.143    0.000    6.429 
#
# Total GULP energy -155946.272820 kJ/mol
# GULP energy per Si atom -5569.509744 kJ/mol
# Density = 1.618873 g / cm^3
# Si number density = 16.225662 Si / 1000 Ang^3
#
#
#
# Elastic Constant Matrix: (Units=GPa)
#
#
# Indices 1 2 3 4 5 6 
#
# 1 164.7453 68.4714 42.5662 0.0000 23.6681 0.0000
# 2 68.4714 74.1965 23.3773 0.0000 12.9226 0.0000
# 3 42.5662 23.3773 44.3867 0.0000 3.5829 0.0000
# 4 0.0000 0.0000 0.0000 5.0705 0.0000 10.9814
# 5 23.6681 12.9226 3.5829 0.0000 13.3718 0.0000
# 6 0.0000 0.0000 0.0000 10.9814 0.0000 25.9130
#
#
#
# Elastic Compliance Matrix: (Units=1/GPa)
#
#
# Indices 1 2 3 4 5 6 
#
# 1 0.013045 -0.007192 -0.007584 0.000000 -0.014108 0.000000
# 2 -0.007192 0.022986 -0.004541 0.000000 -0.008266 0.000000
# 3 -0.007584 -0.004541 0.031436 0.000000 0.009389 0.000000
# 4 0.000000 0.000000 0.000000 2.399397 0.000000 -1.016816
# 5 -0.014108 -0.008266 0.009389 0.000000 0.105228 0.000000
# 6 0.000000 0.000000 0.000000 -1.016816 0.000000 0.469497
#
#
# Mechanical properties :
#
#
# Convention : Reuss Voigt Hill
#
# Bulk Modulus (GPa) = 34.68328 61.35094 48.01711
# Shear Modulus (GPa) = 1.61821 18.79862 10.20842
#
# Velocity S-wave (km/s) = 0.99974 3.40748 2.51101
# Velocity P-wave (km/s) = 4.77018 7.30577 6.16964
#
# Compressibility (1/GPa) = 0.02883234
#
# Stress axis : x y z
#
# Youngs Moduli (GPa) = 76.65492 43.50529 31.81090
#
# Poissons Ratio (x) = 0.31291 0.24124
# Poissons Ratio (y) = 0.55133 0.14446
# Poissons Ratio (z) = 0.58132 0.19757
#
# Static dielectric constant tensor:
#      x y z
#    x 1.563220 0.000000 0.010280 
#    y 0.000000 1.545160 0.000000 
#    z 0.010280 0.000000 1.513570 
# 
# From -- ./inp_files/56311.got.cif
#   From: 2010.05.17/outbox.cif.g08.bks.cpg/sg10_29_cif.got.tgz:56311.got - 2010.06.03 11:33:40.
