data_PCOD9141993
_publ_section_title
;
Structure prediction by ZEFSAII (Michael W. Deem and Ramdas Pophale) SiO2 
 PCOD9141993
Probable space group: P 2/M
;
_chemical_formula_sum "Si O2"
_cell_formula_units_Z 32
_cell_length_a 21.259017
_cell_length_b 7.421587
_cell_length_c 26.274472
_cell_angle_alpha 90.000000
_cell_angle_beta 22.538941
_cell_angle_gamma 90.000000
_cell_volume 1589.005987
_symmetry_space_group_name_H-M "P 2/M"
_symmetry_group_IT_number 10
_symmetry_cell_setting 'monoclinic'
loop_
_space_group_symop_operation_xyz
x,y,z
-x,y,-z
-x,-y,-z
x,-y,z
loop_
_atom_site_type_symbol
_atom_site_label
_atom_site_fract_x
_atom_site_fract_y
_atom_site_fract_z
Si Si1 0.177145 0.218857 0.138660
Si Si2 0.002145 0.781119 0.163373
Si Si3 0.422690 0.779392 0.400059
Si Si4 0.127331 0.291755 0.445260
Si Si5 0.369549 0.220236 0.555496
Si Si6 0.901424 0.209816 0.415870
Si Si7 0.327349 0.780622 0.869925
Si Si8 0.501109 0.782287 0.845544
O O1 0.070194 0.266400 0.168556
O O2 0.072393 0.282206 0.265315
O O3 0.189039 0.000000 0.131066
O O4 0.363037 0.280088 0.988875
O O5 0.816698 0.720297 0.294213
O O6 0.674113 0.000000 0.129163
O O7 0.141243 0.721683 0.019584
O O8 0.416935 0.724256 0.462925
O O9 0.259390 0.716249 0.492319
O O10 0.580508 0.721402 0.249652
O O11 0.422623 0.000000 0.399517
O O12 0.083134 0.500000 0.484592
O O13 0.117160 0.217084 0.509860
O O14 0.313262 0.278580 0.286460
O O15 0.000000 0.211087 0.500000
O O16 0.500000 0.279093 0.500000
O O17 0.368606 0.000000 0.556534
O O18 0.902189 0.000000 0.400806
O O19 0.434507 0.728273 0.839393
O O20 0.999568 0.000000 0.164175
O O21 0.504662 0.000000 0.843286
#
# Coordination Sequence:
#
# PCOD9141993 Si02
#       8
#     4   4   4   4   4   4   4   4
#     4   8  14  25  47  76  96 112 151 207 247 274
#     4   8  12  20  33  54  86 119 149 185 230 274
#     4   9  14  22  38  62  86 113 155 196 227 266
#     4  11  24  38  49  67  99 132 156 186 237 295
#     4   9  15  21  30  50  88 133 161 178 220 287
#     4  10  17  30  53  76  94 120 162 205 238 273
#     4   8  13  21  38  62  83 106 146 198 237 263
#     4   9  16  30  52  75  94 119 158 199 239 282
#
# _framework density 20.138377999999999
#
# number of rings (size 3 to 8) (size 9 to 14) (size 15 to 20)
#    0.000    3.000    2.500    1.875    0.000    1.000 
#    0.000    1.875    0.000    7.500    0.000    0.000 
#    0.000    0.500    0.000    4.750    0.000    5.000 
#
# Total GULP energy -178436.777503 kJ/mol
# GULP energy per Si atom -5576.149297 kJ/mol
# Density = 2.009254 g / cm^3
# Si number density = 20.138378 Si / 1000 Ang^3
#
#
#
# Elastic Constant Matrix: (Units=GPa)
#
#
# Indices 1 2 3 4 5 6 
#
# 1 82.8895 -4.7699 67.5347 0.0000 -1.8101 0.0000
# 2 -4.7699 57.6296 -5.3974 0.0000 2.4063 0.0000
# 3 67.5347 -5.3974 186.0611 0.0000 7.4438 0.0000
# 4 0.0000 0.0000 0.0000 -18.9037 0.0000 -20.7890
# 5 -1.8101 2.4063 7.4438 0.0000 28.2504 0.0000
# 6 0.0000 0.0000 0.0000 -20.7890 0.0000 6.3900
#
#
#
# Elastic Compliance Matrix: (Units=1/GPa)
#
#
# Indices 1 2 3 4 5 6 
#
# 1 0.017377 0.000725 -0.006396 0.000000 0.002737 0.000000
# 2 0.000725 0.017505 0.000306 0.000000 -0.001525 0.000000
# 3 -0.006396 0.000306 0.007805 0.000000 -0.002492 0.000000
# 4 0.000000 0.000000 0.000000 -0.011556 0.000000 -0.037595
# 5 0.002737 -0.001525 -0.002492 0.000000 0.036360 0.000000
# 6 0.000000 0.000000 0.000000 -0.037595 0.000000 0.034185
#
#
# Mechanical properties :
#
#
# Convention : Reuss Voigt Hill
#
# Bulk Modulus (GPa) = 31.29339 49.03499 40.16419
# Shear Modulus (GPa) = 40.63154 21.09487 30.86320
#
# Velocity S-wave (km/s) = 4.49666 3.24002 3.91904
# Velocity P-wave (km/s) = 6.52172 6.19668 6.36128
#
# Compressibility (1/GPa) = 0.03195563
#
# Stress axis : x y z
#
# Youngs Moduli (GPa) = 57.54846 57.12815 128.12960
#
# Poissons Ratio (x) = -0.04141 0.81948
# Poissons Ratio (y) = -0.04172 -0.03917
# Poissons Ratio (z) = 0.36806 -0.01746
#
# Static dielectric constant tensor:
#      x y z
#    x 1.667050 0.000000 0.009330 
#    y 0.000000 1.798760 0.000000 
#    z 0.009330 0.000000 1.729850 
# 
# From -- ./inp_files/93828.got.cif
#   From: 2010.05.17/outbox.cif.g08.bks.cpg/sg10_47_cif.got.tgz:93828.got - 2010.06.03 11:33:40.
