data_PCOD9141370
_publ_section_title
;
Structure prediction by ZEFSAII (Michael W. Deem and Ramdas Pophale) SiO2 
 PCOD9141370
Probable space group: P 2/M
;
_chemical_formula_sum "Si O2"
_cell_formula_units_Z 32
_cell_length_a 13.802639
_cell_length_b 31.556802
_cell_length_c 5.451234
_cell_angle_alpha 90.000000
_cell_angle_beta 78.610889
_cell_angle_gamma 90.000000
_cell_volume 2327.623888
_symmetry_space_group_name_H-M "P 2/M"
_symmetry_group_IT_number 10
_symmetry_cell_setting 'monoclinic'
loop_
_space_group_symop_operation_xyz
x,y,z
-x,y,-z
-x,-y,-z
x,-y,z
loop_
_atom_site_type_symbol
_atom_site_label
_atom_site_fract_x
_atom_site_fract_y
_atom_site_fract_z
Si Si1 0.565050 0.319468 0.217475
Si Si2 0.381719 0.414427 0.809140
Si Si3 0.559750 0.090922 0.720125
Si Si4 0.380330 0.225988 0.809836
Si Si5 0.224270 0.948847 0.387865
Si Si6 0.395112 0.809009 0.302445
Si Si7 0.885538 0.948381 0.057231
Si Si8 0.607454 0.550391 0.696273
O O1 0.500000 0.318844 0.500000
O O2 0.622465 0.363840 0.188770
O O3 0.628079 0.276477 0.185958
O O4 0.500000 0.318845 0.000000
O O5 0.341604 0.434220 0.578494
O O6 0.498521 0.427901 0.750739
O O7 0.341604 0.434220 0.079902
O O8 0.500000 0.080975 0.500000
O O9 0.663966 0.067292 0.668017
O O10 0.581089 0.141382 0.709453
O O11 0.500000 0.080975 0.000000
O O12 0.498549 0.215075 0.750726
O O13 0.342405 0.205087 0.578578
O O14 0.342405 0.205087 0.079018
O O15 0.169183 0.934863 0.665272
O O16 0.223850 0.000000 0.388074
O O17 0.169183 0.934863 0.165544
O O18 0.884556 0.000000 0.057722
O O19 0.000000 0.935215 0.000000
O O20 0.406157 0.500000 0.296920
#
# Coordination Sequence:
#
# PCOD9141370 Si02
#       8
#     4   4   4   4   4   4   4   4
#     4  12  16  22  31  42  54  66  83 129 171 190
#     4  10  16  22  26  37  48  58  79 107 150 189
#     4  12  21  31  45  58  85 119 140 161 183 211
#     4  10  16  25  38  48  60  79 116 147 169 204
#     4  10  21  33  46  69  89 107 139 164 189 233
#     4  10  16  27  37  51  64  89 125 146 165 198
#     4   9  17  33  54  70  85 103 126 166 209 235
#     4  10  16  22  28  32  43  63  82 100 127 185
#
# _framework density 13.747925
#
# number of rings (size 3 to 8) (size 9 to 14) (size 15 to 20)
#    0.000    1.625    7.500    3.000    0.000    2.000 
#    0.000    0.000    0.000    0.000    0.000    0.000 
#    0.000    0.000    0.000    0.000    0.000    0.000 
#
# Total GULP energy -178168.734780 kJ/mol
# GULP energy per Si atom -5567.772962 kJ/mol
# Density = 1.371663 g / cm^3
# Si number density = 13.747925 Si / 1000 Ang^3
#
#
#
# Elastic Constant Matrix: (Units=GPa)
#
#
# Indices 1 2 3 4 5 6 
#
# 1 54.9541 19.3991 50.0916 0.0000 6.9451 0.0000
# 2 19.3991 22.4329 21.6577 0.0000 0.7955 0.0000
# 3 50.0916 21.6577 155.7521 0.0000 28.5652 0.0000
# 4 0.0000 0.0000 0.0000 12.0360 0.0000 4.0722
# 5 6.9451 0.7955 28.5652 0.0000 19.9047 0.0000
# 6 0.0000 0.0000 0.0000 4.0722 0.0000 0.4766
#
#
#
# Elastic Compliance Matrix: (Units=1/GPa)
#
#
# Indices 1 2 3 4 5 6 
#
# 1 0.032383 -0.020654 -0.007630 0.000000 0.000476 0.000000
# 2 -0.020654 0.066554 -0.004677 0.000000 0.011258 0.000000
# 3 -0.007630 -0.004677 0.012218 0.000000 -0.014685 0.000000
# 4 0.000000 0.000000 0.000000 -0.043944 0.000000 0.375447
# 5 0.000476 0.011258 -0.014685 0.000000 0.070697 0.000000
# 6 0.000000 0.000000 0.000000 0.375447 0.000000 -1.109677
#
#
# Mechanical properties :
#
#
# Convention : Reuss Voigt Hill
#
# Bulk Modulus (GPa) = 22.10765 46.15953 34.13359
# Shear Modulus (GPa) = -5.61311 15.94952 5.16821
#
# Velocity S-wave (km/s) = -2.02281 3.40978 1.94099
# Velocity P-wave (km/s) = 3.26496 7.01075 5.46857
#
# Compressibility (1/GPa) = 0.04523322
#
# Stress axis : x y z
#
# Youngs Moduli (GPa) = 30.88083 15.02545 81.84751
#
# Poissons Ratio (x) = 0.31033 0.62450
# Poissons Ratio (y) = 0.63780 0.38278
# Poissons Ratio (z) = 0.23562 0.07027
#
# Static dielectric constant tensor:
#      x y z
#    x 1.408670 0.000000 0.047190 
#    y 0.000000 1.455670 0.000000 
#    z 0.047190 0.000000 1.542620 
# 
# From -- ./inp_files/8181.got.cif
#   From: 2010.05.17/outbox.cif.g08.bks.cpg/sg10_5_cif.got.tgz:8181.got - 2010.06.03 11:33:40.
