data_PCOD9141997
_publ_section_title
;
Structure prediction by ZEFSAII (Michael W. Deem and Ramdas Pophale) SiO2 
 PCOD9141997
Probable space group: P 2/M
;
_chemical_formula_sum "Si O2"
_cell_formula_units_Z 30
_cell_length_a 15.169405
_cell_length_b 7.665120
_cell_length_c 12.156162
_cell_angle_alpha 90.000000
_cell_angle_beta 111.183967
_cell_angle_gamma 90.000000
_cell_volume 1317.946780
_symmetry_space_group_name_H-M "P 2/M"
_symmetry_group_IT_number 10
_symmetry_cell_setting 'monoclinic'
loop_
_space_group_symop_operation_xyz
x,y,z
-x,y,-z
-x,-y,-z
x,-y,z
loop_
_atom_site_type_symbol
_atom_site_label
_atom_site_fract_x
_atom_site_fract_y
_atom_site_fract_z
Si Si1 0.202985 0.304279 0.989172
Si Si2 0.366342 0.201151 0.221187
Si Si3 0.871350 0.290412 0.274797
Si Si4 0.470720 0.785496 0.865224
Si Si5 0.293990 0.793095 0.653253
Si Si6 0.937846 0.290667 0.741705
Si Si7 0.278384 0.788414 0.404388
Si Si8 0.000000 0.751781 0.000000
O O1 0.241268 0.500000 0.993279
O O2 0.275195 0.206141 0.100164
O O3 0.182867 0.225448 0.859916
O O4 0.100472 0.319280 0.000241
O O5 0.453091 0.274867 0.190765
O O6 0.335838 0.278935 0.324509
O O7 0.391743 0.000000 0.254371
O O8 0.868174 0.500000 0.268609
O O9 0.812616 0.235736 0.353866
O O10 0.981332 0.243439 0.310255
O O11 0.368032 0.726890 0.777205
O O12 0.472531 0.000000 0.869199
O O13 0.500000 0.727298 0.000000
O O14 0.311151 0.723991 0.538486
O O15 0.308880 0.000000 0.654044
O O16 0.948113 0.500000 0.772055
O O17 0.831604 0.258682 0.658185
O O18 0.961420 0.186528 0.863971
O O19 0.283889 0.000000 0.405327
#
# Coordination Sequence:
#
# PCOD9141997 Si02
#       8
#     4   4   4   4   4   4   4   2
#     4  10  18  31  53  79 108 139 175 218 270 324
#     4  10  20  34  53  80 112 141 178 225 266 318
#     4   9  20  35  54  81 108 139 183 231 270 315
#     4   9  18  34  58  83 104 135 180 225 272 327
#     4  10  21  38  57  76 106 147 184 222 273 326
#     4  10  19  34  56  79 107 147 186 220 266 323
#     4  10  22  36  51  79 114 145 181 224 268 316
#     4  10  17  30  53  78 105 140 179 214 257 318
#
# _framework density 22.762678999999999
#
# number of rings (size 3 to 8) (size 9 to 14) (size 15 to 20)
#    0.000    2.267    1.333    2.800    0.000    3.733 
#    0.000    8.667    0.000    2.400    0.000    2.800 
#    0.000    0.000    0.000    0.000    0.000    0.000 
#
# Total GULP energy -167253.145068 kJ/mol
# GULP energy per Si atom -5575.104836 kJ/mol
# Density = 2.271087 g / cm^3
# Si number density = 22.762679 Si / 1000 Ang^3
#
#
#
# Elastic Constant Matrix: (Units=GPa)
#
#
# Indices 1 2 3 4 5 6 
#
# 1 124.5436 -0.9046 51.1156 0.0000 -25.4530 0.0000
# 2 -0.9046 49.3478 6.3351 0.0000 -1.0885 0.0000
# 3 51.1156 6.3351 94.7801 0.0000 -18.2887 0.0000
# 4 0.0000 0.0000 0.0000 -10.0133 0.0000 6.9347
# 5 -25.4530 -1.0885 -18.2887 0.0000 34.1646 0.0000
# 6 0.0000 0.0000 0.0000 6.9347 0.0000 6.7141
#
#
#
# Elastic Compliance Matrix: (Units=1/GPa)
#
#
# Indices 1 2 3 4 5 6 
#
# 1 0.011277 0.000980 -0.005041 0.000000 0.005734 0.000000
# 2 0.000980 0.020525 -0.001822 0.000000 0.000409 0.000000
# 3 -0.005041 -0.001822 0.014113 0.000000 0.003741 0.000000
# 4 0.000000 0.000000 0.000000 -0.058222 0.000000 0.060134
# 5 0.005734 0.000409 0.003741 0.000000 0.035558 0.000000
# 6 0.000000 0.000000 0.000000 0.060134 0.000000 0.086831
#
#
# Mechanical properties :
#
#
# Convention : Reuss Voigt Hill
#
# Bulk Modulus (GPa) = 29.28171 42.41820 35.84995
# Shear Modulus (GPa) = 37.52881 20.31476 28.92178
#
# Velocity S-wave (km/s) = 4.06482 2.99065 3.56839
# Velocity P-wave (km/s) = 5.90950 5.53179 5.72376
#
# Compressibility (1/GPa) = 0.03415101
#
# Stress axis : x y z
#
# Youngs Moduli (GPa) = 88.67356 48.72069 70.85649
#
# Poissons Ratio (x) = -0.04776 0.35718
# Poissons Ratio (y) = -0.08693 0.12908
# Poissons Ratio (z) = 0.44700 0.08875
#
# Static dielectric constant tensor:
#      x y z
#    x 1.821980 0.000000 -0.014760 
#    y 0.000000 1.916480 0.000000 
#    z -0.014760 0.000000 1.840190 
# 
# From -- ./inp_files/49985.got.cif
#   From: 2010.05.17/outbox.cif.g08.bks.cpg/sg10_25_cif.got.tgz:49985.got - 2010.06.03 11:33:40.
