data_PCOD9141973
_publ_section_title
;
Structure prediction by ZEFSAII (Michael W. Deem and Ramdas Pophale) SiO2 
 PCOD9141973
Probable space group: P 2/M
;
_chemical_formula_sum "Si O2"
_cell_formula_units_Z 32
_cell_length_a 18.652248
_cell_length_b 8.003268
_cell_length_c 20.417982
_cell_angle_alpha 90.000000
_cell_angle_beta 155.286254
_cell_angle_gamma 90.000000
_cell_volume 1274.312578
_symmetry_space_group_name_H-M "P 2/M"
_symmetry_group_IT_number 10
_symmetry_cell_setting 'monoclinic'
loop_
_space_group_symop_operation_xyz
x,y,z
-x,y,-z
-x,-y,-z
x,-y,z
loop_
_atom_site_type_symbol
_atom_site_label
_atom_site_fract_x
_atom_site_fract_y
_atom_site_fract_z
Si Si1 0.001967 0.315498 0.197641
Si Si2 0.137461 0.706524 0.780255
Si Si3 0.863495 0.805231 0.963378
Si Si4 0.439734 0.312690 0.196657
Si Si5 0.622242 0.192760 0.657128
Si Si6 0.494793 0.310104 0.899745
Si Si7 0.865114 0.307535 0.446807
Si Si8 0.678345 0.819383 0.486934
O O1 0.925941 0.500000 0.126844
O O2 0.909378 0.236071 0.184586
O O3 0.194105 0.319077 0.383619
O O4 0.021646 0.247410 0.139792
O O5 0.137671 0.500000 0.779616
O O6 0.981695 0.760793 0.603384
O O7 0.332667 0.757717 0.921196
O O8 0.722778 0.771441 0.903986
O O9 0.789980 0.732551 0.833997
O O10 0.876852 0.000000 0.961612
O O11 0.456045 0.500000 0.237591
O O12 0.431698 0.321513 0.113018
O O13 0.608286 0.212157 0.356823
O O14 0.500000 0.271448 0.500000
O O15 0.489854 0.180676 0.607764
O O16 0.662194 0.000000 0.668611
O O17 0.462957 0.500000 0.897662
O O18 0.308151 0.231444 0.729628
O O19 0.815120 0.500000 0.424880
O O20 0.000000 0.317509 0.500000
O O21 0.762755 0.000000 0.564575
#
# Coordination Sequence:
#
# PCOD9141973 Si02
#       8
#     4   4   4   4   4   4   4   4
#     4  11  20  33  51  73 104 140 170 203 262 328
#     4   9  17  29  45  68  97 133 175 213 256 319
#     4  10  19  31  51  78 105 128 162 218 259 294
#     4  10  17  30  50  72 100 137 171 201 255 325
#     4   8  16  33  54  73  96 131 171 206 250 309
#     4   9  16  27  44  67  96 133 175 211 253 316
#     4   9  17  27  40  63  98 137 174 215 261 306
#     4  10  20  32  50  77 104 130 168 219 260 298
#
# _framework density 25.111578999999999
#
# number of rings (size 3 to 8) (size 9 to 14) (size 15 to 20)
#    0.000    2.500    1.250    3.000    0.000    2.500 
#    0.000    3.125    0.000   17.250    0.000    0.000 
#    0.000   19.000    0.000    0.000    0.000    0.000 
#
# Total GULP energy -178140.809896 kJ/mol
# GULP energy per Si atom -5566.900309 kJ/mol
# Density = 2.505442 g / cm^3
# Si number density = 25.111579 Si / 1000 Ang^3
#
#
#
# Elastic Constant Matrix: (Units=GPa)
#
#
# Indices 1 2 3 4 5 6 
#
# 1 55.5152 1.3788 29.9653 0.0000 -12.6749 0.0000
# 2 1.3788 29.6313 7.3871 0.0000 -0.0170 0.0000
# 3 29.9653 7.3871 139.4835 0.0000 -19.0359 0.0000
# 4 0.0000 0.0000 0.0000 13.9773 0.0000 0.4683
# 5 -12.6749 -0.0170 -19.0359 0.0000 56.0159 0.0000
# 6 0.0000 0.0000 0.0000 0.4683 0.0000 4.6585
#
#
#
# Elastic Compliance Matrix: (Units=1/GPa)
#
#
# Indices 1 2 3 4 5 6 
#
# 1 0.020965 0.000035 -0.004046 0.000000 0.003369 0.000000
# 2 0.000035 0.034221 -0.001906 0.000000 -0.000629 0.000000
# 3 -0.004046 -0.001906 0.008404 0.000000 0.001940 0.000000
# 4 0.000000 0.000000 0.000000 0.071786 0.000000 -0.007216
# 5 0.003369 -0.000629 0.001940 0.000000 0.019273 0.000000
# 6 0.000000 0.000000 0.000000 -0.007216 0.000000 0.215387
#
#
# Mechanical properties :
#
#
# Convention : Reuss Voigt Hill
#
# Bulk Modulus (GPa) = 19.32099 33.56582 26.44340
# Shear Modulus (GPa) = 12.52746 27.32358 19.92552
#
# Velocity S-wave (km/s) = 2.23597 3.30219 2.81993
# Velocity P-wave (km/s) = 3.79168 5.28536 4.59956
#
# Compressibility (1/GPa) = 0.05175719
#
# Stress axis : x y z
#
# Youngs Moduli (GPa) = 47.69777 29.22160 118.98802
#
# Poissons Ratio (x) = -0.00102 0.48143
# Poissons Ratio (y) = -0.00167 0.22677
# Poissons Ratio (z) = 0.19299 0.05569
#
# Static dielectric constant tensor:
#      x y z
#    x 2.025780 0.000000 0.006900 
#    y 0.000000 1.954720 0.000000 
#    z 0.006900 0.000000 2.175760 
# 
# From -- ./inp_files/90635.got.cif
#   From: 2010.05.17/outbox.cif.g08.bks.cpg/sg10_46_cif.got.tgz:90635.got - 2010.06.03 11:33:40.
