data_PCOD9141753
_publ_section_title
;
Structure prediction by ZEFSAII (Michael W. Deem and Ramdas Pophale) SiO2 
 PCOD9141753
Probable space group: P 2/M
;
_chemical_formula_sum "Si O2"
_cell_formula_units_Z 28
_cell_length_a 12.745375
_cell_length_b 8.684412
_cell_length_c 19.773085
_cell_angle_alpha 90.000000
_cell_angle_beta 127.405838
_cell_angle_gamma 90.000000
_cell_volume 1738.524688
_symmetry_space_group_name_H-M "P 2/M"
_symmetry_group_IT_number 10
_symmetry_cell_setting 'monoclinic'
loop_
_space_group_symop_operation_xyz
x,y,z
-x,y,-z
-x,-y,-z
x,-y,z
loop_
_atom_site_type_symbol
_atom_site_label
_atom_site_fract_x
_atom_site_fract_y
_atom_site_fract_z
Si Si1 0.855335 0.184840 0.585401
Si Si2 0.984418 0.684234 0.097562
Si Si3 0.609112 0.316868 0.748268
Si Si4 0.799375 0.815849 0.924095
Si Si5 0.321763 0.183265 0.612404
Si Si6 0.907580 0.676309 0.396830
Si Si7 0.821640 0.184971 0.726451
O O1 0.750957 0.230281 0.486235
O O2 0.809374 0.224351 0.642755
O O3 0.997189 0.257099 0.623371
O O4 0.868417 0.000000 0.586251
O O5 0.982543 0.500000 0.096050
O O6 0.094633 0.746248 0.087731
O O7 0.041236 0.748352 0.189983
O O8 0.847286 0.750936 0.015001
O O9 0.624316 0.500000 0.758154
O O10 0.662254 0.241463 0.838844
O O11 0.459597 0.268689 0.675609
O O12 0.702837 0.253372 0.724764
O O13 0.807392 0.000000 0.926701
O O14 0.220195 0.226261 0.632566
O O15 0.343435 0.000000 0.619044
O O16 0.870653 0.500000 0.368660
O O17 0.000000 0.679163 0.500000
O O18 0.821343 0.000000 0.734174
#
# Coordination Sequence:
#
# PCOD9141753 Si02
#       7
#     4   4   4   4   4   4   4
#     4   9  19  33  50  69  92 124 160 196 231 273
#     4  10  17  27  43  65  91 119 151 190 233 272
#     4  11  21  32  45  67  97 126 157 193 235 280
#     4  10  17  28  45  64  87 119 155 190 229 273
#     4  10  19  33  50  68  92 124 160 195 233 276
#     4   9  17  30  49  71  92 115 150 197 241 276
#     4  10  19  32  47  67  95 127 161 192 228 277
#
# _framework density 16.105609999999999
#
# number of rings (size 3 to 8) (size 9 to 14) (size 15 to 20)
#    0.000    2.143    0.000    7.714    0.000    4.000 
#    0.000    2.857    0.000    0.000    0.000    1.000 
#    0.000    8.000    0.000    0.000    0.000    0.000 
#
# Total GULP energy -156063.066563 kJ/mol
# GULP energy per Si atom -5573.680949 kJ/mol
# Density = 1.606895 g / cm^3
# Si number density = 16.105610 Si / 1000 Ang^3
#
#
#
# Elastic Constant Matrix: (Units=GPa)
#
#
# Indices 1 2 3 4 5 6 
#
# 1 51.4033 24.8556 34.7800 0.0000 14.3606 0.0000
# 2 24.8556 99.8083 38.7866 0.0000 9.8444 0.0000
# 3 34.7800 38.7866 93.8397 0.0000 16.7728 0.0000
# 4 0.0000 0.0000 0.0000 22.9051 0.0000 6.3041
# 5 14.3606 9.8444 16.7728 0.0000 2.9887 0.0000
# 6 0.0000 0.0000 0.0000 6.3041 0.0000 25.1767
#
#
#
# Elastic Compliance Matrix: (Units=1/GPa)
#
#
# Indices 1 2 3 4 5 6 
#
# 1 0.001709 -0.004397 -0.020330 0.000000 0.120367 0.000000
# 2 -0.004397 0.012315 -0.004345 0.000000 0.004947 0.000000
# 3 -0.020330 -0.004345 0.009938 0.000000 0.056220 0.000000
# 4 0.000000 0.000000 0.000000 0.046890 0.000000 -0.011741
# 5 0.120367 0.004947 0.056220 0.000000 -0.575572 0.000000
# 6 0.000000 0.000000 0.000000 -0.011741 0.000000 0.042659
#
#
# Mechanical properties :
#
#
# Convention : Reuss Voigt Hill
#
# Bulk Modulus (GPa) = -29.25521 49.09953 9.92216
# Shear Modulus (GPa) = -12.03914 19.98937 3.97511
#
# Velocity S-wave (km/s) = -2.73703 3.52681 1.57274
# Velocity P-wave (km/s) = 5.30966 6.86561 3.07767
#
# Compressibility (1/GPa) = -0.03418195
#
# Stress axis : x y z
#
# Youngs Moduli (GPa) = 585.26262 81.20428 100.61940
#
# Poissons Ratio (x) = 0.35708 2.04560
# Poissons Ratio (y) = 2.57356 0.43714
# Poissons Ratio (z) = 11.89841 0.35279
#
# Static dielectric constant tensor:
#      x y z
#    x 1.516050 0.000000 -0.002720 
#    y 0.000000 1.539420 0.000000 
#    z -0.002720 0.000000 1.586350 
# 
# From -- ./inp_files/83417.got.cif
#   From: 2010.05.17/outbox.cif.g08.bks.cpg/sg10_42_cif.got.tgz:83417.got - 2010.06.03 11:33:40.
