data_PCOD9141477
_publ_section_title
;
Structure prediction by ZEFSAII (Michael W. Deem and Ramdas Pophale) SiO2 
 PCOD9141477
Probable space group: P 2/M
;
_chemical_formula_sum "Si O2"
_cell_formula_units_Z 22
_cell_length_a 10.108964
_cell_length_b 9.742313
_cell_length_c 14.724057
_cell_angle_alpha 90.000000
_cell_angle_beta 120.946707
_cell_angle_gamma 90.000000
_cell_volume 1243.667479
_symmetry_space_group_name_H-M "P 2/M"
_symmetry_group_IT_number 10
_symmetry_cell_setting 'monoclinic'
loop_
_space_group_symop_operation_xyz
x,y,z
-x,y,-z
-x,-y,-z
x,-y,z
loop_
_atom_site_type_symbol
_atom_site_label
_atom_site_fract_x
_atom_site_fract_y
_atom_site_fract_z
Si Si1 0.457555 0.837246 0.880415
Si Si2 0.316410 0.343134 0.532844
Si Si3 0.000000 0.251236 0.500000
Si Si4 0.825495 0.664335 0.701624
Si Si5 0.578248 0.664741 0.761896
Si Si6 0.098480 0.156996 0.729508
O O1 0.557790 0.746510 0.847372
O O2 0.277154 0.803501 0.801597
O O3 0.477602 0.000000 0.868564
O O4 0.500000 0.813126 0.000000
O O5 0.366171 0.500000 0.537073
O O6 0.150147 0.336223 0.522911
O O7 0.285668 0.287083 0.421049
O O8 0.443673 0.283577 0.645254
O O9 0.049219 0.167565 0.606460
O O10 0.848026 0.500000 0.697674
O O11 0.737820 0.686678 0.764846
O O12 0.984851 0.743483 0.744353
O O13 0.559153 0.500000 0.769370
O O14 0.081271 0.000000 0.754336
#
# Coordination Sequence:
#
# PCOD9141477 Si02
#       6
#     4   4   2   4   4   4
#     4  10  22  40  58  76 102 140 183 222 261 311
#     4   9  16  27  48  78 111 143 173 205 255 319
#     4  10  16  28  50  78 109 138 167 218 263 314
#     4   9  19  33  52  79 112 144 172 208 261 321
#     4  10  19  34  55  80 108 139 177 220 261 307
#     4  10  20  34  53  78 107 138 175 219 265 311
#
# _framework density 17.689616000000001
#
# number of rings (size 3 to 8) (size 9 to 14) (size 15 to 20)
#    0.000    2.364    1.818    1.091    0.000    4.727 
#    0.000    0.909    0.000    8.727    0.000    0.000 
#    0.000    0.000    0.000    0.000    0.000    0.000 
#
# Total GULP energy -122607.292335 kJ/mol
# GULP energy per Si atom -5573.058743 kJ/mol
# Density = 1.764935 g / cm^3
# Si number density = 17.689616 Si / 1000 Ang^3
#
#
#
# Elastic Constant Matrix: (Units=GPa)
#
#
# Indices 1 2 3 4 5 6 
#
# 1 108.7069 51.2892 51.6042 0.0000 -26.6431 0.0000
# 2 51.2892 50.8676 33.4342 0.0000 -18.6712 0.0000
# 3 51.6042 33.4342 67.5806 0.0000 -15.7120 0.0000
# 4 0.0000 0.0000 0.0000 21.9827 0.0000 -1.6818
# 5 -26.6431 -18.6712 -15.7120 0.0000 26.7003 0.0000
# 6 0.0000 0.0000 0.0000 -1.6818 0.0000 13.0333
#
#
#
# Elastic Compliance Matrix: (Units=1/GPa)
#
#
# Indices 1 2 3 4 5 6 
#
# 1 0.020904 -0.013495 -0.007681 0.000000 0.006902 0.000000
# 2 -0.013495 0.042990 -0.008231 0.000000 0.011752 0.000000
# 3 -0.007681 -0.008231 0.025040 0.000000 0.001315 0.000000
# 4 0.000000 0.000000 0.000000 0.045944 0.000000 0.005929
# 5 0.006902 0.011752 0.001315 0.000000 0.053332 0.000000
# 6 0.000000 0.000000 0.000000 0.005929 0.000000 0.077492
#
#
# Mechanical properties :
#
#
# Convention : Reuss Voigt Hill
#
# Bulk Modulus (GPa) = 33.20140 55.53448 44.36794
# Shear Modulus (GPa) = 14.94511 18.39842 16.67177
#
# Velocity S-wave (km/s) = 2.90979 3.22851 3.07328
# Velocity P-wave (km/s) = 5.48623 6.73496 6.14241
#
# Compressibility (1/GPa) = 0.03011921
#
# Stress axis : x y z
#
# Youngs Moduli (GPa) = 47.83700 23.26120 39.93577
#
# Poissons Ratio (x) = 0.31392 0.30675
# Poissons Ratio (y) = 0.64558 0.32872
# Poissons Ratio (z) = 0.36744 0.19147
#
# Static dielectric constant tensor:
#      x y z
#    x 1.602150 0.000000 0.004350 
#    y 0.000000 1.597320 0.000000 
#    z 0.004350 0.000000 1.613140 
# 
# From -- ./inp_files/42090.got.cif
#   From: 2010.05.17/outbox.cif.g08.bks.cpg/sg10_22_cif.got.tgz:42090.got - 2010.06.03 11:33:40.
