data_PCOD9141903
_publ_section_title
;
Structure prediction by ZEFSAII (Michael W. Deem and Ramdas Pophale) SiO2 
 PCOD9141903
Probable space group: P 2/M
;
_chemical_formula_sum "Si O2"
_cell_formula_units_Z 32
_cell_length_a 10.188253
_cell_length_b 13.428069
_cell_length_c 9.906400
_cell_angle_alpha 90.000000
_cell_angle_beta 97.231969
_cell_angle_gamma 90.000000
_cell_volume 1344.498585
_symmetry_space_group_name_H-M "P 2/M"
_symmetry_group_IT_number 10
_symmetry_cell_setting 'monoclinic'
loop_
_space_group_symop_operation_xyz
x,y,z
-x,y,-z
-x,-y,-z
x,-y,z
loop_
_atom_site_type_symbol
_atom_site_label
_atom_site_fract_x
_atom_site_fract_y
_atom_site_fract_z
Si Si1 0.933262 0.831031 0.359659
Si Si2 0.563859 0.115431 0.850528
Si Si3 0.219259 0.884279 0.917820
Si Si4 0.389789 0.118777 0.598871
Si Si5 0.089019 0.608041 0.687315
Si Si6 0.853130 0.666845 0.019704
Si Si7 0.777216 0.392984 0.726367
Si Si8 0.228135 0.180115 0.343789
O O1 0.895543 0.714476 0.383053
O O2 0.072246 0.824808 0.289946
O O3 0.000000 0.879495 0.500000
O O4 0.824720 0.878950 0.245844
O O5 0.446777 0.164414 0.744992
O O6 0.687791 0.123974 0.759604
O O7 0.528185 0.000000 0.856132
O O8 0.632835 0.138783 0.003452
O O9 0.147686 0.786624 0.968281
O O10 0.192230 0.000000 0.954783
O O11 0.500000 0.143068 0.500000
O O12 0.257656 0.144477 0.499941
O O13 0.388433 0.000000 0.612380
O O14 0.120964 0.500000 0.627545
O O15 0.933313 0.603978 0.706707
O O16 0.171644 0.621937 0.836257
O O17 0.765709 0.628704 0.885148
O O18 0.000000 0.633704 0.000000
O O19 0.719252 0.500000 0.684790
O O20 0.724333 0.294265 0.651534
#
# Coordination Sequence:
#
# PCOD9141903 Si02
#       8
#     4   4   4   4   4   4   4   4
#     4  10  22  34  43  63  96 128 156 181 221 278
#     4   9  17  30  50  73  89 109 151 198 231 261
#     4  10  20  30  44  65  92 121 149 186 226 268
#     4   8  15  28  47  70  90 111 147 192 231 263
#     4   8  15  27  44  61  81 115 156 192 221 252
#     4   9  15  25  37  61  90 119 146 176 222 273
#     4   9  15  23  38  63  93 118 143 178 223 276
#     4  10  17  29  47  68  92 122 152 181 225 272
#
# _framework density 23.800694
#
# number of rings (size 3 to 8) (size 9 to 14) (size 15 to 20)
#    0.000    2.875    1.250    2.250    0.000    3.250 
#    0.000    0.000    0.000    4.125    0.000    2.625 
#    0.000    0.000    0.000    9.500    0.000    0.000 
#
# Total GULP energy -178198.999623 kJ/mol
# GULP energy per Si atom -5568.718738 kJ/mol
# Density = 2.374652 g / cm^3
# Si number density = 23.800694 Si / 1000 Ang^3
#
#
#
# Elastic Constant Matrix: (Units=GPa)
#
#
# Indices 1 2 3 4 5 6 
#
# 1 50.3818 4.4773 23.4602 0.0000 26.4208 0.0000
# 2 4.4773 77.0340 24.8874 0.0000 -2.2940 0.0000
# 3 23.4602 24.8874 189.2027 0.0000 23.1850 0.0000
# 4 0.0000 0.0000 0.0000 54.6267 0.0000 168.6328
# 5 26.4208 -2.2940 23.1850 0.0000 38.0062 0.0000
# 6 0.0000 0.0000 0.0000 168.6328 0.0000 646.7901
#
#
#
# Elastic Compliance Matrix: (Units=1/GPa)
#
#
# Indices 1 2 3 4 5 6 
#
# 1 0.031879 -0.002172 -0.001011 0.000000 -0.021676 0.000000
# 2 -0.002172 0.013856 -0.001990 0.000000 0.003560 0.000000
# 3 -0.001011 -0.001990 0.006054 0.000000 -0.003110 0.000000
# 4 0.000000 0.000000 0.000000 0.093806 0.000000 -0.024457
# 5 -0.021676 0.003560 -0.003110 0.000000 0.043492 0.000000
# 6 0.000000 0.000000 0.000000 -0.024457 0.000000 0.007923
#
#
# Mechanical properties :
#
#
# Convention : Reuss Voigt Hill
#
# Bulk Modulus (GPa) = 24.12867 46.91871 35.52369
# Shear Modulus (GPa) = 22.60714 165.47084 94.03899
#
# Velocity S-wave (km/s) = 3.08531 8.34712 6.29260
# Velocity P-wave (km/s) = 4.78038 10.61392 8.23126
#
# Compressibility (1/GPa) = 0.04144448
#
# Stress axis : x y z
#
# Youngs Moduli (GPa) = 31.36831 72.16947 165.19324
#
# Poissons Ratio (x) = 0.15673 0.16702
# Poissons Ratio (y) = 0.06812 0.32866
# Poissons Ratio (z) = 0.03171 0.14359
#
# Static dielectric constant tensor:
#      x y z
#    x 2.137610 0.000000 -0.071410 
#    y 0.000000 1.901050 0.000000 
#    z -0.071410 0.000000 2.009030 
# 
# From -- ./inp_files/47438.got.cif
#   From: 2010.05.17/outbox.cif.g08.bks.cpg/sg10_24_cif.got.tgz:47438.got - 2010.06.03 11:33:40.
