data_PCOD9141125
_publ_section_title
;
Structure prediction by ZEFSAII (Michael W. Deem and Ramdas Pophale) SiO2 
 PCOD9141125
Probable space group: C C
;
_chemical_formula_sum "Si O2"
_cell_formula_units_Z 24
_cell_length_a 10.703080
_cell_length_b 16.936975
_cell_length_c 8.942030
_cell_angle_alpha 90.000000
_cell_angle_beta 144.661459
_cell_angle_gamma 90.000000
_cell_volume 937.591999
_symmetry_space_group_name_H-M "C C"
_symmetry_group_IT_number 9
_symmetry_cell_setting 'monoclinic'
loop_
_space_group_symop_operation_xyz
x,y,z
x,-y,1/2+z
1/2+x,1/2+y,z
1/2+x,1/2-y,1/2+z
loop_
_atom_site_type_symbol
_atom_site_label
_atom_site_fract_x
_atom_site_fract_y
_atom_site_fract_z
Si Si1 0.324470 0.028290 0.619910
Si Si2 0.813706 0.160087 0.760687
Si Si3 0.927727 0.687239 0.563092
Si Si4 0.046528 0.011871 0.099181
Si Si5 0.670558 0.087597 0.318213
Si Si6 0.533047 0.777073 0.484851
O O1 0.320888 0.117982 0.557985
O O2 0.101861 0.998606 0.326088
O O3 0.263995 0.013618 0.730299
O O4 0.530149 0.978073 0.769141
O O5 0.592928 0.136223 0.625662
O O6 0.780051 0.144247 0.552528
O O7 0.846531 0.248471 0.860980
O O8 0.992648 0.101089 0.000137
O O9 0.047026 0.731690 0.817300
O O10 0.844410 0.955026 0.881145
O O11 0.531821 0.140825 0.071951
O O12 0.283814 0.748212 0.273663
#
# Coordination Sequence:
#
# PCOD9141125 Si02
#       6
#     4   4   4   4   4   4
#     4  12  27  50  84 119 163 229 287 360 437 528
#     4  12  27  51  80 122 168 221 290 365 439 518
#     4  12  26  50  86 119 166 223 291 357 441 524
#     4  12  27  49  84 118 168 218 294 356 441 523
#     4  12  30  52  82 124 172 226 295 367 440 530
#     4  12  31  54  84 124 171 229 291 363 444 529
#
# _framework density 25.597486
#
# number of rings (size 3 to 8) (size 9 to 14) (size 15 to 20)
#    0.000    0.000    5.000    3.000   11.667    0.000 
#    0.000    0.000    0.000    0.000    0.000    0.000 
#    0.000    0.000    0.000    0.000    0.000    0.000 
#
# Total GULP energy -66870.067551 kJ/mol
# GULP energy per Si atom -5572.505629 kJ/mol
# Density = 2.553923 g / cm^3
# Si number density = 25.597486 Si / 1000 Ang^3
#
#
#
# Elastic Constant Matrix: (Units=GPa)
#
#
# Indices 1 2 3 4 5 6 
#
# 1 116.3207 56.0649 16.7005 0.0000 15.4907 0.0000
# 2 56.0649 139.6418 49.5950 0.0000 6.9733 0.0000
# 3 16.7005 49.5950 99.8382 0.0000 1.5373 0.0000
# 4 0.0000 0.0000 0.0000 56.7818 0.0000 14.2342
# 5 15.4907 6.9733 1.5373 0.0000 39.2190 0.0000
# 6 0.0000 0.0000 0.0000 14.2342 0.0000 43.9993
#
#
#
# Elastic Compliance Matrix: (Units=1/GPa)
#
#
# Indices 1 2 3 4 5 6 
#
# 1 0.011165 -0.004441 0.000395 0.000000 -0.003636 0.000000
# 2 -0.004441 0.010537 -0.004492 0.000000 0.000057 0.000000
# 3 0.000395 -0.004492 0.012179 0.000000 0.000166 0.000000
# 4 0.000000 0.000000 0.000000 0.019166 0.000000 -0.006200
# 5 -0.003636 0.000057 0.000166 0.000000 0.026917 0.000000
# 6 0.000000 0.000000 0.000000 -0.006200 0.000000 0.024733
#
#
# Mechanical properties :
#
#
# Convention : Reuss Voigt Hill
#
# Bulk Modulus (GPa) = 59.51197 66.72462 63.11830
# Shear Modulus (GPa) = 39.25373 43.56272 41.40823
#
# Velocity S-wave (km/s) = 3.92024 4.12981 4.02639
# Velocity P-wave (km/s) = 6.61745 6.99027 6.80641
#
# Compressibility (1/GPa) = 0.01680334
#
# Stress axis : x y z
#
# Youngs Moduli (GPa) = 89.56501 94.90453 82.10735
#
# Poissons Ratio (x) = 0.42149 -0.03239
# Poissons Ratio (y) = 0.39778 0.36884
# Poissons Ratio (z) = -0.03534 0.42633
#
# Static dielectric constant tensor:
#      x y z
#    x 2.002180 0.000000 0.070300 
#    y 0.000000 2.052670 0.000000 
#    z 0.070300 0.000000 2.168810 
# 
# From -- ./inp_files/7995.got.cif
#   From: 2010.05.17/outbox.cif.g08.bks.cpg/sg9_4_cif.got.tgz:7995.got - 2010.06.03 20:04:27.
