data_PCOD9141476
_publ_section_title
;
Structure prediction by ZEFSAII (Michael W. Deem and Ramdas Pophale) SiO2 
 PCOD9141476
Probable space group: P 2/M
;
_chemical_formula_sum "Si O2"
_cell_formula_units_Z 30
_cell_length_a 16.918222
_cell_length_b 9.882260
_cell_length_c 29.442983
_cell_angle_alpha 90.000000
_cell_angle_beta 158.480716
_cell_angle_gamma 90.000000
_cell_volume 1805.673098
_symmetry_space_group_name_H-M "P 2/M"
_symmetry_group_IT_number 10
_symmetry_cell_setting 'monoclinic'
loop_
_space_group_symop_operation_xyz
x,y,z
-x,y,-z
-x,-y,-z
x,-y,z
loop_
_atom_site_type_symbol
_atom_site_label
_atom_site_fract_x
_atom_site_fract_y
_atom_site_fract_z
Si Si1 0.207082 0.341555 0.444119
Si Si2 0.431416 0.161694 0.317257
Si Si3 0.000000 0.745133 0.500000
Si Si4 0.573367 0.163179 0.884578
Si Si5 0.243675 0.659183 0.360255
Si Si6 0.175962 0.653282 0.689552
Si Si7 0.471834 0.842465 0.731305
Si Si8 0.960282 0.159713 0.827040
O O1 0.273522 0.500000 0.483464
O O2 0.398341 0.243737 0.561713
O O3 0.153492 0.318128 0.362743
O O4 0.007041 0.320446 0.370870
O O5 0.455200 0.213530 0.278225
O O6 0.196986 0.179672 0.213828
O O7 0.480569 0.000000 0.344516
O O8 0.070678 0.665459 0.582995
O O9 0.214255 0.826922 0.600269
O O10 0.368303 0.239544 0.795535
O O11 0.579348 0.210495 0.834963
O O12 0.540213 0.000000 0.867195
O O13 0.795653 0.192653 0.028647
O O14 0.500000 0.688061 0.500000
O O15 0.220745 0.500000 0.336571
O O16 0.129500 0.750954 0.261954
O O17 0.255965 0.500000 0.738256
O O18 0.527612 0.000000 0.759362
O O19 0.949738 0.000000 0.809707
#
# Coordination Sequence:
#
# PCOD9141476 Si02
#       8
#     4   4   2   4   4   4   4   4
#     4  10  20  35  52  78 109 135 166 212 264 311
#     4  10  19  31  51  80 107 136 171 211 258 306
#     4  10  16  28  50  76 105 138 171 212 257 300
#     4   9  20  37  53  73 105 145 178 210 252 306
#     4  10  20  35  57  79 102 135 173 211 262 317
#     4  10  20  33  52  78 106 136 173 216 258 304
#     4   9  17  29  48  76 107 140 176 208 248 305
#     4  10  21  36  55  78 106 136 174 219 261 303
#
# _framework density 16.614303
#
# number of rings (size 3 to 8) (size 9 to 14) (size 15 to 20)
#    0.000    2.267    2.667    0.400    0.000    2.933 
#    0.000    3.333    0.000    4.000    0.000    3.733 
#    0.000    0.000    0.000    0.000    0.000    0.000 
#
# Total GULP energy -167168.497861 kJ/mol
# GULP energy per Si atom -5572.283262 kJ/mol
# Density = 1.657649 g / cm^3
# Si number density = 16.614303 Si / 1000 Ang^3
#
#
#
# Elastic Constant Matrix: (Units=GPa)
#
#
# Indices 1 2 3 4 5 6 
#
# 1 100.7070 30.5669 42.1279 0.0000 -1.1624 0.0000
# 2 30.5669 41.1915 49.1637 0.0000 -0.2148 0.0000
# 3 42.1279 49.1637 109.5110 0.0000 -4.5700 0.0000
# 4 0.0000 0.0000 0.0000 11.1376 0.0000 -1.8739
# 5 -1.1624 -0.2148 -4.5700 0.0000 16.4172 0.0000
# 6 0.0000 0.0000 0.0000 -1.8739 0.0000 25.1324
#
#
#
# Elastic Compliance Matrix: (Units=1/GPa)
#
#
# Indices 1 2 3 4 5 6 
#
# 1 0.012923 -0.007918 -0.001399 0.000000 0.000422 0.000000
# 2 -0.007918 0.057727 -0.023131 0.000000 -0.006244 0.000000
# 3 -0.001399 -0.023131 0.020273 0.000000 0.005241 0.000000
# 4 0.000000 0.000000 0.000000 0.090926 0.000000 0.006779
# 5 0.000422 -0.006244 0.005241 0.000000 0.062319 0.000000
# 6 0.000000 0.000000 0.000000 0.006779 0.000000 0.040295
#
#
# Mechanical properties :
#
#
# Convention : Reuss Voigt Hill
#
# Bulk Modulus (GPa) = 38.42025 55.01406 46.71716
# Shear Modulus (GPa) = 13.96517 19.17418 16.56968
#
# Velocity S-wave (km/s) = 2.90237 3.40086 3.16145
# Velocity P-wave (km/s) = 5.86572 6.97176 6.44252
#
# Compressibility (1/GPa) = 0.02602794
#
# Stress axis : x y z
#
# Youngs Moduli (GPa) = 77.38025 17.32296 49.32734
#
# Poissons Ratio (x) = 0.13715 0.06903
# Poissons Ratio (y) = 0.61266 1.14097
# Poissons Ratio (z) = 0.10828 0.40069
#
# Static dielectric constant tensor:
#      x y z
#    x 1.580220 0.000000 -0.005080 
#    y 0.000000 1.555800 0.000000 
#    z -0.005080 0.000000 1.528130 
# 
# From -- ./inp_files/95516.got.cif
#   From: 2010.05.17/outbox.cif.g08.bks.cpg/sg10_48_cif.got.tgz:95516.got - 2010.06.03 11:33:40.
