data_PCOD9141266
_publ_section_title
;
Structure prediction by ZEFSAII (Michael W. Deem and Ramdas Pophale) SiO2 
 PCOD9141266
Probable space group: C C
;
_chemical_formula_sum "Si O2"
_cell_formula_units_Z 16
_cell_length_a 12.000000
_cell_length_b 15.000000
_cell_length_c 9.000000
_cell_angle_alpha 90.000000
_cell_angle_beta 110.000000
_cell_angle_gamma 90.000000
_cell_volume 1522.302046
_symmetry_space_group_name_H-M "C C"
_symmetry_group_IT_number 9
_symmetry_cell_setting 'monoclinic'
loop_
_space_group_symop_operation_xyz
x,y,z
x,-y,1/2+z
1/2+x,1/2+y,z
1/2+x,1/2-y,1/2+z
loop_
_atom_site_type_symbol
_atom_site_label
_atom_site_fract_x
_atom_site_fract_y
_atom_site_fract_z
Si Si1 0.551770 0.042637 0.061120
Si Si2 0.076041 0.727634 0.221499
Si Si3 0.912708 0.937157 0.894660
Si Si4 0.298659 0.283744 0.048932
Si Si5 0.656272 0.221859 0.785714
Si Si6 0.434886 0.106739 0.712164
Si Si7 0.785268 0.927124 0.528624
Si Si8 0.661631 0.364698 0.010447
O O1 0.588573 0.123900 0.184818
O O2 0.672656 0.013964 0.032816
O O3 0.491968 0.966313 0.129329
O O4 0.462645 0.078679 0.894200
O O5 0.183585 0.749417 0.391083
O O6 0.112276 0.788823 0.098886
O O7 0.928591 0.738902 0.163326
O O8 0.853966 0.864494 0.978378
O O9 0.869393 0.916014 0.708750
O O10 0.055664 0.936630 0.967490
O O11 0.857407 0.028779 0.928030
O O12 0.226392 0.297417 0.167466
O O13 0.517600 0.193353 0.719747
O O14 0.666136 0.322337 0.848082
O O15 0.722174 0.161098 0.939036
O O16 0.295262 0.113027 0.619357
#
# Coordination Sequence:
#
# PCOD9141266 Si02
#       8
#     4   4   4   4   4   4   4   4
#     4  11  22  40  68  95 127 174 216 280 326 406
#     4  11  23  43  66  94 136 179 219 278 341 407
#     4  11  23  40  67  96 136 171 222 279 335 402
#     4  11  24  39  66 100 132 173 230 280 338 400
#     4  11  25  40  68  95 128 177 225 275 326 413
#     4  11  25  41  67  96 133 169 229 269 344 399
#     4  11  21  41  67  95 125 173 224 268 331 399
#     4  11  25  44  65  95 135 180 213 277 345 400
#
# _framework density 10.510398
#
# number of rings (size 3 to 8) (size 9 to 14) (size 15 to 20)
#    0.000    1.000    3.750    3.750    7.000    1.000 
#    0.000    1.250    0.000    0.000    0.000    0.000 
#    0.000    0.000    0.000    0.000    0.000    0.000 
#
# Total GULP energy -89212.880081 kJ/mol
# GULP energy per Si atom -5575.805005 kJ/mol
# Density = 1.048648 g / cm^3
# Si number density = 10.510398 Si / 1000 Ang^3
#
#
#
# Elastic Constant Matrix: (Units=GPa)
#
#
# Indices 1 2 3 4 5 6 
#
# 1 139.4177 22.1944 48.4094 0.0000 39.6174 0.0000
# 2 22.1944 29.5338 1.1555 0.0000 6.1423 0.0000
# 3 48.4094 1.1555 90.5081 0.0000 12.2544 0.0000
# 4 0.0000 0.0000 0.0000 20.3810 0.0000 1.6064
# 5 39.6174 6.1423 12.2544 0.0000 48.7793 0.0000
# 6 0.0000 0.0000 0.0000 1.6064 0.0000 22.5305
#
#
#
# Elastic Compliance Matrix: (Units=1/GPa)
#
#
# Indices 1 2 3 4 5 6 
#
# 1 0.012527 -0.007569 -0.005544 0.000000 -0.007828 0.000000
# 2 -0.007569 0.039345 0.003504 0.000000 0.000313 0.000000
# 3 -0.005544 0.003504 0.013892 0.000000 0.000571 0.000000
# 4 0.000000 0.000000 0.000000 0.049343 0.000000 -0.003518
# 5 -0.007828 0.000313 0.000571 0.000000 0.026676 0.000000
# 6 0.000000 0.000000 0.000000 -0.003518 0.000000 0.044635
#
#
# Mechanical properties :
#
#
# Convention : Reuss Voigt Hill
#
# Bulk Modulus (GPa) = 21.48400 44.77537 33.12969
# Shear Modulus (GPa) = 22.60898 30.85151 26.73025
#
# Velocity S-wave (km/s) = 3.28312 3.83517 3.56983
# Velocity P-wave (km/s) = 4.96129 6.39985 5.72593
#
# Compressibility (1/GPa) = 0.04654626
#
# Stress axis : x y z
#
# Youngs Moduli (GPa) = 79.82691 25.41594 71.98505
#
# Poissons Ratio (x) = 0.19237 0.39907
# Poissons Ratio (y) = 0.60421 -0.25222
# Poissons Ratio (z) = 0.44254 -0.08905
#
# Static dielectric constant tensor:
#      x y z
#    x 1.755890 0.000000 0.014650 
#    y 0.000000 1.800700 0.000000 
#    z 0.014650 0.000000 1.782710 
# 
# From -- ./inp_files/7494.got.cif
#   From: 2010.05.17/outbox.ucp.g08.bks.cvg/sg9_4_cif.got.tgz:7494.got - 2010.06.11 13:03:20.
