data_PCOD9141163
_publ_section_title
;
Structure prediction by ZEFSAII (Michael W. Deem and Ramdas Pophale) SiO2 
 PCOD9141163
Probable space group: C C
;
_chemical_formula_sum "Si O2"
_cell_formula_units_Z 24
_cell_length_a 26.313457
_cell_length_b 5.165073
_cell_length_c 19.708002
_cell_angle_alpha 90.000000
_cell_angle_beta 161.101850
_cell_angle_gamma 90.000000
_cell_volume 867.541608
_symmetry_space_group_name_H-M "C C"
_symmetry_group_IT_number 9
_symmetry_cell_setting 'monoclinic'
loop_
_space_group_symop_operation_xyz
x,y,z
x,-y,1/2+z
1/2+x,1/2+y,z
1/2+x,1/2-y,1/2+z
loop_
_atom_site_type_symbol
_atom_site_label
_atom_site_fract_x
_atom_site_fract_y
_atom_site_fract_z
Si Si1 0.820520 0.756414 0.801210
Si Si2 0.783773 0.141134 0.860837
Si Si3 0.463519 0.239770 0.414491
Si Si4 0.119743 0.598613 0.796730
Si Si5 0.559138 0.276464 0.859640
Si Si6 0.354440 0.218433 0.125900
O O1 0.805237 0.846255 0.860330
O O2 0.920068 0.509653 0.904307
O O3 0.658535 0.739745 0.554419
O O4 0.911424 0.001607 0.885067
O O5 0.650830 0.247931 0.641379
O O6 0.943290 0.300053 0.065359
O O7 0.704243 0.167683 0.833423
O O8 0.370473 0.215867 0.227148
O O9 0.178982 0.301767 0.882248
O O10 0.164826 0.735379 0.925784
O O11 0.939811 0.535666 0.707371
O O12 0.463885 0.542268 0.739284
#
# Coordination Sequence:
#
# PCOD9141163 Si02
#       6
#     4   4   4   4   4   4
#     4  12  27  51  87 124 174 234 300 363 441 538
#     4  12  28  56  84 134 182 236 294 376 456 535
#     4  12  27  51  86 126 171 233 299 365 438 538
#     4  12  28  54  84 130 185 233 295 371 459 538
#     4  12  27  50  87 126 172 237 300 366 443 541
#     4  12  27  52  86 128 172 231 300 365 443 538
#
# _framework density 27.664377999999999
#
# number of rings (size 3 to 8) (size 9 to 14) (size 15 to 20)
#    0.000    0.000    6.667    2.000    0.000    1.333 
#    6.000    0.000    0.000    0.000    0.000    0.000 
#    0.000    0.000    0.000    0.000    0.000    0.000 
#
# Total GULP energy -67347.523911 kJ/mol
# GULP energy per Si atom -5612.293659 kJ/mol
# Density = 2.760141 g / cm^3
# Si number density = 27.664378 Si / 1000 Ang^3
#
#
#
# Elastic Constant Matrix: (Units=GPa)
#
#
# Indices 1 2 3 4 5 6 
#
# 1 200.1171 60.8708 37.9261 0.0001 7.1642 0.0000
# 2 60.8708 190.1673 60.1024 0.0021 16.5546 0.0004
# 3 37.9261 60.1024 201.3957 0.0001 11.7064 0.0001
# 4 0.0001 0.0021 0.0001 53.0741 -0.0002 0.8322
# 5 7.1642 16.5546 11.7064 -0.0002 44.7199 -0.0002
# 6 0.0000 0.0004 0.0001 0.8322 -0.0002 49.7650
#
#
#
# Elastic Compliance Matrix: (Units=1/GPa)
#
#
# Indices 1 2 3 4 5 6 
#
# 1 0.005596 -0.001598 -0.000568 0.000000 -0.000156 0.000000
# 2 -0.001598 0.006396 -0.001508 0.000000 -0.001717 0.000000
# 3 -0.000568 -0.001508 0.005569 0.000000 -0.000809 0.000000
# 4 0.000000 0.000000 0.000000 0.018847 0.000000 -0.000315
# 5 -0.000156 -0.001717 -0.000809 0.000000 0.023234 0.000000
# 6 0.000000 0.000000 0.000000 -0.000315 0.000000 0.020100
#
#
# Mechanical properties :
#
#
# Convention : Reuss Voigt Hill
#
# Bulk Modulus (GPa) = 97.90829 101.05319 99.48074
# Shear Modulus (GPa) = 55.25178 58.36386 56.80782
#
# Velocity S-wave (km/s) = 4.47387 4.59814 4.53643
# Velocity P-wave (km/s) = 7.88389 8.04973 7.96724
#
# Compressibility (1/GPa) = 0.01021364
#
# Stress axis : x y z
#
# Youngs Moduli (GPa) = 178.68468 156.34259 179.55492
#
# Poissons Ratio (x) = 0.24988 0.10196
# Poissons Ratio (y) = 0.28559 0.27077
# Poissons Ratio (z) = 0.10146 0.23577
#
# Static dielectric constant tensor:
#      x y z
#    x 2.200760 0.000000 0.016840 
#    y 0.000000 2.129920 0.000000 
#    z 0.016840 0.000000 2.196710 
# 
# From -- ./inp_files/31518.got.cif
#   From: 2010.05.17/outbox.cif.g08.bks.cpg/sg9_16_cif.got.tgz:31518.got - 2010.06.03 20:04:27.
