data_PCOD9141213
_publ_section_title
;
Structure prediction by ZEFSAII (Michael W. Deem and Ramdas Pophale) SiO2 
 PCOD9141213
Probable space group: C C
;
_chemical_formula_sum "Si O2"
_cell_formula_units_Z 16
_cell_length_a 18.000000
_cell_length_b 9.000000
_cell_length_c 21.000000
_cell_angle_alpha 90.000000
_cell_angle_beta 30.000000
_cell_angle_gamma 90.000000
_cell_volume 1701.000000
_symmetry_space_group_name_H-M "C C"
_symmetry_group_IT_number 9
_symmetry_cell_setting 'monoclinic'
loop_
_space_group_symop_operation_xyz
x,y,z
x,-y,1/2+z
1/2+x,1/2+y,z
1/2+x,1/2-y,1/2+z
loop_
_atom_site_type_symbol
_atom_site_label
_atom_site_fract_x
_atom_site_fract_y
_atom_site_fract_z
Si Si1 0.777460 0.889838 0.490260
Si Si2 0.610649 0.077799 0.983769
Si Si3 0.566942 0.412059 0.963567
Si Si4 0.796590 0.606563 0.710587
Si Si5 0.317383 0.547755 0.231124
Si Si6 0.102889 0.249001 0.737711
Si Si7 0.337857 0.320798 0.026521
Si Si8 0.583827 0.914752 0.303092
O O1 0.656369 0.899194 0.523526
O O2 0.707118 0.785346 0.598837
O O3 0.941272 0.828167 0.348450
O O4 0.804396 0.056798 0.497330
O O5 0.455363 0.984196 0.086001
O O6 0.602624 0.243576 0.958962
O O7 0.751874 0.991450 0.848576
O O8 0.699626 0.508210 0.832939
O O9 0.477479 0.489051 0.088265
O O10 0.448767 0.399324 0.994068
O O11 0.819848 0.774495 0.719342
O O12 0.699938 0.649623 0.717479
O O13 0.194384 0.458461 0.279307
O O14 0.062911 0.418467 0.790633
O O15 0.182603 0.310555 0.181863
O O16 0.432486 0.174588 0.934188
#
# Coordination Sequence:
#
# PCOD9141213 Si02
#       8
#     4   4   4   4   4   4   4   4
#     4  11  26  44  65 100 139 176 222 282 352 402
#     4  12  26  42  68 102 137 173 228 289 347 402
#     4  11  22  39  67  99 129 172 229 279 332 405
#     4  11  24  43  72  95 131 183 233 280 334 417
#     4  10  22  40  65  97 131 175 229 277 336 400
#     4  10  24  44  69  94 133 183 228 271 338 415
#     4  10  20  40  61  94 130 167 219 273 322 400
#     4   9  20  36  65  95 124 167 228 271 315 391
#
# _framework density 9.4062319999999993
#
# number of rings (size 3 to 8) (size 9 to 14) (size 15 to 20)
#    0.000    1.500    2.500    2.250    8.750    1.000 
#    4.500    1.250    0.000    0.000    0.000    0.000 
#    0.000    0.000    0.000    0.000    0.000    0.000 
#
# Total GULP energy -89157.157255 kJ/mol
# GULP energy per Si atom -5572.322328 kJ/mol
# Density = 0.938482 g / cm^3
# Si number density = 9.406232 Si / 1000 Ang^3
#
#
#
# Elastic Constant Matrix: (Units=GPa)
#
#
# Indices 1 2 3 4 5 6 
#
# 1 75.2215 32.4099 27.1032 0.0000 0.4626 0.0000
# 2 32.4099 127.2326 56.6212 -0.0001 2.6271 0.0000
# 3 27.1032 56.6212 124.2726 -0.0001 4.8200 0.0000
# 4 0.0000 -0.0001 -0.0001 50.9819 0.0000 3.0843
# 5 0.4626 2.6271 4.8200 0.0000 25.2924 0.0000
# 6 0.0000 0.0000 0.0000 3.0843 0.0000 28.0060
#
#
#
# Elastic Compliance Matrix: (Units=1/GPa)
#
#
# Indices 1 2 3 4 5 6 
#
# 1 0.015308 -0.003029 -0.001974 0.000000 0.000411 0.000000
# 2 -0.003029 0.010459 -0.004095 0.000000 -0.000251 0.000000
# 3 -0.001974 -0.004095 0.010402 0.000000 -0.001521 0.000000
# 4 0.000000 0.000000 0.000000 0.019746 0.000000 -0.002175
# 5 0.000411 -0.000251 -0.001521 0.000000 0.039846 0.000000
# 6 0.000000 0.000000 0.000000 -0.002175 0.000000 0.035946
#
#
# Mechanical properties :
#
#
# Convention : Reuss Voigt Hill
#
# Bulk Modulus (GPa) = 55.64202 62.11057 58.87630
# Shear Modulus (GPa) = 32.07288 34.89556 33.48422
#
# Velocity S-wave (km/s) = 4.13349 4.31155 4.22346
# Velocity P-wave (km/s) = 7.24033 7.60745 7.42616
#
# Compressibility (1/GPa) = 0.01797203
#
# Stress axis : x y z
#
# Youngs Moduli (GPa) = 65.32476 95.61395 96.13451
#
# Poissons Ratio (x) = 0.28964 0.18980
# Poissons Ratio (y) = 0.19789 0.39365
# Poissons Ratio (z) = 0.12897 0.39152
#
# Static dielectric constant tensor:
#      x y z
#    x 1.675050 0.000000 0.039540 
#    y 0.000000 1.642890 0.000000 
#    z 0.039540 0.000000 1.686310 
# 
# From -- ./inp_files/11354.got.cif
#   From: 2010.05.17/outbox.ucp.g08.bks.cvg/sg9_6_cif.got.tgz:11354.got - 2010.06.11 13:03:20.
