data_PCOD9141144
_publ_section_title
;
Structure prediction by ZEFSAII (Michael W. Deem and Ramdas Pophale) SiO2 
 PCOD9141144
Probable space group: C C
;
_chemical_formula_sum "Si O2"
_cell_formula_units_Z 24
_cell_length_a 5.228719
_cell_length_b 9.278429
_cell_length_c 18.859524
_cell_angle_alpha 90.000000
_cell_angle_beta 106.506335
_cell_angle_gamma 90.000000
_cell_volume 877.249676
_symmetry_space_group_name_H-M "C C"
_symmetry_group_IT_number 9
_symmetry_cell_setting 'monoclinic'
loop_
_space_group_symop_operation_xyz
x,y,z
x,-y,1/2+z
1/2+x,1/2+y,z
1/2+x,1/2-y,1/2+z
loop_
_atom_site_type_symbol
_atom_site_label
_atom_site_fract_x
_atom_site_fract_y
_atom_site_fract_z
Si Si1 0.320250 0.788597 0.664030
Si Si2 0.831592 0.900333 0.352090
Si Si3 0.520381 0.223360 0.033576
Si Si4 0.876440 0.982591 0.503886
Si Si5 0.752193 0.807352 0.882066
Si Si6 0.875702 0.617445 0.715533
O O1 0.300909 0.803387 0.576429
O O2 0.607992 0.710007 0.691492
O O3 0.092932 0.687412 0.679158
O O4 0.323915 0.948984 0.696290
O O5 0.943964 0.887946 0.440974
O O6 0.012806 0.780229 0.330317
O O7 0.530265 0.874471 0.303648
O O8 0.878562 0.070691 0.341153
O O9 0.746800 0.103011 0.057568
O O10 0.585079 0.394088 0.042809
O O11 0.451716 0.211334 0.944189
O O12 0.665353 0.087351 0.442527
#
# Coordination Sequence:
#
# PCOD9141144 Si02
#       6
#     4   4   4   4   4   4
#     4  12  27  47  72 102 143 191 233 284 344 421
#     4   9  20  41  61  97 133 171 232 275 351 402
#     4   9  20  42  62  99 131 173 230 277 349 404
#     4   8  20  37  62  91 125 172 214 292 339 389
#     4   8  20  37  62  91 125 172 214 292 339 389
#     4  12  27  46  71 102 141 193 231 286 342 423
#
# _framework density 27.358232000000001
#
# number of rings (size 3 to 8) (size 9 to 14) (size 15 to 20)
#    2.000    0.000    0.000    3.000    0.000    8.000 
#    9.000    0.000    0.000    0.000    0.000    0.000 
#    0.000    0.000    0.000    0.000    0.000    0.000 
#
# Total GULP energy -66904.063124 kJ/mol
# GULP energy per Si atom -5575.338594 kJ/mol
# Density = 2.729596 g / cm^3
# Si number density = 27.358232 Si / 1000 Ang^3
#
#
#
# Elastic Constant Matrix: (Units=GPa)
#
#
# Indices 1 2 3 4 5 6 
#
# 1 113.0168 73.1747 13.4531 0.0000 2.9607 0.0000
# 2 73.1747 174.5979 22.7954 0.0000 6.5724 0.0000
# 3 13.4531 22.7954 121.0182 0.0000 5.2227 0.0000
# 4 0.0000 0.0000 0.0000 36.3125 0.0000 4.6160
# 5 2.9607 6.5724 5.2227 0.0000 46.6598 0.0000
# 6 0.0000 0.0000 0.0000 4.6160 0.0000 53.4672
#
#
#
# Elastic Compliance Matrix: (Units=1/GPa)
#
#
# Indices 1 2 3 4 5 6 
#
# 1 0.012162 -0.005044 -0.000401 0.000000 -0.000016 0.000000
# 2 -0.005044 0.007987 -0.000913 0.000000 -0.000703 0.000000
# 3 -0.000401 -0.000913 0.008514 0.000000 -0.000799 0.000000
# 4 0.000000 0.000000 0.000000 0.027844 0.000000 -0.002404
# 5 -0.000016 -0.000703 -0.000799 0.000000 0.021621 0.000000
# 6 0.000000 0.000000 0.000000 -0.002404 0.000000 0.018911
#
#
# Mechanical properties :
#
#
# Convention : Reuss Voigt Hill
#
# Bulk Modulus (GPa) = 62.71089 69.71991 66.21540
# Shear Modulus (GPa) = 43.45050 47.23521 45.34286
#
# Velocity S-wave (km/s) = 3.98955 4.15968 4.07550
# Velocity P-wave (km/s) = 6.64785 6.97208 6.81190
#
# Compressibility (1/GPa) = 0.01594619
#
# Stress axis : x y z
#
# Youngs Moduli (GPa) = 82.22006 125.19934 117.44876
#
# Poissons Ratio (x) = 0.63155 0.04712
# Poissons Ratio (y) = 0.41475 0.10728
# Poissons Ratio (z) = 0.03299 0.11436
#
# Static dielectric constant tensor:
#      x y z
#    x 2.203230 0.000000 0.007490 
#    y 0.000000 2.338590 0.000000 
#    z 0.007490 0.000000 2.240610 
# 
# From -- ./inp_files/34714.got.cif
#   From: 2010.05.17/outbox.cif.g08.bks.cpg/sg9_18_cif.got.tgz:34714.got - 2010.06.03 20:04:27.
