data_PCOD9141695
_publ_section_title
;
Structure prediction by ZEFSAII (Michael W. Deem and Ramdas Pophale) SiO2 
 PCOD9141695
Probable space group: P 2/M
;
_chemical_formula_sum "Si O2"
_cell_formula_units_Z 24
_cell_length_a 7.797790
_cell_length_b 11.105940
_cell_length_c 15.964031
_cell_angle_alpha 90.000000
_cell_angle_beta 66.223506
_cell_angle_gamma 90.000000
_cell_volume 1265.172987
_symmetry_space_group_name_H-M "P 2/M"
_symmetry_group_IT_number 10
_symmetry_cell_setting 'monoclinic'
loop_
_space_group_symop_operation_xyz
x,y,z
-x,y,-z
-x,-y,-z
x,-y,z
loop_
_atom_site_type_symbol
_atom_site_label
_atom_site_fract_x
_atom_site_fract_y
_atom_site_fract_z
Si Si1 0.913138 0.367501 0.406792
Si Si2 0.276683 0.868861 0.552967
Si Si3 0.721215 0.264748 0.290880
Si Si4 0.643843 0.357577 0.707351
Si Si5 0.626189 0.641400 0.900441
Si Si6 0.037695 0.640095 0.896577
O O1 0.871491 0.500000 0.451300
O O2 0.820870 0.249501 0.466260
O O3 0.820836 0.362835 0.332095
O O4 0.135414 0.349713 0.355256
O O5 0.500000 0.860243 0.500000
O O6 0.241856 0.852630 0.660048
O O7 0.213739 0.000000 0.535615
O O8 0.501838 0.290239 0.323449
O O9 0.816775 0.278462 0.182334
O O10 0.597752 0.500000 0.712647
O O11 0.611124 0.311726 0.809059
O O12 0.572486 0.500000 0.904538
O O13 0.840790 0.645998 0.887093
O O14 0.500000 0.694541 0.000000
O O15 0.103166 0.500000 0.883778
O O16 0.000000 0.673842 0.000000
#
# Coordination Sequence:
#
# PCOD9141695 Si02
#       6
#     4   4   4   4   4   4
#     4   9  18  32  53  78 104 134 171 213 260 311
#     4   9  20  39  60  79 104 138 175 217 268 322
#     4  10  19  31  53  73 105 140 176 213 264 308
#     4  10  17  28  46  73 107 139 171 214 262 311
#     4   9  15  22  34  59  98 139 176 212 251 301
#     4  10  17  26  42  70 107 142 176 213 258 306
#
# _framework density 18.969738
#
# number of rings (size 3 to 8) (size 9 to 14) (size 15 to 20)
#    1.000    1.500    1.667    2.500    0.000    3.000 
#    0.000    1.667    0.000    4.500    0.000    0.000 
#    0.000    6.000    0.000    0.000    0.000    0.000 
#
# Total GULP energy -133611.180443 kJ/mol
# GULP energy per Si atom -5567.132518 kJ/mol
# Density = 1.892656 g / cm^3
# Si number density = 18.969738 Si / 1000 Ang^3
#
#
#
# Elastic Constant Matrix: (Units=GPa)
#
#
# Indices 1 2 3 4 5 6 
#
# 1 85.0805 16.9337 10.7250 0.0000 5.0125 0.0000
# 2 16.9337 81.5323 24.5603 0.0000 -12.9315 0.0000
# 3 10.7250 24.5603 71.6955 0.0000 1.4080 0.0000
# 4 0.0000 0.0000 0.0000 9.4333 0.0000 -5.7143
# 5 5.0125 -12.9315 1.4080 0.0000 34.6186 0.0000
# 6 0.0000 0.0000 0.0000 -5.7143 0.0000 -45.6588
#
#
#
# Elastic Compliance Matrix: (Units=1/GPa)
#
#
# Indices 1 2 3 4 5 6 
#
# 1 0.012588 -0.002803 -0.000867 0.000000 -0.002834 0.000000
# 2 -0.002803 0.015348 -0.004963 0.000000 0.006341 0.000000
# 3 -0.000867 -0.004963 0.015824 0.000000 -0.002372 0.000000
# 4 0.000000 0.000000 0.000000 0.098537 0.000000 -0.012332
# 5 -0.002834 0.006341 -0.002372 0.000000 0.031762 0.000000
# 6 0.000000 0.000000 0.000000 -0.012332 0.000000 -0.020358
#
#
# Mechanical properties :
#
#
# Convention : Reuss Voigt Hill
#
# Bulk Modulus (GPa) = 37.74407 38.08292 37.91350
# Shear Modulus (GPa) = 27.80903 12.08455 19.94679
#
# Velocity S-wave (km/s) = 3.83295 2.52671 3.24621
# Velocity P-wave (km/s) = 6.28720 5.35085 5.83783
#
# Compressibility (1/GPa) = 0.02649423
#
# Stress axis : x y z
#
# Youngs Moduli (GPa) = 79.44262 65.15578 63.19394
#
# Poissons Ratio (x) = 0.18261 0.05481
# Poissons Ratio (y) = 0.22265 0.31362
# Poissons Ratio (z) = 0.06890 0.32336
#
# Static dielectric constant tensor:
#      x y z
#    x 1.663700 0.000000 0.006700 
#    y 0.000000 1.644910 0.000000 
#    z 0.006700 0.000000 1.717590 
# 
# From -- ./inp_files/74610.got.cif
#   From: 2010.05.17/outbox.cif.g08.bks.cpg/sg10_38_cif.got.tgz:74610.got - 2010.06.03 11:33:40.
