data_PCOD9141307
_publ_section_title
;
Structure prediction by ZEFSAII (Michael W. Deem and Ramdas Pophale) SiO2 
 PCOD9141307
Probable space group: P 2/M
;
_chemical_formula_sum "Si O2"
_cell_formula_units_Z 24
_cell_length_a 9.812090
_cell_length_b 16.939488
_cell_length_c 7.878109
_cell_angle_alpha 90.000000
_cell_angle_beta 81.231363
_cell_angle_gamma 90.000000
_cell_volume 1294.129824
_symmetry_space_group_name_H-M "P 2/M"
_symmetry_group_IT_number 10
_symmetry_cell_setting 'monoclinic'
loop_
_space_group_symop_operation_xyz
x,y,z
-x,y,-z
-x,-y,-z
x,-y,z
loop_
_atom_site_type_symbol
_atom_site_label
_atom_site_fract_x
_atom_site_fract_y
_atom_site_fract_z
Si Si1 0.154544 0.000000 0.898605
Si Si2 0.555788 0.167284 0.792970
Si Si3 0.370703 0.000000 0.154950
Si Si4 0.746823 0.833482 0.247181
Si Si5 0.929369 0.291712 0.340990
Si Si6 0.214794 0.734361 0.104962
Si Si7 0.160342 0.410716 0.910786
O O1 0.199088 0.922347 0.784888
O O2 0.000000 0.000000 0.000000
O O3 0.243111 0.000000 0.053883
O O4 0.621419 0.081557 0.745442
O O5 0.418364 0.174395 0.707307
O O6 0.672331 0.234390 0.782853
O O7 0.500000 0.165408 0.000000
O O8 0.500000 0.000000 0.000000
O O9 0.828180 0.783073 0.371106
O O10 0.780588 0.790874 0.060387
O O11 0.060078 0.264595 0.203929
O O12 0.000000 0.318322 0.500000
O O13 0.848266 0.362021 0.262718
O O14 0.238498 0.645831 0.029462
O O15 0.212038 0.500000 0.888041
O O16 0.000000 0.414508 0.000000
#
# Coordination Sequence:
#
# PCOD9141307 Si02
#       7
#     2   4   2   4   4   4   4
#     4  12  18  24  45  75  98 122 156 200 245 277
#     4   9  15  26  46  69  96 117 152 196 241 274
#     4  10  14  26  40  71 100 115 153 200 239 278
#     4  10  18  30  47  69  95 121 158 201 239 273
#     4  10  20  32  45  66  97 128 159 190 228 283
#     4   9  16  29  49  71  92 119 151 194 238 279
#     4   8  15  29  50  74  96 117 149 194 237 278
#
# _framework density 18.545280000000002
#
# number of rings (size 3 to 8) (size 9 to 14) (size 15 to 20)
#    0.000    2.500    5.000    2.500    0.000    0.333 
#    0.000    1.250    0.000   12.500    0.000    2.333 
#    0.000   26.667    0.000    0.000    0.000    0.000 
#
# Total GULP energy -133658.499990 kJ/mol
# GULP energy per Si atom -5569.104166 kJ/mol
# Density = 1.850307 g / cm^3
# Si number density = 18.545280 Si / 1000 Ang^3
#
#
#
# Elastic Constant Matrix: (Units=GPa)
#
#
# Indices 1 2 3 4 5 6 
#
# 1 109.0285 53.6017 12.0470 0.0000 22.2533 0.0000
# 2 53.6017 168.1830 16.8066 0.0000 17.3435 0.0000
# 3 12.0470 16.8066 26.0610 0.0000 5.7962 0.0000
# 4 0.0000 0.0000 0.0000 -4.8918 0.0000 -13.3099
# 5 22.2533 17.3435 5.7962 0.0000 15.5285 0.0000
# 6 0.0000 0.0000 0.0000 -13.3099 0.0000 -4.9433
#
#
#
# Elastic Compliance Matrix: (Units=1/GPa)
#
#
# Indices 1 2 3 4 5 6 
#
# 1 0.013995 -0.002630 -0.001053 0.000000 -0.016725 0.000000
# 2 -0.002630 0.007422 -0.002798 0.000000 -0.003476 0.000000
# 3 -0.001053 -0.002798 0.043220 0.000000 -0.011498 0.000000
# 4 0.000000 0.000000 0.000000 0.032315 0.000000 -0.087009
# 5 -0.016725 -0.003476 -0.011498 0.000000 0.096540 0.000000
# 6 0.000000 0.000000 0.000000 -0.087009 0.000000 0.031979
#
#
# Mechanical properties :
#
#
# Convention : Reuss Voigt Hill
#
# Bulk Modulus (GPa) = 19.35186 52.02034 35.68610
# Shear Modulus (GPa) = 19.55734 15.85982 17.70858
#
# Velocity S-wave (km/s) = 3.25094 2.92754 3.09347
# Velocity P-wave (km/s) = 4.95470 6.28798 5.66073
#
# Compressibility (1/GPa) = 0.05167461
#
# Stress axis : x y z
#
# Youngs Moduli (GPa) = 71.45348 134.72976 23.13755
#
# Poissons Ratio (x) = 0.35440 0.02437
# Poissons Ratio (y) = 0.18795 0.06473
# Poissons Ratio (z) = 0.07526 0.37691
#
# Static dielectric constant tensor:
#      x y z
#    x 1.652080 0.000000 0.005700 
#    y 0.000000 1.663790 0.000000 
#    z 0.005700 0.000000 1.678640 
# 
# From -- ./inp_files/19322.got.cif
#   From: 2010.05.17/outbox.cif.g08.bks.cpg/sg10_10_cif.got.tgz:19322.got - 2010.06.03 11:33:40.
