data_PCOD9141990
_publ_section_title
;
Structure prediction by ZEFSAII (Michael W. Deem and Ramdas Pophale) SiO2 
 PCOD9141990
Probable space group: P 2/M
;
_chemical_formula_sum "Si O2"
_cell_formula_units_Z 32
_cell_length_a 21.854674
_cell_length_b 8.502564
_cell_length_c 11.904447
_cell_angle_alpha 90.000000
_cell_angle_beta 52.814168
_cell_angle_gamma 90.000000
_cell_volume 1762.329271
_symmetry_space_group_name_H-M "P 2/M"
_symmetry_group_IT_number 10
_symmetry_cell_setting 'monoclinic'
loop_
_space_group_symop_operation_xyz
x,y,z
-x,y,-z
-x,-y,-z
x,-y,z
loop_
_atom_site_type_symbol
_atom_site_label
_atom_site_fract_x
_atom_site_fract_y
_atom_site_fract_z
Si Si1 0.750712 0.690022 0.079860
Si Si2 0.068981 0.312608 0.779746
Si Si3 0.772755 0.690822 0.484609
Si Si4 0.906665 0.184896 0.999610
Si Si5 0.374571 0.310333 0.950701
Si Si6 0.662135 0.310686 0.402637
Si Si7 0.531025 0.186292 0.694263
Si Si8 0.365868 0.690661 0.215180
O O1 0.759221 0.500000 0.073146
O O2 0.833260 0.765212 0.009153
O O3 0.705785 0.735534 0.017065
O O4 0.695296 0.735066 0.245499
O O5 0.058919 0.500000 0.778781
O O6 0.139614 0.256358 0.624100
O O7 0.093780 0.277075 0.881038
O O8 0.987614 0.229337 0.852910
O O9 0.775332 0.500000 0.479880
O O10 0.724453 0.739169 0.427835
O O11 0.719738 0.736182 0.648399
O O12 0.905033 0.000000 0.025675
O O13 0.377203 0.500000 0.948952
O O14 0.445483 0.252114 0.797965
O O15 0.382218 0.255545 0.070814
O O16 0.657117 0.500000 0.411741
O O17 0.580808 0.244587 0.533184
O O18 0.575586 0.246585 0.756458
O O19 0.529558 0.000000 0.696285
O O20 0.370942 0.500000 0.212354
#
# Coordination Sequence:
#
# PCOD9141990 Si02
#       8
#     4   4   4   4   4   4   4   4
#     4  10  20  36  55  74  99 136 176 210 250 306
#     4  10  17  30  52  76 102 135 174 208 245 297
#     4   8  14  27  51  77  99 126 161 209 255 290
#     4  11  21  31  46  75 110 138 163 203 256 306
#     4  10  21  36  56  76  97 132 176 216 254 300
#     4   9  17  33  53  73 100 132 170 210 253 301
#     4  11  22  34  51  76 105 133 167 211 260 308
#     4   9  18  35  56  78 101 128 169 218 260 295
#
# _framework density 18.157788
#
# number of rings (size 3 to 8) (size 9 to 14) (size 15 to 20)
#    0.000    2.250    1.250    4.500    0.000    3.500 
#    0.000    3.125    0.000    0.750    0.000    5.250 
#    0.000    0.000    0.000    0.000    0.000    0.000 
#
# Total GULP energy -178535.685549 kJ/mol
# GULP energy per Si atom -5579.240173 kJ/mol
# Density = 1.811646 g / cm^3
# Si number density = 18.157788 Si / 1000 Ang^3
#
#
#
# Elastic Constant Matrix: (Units=GPa)
#
#
# Indices 1 2 3 4 5 6 
#
# 1 63.4990 11.0977 9.6259 0.0000 -24.3746 0.0000
# 2 11.0977 18.2647 1.8625 0.0000 0.0740 0.0000
# 3 9.6259 1.8625 40.7644 0.0000 -25.8544 0.0000
# 4 0.0000 0.0000 0.0000 -17.4430 0.0000 22.7527
# 5 -24.3746 0.0740 -25.8544 0.0000 27.2278 0.0000
# 6 0.0000 0.0000 0.0000 22.7527 0.0000 -26.1265
#
#
#
# Elastic Compliance Matrix: (Units=1/GPa)
#
#
# Indices 1 2 3 4 5 6 
#
# 1 0.046825 -0.033171 0.042996 0.000000 0.082835 0.000000
# 2 -0.033171 0.078949 -0.037068 0.000000 -0.065107 0.000000
# 3 0.042996 -0.037068 0.101943 0.000000 0.135392 0.000000
# 4 0.000000 0.000000 0.000000 0.421658 0.000000 0.367209
# 5 0.082835 -0.065107 0.135392 0.000000 0.239621 0.000000
# 6 0.000000 0.000000 0.000000 0.367209 0.000000 0.281515
#
#
# Mechanical properties :
#
#
# Convention : Reuss Voigt Hill
#
# Bulk Modulus (GPa) = 5.77266 18.63336 12.20301
# Shear Modulus (GPa) = 3.89791 3.39447 3.64619
#
# Velocity S-wave (km/s) = 1.46675 1.36875 1.41860
# Velocity P-wave (km/s) = 2.46060 3.57522 3.06893
#
# Compressibility (1/GPa) = 0.17323040
#
# Stress axis : x y z
#
# Youngs Moduli (GPa) = 21.35632 12.66645 9.80944
#
# Poissons Ratio (x) = 0.42015 -0.42176
# Poissons Ratio (y) = 0.70840 0.36362
# Poissons Ratio (z) = -0.91823 0.46952
#
# Static dielectric constant tensor:
#      x y z
#    x 1.613180 0.000000 -0.011310 
#    y 0.000000 1.617460 0.000000 
#    z -0.011310 0.000000 1.638960 
# 
# From -- ./inp_files/55211.got.cif
#   From: 2010.05.17/outbox.cif.g08.bks.cpg/sg10_28_cif.got.tgz:55211.got - 2010.06.03 11:33:40.
