data_PCOD9141898
_publ_section_title
;
Structure prediction by ZEFSAII (Michael W. Deem and Ramdas Pophale) SiO2 
 PCOD9141898
Probable space group: P 2/M
;
_chemical_formula_sum "Si O2"
_cell_formula_units_Z 32
_cell_length_a 12.584643
_cell_length_b 8.157657
_cell_length_c 16.496792
_cell_angle_alpha 90.000000
_cell_angle_beta 82.329205
_cell_angle_gamma 90.000000
_cell_volume 1678.425250
_symmetry_space_group_name_H-M "P 2/M"
_symmetry_group_IT_number 10
_symmetry_cell_setting 'monoclinic'
loop_
_space_group_symop_operation_xyz
x,y,z
-x,y,-z
-x,-y,-z
x,-y,z
loop_
_atom_site_type_symbol
_atom_site_label
_atom_site_fract_x
_atom_site_fract_y
_atom_site_fract_z
Si Si1 0.452149 0.691017 0.236721
Si Si2 0.387641 0.314887 0.055964
Si Si3 0.200108 0.816538 0.980313
Si Si4 0.979567 0.301536 0.593598
Si Si5 0.224113 0.698724 0.283850
Si Si6 0.309635 0.308208 0.804704
Si Si7 0.913440 0.801479 0.856138
Si Si8 0.115316 0.195353 0.730810
O O1 0.461447 0.500000 0.262467
O O2 0.414771 0.693122 0.147106
O O3 0.344535 0.761670 0.288954
O O4 0.571803 0.765135 0.224427
O O5 0.346817 0.500000 0.041816
O O6 0.500000 0.294236 0.000000
O O7 0.302708 0.188875 0.029906
O O8 0.247468 0.747959 0.892145
O O9 0.163408 0.000000 0.964705
O O10 0.111872 0.739973 0.050357
O O11 0.981666 0.500000 0.594408
O O12 0.864498 0.249034 0.641570
O O13 0.000000 0.246074 0.500000
O O14 0.067592 0.240100 0.648481
O O15 0.228847 0.500000 0.282801
O O16 0.175565 0.749049 0.201215
O O17 0.327838 0.500000 0.814755
O O18 0.228594 0.274168 0.740038
O O19 0.026486 0.747996 0.806240
O O20 0.912655 0.000000 0.859172
O O21 0.124854 0.000000 0.736969
#
# Coordination Sequence:
#
# PCOD9141898 Si02
#       8
#     4   4   4   4   4   4   4   4
#     4   9  17  29  48  71  97 132 171 211 250 290
#     4  10  17  29  45  64  93 131 173 218 258 287
#     4  11  21  31  45  69  98 133 175 217 260 297
#     4   9  18  34  59  89 111 125 150 195 248 302
#     4   9  16  29  52  78 102 129 163 202 247 298
#     4  11  22  36  50  68  98 138 179 214 251 291
#     4   9  19  33  48  68  99 133 166 213 261 294
#     4  10  21  38  55  74 101 133 169 205 248 301
#
# _framework density 19.06549
#
# number of rings (size 3 to 8) (size 9 to 14) (size 15 to 20)
#    0.000    2.250    2.500    1.125    0.000    2.000 
#    0.000    3.750    0.000    0.750    0.000    5.250 
#    0.000    0.000    0.000    0.000    0.000    0.000 
#
# Total GULP energy -178333.976050 kJ/mol
# GULP energy per Si atom -5572.936752 kJ/mol
# Density = 1.902210 g / cm^3
# Si number density = 19.065490 Si / 1000 Ang^3
#
#
#
# Elastic Constant Matrix: (Units=GPa)
#
#
# Indices 1 2 3 4 5 6 
#
# 1 106.3111 -1.2391 50.7718 0.0000 -1.6670 0.0000
# 2 -1.2391 8.9280 4.3638 0.0000 -4.0304 0.0000
# 3 50.7718 4.3638 84.6424 0.0000 -16.1607 0.0000
# 4 0.0000 0.0000 0.0000 -37.7004 0.0000 -113.1323
# 5 -1.6670 -4.0304 -16.1607 0.0000 17.5775 0.0000
# 6 0.0000 0.0000 0.0000 -113.1323 0.0000 -228.5941
#
#
#
# Elastic Compliance Matrix: (Units=1/GPa)
#
#
# Indices 1 2 3 4 5 6 
#
# 1 0.014111 0.003680 -0.009991 0.000000 -0.007004 0.000000
# 2 0.003680 0.125998 -0.003785 0.000000 0.025760 0.000000
# 3 -0.009991 -0.003785 0.021415 0.000000 0.017874 0.000000
# 4 0.000000 0.000000 0.000000 0.054677 0.000000 -0.027060
# 5 -0.007004 0.025760 0.017874 0.000000 0.078567 0.000000
# 6 0.000000 0.000000 0.000000 -0.027060 0.000000 0.009017
#
#
# Mechanical properties :
#
#
# Convention : Reuss Voigt Hill
#
# Bulk Modulus (GPa) = 7.07557 34.18605 20.63081
# Shear Modulus (GPa) = 13.47389 -40.01108 -13.26860
#
# Velocity S-wave (km/s) = 2.66130 -4.58603 -2.64095
# Velocity P-wave (km/s) = 3.62803 3.17372 1.24300
#
# Compressibility (1/GPa) = 0.14133138
#
# Stress axis : x y z
#
# Youngs Moduli (GPa) = 70.86629 7.93666 46.69533
#
# Poissons Ratio (x) = -0.02921 0.46655
# Poissons Ratio (y) = -0.26079 0.17674
# Poissons Ratio (z) = 0.70805 0.03004
#
# Static dielectric constant tensor:
#      x y z
#    x 1.719400 0.000000 -0.044510 
#    y 0.000000 1.689680 0.000000 
#    z -0.044510 0.000000 1.658450 
# 
# From -- ./inp_files/63835.got.cif
#   From: 2010.05.17/outbox.cif.g08.bks.cpg/sg10_32_cif.got.tgz:63835.got - 2010.06.03 11:33:40.
