data_PCOD9141863
_publ_section_title
;
Structure prediction by ZEFSAII (Michael W. Deem and Ramdas Pophale) SiO2 
 PCOD9141863
Probable space group: P 2/M
;
_chemical_formula_sum "Si O2"
_cell_formula_units_Z 32
_cell_length_a 12.069531
_cell_length_b 14.796068
_cell_length_c 15.909152
_cell_angle_alpha 90.000000
_cell_angle_beta 40.654534
_cell_angle_gamma 90.000000
_cell_volume 1850.955146
_symmetry_space_group_name_H-M "P 2/M"
_symmetry_group_IT_number 10
_symmetry_cell_setting 'monoclinic'
loop_
_space_group_symop_operation_xyz
x,y,z
-x,y,-z
-x,-y,-z
x,-y,z
loop_
_atom_site_type_symbol
_atom_site_label
_atom_site_fract_x
_atom_site_fract_y
_atom_site_fract_z
Si Si1 0.216640 0.768698 0.651939
Si Si2 0.934141 0.397297 0.343558
Si Si3 0.479484 0.231302 0.651938
Si Si4 0.603403 0.894842 0.143931
Si Si5 0.261992 0.101450 0.238007
Si Si6 0.378742 0.397297 0.343559
Si Si7 0.891266 0.894842 0.856070
Si Si8 0.152819 0.298327 0.347181
O O1 0.140400 0.668264 0.684510
O O2 0.342008 0.785304 0.500000
O O3 0.332051 0.776482 0.667950
O O4 0.059723 0.837203 0.744232
O O5 0.973404 0.500000 0.296088
O O6 0.784430 0.401945 0.500000
O O7 0.092627 0.346720 0.296433
O O8 0.451815 0.162797 0.744231
O O9 0.490581 0.331736 0.684510
O O10 0.455268 0.892208 0.158762
O O11 0.623387 0.000000 0.156457
O O12 0.777784 0.863267 0.000001
O O13 0.227206 0.107792 0.158763
O O14 0.175090 0.191063 0.324910
O O15 0.200864 0.000000 0.299136
O O16 0.434418 0.500000 0.296089
O O17 0.314507 0.346721 0.296433
O O18 0.936303 0.000000 0.843543
O O19 0.000000 0.312984 0.500000
#
# Coordination Sequence:
#
# PCOD9141863 Si02
#       8
#     4   4   4   4   4   4   4   4
#     4  10  21  36  54  79 109 141 181 226 267 308
#     4   9  17  30  50  77 108 140 175 219 269 319
#     4  10  21  36  54  79 109 141 181 226 267 308
#     4  10  21  37  57  80 107 141 179 217 263 323
#     4  10  19  32  53  80 107 136 174 218 265 320
#     4   9  17  30  50  77 108 140 175 219 269 319
#     4  10  21  37  57  80 107 141 179 217 263 323
#     4  10  17  28  49  80 112 139 172 216 269 326
#
# _framework density 17.288371000000001
#
# number of rings (size 3 to 8) (size 9 to 14) (size 15 to 20)
#    0.000    2.250    2.500    0.750    0.000    5.250 
#    0.000    7.500    0.000    0.750    0.000    3.500 
#    0.000    0.000    0.000    0.000    0.000    0.000 
#
# Total GULP energy -178252.711076 kJ/mol
# GULP energy per Si atom -5570.397221 kJ/mol
# Density = 1.724902 g / cm^3
# Si number density = 17.288371 Si / 1000 Ang^3
#
#
#
# Elastic Constant Matrix: (Units=GPa)
#
#
# Indices 1 2 3 4 5 6 
#
# 1 89.4691 57.6376 50.7221 0.0000 0.5790 0.0000
# 2 57.6376 125.4912 51.8217 0.0000 0.1475 0.0000
# 3 50.7221 51.8217 57.0876 0.0000 0.2466 0.0000
# 4 0.0000 0.0000 0.0000 -5.6513 0.0000 0.4081
# 5 0.5790 0.1475 0.2466 0.0000 8.0261 0.0000
# 6 0.0000 0.0000 0.0000 0.4081 0.0000 10.3237
#
#
#
# Elastic Compliance Matrix: (Units=1/GPa)
#
#
# Indices 1 2 3 4 5 6 
#
# 1 0.023435 -0.003465 -0.017672 0.000000 -0.001084 0.000000
# 2 -0.003465 0.013259 -0.008959 0.000000 0.000282 0.000000
# 3 -0.017672 -0.008959 0.041350 0.000000 0.000169 0.000000
# 4 0.000000 0.000000 0.000000 -0.176448 0.000000 0.006976
# 5 -0.001084 0.000282 0.000169 0.000000 0.124662 0.000000
# 6 0.000000 0.000000 0.000000 0.006976 0.000000 0.096589
#
#
# Mechanical properties :
#
#
# Convention : Reuss Voigt Hill
#
# Bulk Modulus (GPa) = 56.01300 65.82340 60.91820
# Shear Modulus (GPa) = 26.45654 9.99747 18.22701
#
# Velocity S-wave (km/s) = 3.91616 2.40735 3.25051
# Velocity P-wave (km/s) = 7.27447 6.77374 7.02857
#
# Compressibility (1/GPa) = 0.01785300
#
# Stress axis : x y z
#
# Youngs Moduli (GPa) = 42.67207 75.41862 24.18360
#
# Poissons Ratio (x) = 0.26129 0.42737
# Poissons Ratio (y) = 0.14784 0.21667
# Poissons Ratio (z) = 0.75409 0.67569
#
# Static dielectric constant tensor:
#      x y z
#    x 1.596020 0.000000 0.000610 
#    y 0.000000 1.589680 0.000000 
#    z 0.000610 0.000000 1.572140 
# 
# From -- ./inp_files/57676.got.cif
#   From: 2010.05.17/outbox.cif.g08.bks.cpg/sg10_29_cif.got.tgz:57676.got - 2010.06.03 11:33:40.
