data_PCOD9141895
_publ_section_title
;
Structure prediction by ZEFSAII (Michael W. Deem and Ramdas Pophale) SiO2 
 PCOD9141895
Probable space group: P 2/M
;
_chemical_formula_sum "Si O2"
_cell_formula_units_Z 32
_cell_length_a 8.454004
_cell_length_b 18.191195
_cell_length_c 21.318083
_cell_angle_alpha 90.000000
_cell_angle_beta 34.602254
_cell_angle_gamma 90.000000
_cell_volume 1861.767473
_symmetry_space_group_name_H-M "P 2/M"
_symmetry_group_IT_number 10
_symmetry_cell_setting 'monoclinic'
loop_
_space_group_symop_operation_xyz
x,y,z
-x,y,-z
-x,-y,-z
x,-y,z
loop_
_atom_site_type_symbol
_atom_site_label
_atom_site_fract_x
_atom_site_fract_y
_atom_site_fract_z
Si Si1 0.862507 0.912302 0.215541
Si Si2 0.217471 0.910737 0.982254
Si Si3 0.272556 0.664050 0.366239
Si Si4 0.152213 0.912240 0.253876
Si Si5 0.908092 0.639993 0.375286
Si Si6 0.305388 0.176393 0.392703
Si Si7 0.584032 0.413514 0.370556
Si Si8 0.225708 0.194674 0.558349
O O1 0.567123 0.875250 0.297472
O O2 0.971604 0.897953 0.250022
O O3 0.830630 0.000000 0.219687
O O4 0.095472 0.887954 0.089301
O O5 0.531446 0.889096 0.863766
O O6 0.222675 0.000000 0.981012
O O7 0.000000 0.887373 0.000000
O O8 0.305345 0.752224 0.348517
O O9 0.521632 0.629166 0.325807
O O10 0.000000 0.654213 0.500000
O O11 0.188058 0.631739 0.325827
O O12 0.018149 0.864095 0.352512
O O13 0.145450 0.000000 0.269048
O O14 0.668496 0.607470 0.499419
O O15 0.856335 0.606213 0.323486
O O16 0.853152 0.727310 0.386341
O O17 0.323152 0.211307 0.456359
O O18 0.000000 0.139695 0.500000
O O19 0.576081 0.500000 0.360929
O O20 0.500000 0.161321 0.500000
#
# Coordination Sequence:
#
# PCOD9141895 Si02
#       8
#     4   4   4   4   4   4   4   4
#     4  10  21  35  52  70  93 128 165 211 257 293
#     4   9  19  36  53  69  90 118 159 208 258 300
#     4   9  17  30  43  61  93 130 163 196 240 290
#     4  10  22  35  51  72  93 125 167 211 252 299
#     4  10  17  29  44  63  91 129 165 196 238 292
#     4  11  20  33  47  69  99 131 168 199 246 301
#     4  10  18  27  43  65  89 125 169 202 233 280
#     4  12  19  32  51  68  96 133 164 199 247 303
#
# _framework density 17.187968000000001
#
# number of rings (size 3 to 8) (size 9 to 14) (size 15 to 20)
#    0.000    1.875    6.250    1.125    1.750    5.250 
#    0.000    0.000    0.000    0.000    0.000    0.000 
#    0.000    0.000    0.000    3.375    0.000   29.250 
#
# Total GULP energy -178173.411316 kJ/mol
# GULP energy per Si atom -5567.919104 kJ/mol
# Density = 1.714885 g / cm^3
# Si number density = 17.187968 Si / 1000 Ang^3
#
#
#
# Elastic Constant Matrix: (Units=GPa)
#
#
# Indices 1 2 3 4 5 6 
#
# 1 100.2718 20.4477 19.4517 0.0000 -11.8611 0.0000
# 2 20.4477 49.4468 26.4444 0.0000 -1.9493 0.0000
# 3 19.4517 26.4444 55.8635 0.0000 -11.1656 0.0000
# 4 0.0000 0.0000 0.0000 -2.5356 0.0000 -1.7417
# 5 -11.8611 -1.9493 -11.1656 0.0000 22.6435 0.0000
# 6 0.0000 0.0000 0.0000 -1.7417 0.0000 16.4659
#
#
#
# Elastic Compliance Matrix: (Units=1/GPa)
#
#
# Indices 1 2 3 4 5 6 
#
# 1 0.011620 -0.004006 -0.001112 0.000000 0.005194 0.000000
# 2 -0.004006 0.028866 -0.013525 0.000000 -0.006283 0.000000
# 3 -0.001112 -0.013525 0.027003 0.000000 0.011568 0.000000
# 4 0.000000 0.000000 0.000000 -0.367665 0.000000 -0.038891
# 5 0.005194 -0.006283 0.011568 0.000000 0.052047 0.000000
# 6 0.000000 0.000000 0.000000 -0.038891 0.000000 0.056618
#
#
# Mechanical properties :
#
#
# Convention : Reuss Voigt Hill
#
# Bulk Modulus (GPa) = 33.10966 37.58552 35.34759
# Shear Modulus (GPa) = -34.68415 16.59731 -9.04342
#
# Velocity S-wave (km/s) = -4.49701 3.11084 -2.29628
# Velocity P-wave (km/s) = 2.76750 5.90067 3.68503
#
# Compressibility (1/GPa) = 0.03020267
#
# Stress axis : x y z
#
# Youngs Moduli (GPa) = 86.06017 34.64274 37.03332
#
# Poissons Ratio (x) = 0.13877 0.04117
# Poissons Ratio (y) = 0.34474 0.50089
# Poissons Ratio (z) = 0.09567 0.46856
#
# Static dielectric constant tensor:
#      x y z
#    x 1.723780 0.000000 -0.012520 
#    y 0.000000 1.572020 0.000000 
#    z -0.012520 0.000000 1.555250 
# 
# From -- ./inp_files/88320.got.cif
#   From: 2010.05.17/outbox.cif.g08.bks.cpg/sg10_45_cif.got.tgz:88320.got - 2010.06.03 11:33:40.
