data_PCOD9141826
_publ_section_title
;
Structure prediction by ZEFSAII (Michael W. Deem and Ramdas Pophale) SiO2 
 PCOD9141826
Probable space group: P 2/M
;
_chemical_formula_sum "Si O2"
_cell_formula_units_Z 20
_cell_length_a 5.347029
_cell_length_b 16.730514
_cell_length_c 13.701808
_cell_angle_alpha 90.000000
_cell_angle_beta 100.752520
_cell_angle_gamma 90.000000
_cell_volume 1204.222415
_symmetry_space_group_name_H-M "P 2/M"
_symmetry_group_IT_number 10
_symmetry_cell_setting 'monoclinic'
loop_
_space_group_symop_operation_xyz
x,y,z
-x,y,-z
-x,-y,-z
x,-y,z
loop_
_atom_site_type_symbol
_atom_site_label
_atom_site_fract_x
_atom_site_fract_y
_atom_site_fract_z
Si Si1 0.630379 0.653598 0.110902
Si Si2 0.221910 0.402697 0.443218
Si Si3 0.819281 0.405079 0.785056
Si Si4 0.726556 0.094086 0.886483
Si Si5 0.227935 0.839837 0.887580
O O1 0.413499 0.637340 0.175826
O O2 0.700321 0.747278 0.108423
O O3 0.900511 0.611330 0.150593
O O4 0.500000 0.627912 0.000000
O O5 0.500000 0.377291 0.500000
O O6 0.218900 0.500000 0.444880
O O7 0.175974 0.379600 0.327896
O O8 0.000000 0.375395 0.500000
O O9 0.768601 0.500000 0.785890
O O10 0.436230 0.113475 0.839556
O O11 0.936962 0.141633 0.840664
O O12 0.777541 0.000000 0.888243
O O13 0.749854 0.126010 0.999956
#
# Coordination Sequence:
#
# PCOD9141826 Si02
#       5
#     4   4   4   4   4
#     4  12  23  35  50  64 100 144 174 206 232 279
#     4   9  17  33  56  75  91 109 141 207 278 318
#     4  11  24  37  51  73  93 123 178 218 248 292
#     4  10  17  28  47  67  85 112 169 217 233 268
#     4  10  18  29  43  64  88 123 164 200 229 288
#
# _framework density 16.608226999999999
#
# number of rings (size 3 to 8) (size 9 to 14) (size 15 to 20)
#    0.000    1.600    2.000    6.600    2.800    5.600 
#    0.000    0.000    0.000    0.000    0.000    0.000 
#    0.000    0.000    0.000    0.000    0.000  412.000 
#
# Total GULP energy -111491.452325 kJ/mol
# GULP energy per Si atom -5574.572616 kJ/mol
# Density = 1.657043 g / cm^3
# Si number density = 16.608227 Si / 1000 Ang^3
#
#
#
# Elastic Constant Matrix: (Units=GPa)
#
#
# Indices 1 2 3 4 5 6 
#
# 1 175.8039 27.8422 40.9630 0.0000 -14.2535 0.0000
# 2 27.8422 48.0253 24.9981 0.0000 -4.9905 0.0000
# 3 40.9630 24.9981 60.7087 0.0000 -7.7150 0.0000
# 4 0.0000 0.0000 0.0000 -4.4978 0.0000 -5.0996
# 5 -14.2535 -4.9905 -7.7150 0.0000 24.0230 0.0000
# 6 0.0000 0.0000 0.0000 -5.0996 0.0000 30.9584
#
#
#
# Elastic Compliance Matrix: (Units=1/GPa)
#
#
# Indices 1 2 3 4 5 6 
#
# 1 0.007052 -0.001925 -0.003633 0.000000 0.002617 0.000000
# 2 -0.001925 0.027129 -0.009697 0.000000 0.001379 0.000000
# 3 -0.003633 -0.009697 0.023339 0.000000 0.003325 0.000000
# 4 0.000000 0.000000 0.000000 -0.187340 0.000000 -0.030860
# 5 0.002617 0.001379 0.003325 0.000000 0.044534 0.000000
# 6 0.000000 0.000000 0.000000 -0.030860 0.000000 0.027218
#
#
# Mechanical properties :
#
#
# Convention : Reuss Voigt Hill
#
# Bulk Modulus (GPa) = 37.02302 52.46051 44.74176
# Shear Modulus (GPa) = -269.45528 22.81235 -123.32146
#
# Velocity S-wave (km/s) = -12.75125 3.71017 -8.62638
# Velocity P-wave (km/s) = 13.94460 7.07174 8.49831
#
# Compressibility (1/GPa) = 0.02701023
#
# Stress axis : x y z
#
# Youngs Moduli (GPa) = 141.80963 36.86076 42.84735
#
# Poissons Ratio (x) = 0.07097 0.15565
# Poissons Ratio (y) = 0.27302 0.41548
# Poissons Ratio (z) = 0.51515 0.35743
#
# Static dielectric constant tensor:
#      x y z
#    x 1.490800 0.000000 -0.225220 
#    y 0.000000 1.559100 0.000000 
#    z -0.225220 0.000000 1.174840 
# 
# From -- ./inp_files/6721.got.cif
#   From: 2010.05.17/outbox.cif.g08.bks.cpg/sg10_4_cif.got.tgz:6721.got - 2010.06.03 11:33:40.
