data_PCOD9141027
_publ_section_title
;
Structure prediction by ZEFSAII (Michael W. Deem and Ramdas Pophale) SiO2 
 PCOD9141027
Probable space group: C C
;
_chemical_formula_sum "Si O2"
_cell_formula_units_Z 20
_cell_length_a 8.757473
_cell_length_b 4.682496
_cell_length_c 22.380809
_cell_angle_alpha 90.000000
_cell_angle_beta 52.865292
_cell_angle_gamma 90.000000
_cell_volume 731.659987
_symmetry_space_group_name_H-M "C C"
_symmetry_group_IT_number 9
_symmetry_cell_setting 'monoclinic'
loop_
_space_group_symop_operation_xyz
x,y,z
x,-y,1/2+z
1/2+x,1/2+y,z
1/2+x,1/2-y,1/2+z
loop_
_atom_site_type_symbol
_atom_site_label
_atom_site_fract_x
_atom_site_fract_y
_atom_site_fract_z
Si Si1 0.570960 0.930620 0.960710
Si Si2 0.691588 0.450183 0.857310
Si Si3 0.755136 0.067500 0.657997
Si Si4 0.665359 0.606764 0.058801
Si Si5 0.047647 0.067796 0.762774
O O1 0.719264 0.741837 0.886882
O O2 0.598259 0.252684 0.930873
O O3 0.606376 0.813489 0.018303
O O4 0.344189 0.900822 0.000966
O O5 0.577518 0.564995 0.826885
O O6 0.856396 0.243251 0.793565
O O7 0.708224 0.744984 0.688225
O O8 0.980402 0.083356 0.619554
O O9 0.729036 0.190361 0.598096
O O10 0.596428 0.248717 0.731552
#
# Coordination Sequence:
#
# PCOD9141027 Si02
#       5
#     4   4   4   4   4
#     4  12  27  47  76 110 152 199 253 314 379 453
#     4  12  25  46  74 109 149 198 251 312 377 450
#     4  12  27  47  76 110 152 199 253 314 379 453
#     4  12  28  50  76 114 154 204 256 318 384 456
#     4  12  25  46  74 109 149 198 251 312 377 450
#
# _framework density 27.335097999999999
#
# number of rings (size 3 to 8) (size 9 to 14) (size 15 to 20)
#    0.000    0.000    0.000    9.600    0.000   11.200 
#    0.000    0.000    0.000    0.000    0.000    0.000 
#    0.000    0.000    0.000    0.000    0.000    0.000 
#
# Total GULP energy -55989.306301 kJ/mol
# GULP energy per Si atom -5598.930630 kJ/mol
# Density = 2.727288 g / cm^3
# Si number density = 27.335098 Si / 1000 Ang^3
#
#
#
# Elastic Constant Matrix: (Units=GPa)
#
#
# Indices 1 2 3 4 5 6 
#
# 1 129.5044 21.0245 37.7552 0.0012 -8.7378 0.0034
# 2 21.0245 128.1328 17.9866 0.0029 -0.7151 0.0067
# 3 37.7552 17.9866 100.0436 -0.0004 0.0941 0.0014
# 4 0.0012 0.0029 -0.0004 54.3658 -0.0003 1.8081
# 5 -8.7378 -0.7151 0.0941 -0.0003 57.3530 0.0011
# 6 0.0034 0.0067 0.0014 1.8081 0.0011 48.8754
#
#
#
# Elastic Compliance Matrix: (Units=1/GPa)
#
#
# Indices 1 2 3 4 5 6 
#
# 1 0.008903 -0.001007 -0.003180 0.000000 0.001349 0.000000
# 2 -0.001007 0.008121 -0.001080 0.000000 -0.000050 -0.000001
# 3 -0.003180 -0.001080 0.011390 0.000000 -0.000517 0.000000
# 4 0.000000 0.000000 0.000000 0.018417 0.000000 -0.000681
# 5 0.001349 -0.000050 -0.000517 0.000000 0.017642 0.000000
# 6 0.000000 -0.000001 0.000000 -0.000681 0.000000 0.020485
#
#
# Mechanical properties :
#
#
# Convention : Reuss Voigt Hill
#
# Bulk Modulus (GPa) = 55.92704 56.80150 56.36427
# Shear Modulus (GPa) = 49.28392 50.84649 50.06520
#
# Velocity S-wave (km/s) = 4.25073 4.31759 4.28429
# Velocity P-wave (km/s) = 6.67801 6.75871 6.71848
#
# Compressibility (1/GPa) = 0.01788044
#
# Stress axis : x y z
#
# Youngs Moduli (GPa) = 112.31662 123.13831 87.79252
#
# Poissons Ratio (x) = 0.12399 0.27920
# Poissons Ratio (y) = 0.11310 0.09482
# Poissons Ratio (z) = 0.35720 0.13299
#
# Static dielectric constant tensor:
#      x y z
#    x 2.081070 0.000000 -0.063010 
#    y 0.000000 2.062340 0.000000 
#    z -0.063010 0.000000 2.191140 
# 
# From -- ./inp_files/34849.got.cif
#   From: 2010.05.17/outbox.cif.g08.bks.cpg/sg9_18_cif.got.tgz:34849.got - 2010.06.03 20:04:27.
