data_PCOD9141106
_publ_section_title
;
Structure prediction by ZEFSAII (Michael W. Deem and Ramdas Pophale) SiO2 
 PCOD9141106
Probable space group: C C
;
_chemical_formula_sum "Si O2"
_cell_formula_units_Z 20
_cell_length_a 6.923338
_cell_length_b 23.206986
_cell_length_c 5.061672
_cell_angle_alpha 90.000000
_cell_angle_beta 76.673884
_cell_angle_gamma 90.000000
_cell_volume 791.360016
_symmetry_space_group_name_H-M "C C"
_symmetry_group_IT_number 9
_symmetry_cell_setting 'monoclinic'
loop_
_space_group_symop_operation_xyz
x,y,z
x,-y,1/2+z
1/2+x,1/2+y,z
1/2+x,1/2-y,1/2+z
loop_
_atom_site_type_symbol
_atom_site_label
_atom_site_fract_x
_atom_site_fract_y
_atom_site_fract_z
Si Si1 0.120990 0.959643 0.799460
Si Si2 0.267307 0.708492 0.070499
Si Si3 0.667020 0.676657 0.864879
Si Si4 0.496393 0.884911 0.586485
Si Si5 0.856099 0.880627 0.155668
O O1 0.336491 0.928639 0.749579
O O2 0.104110 0.995069 0.538652
O O3 0.939003 0.913902 0.878957
O O4 0.490527 0.700442 0.107162
O O5 0.289015 0.685582 0.757983
O O6 0.117094 0.660237 0.235039
O O7 0.206380 0.772642 0.144893
O O8 0.859769 0.657121 0.953446
O O9 0.562661 0.622554 0.757264
O O10 0.670333 0.912525 0.351567
#
# Coordination Sequence:
#
# PCOD9141106 Si02
#       5
#     4   4   4   4   4
#     4  12  26  48  78 103 140 191 252 315 368 416
#     4   8  21  36  66 103 146 183 238 274 355 443
#     4   9  18  40  64 102 144 188 224 279 355 430
#     4   9  22  44  67 102 147 187 239 295 361 423
#     4   8  23  42  65 102 145 177 247 293 347 444
#
# _framework density 25.272950999999999
#
# number of rings (size 3 to 8) (size 9 to 14) (size 15 to 20)
#    2.400    0.000    0.000    1.200    2.800    4.800 
#    3.600    4.000    0.000    0.000    0.000    0.000 
#    0.000    0.000    0.000    0.000    0.000    0.000 
#
# Total GULP energy -55686.871518 kJ/mol
# GULP energy per Si atom -5568.687152 kJ/mol
# Density = 2.521543 g / cm^3
# Si number density = 25.272951 Si / 1000 Ang^3
#
#
#
# Elastic Constant Matrix: (Units=GPa)
#
#
# Indices 1 2 3 4 5 6 
#
# 1 143.0092 59.8582 39.3247 0.0000 -32.2765 0.0000
# 2 59.8582 128.5448 93.8803 0.0000 -21.3184 0.0000
# 3 39.3247 93.8803 116.2075 0.0000 -22.9592 0.0000
# 4 0.0000 0.0000 0.0000 68.8039 0.0000 -15.5102
# 5 -32.2765 -21.3184 -22.9592 0.0000 37.7580 0.0000
# 6 0.0000 0.0000 0.0000 -15.5102 0.0000 38.2051
#
#
#
# Elastic Compliance Matrix: (Units=1/GPa)
#
#
# Indices 1 2 3 4 5 6 
#
# 1 0.010132 -0.005029 0.002028 0.000000 0.007055 0.000000
# 2 -0.005029 0.021555 -0.016089 0.000000 -0.001913 0.000000
# 3 0.002028 -0.016089 0.022122 0.000000 0.006101 0.000000
# 4 0.000000 0.000000 0.000000 0.015998 0.000000 0.006495
# 5 0.007055 -0.001913 0.006101 0.000000 0.035145 0.000000
# 6 0.000000 0.000000 0.000000 0.006495 0.000000 0.028811
#
#
# Mechanical properties :
#
#
# Convention : Reuss Voigt Hill
#
# Bulk Modulus (GPa) = 63.98617 85.98754 74.98685
# Shear Modulus (GPa) = 28.22395 41.93330 35.07862
#
# Velocity S-wave (km/s) = 3.34543 4.07777 3.72962
# Velocity P-wave (km/s) = 6.34788 7.50122 6.94852
#
# Compressibility (1/GPa) = 0.01562838
#
# Stress axis : x y z
#
# Youngs Moduli (GPa) = 98.69501 46.39357 45.20295
#
# Poissons Ratio (x) = 0.23333 -0.09168
# Poissons Ratio (y) = 0.49638 0.72728
# Poissons Ratio (z) = -0.20017 0.74644
#
# Static dielectric constant tensor:
#      x y z
#    x 1.965790 0.000000 -0.007210 
#    y 0.000000 2.016450 0.000000 
#    z -0.007210 0.000000 2.149130 
# 
# From -- ./inp_files/761.got.cif
#   From: 2010.05.17/outbox.cif.g08.bks.cpg/sg9_1_cif.got.tgz:761.got - 2010.06.03 20:04:27.
