data_PCOD9141141
_publ_section_title
;
Structure prediction by ZEFSAII (Michael W. Deem and Ramdas Pophale) SiO2 
 PCOD9141141
Probable space group: C C
;
_chemical_formula_sum "Si O2"
_cell_formula_units_Z 20
_cell_length_a 13.347267
_cell_length_b 12.031636
_cell_length_c 9.189727
_cell_angle_alpha 90.000000
_cell_angle_beta 151.172282
_cell_angle_gamma 90.000000
_cell_volume 711.584743
_symmetry_space_group_name_H-M "C C"
_symmetry_group_IT_number 9
_symmetry_cell_setting 'monoclinic'
loop_
_space_group_symop_operation_xyz
x,y,z
x,-y,1/2+z
1/2+x,1/2+y,z
1/2+x,1/2-y,1/2+z
loop_
_atom_site_type_symbol
_atom_site_label
_atom_site_fract_x
_atom_site_fract_y
_atom_site_fract_z
Si Si1 0.893860 0.770083 0.231750
Si Si2 0.421499 0.114116 0.756292
Si Si3 0.253788 0.280682 0.331440
Si Si4 0.756952 0.427767 0.350809
Si Si5 0.812692 0.041124 0.419092
O O1 0.833157 0.683130 0.027041
O O2 0.166355 0.753831 0.549067
O O3 0.848361 0.894577 0.116059
O O4 0.273903 0.076500 0.700235
O O5 0.643693 0.109423 0.112713
O O6 0.349133 0.228717 0.598381
O O7 0.396576 0.026470 0.594272
O O8 0.990903 0.238392 0.028898
O O9 0.242527 0.413583 0.332541
O O10 0.527786 0.453564 0.109317
#
# Coordination Sequence:
#
# PCOD9141141 Si02
#       5
#     4   4   4   4   4
#     4  12  26  55  82 120 170 214 283 346 417 496
#     4  12  30  55  86 126 166 223 288 342 421 502
#     4  12  28  55  84 120 171 221 273 354 415 499
#     4  12  28  56  84 125 173 218 283 352 414 507
#     4  12  30  53  90 119 170 226 273 350 423 498
#
# _framework density 28.106280000000002
#
# number of rings (size 3 to 8) (size 9 to 14) (size 15 to 20)
#    0.000    0.000    4.000    3.600    2.800    4.800 
#    3.600    0.000    0.000    0.000    0.000    0.000 
#    0.000    0.000    0.000    0.000    0.000    0.000 
#
# Total GULP energy -56135.576679 kJ/mol
# GULP energy per Si atom -5613.557668 kJ/mol
# Density = 2.804231 g / cm^3
# Si number density = 28.106280 Si / 1000 Ang^3
#
#
#
# Elastic Constant Matrix: (Units=GPa)
#
#
# Indices 1 2 3 4 5 6 
#
# 1 224.6253 43.8199 56.6020 0.0000 5.6329 0.0000
# 2 43.8199 119.6404 101.4919 0.0000 -24.7928 0.0000
# 3 56.6020 101.4919 235.1147 0.0000 -0.0734 0.0000
# 4 0.0000 0.0000 0.0000 58.4124 0.0000 -11.1018
# 5 5.6329 -24.7928 -0.0734 0.0000 54.3385 0.0000
# 6 0.0000 0.0000 0.0000 -11.1018 0.0000 51.7826
#
#
#
# Elastic Compliance Matrix: (Units=1/GPa)
#
#
# Indices 1 2 3 4 5 6 
#
# 1 0.004928 -0.001677 -0.000463 0.000000 -0.001276 0.000000
# 2 -0.001677 0.016063 -0.006528 0.000000 0.007494 0.000000
# 3 -0.000463 -0.006528 0.007182 0.000000 -0.002921 0.000000
# 4 0.000000 0.000000 0.000000 0.017847 0.000000 0.003826
# 5 -0.001276 0.007494 -0.002921 0.000000 0.021951 0.000000
# 6 0.000000 0.000000 0.000000 0.003826 0.000000 0.020132
#
#
# Mechanical properties :
#
#
# Convention : Reuss Voigt Hill
#
# Bulk Modulus (GPa) = 92.27292 109.24532 100.75912
# Shear Modulus (GPa) = 45.85065 58.07114 51.96089
#
# Velocity S-wave (km/s) = 4.04336 4.55040 4.30435
# Velocity P-wave (km/s) = 7.39592 8.15850 7.78655
#
# Compressibility (1/GPa) = 0.01083742
#
# Stress axis : x y z
#
# Youngs Moduli (GPa) = 202.93902 62.25397 139.24197
#
# Poissons Ratio (x) = 0.10437 0.06446
# Poissons Ratio (y) = 0.34024 0.90898
# Poissons Ratio (z) = 0.09395 0.40640
#
# Static dielectric constant tensor:
#      x y z
#    x 2.355340 0.000000 0.358200 
#    y 0.000000 2.121700 0.000000 
#    z 0.358200 0.000000 2.325640 
# 
# From -- ./inp_files/18303.got.cif
#   From: 2010.05.17/outbox.cif.g08.bks.cpg/sg9_10_cif.got.tgz:18303.got - 2010.06.03 20:04:27.
