data_PCOD9141295
_publ_section_title
;
Structure prediction by ZEFSAII (Michael W. Deem and Ramdas Pophale) SiO2 
 PCOD9141295
Probable space group: P 2/M
;
_chemical_formula_sum "Si O2"
_cell_formula_units_Z 30
_cell_length_a 17.058847
_cell_length_b 7.532901
_cell_length_c 26.833265
_cell_angle_alpha 90.000000
_cell_angle_beta 155.140846
_cell_angle_gamma 90.000000
_cell_volume 1449.562272
_symmetry_space_group_name_H-M "P 2/M"
_symmetry_group_IT_number 10
_symmetry_cell_setting 'monoclinic'
loop_
_space_group_symop_operation_xyz
x,y,z
-x,y,-z
-x,-y,-z
x,-y,z
loop_
_atom_site_type_symbol
_atom_site_label
_atom_site_fract_x
_atom_site_fract_y
_atom_site_fract_z
Si Si1 0.594178 0.201834 0.313051
Si Si2 0.353156 0.290771 0.374300
Si Si3 0.000000 0.745641 0.500000
Si Si4 0.932001 0.206754 0.153041
Si Si5 0.383155 0.785784 0.562277
Si Si6 0.601015 0.215565 0.895992
Si Si7 0.790286 0.784181 0.283197
Si Si8 0.016676 0.783229 0.707506
O O1 0.603819 0.282541 0.373603
O O2 0.460680 0.284209 0.194025
O O3 0.801095 0.188818 0.408297
O O4 0.528435 0.000000 0.282799
O O5 0.500000 0.218398 0.500000
O O6 0.334839 0.500000 0.372791
O O7 0.147176 0.214758 0.261198
O O8 0.443711 0.260615 0.372682
O O9 0.911577 0.688933 0.395820
O O10 0.919909 0.282620 0.201935
O O11 0.878836 0.000000 0.126861
O O12 0.790039 0.281928 0.030246
O O13 0.193257 0.723307 0.426199
O O14 0.367952 0.000000 0.555813
O O15 0.425725 0.250882 0.831012
O O16 0.610261 0.000000 0.896184
O O17 0.855729 0.736420 0.265887
O O18 0.823131 0.000000 0.309212
O O19 0.013596 0.000000 0.707872
#
# Coordination Sequence:
#
# PCOD9141295 Si02
#       8
#     4   4   2   4   4   4   4   4
#     4   9  15  24  42  70 104 134 161 193 234 280
#     4  11  23  37  53  73  94 121 160 207 255 297
#     4  10  13  18  36  64 103 138 157 188 235 280
#     4  10  19  33  51  71  99 131 162 199 243 291
#     4  10  18  30  50  77 102 125 157 201 245 285
#     4   8  16  27  42  68 103 138 164 190 231 284
#     4   9  14  21  35  64 104 137 160 187 232 284
#     4   9  16  24  41  70 101 129 157 192 238 285
#
# _framework density 20.695902
#
# number of rings (size 3 to 8) (size 9 to 14) (size 15 to 20)
#    0.000    2.533    2.667    2.400    0.000    1.067 
#    0.000    3.333    0.000    4.800    0.000    3.267 
#    0.000    0.000    0.000    0.000    0.000    0.000 
#
# Total GULP energy -167075.418455 kJ/mol
# GULP energy per Si atom -5569.180615 kJ/mol
# Density = 2.064880 g / cm^3
# Si number density = 20.695902 Si / 1000 Ang^3
#
#
#
# Elastic Constant Matrix: (Units=GPa)
#
#
# Indices 1 2 3 4 5 6 
#
# 1 129.5377 -1.4968 54.6944 0.0000 -21.9960 0.0000
# 2 -1.4968 53.4863 5.9337 0.0000 -6.6102 0.0000
# 3 54.6944 5.9337 150.4233 0.0000 -31.4951 0.0000
# 4 0.0000 0.0000 0.0000 -41.2516 0.0000 -23.6124
# 5 -21.9960 -6.6102 -31.4951 0.0000 27.6944 0.0000
# 6 0.0000 0.0000 0.0000 -23.6124 0.0000 -51.9872
#
#
#
# Elastic Compliance Matrix: (Units=1/GPa)
#
#
# Indices 1 2 3 4 5 6 
#
# 1 0.009652 0.001179 -0.002483 0.000000 0.005123 0.000000
# 2 0.001179 0.019417 -0.000037 0.000000 0.005529 0.000000
# 3 -0.002483 -0.000037 0.009368 0.000000 0.008673 0.000000
# 4 0.000000 0.000000 0.000000 -0.032758 0.000000 0.014879
# 5 0.005123 0.005529 0.008673 0.000000 0.051360 0.000000
# 6 0.000000 0.000000 0.000000 0.014879 0.000000 -0.025993
#
#
# Mechanical properties :
#
#
# Convention : Reuss Voigt Hill
#
# Bulk Modulus (GPa) = 27.96908 50.18996 39.07952
# Shear Modulus (GPa) = 109.53861 5.17887 57.35874
#
# Velocity S-wave (km/s) = 7.28303 1.58360 5.27022
# Velocity P-wave (km/s) = 9.17971 5.25809 7.48046
#
# Compressibility (1/GPa) = 0.03575377
#
# Stress axis : x y z
#
# Youngs Moduli (GPa) = 103.60747 51.50196 106.74488
#
# Poissons Ratio (x) = -0.06071 0.26507
# Poissons Ratio (y) = -0.12213 0.00394
# Poissons Ratio (z) = 0.25728 0.00190
#
# Static dielectric constant tensor:
#      x y z
#    x 1.724240 0.000000 -0.038790 
#    y 0.000000 1.811390 0.000000 
#    z -0.038790 0.000000 1.719110 
# 
# From -- ./inp_files/53040.got.cif
#   From: 2010.05.17/outbox.cif.g08.bks.cpg/sg10_27_cif.got.tgz:53040.got - 2010.06.03 11:33:40.
