data_PCOD9141984
_publ_section_title
;
Structure prediction by ZEFSAII (Michael W. Deem and Ramdas Pophale) SiO2 
 PCOD9141984
Probable space group: P 2/M
;
_chemical_formula_sum "Si O2"
_cell_formula_units_Z 24
_cell_length_a 14.328151
_cell_length_b 18.200663
_cell_length_c 8.215290
_cell_angle_alpha 90.000000
_cell_angle_beta 142.902065
_cell_angle_gamma 90.000000
_cell_volume 1292.250306
_symmetry_space_group_name_H-M "P 2/M"
_symmetry_group_IT_number 10
_symmetry_cell_setting 'monoclinic'
loop_
_space_group_symop_operation_xyz
x,y,z
-x,y,-z
-x,-y,-z
x,-y,z
loop_
_atom_site_type_symbol
_atom_site_label
_atom_site_fract_x
_atom_site_fract_y
_atom_site_fract_z
Si Si1 0.336504 0.086961 0.444847
Si Si2 0.857394 0.293734 0.691369
Si Si3 0.038230 0.414873 0.743532
Si Si4 0.676972 0.839812 0.890291
Si Si5 0.329028 0.674734 0.252655
Si Si6 0.688996 0.168302 0.268509
O O1 0.250152 0.121393 0.167568
O O2 0.505893 0.124771 0.670144
O O3 0.279347 0.109444 0.544388
O O4 0.347976 0.000000 0.444042
O O5 0.727011 0.310360 0.642207
O O6 0.783132 0.239150 0.458566
O O7 0.924262 0.365079 0.693719
O O8 0.000000 0.263196 0.000000
O O9 0.032148 0.500000 0.784039
O O10 0.000000 0.409340 0.500000
O O11 0.206530 0.379860 0.004052
O O12 0.668065 0.753132 0.837426
O O13 0.744120 0.851459 0.163540
O O14 0.500000 0.643992 0.500000
O O15 0.500000 0.180563 0.000000
#
# Coordination Sequence:
#
# PCOD9141984 Si02
#       6
#     4   4   4   4   4   4
#     4  10  19  31  50  83 123 153 188 248 306 344
#     4  10  21  37  60  85 118 158 196 242 293 358
#     4  10  23  41  59  85 119 154 196 242 295 358
#     4  10  17  30  51  78 117 149 191 238 292 340
#     4  11  19  35  61  86 117 152 197 247 291 342
#     4  10  19  32  55  84 114 149 202 249 286 340
#
# _framework density 18.572254000000001
#
# number of rings (size 3 to 8) (size 9 to 14) (size 15 to 20)
#    0.000    1.833    3.333    3.000    0.000    7.000 
#    0.000    0.000    0.000    3.000    0.000    1.167 
#    0.000    0.000    0.000    0.000    0.000    0.000 
#
# Total GULP energy -133771.532441 kJ/mol
# GULP energy per Si atom -5573.813852 kJ/mol
# Density = 1.852998 g / cm^3
# Si number density = 18.572254 Si / 1000 Ang^3
#
#
#
# Elastic Constant Matrix: (Units=GPa)
#
#
# Indices 1 2 3 4 5 6 
#
# 1 93.1413 35.5155 57.8133 0.0000 -24.6144 0.0000
# 2 35.5155 105.2309 47.1964 0.0000 -16.6214 0.0000
# 3 57.8133 47.1964 75.6073 0.0000 -33.1166 0.0000
# 4 0.0000 0.0000 0.0000 21.6345 0.0000 -0.0754
# 5 -24.6144 -16.6214 -33.1166 0.0000 41.4000 0.0000
# 6 0.0000 0.0000 0.0000 -0.0754 0.0000 23.8572
#
#
#
# Elastic Compliance Matrix: (Units=1/GPa)
#
#
# Indices 1 2 3 4 5 6 
#
# 1 0.020446 0.000185 -0.015998 0.000000 -0.000566 0.000000
# 2 0.000185 0.013307 -0.009328 0.000000 -0.002009 0.000000
# 3 -0.015998 -0.009328 0.039215 0.000000 0.018112 0.000000
# 4 0.000000 0.000000 0.000000 0.046223 0.000000 0.000146
# 5 -0.000566 -0.002009 0.018112 0.000000 0.037500 0.000000
# 6 0.000000 0.000000 0.000000 0.000146 0.000000 0.041917
#
#
# Mechanical properties :
#
#
# Convention : Reuss Voigt Hill
#
# Bulk Modulus (GPa) = 44.07901 61.67001 52.87451
# Shear Modulus (GPa) = 19.49699 26.27531 22.88615
#
# Velocity S-wave (km/s) = 3.24356 3.76541 3.51419
# Velocity P-wave (km/s) = 6.14922 7.22371 6.70801
#
# Compressibility (1/GPa) = 0.02268654
#
# Stress axis : x y z
#
# Youngs Moduli (GPa) = 48.90942 75.14988 25.50048
#
# Poissons Ratio (x) = -0.01390 0.40795
# Poissons Ratio (y) = -0.00905 0.23787
# Poissons Ratio (z) = 0.78243 0.70100
#
# Static dielectric constant tensor:
#      x y z
#    x 1.552670 0.000000 -0.279060 
#    y 0.000000 1.625150 0.000000 
#    z -0.279060 0.000000 1.223240 
# 
# From -- ./inp_files/29698.got.cif
#   From: 2010.05.17/outbox.cif.g08.bks.cpg/sg10_15_cif.got.tgz:29698.got - 2010.06.03 11:33:40.
