data_PCOD9141470
_publ_section_title
;
Structure prediction by ZEFSAII (Michael W. Deem and Ramdas Pophale) SiO2 
 PCOD9141470
Probable space group: P 2/M
;
_chemical_formula_sum "Si O2"
_cell_formula_units_Z 24
_cell_length_a 25.097256
_cell_length_b 8.397806
_cell_length_c 14.016840
_cell_angle_alpha 90.000000
_cell_angle_beta 157.303009
_cell_angle_gamma 90.000000
_cell_volume 1139.906539
_symmetry_space_group_name_H-M "P 2/M"
_symmetry_group_IT_number 10
_symmetry_cell_setting 'monoclinic'
loop_
_space_group_symop_operation_xyz
x,y,z
-x,y,-z
-x,-y,-z
x,-y,z
loop_
_atom_site_type_symbol
_atom_site_label
_atom_site_fract_x
_atom_site_fract_y
_atom_site_fract_z
Si Si1 0.652532 0.326681 0.203719
Si Si2 0.025174 0.333035 0.428275
Si Si3 0.337376 0.000000 0.699039
Si Si4 0.976038 0.000000 0.574839
Si Si5 0.703777 0.674079 0.870372
Si Si6 0.376090 0.000000 0.539901
Si Si7 0.558383 0.320256 0.830780
Si Si8 0.269339 0.000000 0.167754
O O1 0.715154 0.500000 0.331635
O O2 0.720973 0.166205 0.357213
O O3 0.500000 0.329495 0.000000
O O4 0.626551 0.314906 0.047724
O O5 0.092957 0.500000 0.514468
O O6 0.000000 0.334479 0.500000
O O7 0.094286 0.166480 0.517465
O O8 0.869265 0.331201 0.131082
O O9 0.329374 0.000000 0.571909
O O10 0.500000 0.000000 0.000000
O O11 0.000000 0.000000 0.500000
O O12 0.124418 0.000000 0.871795
O O13 0.652490 0.500000 0.752067
O O14 0.664633 0.687959 0.917484
O O15 0.657218 0.835433 0.742192
O O16 0.463433 0.836891 0.668924
O O17 0.260279 0.000000 0.266617
O O18 0.493647 0.500000 0.717008
#
# Coordination Sequence:
#
# PCOD9141470 Si02
#       8
#     4   4   2   2   4   2   4   2
#     4   9  15  26  43  60  74  96 140 182 215 247
#     4   8  13  23  41  60  76 100 132 166 206 244
#     4  10  16  28  44  59  74  99 138 182 218 247
#     4   8  14  27  44  59  75 100 132 164 205 249
#     4   9  18  31  42  57  84 114 143 174 206 244
#     4  12  21  30  42  60  82 109 150 185 208 241
#     4  10  19  29  43  60  80 112 149 181 207 241
#     4  10  21  31  42  60  84 113 142 176 209 241
#
# _framework density 21.054355999999999
#
# number of rings (size 3 to 8) (size 9 to 14) (size 15 to 20)
#    0.000    2.667    3.333    0.500    0.000    2.000 
#    0.000    1.667    0.000    0.000    0.000    0.000 
#    0.000    0.000    0.000   48.000    0.000  252.333 
#
# Total GULP energy -133698.570182 kJ/mol
# GULP energy per Si atom -5570.773758 kJ/mol
# Density = 2.100644 g / cm^3
# Si number density = 21.054356 Si / 1000 Ang^3
#
#
#
# Elastic Constant Matrix: (Units=GPa)
#
#
# Indices 1 2 3 4 5 6 
#
# 1 98.6455 38.4756 24.6227 0.0000 -23.6046 0.0000
# 2 38.4756 272.8076 21.5226 0.0000 -16.5524 0.0000
# 3 24.6227 21.5226 68.9400 0.0000 -20.1002 0.0000
# 4 0.0000 0.0000 0.0000 -66.1234 0.0000 25.8249
# 5 -23.6046 -16.5524 -20.1002 0.0000 33.6580 0.0000
# 6 0.0000 0.0000 0.0000 25.8249 0.0000 -2.3132
#
#
#
# Elastic Compliance Matrix: (Units=1/GPa)
#
#
# Indices 1 2 3 4 5 6 
#
# 1 0.012851 -0.001211 -0.002128 0.000000 0.007146 0.000000
# 2 -0.001211 0.003927 -0.000579 0.000000 0.000736 0.000000
# 3 -0.002128 -0.000579 0.018075 0.000000 0.009017 0.000000
# 4 0.000000 0.000000 0.000000 0.004501 0.000000 0.050246
# 5 0.007146 0.000736 0.009017 0.000000 0.040469 0.000000
# 6 0.000000 0.000000 0.000000 0.050246 0.000000 0.128653
#
#
# Mechanical properties :
#
#
# Convention : Reuss Voigt Hill
#
# Bulk Modulus (GPa) = 37.01405 67.73721 52.37563
# Shear Modulus (GPa) = 22.19095 16.76244 19.47669
#
# Velocity S-wave (km/s) = 3.25003 2.82467 3.04479
# Velocity P-wave (km/s) = 5.63046 6.54834 6.10667
#
# Compressibility (1/GPa) = 0.02701677
#
# Stress axis : x y z
#
# Youngs Moduli (GPa) = 77.81629 254.66676 55.32425
#
# Poissons Ratio (x) = 0.30839 0.11775
# Poissons Ratio (y) = 0.09423 0.03202
# Poissons Ratio (z) = 0.16562 0.14738
#
# Static dielectric constant tensor:
#      x y z
#    x 1.717640 0.000000 0.000510 
#    y 0.000000 1.954870 0.000000 
#    z 0.000510 0.000000 1.786830 
# 
# From -- ./inp_files/45237.got.cif
#   From: 2010.05.17/outbox.cif.g08.bks.cpg/sg10_23_cif.got.tgz:45237.got - 2010.06.03 11:33:40.
