data_PCOD9141247
_publ_section_title
;
Structure prediction by ZEFSAII (Michael W. Deem and Ramdas Pophale) SiO2 
 PCOD9141247
Probable space group: C C
;
_chemical_formula_sum "Si O2"
_cell_formula_units_Z 14
_cell_length_a 12.000000
_cell_length_b 15.000000
_cell_length_c 9.000000
_cell_angle_alpha 90.000000
_cell_angle_beta 60.000000
_cell_angle_gamma 90.000000
_cell_volume 1402.961154
_symmetry_space_group_name_H-M "C C"
_symmetry_group_IT_number 9
_symmetry_cell_setting 'monoclinic'
loop_
_space_group_symop_operation_xyz
x,y,z
x,-y,1/2+z
1/2+x,1/2+y,z
1/2+x,1/2-y,1/2+z
loop_
_atom_site_type_symbol
_atom_site_label
_atom_site_fract_x
_atom_site_fract_y
_atom_site_fract_z
Si Si1 0.301980 0.430238 0.966470
Si Si2 0.314387 0.918674 0.325302
Si Si3 0.867085 0.727903 0.546922
Si Si4 0.053507 0.165342 0.153062
Si Si5 0.571709 0.156318 0.815271
Si Si6 0.454719 0.107611 0.219524
Si Si7 0.219547 0.592724 0.187559
O O1 0.440507 0.390366 0.817158
O O2 0.228051 0.425976 0.857879
O O3 0.205382 0.385224 0.155672
O O4 0.313482 0.528652 0.029178
O O5 0.318288 0.858548 0.172645
O O6 0.179664 0.890138 0.504217
O O7 0.442224 0.881376 0.322607
O O8 0.350637 0.024803 0.273349
O O9 0.901099 0.689067 0.359840
O O10 0.758987 0.805480 0.624757
O O11 0.983967 0.778458 0.562369
O O12 0.089319 0.240942 0.250660
O O13 0.527366 0.139269 0.017435
O O14 0.575036 0.071600 0.234913
#
# Coordination Sequence:
#
# PCOD9141247 Si02
#       7
#     4   4   4   4   4   4   4
#     4  11  23  43  70  97 131 185 231 281 343 413
#     4  11  22  43  68  99 134 183 223 281 347 414
#     4  10  23  44  69  97 138 181 228 280 351 410
#     4  10  23  45  68  95 139 184 227 281 355 409
#     4  11  22  39  69  99 134 176 232 279 345 412
#     4  12  24  40  69 104 134 176 232 291 336 414
#     4  11  23  42  69  97 134 181 235 275 341 416
#
# _framework density 9.9788940000000004
#
# number of rings (size 3 to 8) (size 9 to 14) (size 15 to 20)
#    0.000    1.143    1.429    6.857    0.000    3.429 
#   12.857    0.000    0.000    0.000    0.000    0.000 
#    0.000    0.000    0.000    0.000    0.000    0.000 
#
# Total GULP energy -77995.421690 kJ/mol
# GULP energy per Si atom -5571.101549 kJ/mol
# Density = 0.995618 g / cm^3
# Si number density = 9.978894 Si / 1000 Ang^3
#
#
#
# Elastic Constant Matrix: (Units=GPa)
#
#
# Indices 1 2 3 4 5 6 
#
# 1 52.7647 22.0592 30.0445 0.0000 -17.7289 0.0000
# 2 22.0592 126.8072 62.0669 0.0000 -3.0566 0.0000
# 3 30.0445 62.0669 193.6696 0.0000 -9.6945 0.0000
# 4 0.0000 0.0000 0.0000 49.4013 0.0000 -7.8786
# 5 -17.7289 -3.0566 -9.6945 0.0000 44.0758 0.0000
# 6 0.0000 0.0000 0.0000 -7.8786 0.0000 33.8140
#
#
#
# Elastic Compliance Matrix: (Units=1/GPa)
#
#
# Indices 1 2 3 4 5 6 
#
# 1 0.024621 -0.002867 -0.002442 0.000000 0.009168 0.000000
# 2 -0.002867 0.009687 -0.002714 0.000000 -0.001078 0.000000
# 3 -0.002442 -0.002714 0.006424 0.000000 0.000243 0.000000
# 4 0.000000 0.000000 0.000000 0.021024 0.000000 0.004898
# 5 0.009168 -0.001078 0.000243 0.000000 0.026354 0.000000
# 6 0.000000 0.000000 0.000000 0.004898 0.000000 0.030715
#
#
# Mechanical properties :
#
#
# Convention : Reuss Voigt Hill
#
# Bulk Modulus (GPa) = 40.50645 66.84254 53.67450
# Shear Modulus (GPa) = 34.94076 42.72961 38.83518
#
# Velocity S-wave (km/s) = 4.18872 4.63211 4.41598
# Velocity P-wave (km/s) = 6.61316 7.88500 7.27692
#
# Compressibility (1/GPa) = 0.02468742
#
# Stress axis : x y z
#
# Youngs Moduli (GPa) = 40.61511 103.23154 155.66457
#
# Poissons Ratio (x) = 0.29596 0.38012
# Poissons Ratio (y) = 0.11644 0.42242
# Poissons Ratio (z) = 0.09918 0.28014
#
# Static dielectric constant tensor:
#      x y z
#    x 1.763340 0.000000 0.013270 
#    y 0.000000 1.776060 0.000000 
#    z 0.013270 0.000000 1.713530 
# 
# From -- ./inp_files/7323.got.cif
#   From: 2010.05.17/outbox.ucp.g08.bks.cvg/sg9_4_cif.got.tgz:7323.got - 2010.06.11 13:03:20.
