data_PCOD9141033
_publ_section_title
;
Structure prediction by ZEFSAII (Michael W. Deem and Ramdas Pophale) SiO2 
 PCOD9141033
Probable space group: C C
;
_chemical_formula_sum "Si O2"
_cell_formula_units_Z 24
_cell_length_a 9.081106
_cell_length_b 21.844752
_cell_length_c 4.960728
_cell_angle_alpha 90.000000
_cell_angle_beta 106.982647
_cell_angle_gamma 90.000000
_cell_volume 941.169373
_symmetry_space_group_name_H-M "C C"
_symmetry_group_IT_number 9
_symmetry_cell_setting 'monoclinic'
loop_
_space_group_symop_operation_xyz
x,y,z
x,-y,1/2+z
1/2+x,1/2+y,z
1/2+x,1/2-y,1/2+z
loop_
_atom_site_type_symbol
_atom_site_label
_atom_site_fract_x
_atom_site_fract_y
_atom_site_fract_z
Si Si1 0.281040 0.044805 0.385460
Si Si2 0.036574 0.360044 0.952445
Si Si3 0.797671 0.957609 0.113072
Si Si4 0.044336 0.752991 0.174557
Si Si5 0.988639 0.119021 0.369397
Si Si6 0.787385 0.801317 0.462469
O O1 0.390289 0.104026 0.485176
O O2 0.114286 0.076414 0.301653
O O3 0.304218 0.993399 0.625651
O O4 0.153015 0.415311 0.969749
O O5 0.994297 0.318901 0.669786
O O6 0.138716 0.313171 0.191229
O O7 0.943193 0.916229 0.115580
O O8 0.796277 0.012233 0.899544
O O9 0.930842 0.776152 0.361730
O O10 0.031303 0.811598 0.971787
O O11 0.226251 0.738264 0.186500
O O12 0.842011 0.133733 0.105989
#
# Coordination Sequence:
#
# PCOD9141033 Si02
#       6
#     4   4   4   4   4   4
#     4  12  31  54  82 124 172 231 290 362 428 520
#     4  12  27  50  82 117 166 218 286 354 436 511
#     4  12  25  46  80 114 152 213 282 342 408 504
#     4  12  26  48  80 128 164 220 276 364 432 516
#     4  12  27  50  82 117 166 218 286 354 436 511
#     4  12  26  50  82 124 164 222 284 350 432 526
#
# _framework density 25.50019
#
# number of rings (size 3 to 8) (size 9 to 14) (size 15 to 20)
#    0.000    0.000    3.333    5.000    4.667    2.667 
#    0.000    0.000    0.000    0.000    0.000    0.000 
#    0.000    0.000    0.000    0.000    0.000    0.000 
#
# Total GULP energy -66898.743383 kJ/mol
# GULP energy per Si atom -5574.895282 kJ/mol
# Density = 2.544215 g / cm^3
# Si number density = 25.500190 Si / 1000 Ang^3
#
#
#
# Elastic Constant Matrix: (Units=GPa)
#
#
# Indices 1 2 3 4 5 6 
#
# 1 85.8021 17.9437 29.3940 0.0000 -16.6105 0.0000
# 2 17.9437 144.6317 40.2991 0.0000 15.9929 0.0000
# 3 29.3940 40.2991 74.6670 0.0000 -8.6718 0.0000
# 4 0.0000 0.0000 0.0000 43.7691 0.0000 -9.6322
# 5 -16.6105 15.9929 -8.6718 0.0000 25.6231 0.0000
# 6 0.0000 0.0000 0.0000 -9.6322 0.0000 81.3457
#
#
#
# Elastic Compliance Matrix: (Units=1/GPa)
#
#
# Indices 1 2 3 4 5 6 
#
# 1 0.015264 -0.001904 -0.003845 0.000000 0.009782 0.000000
# 2 -0.001904 0.009714 -0.005560 0.000000 -0.009179 0.000000
# 3 -0.003845 -0.005560 0.018758 0.000000 0.007326 0.000000
# 4 0.000000 0.000000 0.000000 0.023458 0.000000 0.002778
# 5 0.009782 -0.009179 0.007326 0.000000 0.053577 0.000000
# 6 0.000000 0.000000 0.000000 0.002778 0.000000 0.012622
#
#
# Mechanical properties :
#
#
# Convention : Reuss Voigt Hill
#
# Bulk Modulus (GPa) = 47.35136 53.37494 50.36315
# Shear Modulus (GPa) = 30.66529 44.64519 37.65524
#
# Velocity S-wave (km/s) = 3.47154 4.18877 3.84691
# Velocity P-wave (km/s) = 5.88882 6.66116 6.28686
#
# Compressibility (1/GPa) = 0.02111872
#
# Stress axis : x y z
#
# Youngs Moduli (GPa) = 65.51410 102.94001 53.31086
#
# Poissons Ratio (x) = 0.19599 0.20499
# Poissons Ratio (y) = 0.12474 0.29638
# Poissons Ratio (z) = 0.25192 0.57230
#
# Static dielectric constant tensor:
#      x y z
#    x 2.113370 0.000000 -0.022810 
#    y 0.000000 1.922640 0.000000 
#    z -0.022810 0.000000 2.139360 
# 
# From -- ./inp_files/699.got.cif
#   From: 2010.05.17/outbox.cif.g08.bks.cpg/sg9_1_cif.got.tgz:699.got - 2010.06.03 20:04:27.
