data_PCOD9141539
_publ_section_title
;
Structure prediction by ZEFSAII (Michael W. Deem and Ramdas Pophale) SiO2 
 PCOD9141539
Probable space group: P 2/M
;
_chemical_formula_sum "Si O2"
_cell_formula_units_Z 22
_cell_length_a 10.558599
_cell_length_b 9.491578
_cell_length_c 9.098949
_cell_angle_alpha 90.000000
_cell_angle_beta 87.629714
_cell_angle_gamma 90.000000
_cell_volume 911.096152
_symmetry_space_group_name_H-M "P 2/M"
_symmetry_group_IT_number 10
_symmetry_cell_setting 'monoclinic'
loop_
_space_group_symop_operation_xyz
x,y,z
-x,y,-z
-x,-y,-z
x,-y,z
loop_
_atom_site_type_symbol
_atom_site_label
_atom_site_fract_x
_atom_site_fract_y
_atom_site_fract_z
Si Si1 0.052522 0.771298 0.195181
Si Si2 0.305950 0.332087 0.724357
Si Si3 0.000000 0.500000 0.000000
Si Si4 0.550992 0.161450 0.694897
Si Si5 0.000000 0.000000 0.000000
Si Si6 0.690656 0.158756 0.984417
Si Si7 0.820671 0.834166 0.515141
O O1 0.079269 0.782304 0.366842
O O2 0.027720 0.621954 0.124290
O O3 0.182733 0.837124 0.120094
O O4 0.957989 0.879409 0.123946
O O5 0.297860 0.500000 0.719803
O O6 0.441680 0.271837 0.664081
O O7 0.299541 0.276149 0.891750
O O8 0.198743 0.261078 0.627930
O O9 0.682310 0.177257 0.601872
O O10 0.506813 0.000000 0.673162
O O11 0.583204 0.179773 0.865984
O O12 0.677766 0.000000 0.046002
O O13 0.841675 0.000000 0.483267
#
# Coordination Sequence:
#
# PCOD9141539 Si02
#       7
#     4   4   1   4   1   4   4
#     4  10  20  38  64  93 108 140 181 237 283 340
#     4  12  25  34  50  83 125 160 182 225 286 339
#     4  10  24  34  64  92 120 138 168 228 308 346
#     4   9  19  37  59  82 107 151 205 238 261 315
#     4  10  16  38  68  92 104 122 196 240 268 346
#     4  10  20  38  61  83 112 149 197 237 269 321
#     4  10  20  38  61  83 112 149 197 237 269 321
#
# _framework density 24.146737999999999
#
# number of rings (size 3 to 8) (size 9 to 14) (size 15 to 20)
#    0.000    1.818    1.818    3.818    2.545    5.818 
#    3.273    0.000    0.000    6.545    0.000    0.000 
#    0.000    0.000    0.000    0.000    0.000    0.000 
#
# Total GULP energy -122626.385381 kJ/mol
# GULP energy per Si atom -5573.926608 kJ/mol
# Density = 2.409178 g / cm^3
# Si number density = 24.146738 Si / 1000 Ang^3
#
#
#
# Elastic Constant Matrix: (Units=GPa)
#
#
# Indices 1 2 3 4 5 6 
#
# 1 75.5832 31.1590 30.1885 0.0000 17.4769 0.0000
# 2 31.1590 249.4865 100.2971 0.0000 41.6447 0.0000
# 3 30.1885 100.2971 199.9046 0.0000 35.6721 0.0000
# 4 0.0000 0.0000 0.0000 -44.9161 0.0000 148.2196
# 5 17.4769 41.6447 35.6721 0.0000 54.6024 0.0000
# 6 0.0000 0.0000 0.0000 148.2196 0.0000 -233.1179
#
#
#
# Elastic Compliance Matrix: (Units=1/GPa)
#
#
# Indices 1 2 3 4 5 6 
#
# 1 0.014825 -0.000796 -0.001246 0.000000 -0.003324 0.000000
# 2 -0.000796 0.005377 -0.002141 0.000000 -0.002448 0.000000
# 3 -0.001246 -0.002141 0.006681 0.000000 -0.002333 0.000000
# 4 0.000000 0.000000 0.000000 0.020274 0.000000 0.012891
# 5 -0.003324 -0.002448 -0.002333 0.000000 0.022769 0.000000
# 6 0.000000 0.000000 0.000000 0.012891 0.000000 0.003906
#
#
# Mechanical properties :
#
#
# Convention : Reuss Voigt Hill
#
# Bulk Modulus (GPa) = 54.00423 94.25151 74.12787
# Shear Modulus (GPa) = 56.58019 -20.46435 18.05792
#
# Velocity S-wave (km/s) = 4.84589 -2.91434 2.73763
# Velocity P-wave (km/s) = 7.32965 5.27191 6.38423
#
# Compressibility (1/GPa) = 0.01851707
#
# Stress axis : x y z
#
# Youngs Moduli (GPa) = 67.45418 185.98555 149.67794
#
# Poissons Ratio (x) = 0.14797 0.18657
# Poissons Ratio (y) = 0.05366 0.32042
# Poissons Ratio (z) = 0.08408 0.39815
#
# Static dielectric constant tensor:
#      x y z
#    x 2.233420 0.000000 0.076960 
#    y 0.000000 1.793200 0.000000 
#    z 0.076960 0.000000 2.098570 
# 
# From -- ./inp_files/27375.got.cif
#   From: 2010.05.17/outbox.cif.g08.bks.cpg/sg10_14_cif.got.tgz:27375.got - 2010.06.03 11:33:40.
