data_PCOD9141609
_publ_section_title
;
Structure prediction by ZEFSAII (Michael W. Deem and Ramdas Pophale) SiO2 
 PCOD9141609
Probable space group: P 2/M
;
_chemical_formula_sum "Si O2"
_cell_formula_units_Z 32
_cell_length_a 22.208129
_cell_length_b 7.433386
_cell_length_c 32.222645
_cell_angle_alpha 90.000000
_cell_angle_beta 19.417744
_cell_angle_gamma 90.000000
_cell_volume 1768.440255
_symmetry_space_group_name_H-M "P 2/M"
_symmetry_group_IT_number 10
_symmetry_cell_setting 'monoclinic'
loop_
_space_group_symop_operation_xyz
x,y,z
-x,y,-z
-x,-y,-z
x,-y,z
loop_
_atom_site_type_symbol
_atom_site_label
_atom_site_fract_x
_atom_site_fract_y
_atom_site_fract_z
Si Si1 0.879293 0.791460 0.620705
Si Si2 0.786720 0.280669 0.300997
Si Si3 0.215547 0.783379 0.449013
Si Si4 0.175841 0.279881 0.912078
Si Si5 0.152631 0.713438 0.021922
Si Si6 0.454401 0.286559 0.371041
Si Si7 0.557298 0.783377 0.778137
Si Si8 0.564156 0.280669 0.523563
O O1 0.687223 0.714690 0.730666
O O2 0.000000 0.789970 0.500000
O O3 0.015656 0.714689 0.566451
O O4 0.846932 0.000000 0.653066
O O5 0.123651 0.500000 0.036891
O O6 0.717749 0.221829 0.391124
O O7 0.629476 0.230743 0.370523
O O8 0.981522 0.216320 0.158875
O O9 0.292235 0.739874 0.444080
O O10 0.357243 0.720116 0.321379
O O11 0.208824 0.000000 0.449953
O O12 0.180189 0.500000 0.909903
O O13 0.360874 0.216927 0.770099
O O14 0.163028 0.216926 0.967945
O O15 0.000000 0.227822 0.000000
O O16 0.569302 0.500000 0.520469
O O17 0.346972 0.739861 0.916709
O O18 0.481452 0.500000 0.357994
O O19 0.419918 0.216321 0.439681
O O20 0.573697 0.000000 0.767518
O O21 0.789779 0.500000 0.299989
#
# Coordination Sequence:
#
# PCOD9141609 Si02
#       8
#     4   4   4   4   4   4   4   4
#     4   7  12  24  41  57  74 105 142 164 185 232
#     4   8  14  25  41  60  80 105 141 178 203 228
#     4   9  16  27  42  59  82 110 137 163 195 241
#     4   9  16  24  35  54  81 110 134 155 189 239
#     4  10  17  25  40  62  85 106 132 168 206 239
#     4  10  17  25  40  62  85 106 132 168 206 239
#     4   9  16  27  42  59  82 110 137 163 195 241
#     4   8  14  25  41  60  80 105 141 178 203 228
#
# _framework density 18.095040999999998
#
# number of rings (size 3 to 8) (size 9 to 14) (size 15 to 20)
#    0.000    3.250    1.250    3.000    0.000    3.000 
#    0.000    0.625    0.000    6.750    0.000    2.625 
#    0.000    7.000    0.000    0.000    0.000    0.000 
#
# Total GULP energy -178326.961429 kJ/mol
# GULP energy per Si atom -5572.717545 kJ/mol
# Density = 1.805386 g / cm^3
# Si number density = 18.095041 Si / 1000 Ang^3
#
#
#
# Elastic Constant Matrix: (Units=GPa)
#
#
# Indices 1 2 3 4 5 6 
#
# 1 158.1351 1.3980 111.1459 0.0000 -8.0693 0.0000
# 2 1.3980 54.8798 4.9699 0.0000 5.3940 0.0000
# 3 111.1459 4.9699 148.4679 0.0000 -6.4886 0.0000
# 4 0.0000 0.0000 0.0000 -5.1110 0.0000 -15.4002
# 5 -8.0693 5.3940 -6.4886 0.0000 23.1999 0.0000
# 6 0.0000 0.0000 0.0000 -15.4002 0.0000 5.0959
#
#
#
# Elastic Compliance Matrix: (Units=1/GPa)
#
#
# Indices 1 2 3 4 5 6 
#
# 1 0.013435 0.000387 -0.009992 0.000000 0.001788 0.000000
# 2 0.000387 0.018759 -0.001116 0.000000 -0.004539 0.000000
# 3 -0.009992 -0.001116 0.014287 0.000000 0.000780 0.000000
# 4 0.000000 0.000000 0.000000 -0.019361 0.000000 -0.058509
# 5 0.001788 -0.004539 0.000780 0.000000 0.044999 0.000000
# 6 0.000000 0.000000 0.000000 -0.058509 0.000000 0.019418
#
#
# Mechanical properties :
#
#
# Convention : Reuss Voigt Hill
#
# Bulk Modulus (GPa) = 39.93879 66.27892 53.10885
# Shear Modulus (GPa) = 41.21140 20.90157 31.05648
#
# Velocity S-wave (km/s) = 4.77749 3.40236 4.14732
# Velocity P-wave (km/s) = 7.24929 7.22098 7.23514
#
# Compressibility (1/GPa) = 0.02503832
#
# Stress axis : x y z
#
# Youngs Moduli (GPa) = 74.43477 53.30780 69.99251
#
# Poissons Ratio (x) = -0.02062 0.69938
# Poissons Ratio (y) = -0.02880 0.07811
# Poissons Ratio (z) = 0.74377 0.05949
#
# Static dielectric constant tensor:
#      x y z
#    x 1.625440 0.000000 -0.016880 
#    y 0.000000 1.709270 0.000000 
#    z -0.016880 0.000000 1.614250 
# 
# From -- ./inp_files/76411.got.cif
#   From: 2010.05.17/outbox.cif.g08.bks.cpg/sg10_39_cif.got.tgz:76411.got - 2010.06.03 11:33:40.
