data_PCOD9141985
_publ_section_title
;
Structure prediction by ZEFSAII (Michael W. Deem and Ramdas Pophale) SiO2 
 PCOD9141985
Probable space group: P 2/M
;
_chemical_formula_sum "Si O2"
_cell_formula_units_Z 28
_cell_length_a 12.763493
_cell_length_b 7.484710
_cell_length_c 22.567885
_cell_angle_alpha 90.000000
_cell_angle_beta 42.137424
_cell_angle_gamma 90.000000
_cell_volume 1446.439818
_symmetry_space_group_name_H-M "P 2/M"
_symmetry_group_IT_number 10
_symmetry_cell_setting 'monoclinic'
loop_
_space_group_symop_operation_xyz
x,y,z
-x,y,-z
-x,-y,-z
x,-y,z
loop_
_atom_site_type_symbol
_atom_site_label
_atom_site_fract_x
_atom_site_fract_y
_atom_site_fract_z
Si Si1 0.567765 0.781491 0.907863
Si Si2 0.326334 0.793657 0.783708
Si Si3 0.249287 0.781705 0.595513
Si Si4 0.304116 0.216854 0.926114
Si Si5 0.084541 0.792819 0.230654
Si Si6 0.516707 0.781676 0.397677
Si Si7 0.005438 0.292676 0.130141
O O1 0.449249 0.727226 0.906100
O O2 0.745265 0.716490 0.826682
O O3 0.570921 0.000000 0.907194
O O4 0.500000 0.725993 0.000000
O O5 0.319723 0.716248 0.852363
O O6 0.440100 0.716282 0.685729
O O7 0.153077 0.789877 0.828548
O O8 0.373808 0.000000 0.771382
O O9 0.352941 0.727410 0.495676
O O10 0.347539 0.729343 0.612771
O O11 0.072356 0.716072 0.674419
O O12 0.518452 0.000000 0.395805
O O13 0.300015 0.000000 0.927122
O O14 0.144197 0.273695 0.024694
O O15 0.058855 0.787083 0.170461
O O16 0.090572 0.000000 0.246309
O O17 0.754053 0.000000 0.402479
O O18 0.973805 0.500000 0.154002
#
# Coordination Sequence:
#
# PCOD9141985 Si02
#       7
#     4   4   4   4   4   4   4
#     4   9  16  28  49  71  90 116 157 203 229 256
#     4  10  19  32  51  69  92 125 159 189 224 278
#     4   8  13  22  43  71  94 115 148 189 228 271
#     4  10  20  34  50  68  90 124 164 193 223 272
#     4  10  17  30  52  71  93 125 159 191 227 274
#     4   8  13  23  42  71  95 114 147 190 228 268
#     4  12  23  32  45  69 100 126 151 191 238 279
#
# _framework density 19.357873000000001
#
# number of rings (size 3 to 8) (size 9 to 14) (size 15 to 20)
#    0.000    2.429    2.857    2.571    0.000    2.286 
#    0.000    1.429    0.000    2.571    0.000    6.000 
#    0.000    0.000    0.000    3.857    0.000    4.286 
#
# Total GULP energy -156257.728445 kJ/mol
# GULP energy per Si atom -5580.633159 kJ/mol
# Density = 1.931381 g / cm^3
# Si number density = 19.357873 Si / 1000 Ang^3
#
#
#
# Elastic Constant Matrix: (Units=GPa)
#
#
# Indices 1 2 3 4 5 6 
#
# 1 57.0067 -8.1044 55.8204 0.0000 4.1300 0.0000
# 2 -8.1044 57.1048 -6.7838 0.0000 -3.7506 0.0000
# 3 55.8204 -6.7838 178.6195 0.0000 -13.0305 0.0000
# 4 0.0000 0.0000 0.0000 -29.8347 0.0000 11.2246
# 5 4.1300 -3.7506 -13.0305 0.0000 26.3242 0.0000
# 6 0.0000 0.0000 0.0000 11.2246 0.0000 -24.6890
#
#
#
# Elastic Compliance Matrix: (Units=1/GPa)
#
#
# Indices 1 2 3 4 5 6 
#
# 1 0.027373 0.002249 -0.009087 0.000000 -0.008472 0.000000
# 2 0.002249 0.017998 0.000147 0.000000 0.002284 0.000000
# 3 -0.009087 0.000147 0.008870 0.000000 0.005837 0.000000
# 4 0.000000 0.000000 0.000000 -0.040434 0.000000 -0.018383
# 5 -0.008472 0.002284 0.005837 0.000000 0.042532 0.000000
# 6 0.000000 0.000000 0.000000 -0.018383 0.000000 -0.048862
#
#
# Mechanical properties :
#
#
# Convention : Reuss Voigt Hill
#
# Bulk Modulus (GPa) = 24.47390 41.62172 33.04781
# Shear Modulus (GPa) = 145.01492 11.14670 78.08081
#
# Velocity S-wave (km/s) = 8.66460 2.40223 6.35791
# Velocity P-wave (km/s) = 10.61935 5.40760 8.42653
#
# Compressibility (1/GPa) = 0.04085986
#
# Stress axis : x y z
#
# Youngs Moduli (GPa) = 36.53192 55.56058 112.74293
#
# Poissons Ratio (x) = -0.12495 1.02451
# Poissons Ratio (y) = -0.08216 -0.01662
# Poissons Ratio (z) = 0.33197 -0.00819
#
# Static dielectric constant tensor:
#      x y z
#    x 1.639520 0.000000 -0.004630 
#    y 0.000000 1.741570 0.000000 
#    z -0.004630 0.000000 1.689950 
# 
# From -- ./inp_files/66402.got.cif
#   From: 2010.05.17/outbox.cif.g08.bks.cpg/sg10_34_cif.got.tgz:66402.got - 2010.06.03 11:33:40.
