data_PCOD9141932
_publ_section_title
;
Structure prediction by ZEFSAII (Michael W. Deem and Ramdas Pophale) SiO2 
 PCOD9141932
Probable space group: P 2/M
;
_chemical_formula_sum "Si O2"
_cell_formula_units_Z 32
_cell_length_a 12.486039
_cell_length_b 7.617334
_cell_length_c 31.944936
_cell_angle_alpha 90.000000
_cell_angle_beta 151.250568
_cell_angle_gamma 90.000000
_cell_volume 1461.358588
_symmetry_space_group_name_H-M "P 2/M"
_symmetry_group_IT_number 10
_symmetry_cell_setting 'monoclinic'
loop_
_space_group_symop_operation_xyz
x,y,z
-x,y,-z
-x,-y,-z
x,-y,z
loop_
_atom_site_type_symbol
_atom_site_label
_atom_site_fract_x
_atom_site_fract_y
_atom_site_fract_z
Si Si1 0.687066 0.788900 0.788093
Si Si2 0.136374 0.214241 0.975890
Si Si3 0.243390 0.786901 0.679777
Si Si4 0.420058 0.794153 0.828854
Si Si5 0.238525 0.800190 0.916651
Si Si6 0.954695 0.696078 0.234244
Si Si7 0.354392 0.710724 0.321967
Si Si8 0.854691 0.706434 0.488614
O O1 0.442018 0.727354 0.716955
O O2 0.732501 0.741978 0.755302
O O3 0.685801 0.000000 0.789756
O O4 0.876970 0.730272 0.886490
O O5 0.338026 0.278696 0.074217
O O6 0.137169 0.000000 0.979511
O O7 0.201869 0.262154 0.950969
O O8 0.314437 0.723506 0.750026
O O9 0.007778 0.724645 0.581816
O O10 0.236472 0.000000 0.677246
O O11 0.233106 0.781952 0.801060
O O12 0.460755 0.000000 0.834975
O O13 0.146097 0.690157 0.846922
O O14 0.147727 0.000000 0.882169
O O15 0.500000 0.810866 0.000000
O O16 0.986207 0.500000 0.262011
O O17 0.194173 0.779161 0.304303
O O18 0.356667 0.500000 0.328621
O O19 0.606964 0.780271 0.409007
O O20 0.823302 0.500000 0.468623
O O21 0.000000 0.783002 0.500000
#
# Coordination Sequence:
#
# PCOD9141932 Si02
#       8
#     4   4   4   4   4   4   4   4
#     4  10  19  32  54  85 113 139 176 224 274 318
#     4   9  17  30  52  79 108 146 185 216 259 322
#     4  10  22  37  57  85 112 139 179 232 275 314
#     4  10  21  39  56  74 110 156 191 217 259 325
#     4  10  17  29  50  75 104 143 186 221 263 318
#     4  11  22  34  52  80 112 142 182 233 274 310
#     4  10  21  36  54  83 113 139 174 223 278 328
#     4  10  20  37  62  84 106 142 179 215 274 343
#
# _framework density 21.897431000000001
#
# number of rings (size 3 to 8) (size 9 to 14) (size 15 to 20)
#    0.000    2.000    3.750    0.375    0.000    2.500 
#    0.000    3.750    0.000    3.750    0.000    2.625 
#    0.000    0.000    0.000    0.000    0.000    0.000 
#
# Total GULP energy -178454.283926 kJ/mol
# GULP energy per Si atom -5576.696373 kJ/mol
# Density = 2.184759 g / cm^3
# Si number density = 21.897431 Si / 1000 Ang^3
#
#
#
# Elastic Constant Matrix: (Units=GPa)
#
#
# Indices 1 2 3 4 5 6 
#
# 1 28.1083 -7.6822 24.6045 0.0000 2.6406 0.0000
# 2 -7.6822 39.7577 -9.3128 0.0000 1.8394 0.0000
# 3 24.6045 -9.3128 146.5855 0.0000 12.8161 0.0000
# 4 0.0000 0.0000 0.0000 16.3672 0.0000 -6.7834
# 5 2.6406 1.8394 12.8161 0.0000 37.1328 0.0000
# 6 0.0000 0.0000 0.0000 -6.7834 0.0000 7.1090
#
#
#
# Elastic Compliance Matrix: (Units=1/GPa)
#
#
# Indices 1 2 3 4 5 6 
#
# 1 0.043479 0.006867 -0.006766 0.000000 -0.001097 0.000000
# 2 0.006867 0.026745 0.000727 0.000000 -0.002064 0.000000
# 3 -0.006766 0.000727 0.008213 0.000000 -0.002389 0.000000
# 4 0.000000 0.000000 0.000000 0.101067 0.000000 0.096438
# 5 -0.001097 -0.002064 -0.002389 0.000000 0.027935 0.000000
# 6 0.000000 0.000000 0.000000 0.096438 0.000000 0.232690
#
#
# Mechanical properties :
#
#
# Convention : Reuss Voigt Hill
#
# Bulk Modulus (GPa) = 12.48540 25.51894 19.00217
# Shear Modulus (GPa) = 10.74876 25.91125 18.33001
#
# Velocity S-wave (km/s) = 2.21796 3.44365 2.89638
# Velocity P-wave (km/s) = 3.50332 5.24316 4.45892
#
# Compressibility (1/GPa) = 0.08009352
#
# Stress axis : x y z
#
# Youngs Moduli (GPa) = 22.99958 37.39008 121.76268
#
# Poissons Ratio (x) = -0.25677 0.82382
# Poissons Ratio (y) = -0.15794 -0.08851
# Poissons Ratio (z) = 0.15561 -0.02718
#
# Static dielectric constant tensor:
#      x y z
#    x 1.808850 0.000000 0.049460 
#    y 0.000000 1.849110 0.000000 
#    z 0.049460 0.000000 1.834020 
# 
# From -- ./inp_files/95064.got.cif
#   From: 2010.05.17/outbox.cif.g08.bks.cpg/sg10_48_cif.got.tgz:95064.got - 2010.06.03 11:33:40.
