data_PCOD9141313
_publ_section_title
;
Structure prediction by ZEFSAII (Michael W. Deem and Ramdas Pophale) SiO2 
 PCOD9141313
Probable space group: P 2/M
;
_chemical_formula_sum "Si O2"
_cell_formula_units_Z 20
_cell_length_a 16.649176
_cell_length_b 12.426169
_cell_length_c 5.320757
_cell_angle_alpha 90.000000
_cell_angle_beta 97.514639
_cell_angle_gamma 90.000000
_cell_volume 1091.333203
_symmetry_space_group_name_H-M "P 2/M"
_symmetry_group_IT_number 10
_symmetry_cell_setting 'monoclinic'
loop_
_space_group_symop_operation_xyz
x,y,z
-x,y,-z
-x,-y,-z
x,-y,z
loop_
_atom_site_type_symbol
_atom_site_label
_atom_site_fract_x
_atom_site_fract_y
_atom_site_fract_z
Si Si1 0.327904 0.878387 0.608625
Si Si2 0.234707 0.690696 0.352959
Si Si3 0.950222 0.370242 0.729864
Si Si4 0.677160 0.336135 0.117529
Si Si5 0.500000 0.815616 0.500000
Si Si6 0.500000 0.326104 0.000000
O O1 0.265468 0.813848 0.404446
O O2 0.333331 0.794135 0.843333
O O3 0.416922 0.877776 0.519447
O O4 0.304809 0.000000 0.660573
O O5 0.138848 0.680001 0.307979
O O6 0.272450 0.632748 0.614296
O O7 0.274331 0.645244 0.116332
O O8 0.940353 0.500000 0.727038
O O9 0.000000 0.341296 0.500000
O O10 0.000000 0.340563 0.000000
O O11 0.586613 0.381660 0.074835
O O12 0.512677 0.742849 0.751605
#
# Coordination Sequence:
#
# PCOD9141313 Si02
#       6
#     4   4   4   4   2   2
#     4   9  19  30  46  72 105 144 179 212 243 282
#     4  10  19  33  51  75 103 132 165 207 261 304
#     4  10  21  38  62  86 102 118 152 210 276 328
#     4   9  18  29  46  71 101 141 173 206 240 286
#     4  10  17  28  42  68 101 140 181 224 244 270
#     4  10  14  30  41  66 101 138 180 210 245 274
#
# _framework density 18.326207
#
# number of rings (size 3 to 8) (size 9 to 14) (size 15 to 20)
#    1.200    1.200    2.000    1.500    0.000    0.800 
#    0.000    2.500    0.000    1.200    0.000    7.700 
#    0.000    0.000    0.000    0.000    0.000    0.000 
#
# Total GULP energy -111339.424775 kJ/mol
# GULP energy per Si atom -5566.971239 kJ/mol
# Density = 1.828450 g / cm^3
# Si number density = 18.326207 Si / 1000 Ang^3
#
#
#
# Elastic Constant Matrix: (Units=GPa)
#
#
# Indices 1 2 3 4 5 6 
#
# 1 185.7923 27.8279 75.2531 0.0000 17.5878 0.0000
# 2 27.8279 71.0225 26.1149 0.0000 4.0943 0.0000
# 3 75.2531 26.1149 154.4740 0.0000 1.7675 0.0000
# 4 0.0000 0.0000 0.0000 -71.0483 0.0000 8.3909
# 5 17.5878 4.0943 1.7675 0.0000 34.0691 0.0000
# 6 0.0000 0.0000 0.0000 8.3909 0.0000 3.6981
#
#
#
# Elastic Compliance Matrix: (Units=1/GPa)
#
#
# Indices 1 2 3 4 5 6 
#
# 1 0.007232 -0.001447 -0.003240 0.000000 -0.003392 0.000000
# 2 -0.001447 0.015399 -0.001887 0.000000 -0.001006 0.000000
# 3 -0.003240 -0.001887 0.008354 0.000000 0.001466 0.000000
# 4 0.000000 0.000000 0.000000 -0.011100 0.000000 0.025186
# 5 -0.003392 -0.001006 0.001466 0.000000 0.031148 0.000000
# 6 0.000000 0.000000 0.000000 0.025186 0.000000 0.213261
#
#
# Mechanical properties :
#
#
# Convention : Reuss Voigt Hill
#
# Bulk Modulus (GPa) = 56.06050 74.40895 65.23472
# Shear Modulus (GPa) = 17.64373 12.14998 14.89686
#
# Velocity S-wave (km/s) = 3.10620 2.57764 2.85418
# Velocity P-wave (km/s) = 6.59708 7.03915 6.82169
#
# Compressibility (1/GPa) = 0.01783787
#
# Stress axis : x y z
#
# Youngs Moduli (GPa) = 138.26602 64.94030 119.70121
#
# Poissons Ratio (x) = 0.09397 0.38782
# Poissons Ratio (y) = 0.20007 0.22586
# Poissons Ratio (z) = 0.44797 0.12253
#
# Static dielectric constant tensor:
#      x y z
#    x 1.610230 0.000000 0.010680 
#    y 0.000000 1.642980 0.000000 
#    z 0.010680 0.000000 1.637730 
# 
# From -- ./inp_files/9383.got.cif
#   From: 2010.05.17/outbox.cif.g08.bks.cpg/sg10_5_cif.got.tgz:9383.got - 2010.06.03 11:33:40.
