data_PCOD9141100
_publ_section_title
;
Structure prediction by ZEFSAII (Michael W. Deem and Ramdas Pophale) SiO2 
 PCOD9141100
Probable space group: C C
;
_chemical_formula_sum "Si O2"
_cell_formula_units_Z 20
_cell_length_a 21.155755
_cell_length_b 7.137167
_cell_length_c 9.888016
_cell_angle_alpha 90.000000
_cell_angle_beta 148.142344
_cell_angle_gamma 90.000000
_cell_volume 788.028258
_symmetry_space_group_name_H-M "C C"
_symmetry_group_IT_number 9
_symmetry_cell_setting 'monoclinic'
loop_
_space_group_symop_operation_xyz
x,y,z
x,-y,1/2+z
1/2+x,1/2+y,z
1/2+x,1/2-y,1/2+z
loop_
_atom_site_type_symbol
_atom_site_label
_atom_site_fract_x
_atom_site_fract_y
_atom_site_fract_z
Si Si1 0.274380 0.791017 0.155640
Si Si2 0.971035 0.007387 0.438921
Si Si3 0.382402 0.163003 0.452790
Si Si4 0.588382 0.161489 0.045481
Si Si5 0.138336 0.765811 0.647101
O O1 0.345191 0.614094 0.223330
O O2 0.364511 0.959037 0.355329
O O3 0.196283 0.732564 0.144477
O O4 0.188037 0.853291 0.877326
O O5 0.945319 0.824880 0.481937
O O6 0.024905 0.897977 0.404061
O O7 0.061238 0.185609 0.611208
O O8 0.466785 0.149932 0.736440
O O9 0.247148 0.222819 0.241754
O O10 0.611267 0.949249 0.128299
#
# Coordination Sequence:
#
# PCOD9141100 Si02
#       5
#     4   4   4   4   4
#     4  12  27  48  74 110 147 195 249 306 368 437
#     4  12  26  48  74 108 146 198 244 306 366 436
#     4  12  27  48  74 110 150 196 248 303 371 441
#     4  12  27  48  74 110 150 196 248 303 371 441
#     4  12  27  48  74 110 147 195 249 306 368 437
#
# _framework density 25.379799999999999
#
# number of rings (size 3 to 8) (size 9 to 14) (size 15 to 20)
#    0.000    0.000    8.000    1.200    0.000    6.400 
#    0.000    0.000    0.000    0.000    0.000    0.000 
#    0.000    0.000    0.000    0.000    0.000    0.000 
#
# Total GULP energy -55880.748410 kJ/mol
# GULP energy per Si atom -5588.074841 kJ/mol
# Density = 2.532203 g / cm^3
# Si number density = 25.379800 Si / 1000 Ang^3
#
#
#
# Elastic Constant Matrix: (Units=GPa)
#
#
# Indices 1 2 3 4 5 6 
#
# 1 110.2630 48.4487 37.3831 0.0000 45.7423 0.0000
# 2 48.4487 196.2104 56.4296 0.0000 11.0908 0.0000
# 3 37.3831 56.4296 69.0657 0.0000 18.4963 0.0000
# 4 0.0000 0.0000 0.0000 43.3154 0.0000 16.9411
# 5 45.7423 11.0908 18.4963 0.0000 45.8919 0.0000
# 6 0.0000 0.0000 0.0000 16.9411 0.0000 53.4016
#
#
#
# Elastic Compliance Matrix: (Units=1/GPa)
#
#
# Indices 1 2 3 4 5 6 
#
# 1 0.017928 -0.002564 -0.003351 0.000000 -0.015899 0.000000
# 2 -0.002564 0.007046 -0.005154 0.000000 0.002930 0.000000
# 3 -0.003351 -0.005154 0.021608 0.000000 -0.004124 0.000000
# 4 0.000000 0.000000 0.000000 0.026357 0.000000 -0.008361
# 5 -0.015899 0.002930 -0.004124 0.000000 0.038591 0.000000
# 6 0.000000 0.000000 0.000000 -0.008361 0.000000 0.021379
#
#
# Mechanical properties :
#
#
# Convention : Reuss Voigt Hill
#
# Bulk Modulus (GPa) = 40.90967 73.34020 57.12494
# Shear Modulus (GPa) = 30.63829 44.07364 37.35597
#
# Velocity S-wave (km/s) = 3.47824 4.17173 3.84067
# Velocity P-wave (km/s) = 5.68197 7.22248 6.49804
#
# Compressibility (1/GPa) = 0.02444410
#
# Stress axis : x y z
#
# Youngs Moduli (GPa) = 55.77975 141.91635 46.27945
#
# Poissons Ratio (x) = 0.36394 0.15506
# Poissons Ratio (y) = 0.14304 0.23852
# Poissons Ratio (z) = 0.18689 0.73143
#
# Static dielectric constant tensor:
#      x y z
#    x 2.036540 0.000000 0.022840 
#    y 0.000000 1.983360 0.000000 
#    z 0.022840 0.000000 2.043890 
# 
# From -- ./inp_files/15760.got.cif
#   From: 2010.05.17/outbox.cif.g08.bks.cpg/sg9_8_cif.got.tgz:15760.got - 2010.06.03 20:04:27.
