data_PCOD9141330
_publ_section_title
;
Structure prediction by ZEFSAII (Michael W. Deem and Ramdas Pophale) SiO2 
 PCOD9141330
Probable space group: P 2/M
;
_chemical_formula_sum "Si O2"
_cell_formula_units_Z 30
_cell_length_a 12.291276
_cell_length_b 7.567981
_cell_length_c 14.665810
_cell_angle_alpha 90.000000
_cell_angle_beta 125.393587
_cell_angle_gamma 90.000000
_cell_volume 1112.098620
_symmetry_space_group_name_H-M "P 2/M"
_symmetry_group_IT_number 10
_symmetry_cell_setting 'monoclinic'
loop_
_space_group_symop_operation_xyz
x,y,z
-x,y,-z
-x,-y,-z
x,-y,z
loop_
_atom_site_type_symbol
_atom_site_label
_atom_site_fract_x
_atom_site_fract_y
_atom_site_fract_z
Si Si1 0.939167 0.701037 0.867598
Si Si2 0.435851 0.714607 0.689797
Si Si3 0.235504 0.286168 0.973489
Si Si4 0.930478 0.199489 0.374556
Si Si5 0.235992 0.000000 0.135131
Si Si6 0.377324 0.206448 0.378713
Si Si7 0.194512 0.299505 0.440738
Si Si8 0.345364 0.300487 0.836036
O O1 0.894516 0.500000 0.832673
O O2 0.075342 0.735059 0.876468
O O3 0.825885 0.847987 0.822607
O O4 0.000000 0.707129 0.000000
O O5 0.439851 0.500000 0.691701
O O6 0.561953 0.781336 0.693434
O O7 0.304017 0.767721 0.567337
O O8 0.425688 0.778699 0.789175
O O9 0.254599 0.500000 0.000293
O O10 0.323951 0.232458 0.928148
O O11 0.262077 0.156583 0.070294
O O12 0.057843 0.195956 0.371692
O O13 0.000000 0.269020 0.500000
O O14 0.805511 0.304013 0.277039
O O15 0.882915 0.000000 0.368659
O O16 0.500000 0.280368 0.500000
O O17 0.256450 0.298231 0.370928
O O18 0.366497 0.000000 0.395166
O O19 0.164006 0.500000 0.451391
O O20 0.395452 0.500000 0.870043
#
# Coordination Sequence:
#
# PCOD9141330 Si02
#       8
#     4   4   4   4   2   4   4   4
#     4   8  13  22  37  57  78 102 138 173 202 236
#     4   9  17  29  44  60  78 103 135 170 215 264
#     4   9  17  26  37  57  82 108 141 176 207 247
#     4  11  22  32  43  59  80 107 143 183 221 259
#     4  10  15  24  42  58  77 108 140 172 206 238
#     4   9  17  28  43  62  80  94 120 171 225 262
#     4  10  18  30  47  60  73  98 137 180 218 257
#     4  10  20  32  43  58  83 115 146 176 213 257
#
# _framework density 26.976023999999999
#
# number of rings (size 3 to 8) (size 9 to 14) (size 15 to 20)
#    0.000    2.533    1.333    4.200    0.933    3.200 
#    0.000    0.000    0.000    0.000    0.000    0.000 
#    0.000    0.000    0.000    0.000    0.000   17.333 
#
# Total GULP energy -167261.370959 kJ/mol
# GULP energy per Si atom -5575.379032 kJ/mol
# Density = 2.691463 g / cm^3
# Si number density = 26.976024 Si / 1000 Ang^3
#
#
#
# Elastic Constant Matrix: (Units=GPa)
#
#
# Indices 1 2 3 4 5 6 
#
# 1 145.4066 23.8235 16.8924 0.0000 -34.6304 0.0000
# 2 23.8235 97.6125 13.8500 0.0000 -3.2104 0.0000
# 3 16.8924 13.8500 117.3260 0.0000 -26.5317 0.0000
# 4 0.0000 0.0000 0.0000 -14.5261 0.0000 -50.0253
# 5 -34.6304 -3.2104 -26.5317 0.0000 55.7491 0.0000
# 6 0.0000 0.0000 0.0000 -50.0253 0.0000 -30.0557
#
#
#
# Elastic Compliance Matrix: (Units=1/GPa)
#
#
# Indices 1 2 3 4 5 6 
#
# 1 0.008407 -0.001908 0.000192 0.000000 0.005204 0.000000
# 2 -0.001908 0.010852 -0.001270 0.000000 -0.001164 0.000000
# 3 0.000192 -0.001270 0.009700 0.000000 0.004662 0.000000
# 4 0.000000 0.000000 0.000000 0.014548 0.000000 -0.024214
# 5 0.005204 -0.001164 0.004662 0.000000 0.023322 0.000000
# 6 0.000000 0.000000 0.000000 -0.024214 0.000000 0.007031
#
#
# Mechanical properties :
#
#
# Convention : Reuss Voigt Hill
#
# Bulk Modulus (GPa) = 43.50330 52.16410 47.83370
# Shear Modulus (GPa) = 57.14666 22.61872 39.88269
#
# Velocity S-wave (km/s) = 4.60763 2.89878 3.84923
# Velocity P-wave (km/s) = 6.66848 5.53020 6.12584
#
# Compressibility (1/GPa) = 0.02298676
#
# Stress axis : x y z
#
# Youngs Moduli (GPa) = 118.95017 92.14830 103.09436
#
# Poissons Ratio (x) = 0.17580 -0.01974
# Poissons Ratio (y) = 0.22694 0.13090
# Poissons Ratio (z) = -0.02278 0.11700
#
# Static dielectric constant tensor:
#      x y z
#    x 2.282440 0.000000 0.236510 
#    y 0.000000 2.019340 0.000000 
#    z 0.236510 0.000000 2.636770 
# 
# From -- ./inp_files/76008.got.cif
#   From: 2010.05.17/outbox.cif.g08.bks.cpg/sg10_39_cif.got.tgz:76008.got - 2010.06.03 11:33:40.
