data_PCOD9141455
_publ_section_title
;
Structure prediction by ZEFSAII (Michael W. Deem and Ramdas Pophale) SiO2 
 PCOD9141455
Probable space group: P 2/M
;
_chemical_formula_sum "Si O2"
_cell_formula_units_Z 18
_cell_length_a 8.247640
_cell_length_b 21.670868
_cell_length_c 6.908896
_cell_angle_alpha 90.000000
_cell_angle_beta 39.483499
_cell_angle_gamma 90.000000
_cell_volume 785.187560
_symmetry_space_group_name_H-M "P 2/M"
_symmetry_group_IT_number 10
_symmetry_cell_setting 'monoclinic'
loop_
_space_group_symop_operation_xyz
x,y,z
-x,y,-z
-x,-y,-z
x,-y,z
loop_
_atom_site_type_symbol
_atom_site_label
_atom_site_fract_x
_atom_site_fract_y
_atom_site_fract_z
Si Si1 0.907694 0.371864 0.359057
Si Si2 0.265874 0.500000 0.370579
Si Si3 0.584348 0.681193 0.137639
Si Si4 0.231604 0.931735 0.135158
Si Si5 0.737629 0.191714 0.136004
O O1 0.762543 0.437383 0.481097
O O2 0.688037 0.323373 0.505594
O O3 0.000000 0.363784 0.500000
O O4 0.181729 0.361714 0.007660
O O5 0.000000 0.500000 0.500000
O O6 0.500000 0.500000 0.000000
O O7 0.680624 0.751148 0.046417
O O8 0.500000 0.661102 0.000000
O O9 0.000000 0.926247 0.500000
O O10 0.210947 0.000000 0.060881
O O11 0.500000 0.929757 0.000000
O O12 0.227506 0.873855 0.998389
O O13 0.500000 0.187672 0.500000
O O14 0.000000 0.206391 0.000000
#
# Coordination Sequence:
#
# PCOD9141455 Si02
#       5
#     4   2   4   4   4
#     4   9  17  29  49  77 108 143 181 232 290 340
#     4  10  16  26  44  76 114 138 172 236 302 342
#     4  10  20  35  54  78 110 150 192 231 280 343
#     4  10  22  42  66  90 118 155 195 235 284 345
#     4  12  25  39  59  89 121 155 194 241 292 336
#
# _framework density 22.924458999999999
#
# number of rings (size 3 to 8) (size 9 to 14) (size 15 to 20)
#    0.000    1.778    0.000    6.667    0.000    3.556 
#    0.000    0.000    0.000    0.000    0.000   15.556 
#    0.000    0.000    0.000    0.000    0.000    0.000 
#
# Total GULP energy -100523.944479 kJ/mol
# GULP energy per Si atom -5584.663582 kJ/mol
# Density = 2.287228 g / cm^3
# Si number density = 22.924459 Si / 1000 Ang^3
#
#
#
# Elastic Constant Matrix: (Units=GPa)
#
#
# Indices 1 2 3 4 5 6 
#
# 1 50.0588 23.0052 44.4302 0.0000 -26.3561 0.0000
# 2 23.0052 150.9974 47.7567 0.0000 -22.1605 0.0000
# 3 44.4302 47.7567 187.0082 0.0000 -38.7702 0.0000
# 4 0.0000 0.0000 0.0000 35.1083 0.0000 -9.4252
# 5 -26.3561 -22.1605 -38.7702 0.0000 40.8387 0.0000
# 6 0.0000 0.0000 0.0000 -9.4252 0.0000 11.1849
#
#
#
# Elastic Compliance Matrix: (Units=1/GPa)
#
#
# Indices 1 2 3 4 5 6 
#
# 1 0.032964 -0.001290 -0.004030 0.000000 0.016748 0.000000
# 2 -0.001290 0.007501 -0.001168 0.000000 0.002129 0.000000
# 3 -0.004030 -0.001168 0.007386 0.000000 0.003777 0.000000
# 4 0.000000 0.000000 0.000000 0.036811 0.000000 0.031019
# 5 0.016748 0.002129 0.003777 0.000000 0.040037 0.000000
# 6 0.000000 0.000000 0.000000 0.031019 0.000000 0.115546
#
#
# Mechanical properties :
#
#
# Convention : Reuss Voigt Hill
#
# Bulk Modulus (GPa) = 28.67272 68.71650 48.69461
# Shear Modulus (GPa) = 18.87896 35.61788 27.24842
#
# Velocity S-wave (km/s) = 2.87283 3.94598 3.45137
# Velocity P-wave (km/s) = 4.85169 7.12750 6.09673
#
# Compressibility (1/GPa) = 0.03487636
#
# Stress axis : x y z
#
# Youngs Moduli (GPa) = 30.33589 133.31674 135.38750
#
# Poissons Ratio (x) = 0.17193 0.54564
# Poissons Ratio (y) = 0.03912 0.15809
# Poissons Ratio (z) = 0.12226 0.15567
#
# Static dielectric constant tensor:
#      x y z
#    x 1.696520 0.000000 0.118890 
#    y 0.000000 1.894920 0.000000 
#    z 0.118890 0.000000 1.904030 
# 
# From -- ./inp_files/20063.got.cif
#   From: 2010.05.17/outbox.cif.g08.bks.cpg/sg10_11_cif.got.tgz:20063.got - 2010.06.03 11:33:40.
