data_PCOD9141774
_publ_section_title
;
Structure prediction by ZEFSAII (Michael W. Deem and Ramdas Pophale) SiO2 
 PCOD9141774
Probable space group: P 2/M
;
_chemical_formula_sum "Si O2"
_cell_formula_units_Z 28
_cell_length_a 12.310592
_cell_length_b 14.067232
_cell_length_c 15.627991
_cell_angle_alpha 90.000000
_cell_angle_beta 141.807551
_cell_angle_gamma 90.000000
_cell_volume 1673.375376
_symmetry_space_group_name_H-M "P 2/M"
_symmetry_group_IT_number 10
_symmetry_cell_setting 'monoclinic'
loop_
_space_group_symop_operation_xyz
x,y,z
-x,y,-z
-x,-y,-z
x,-y,z
loop_
_atom_site_type_symbol
_atom_site_label
_atom_site_fract_x
_atom_site_fract_y
_atom_site_fract_z
Si Si1 0.416658 0.210802 0.252151
Si Si2 0.351097 0.106830 0.482456
Si Si3 0.865747 0.890036 0.807571
Si Si4 0.841509 0.612244 0.337326
Si Si5 0.745453 0.110234 0.999422
Si Si6 0.444118 0.609746 0.162112
Si Si7 0.698042 0.284090 0.087045
O O1 0.590439 0.182149 0.411603
O O2 0.254803 0.179543 0.212430
O O3 0.402668 0.148396 0.157038
O O4 0.408215 0.318922 0.217536
O O5 0.500000 0.107386 0.500000
O O6 0.177981 0.123818 0.320070
O O7 0.348832 0.000000 0.517483
O O8 0.816680 0.000000 0.798503
O O9 0.073381 0.880951 0.942265
O O10 0.865557 0.500000 0.330976
O O11 0.650027 0.620218 0.263879
O O12 0.820506 0.673228 0.237377
O O13 0.000000 0.639365 0.500000
O O14 0.723467 0.000000 0.008695
O O15 0.753629 0.182593 0.083306
O O16 0.410494 0.500000 0.160056
O O17 0.326586 0.644615 0.008862
O O18 0.500000 0.274266 0.000000
#
# Coordination Sequence:
#
# PCOD9141774 Si02
#       7
#     4   4   4   4   4   4   4
#     4  10  17  27  46  66  88 118 152 185 218 258
#     4   8  14  25  41  61  85 114 147 180 214 254
#     4   9  17  29  45  66  92 120 150 186 223 257
#     4   9  17  31  52  73  89 109 145 192 229 259
#     4  10  19  29  45  69  93 118 149 185 222 260
#     4   9  18  31  47  68  91 117 149 182 223 271
#     4   9  18  32  49  67  90 120 148 179 224 272
#
# _framework density 16.732648000000001
#
# number of rings (size 3 to 8) (size 9 to 14) (size 15 to 20)
#    0.000    2.857    0.000    3.000    0.000    4.286 
#    0.000    0.000    0.000   12.000    0.000    0.000 
#    0.000    0.000    0.000    0.000    0.000    0.000 
#
# Total GULP energy -155901.897635 kJ/mol
# GULP energy per Si atom -5567.924916 kJ/mol
# Density = 1.669456 g / cm^3
# Si number density = 16.732648 Si / 1000 Ang^3
#
#
#
# Elastic Constant Matrix: (Units=GPa)
#
#
# Indices 1 2 3 4 5 6 
#
# 1 33.4148 46.1755 12.7320 0.0000 -15.2431 0.0000
# 2 46.1755 144.4001 50.2590 0.0000 -22.8819 0.0000
# 3 12.7320 50.2590 103.9685 0.0000 -16.4652 0.0000
# 4 0.0000 0.0000 0.0000 18.7470 0.0000 -6.1238
# 5 -15.2431 -22.8819 -16.4652 0.0000 18.2096 0.0000
# 6 0.0000 0.0000 0.0000 -6.1238 0.0000 26.5376
#
#
#
# Elastic Compliance Matrix: (Units=1/GPa)
#
#
# Indices 1 2 3 4 5 6 
#
# 1 0.073724 -0.019066 0.007199 0.000000 0.044264 0.000000
# 2 -0.019066 0.014380 -0.004998 0.000000 -0.002410 0.000000
# 3 0.007199 -0.004998 0.012970 0.000000 0.011473 0.000000
# 4 0.000000 0.000000 0.000000 0.057690 0.000000 0.013313
# 5 0.044264 -0.002410 0.011473 0.000000 0.099314 0.000000
# 6 0.000000 0.000000 0.000000 0.013313 0.000000 0.040754
#
#
# Mechanical properties :
#
#
# Convention : Reuss Voigt Hill
#
# Bulk Modulus (GPa) = 14.84967 55.56848 35.20907
# Shear Modulus (GPa) = 14.08405 24.20663 19.14534
#
# Velocity S-wave (km/s) = 2.90437 3.80764 3.38626
# Velocity P-wave (km/s) = 4.48788 7.25345 6.03132
#
# Compressibility (1/GPa) = 0.06734158
#
# Stress axis : x y z
#
# Youngs Moduli (GPa) = 13.56414 69.54182 77.10243
#
# Poissons Ratio (x) = 1.32591 -0.55502
# Poissons Ratio (y) = 0.25862 0.38537
# Poissons Ratio (z) = -0.09764 0.34758
#
# Static dielectric constant tensor:
#      x y z
#    x 1.564310 0.000000 -0.006760 
#    y 0.000000 1.552610 0.000000 
#    z -0.006760 0.000000 1.626260 
# 
# From -- ./inp_files/64952.got.cif
#   From: 2010.05.17/outbox.cif.g08.bks.cpg/sg10_33_cif.got.tgz:64952.got - 2010.06.03 11:33:40.
