data_PCOD9141241
_publ_section_title
;
Structure prediction by ZEFSAII (Michael W. Deem and Ramdas Pophale) SiO2 
 PCOD9141241
Probable space group: C C
;
_chemical_formula_sum "Si O2"
_cell_formula_units_Z 16
_cell_length_a 15.000000
_cell_length_b 12.000000
_cell_length_c 9.000000
_cell_angle_alpha 90.000000
_cell_angle_beta 90.000000
_cell_angle_gamma 90.000000
_cell_volume 1620.000000
_symmetry_space_group_name_H-M "C C"
_symmetry_group_IT_number 9
_symmetry_cell_setting 'monoclinic'
loop_
_space_group_symop_operation_xyz
x,y,z
x,-y,1/2+z
1/2+x,1/2+y,z
1/2+x,1/2-y,1/2+z
loop_
_atom_site_type_symbol
_atom_site_label
_atom_site_fract_x
_atom_site_fract_y
_atom_site_fract_z
Si Si1 0.425250 0.470223 0.919970
Si Si2 0.130823 0.064288 0.500626
Si Si3 0.583691 0.032682 0.021933
Si Si4 0.687009 0.778620 0.680514
Si Si5 0.383884 0.656654 0.124305
Si Si6 0.512952 0.155085 0.719035
Si Si7 0.668343 0.339596 0.682155
Si Si8 0.243628 0.650197 0.503307
O O1 0.524268 0.432524 0.968076
O O2 0.409838 0.438181 0.747033
O O3 0.341883 0.402683 0.991604
O O4 0.417653 0.599520 0.971446
O O5 0.158238 0.158063 0.620939
O O6 0.176342 0.102509 0.344372
O O7 0.155155 0.941697 0.565555
O O8 0.543734 0.093027 0.873422
O O9 0.673113 0.953867 0.009863
O O10 0.611726 0.132344 0.132719
O O11 0.517237 0.943785 0.097578
O O12 0.779060 0.821246 0.606543
O O13 0.710799 0.786769 0.853998
O O14 0.423634 0.772069 0.192325
O O15 0.583774 0.255226 0.690512
O O16 0.740057 0.246425 0.629397
#
# Coordination Sequence:
#
# PCOD9141241 Si02
#       8
#     4   4   4   4   4   4   4   4
#     4  11  21  40  64  97 128 163 217 274 311 378
#     4  12  22  41  65  96 131 171 210 265 331 383
#     4  11  20  38  65  89 123 165 211 258 320 377
#     4  11  22  39  64  92 129 171 211 262 321 387
#     4  11  23  40  62  96 131 165 214 270 321 379
#     4  11  22  41  62  94 125 164 213 267 315 382
#     4  11  23  39  66  93 131 169 212 262 326 389
#     4  10  23  38  64  95 128 168 220 266 317 379
#
# _framework density 9.8765429999999999
#
# number of rings (size 3 to 8) (size 9 to 14) (size 15 to 20)
#    0.000    1.000    6.250    0.750    0.000    1.000 
#    0.000    5.000    0.000    0.000    0.000    0.000 
#    0.000    0.000    0.000    0.000    0.000    0.000 
#
# Total GULP energy -89207.517966 kJ/mol
# GULP energy per Si atom -5575.469873 kJ/mol
# Density = 0.985406 g / cm^3
# Si number density = 9.876543 Si / 1000 Ang^3
#
#
#
# Elastic Constant Matrix: (Units=GPa)
#
#
# Indices 1 2 3 4 5 6 
#
# 1 42.1566 11.6075 6.7276 0.0000 8.4015 0.0000
# 2 11.6075 140.0576 48.3532 0.0000 7.2934 0.0000
# 3 6.7276 48.3532 65.9901 0.0000 0.7806 0.0000
# 4 0.0000 0.0000 0.0000 57.3098 0.0000 -1.3688
# 5 8.4015 7.2934 0.7806 0.0000 20.6820 0.0000
# 6 0.0000 0.0000 0.0000 -1.3688 0.0000 27.2579
#
#
#
# Elastic Compliance Matrix: (Units=1/GPa)
#
#
# Indices 1 2 3 4 5 6 
#
# 1 0.026339 -0.001021 -0.001815 0.000000 -0.010271 0.000000
# 2 -0.001021 0.009801 -0.007045 0.000000 -0.002776 0.000000
# 3 -0.001815 -0.007045 0.020472 0.000000 0.002449 0.000000
# 4 0.000000 0.000000 0.000000 0.017470 0.000000 0.000877
# 5 -0.010271 -0.002776 0.002449 0.000000 0.053410 0.000000
# 6 0.000000 0.000000 0.000000 0.000877 0.000000 0.036731
#
#
# Mechanical properties :
#
#
# Convention : Reuss Voigt Hill
#
# Bulk Modulus (GPa) = 27.13771 42.39787 34.76779
# Shear Modulus (GPa) = 25.47535 33.15101 29.31318
#
# Velocity S-wave (km/s) = 3.59512 4.10111 3.85642
# Velocity P-wave (km/s) = 5.56790 6.62843 6.12117
#
# Compressibility (1/GPa) = 0.03684909
#
# Stress axis : x y z
#
# Youngs Moduli (GPa) = 37.96666 102.02825 48.84764
#
# Poissons Ratio (x) = 0.10420 0.08868
# Poissons Ratio (y) = 0.03878 0.34412
# Poissons Ratio (z) = 0.06892 0.71876
#
# Static dielectric constant tensor:
#      x y z
#    x 1.718640 0.000000 -0.071670 
#    y 0.000000 1.680380 0.000000 
#    z -0.071670 0.000000 1.749790 
# 
# From -- ./inp_files/9170.got.cif
#   From: 2010.05.17/outbox.ucp.g08.bks.cvg/sg9_5_cif.got.tgz:9170.got - 2010.06.11 13:03:20.
