data_PCOD9141603
_publ_section_title
;
Structure prediction by ZEFSAII (Michael W. Deem and Ramdas Pophale) SiO2 
 PCOD9141603
Probable space group: P 2/M
;
_chemical_formula_sum "Si O2"
_cell_formula_units_Z 28
_cell_length_a 22.235824
_cell_length_b 8.343386
_cell_length_c 17.204222
_cell_angle_alpha 90.000000
_cell_angle_beta 31.082884
_cell_angle_gamma 90.000000
_cell_volume 1647.835335
_symmetry_space_group_name_H-M "P 2/M"
_symmetry_group_IT_number 10
_symmetry_cell_setting 'monoclinic'
loop_
_space_group_symop_operation_xyz
x,y,z
-x,y,-z
-x,-y,-z
x,-y,z
loop_
_atom_site_type_symbol
_atom_site_label
_atom_site_fract_x
_atom_site_fract_y
_atom_site_fract_z
Si Si1 0.490150 0.804281 0.747348
Si Si2 0.411787 0.806742 0.664417
Si Si3 0.744830 0.191034 0.526297
Si Si4 0.402283 0.187510 0.004451
Si Si5 0.348548 0.686392 0.220941
Si Si6 0.166555 0.306572 0.873545
Si Si7 0.088204 0.693568 0.790499
O O1 0.450077 0.748553 0.707266
O O2 0.622549 0.755220 0.621389
O O3 0.489640 0.000000 0.748492
O O4 0.405520 0.753420 0.911880
O O5 0.500000 0.748215 0.500000
O O6 0.281551 0.759219 0.785954
O O7 0.419012 0.000000 0.657931
O O8 0.747328 0.268345 0.609189
O O9 0.848872 0.238468 0.354421
O O10 0.740401 0.000000 0.539846
O O11 0.328078 0.274351 0.153196
O O12 0.374083 0.000000 0.037281
O O13 0.537521 0.211931 0.880199
O O14 0.378342 0.500000 0.195151
O O15 0.170373 0.500000 0.869979
O O16 0.154606 0.256236 0.796354
O O17 0.046402 0.258128 0.048829
O O18 0.091605 0.500000 0.783618
#
# Coordination Sequence:
#
# PCOD9141603 Si02
#       7
#     4   4   4   4   4   4   4
#     4   8  16  28  42  63  92 123 151 185 227 264
#     4  10  19  31  47  68  94 122 153 189 224 260
#     4  10  18  29  46  68  92 119 153 187 224 271
#     4   9  15  26  41  58  86 122 157 188 221 266
#     4  10  17  25  39  62  91 119 148 184 229 273
#     4   9  19  34  49  66  90 121 153 186 227 270
#     4   9  18  33  49  65  90 120 150 188 230 267
#
# _framework density 16.991989
#
# number of rings (size 3 to 8) (size 9 to 14) (size 15 to 20)
#    0.000    2.714    0.000    5.571    0.000    2.571 
#    0.000    5.714    0.000    0.000    0.000    1.000 
#    0.000    8.000    0.000    0.000    0.000    0.000 
#
# Total GULP energy -155996.919621 kJ/mol
# GULP energy per Si atom -5571.318558 kJ/mol
# Density = 1.695331 g / cm^3
# Si number density = 16.991989 Si / 1000 Ang^3
#
#
#
# Elastic Constant Matrix: (Units=GPa)
#
#
# Indices 1 2 3 4 5 6 
#
# 1 88.3011 10.4554 60.2930 0.0000 26.4818 0.0000
# 2 10.4554 18.4294 15.8948 0.0000 7.2746 0.0000
# 3 60.2930 15.8948 116.5723 0.0000 38.4447 0.0000
# 4 0.0000 0.0000 0.0000 26.3456 0.0000 2.1527
# 5 26.4818 7.2746 38.4447 0.0000 33.3732 0.0000
# 6 0.0000 0.0000 0.0000 2.1527 0.0000 16.1368
#
#
#
# Elastic Compliance Matrix: (Units=1/GPa)
#
#
# Indices 1 2 3 4 5 6 
#
# 1 0.018229 -0.001800 -0.007325 0.000000 -0.005635 0.000000
# 2 -0.001800 0.062435 -0.005749 0.000000 -0.005558 0.000000
# 3 -0.007325 -0.005749 0.017450 0.000000 -0.013036 0.000000
# 4 0.000000 0.000000 0.000000 0.038375 0.000000 -0.005119
# 5 -0.005635 -0.005558 -0.013036 0.000000 0.050665 0.000000
# 6 0.000000 0.000000 0.000000 -0.005119 0.000000 0.062653
#
#
# Mechanical properties :
#
#
# Convention : Reuss Voigt Hill
#
# Bulk Modulus (GPa) = 14.62705 44.06548 29.34627
# Shear Modulus (GPa) = 16.53747 24.28175 20.40961
#
# Velocity S-wave (km/s) = 3.12308 3.78433 3.46949
# Velocity P-wave (km/s) = 4.65099 6.71448 5.77564
#
# Compressibility (1/GPa) = 0.06836648
#
# Stress axis : x y z
#
# Youngs Moduli (GPa) = 54.85655 16.01671 57.30661
#
# Poissons Ratio (x) = 0.02884 0.41975
# Poissons Ratio (y) = 0.09876 0.32945
# Poissons Ratio (z) = 0.40181 0.09208
#
# Static dielectric constant tensor:
#      x y z
#    x 1.580980 0.000000 0.042840 
#    y 0.000000 1.582300 0.000000 
#    z 0.042840 0.000000 1.589160 
# 
# From -- ./inp_files/79839.got.cif
#   From: 2010.05.17/outbox.cif.g08.bks.cpg/sg10_40_cif.got.tgz:79839.got - 2010.06.03 11:33:40.
