data_PCOD9141406
_publ_section_title
;
Structure prediction by ZEFSAII (Michael W. Deem and Ramdas Pophale) SiO2 
 PCOD9141406
Probable space group: P 2/M
;
_chemical_formula_sum "Si O2"
_cell_formula_units_Z 24
_cell_length_a 7.166967
_cell_length_b 28.011050
_cell_length_c 9.032432
_cell_angle_alpha 90.000000
_cell_angle_beta 142.509797
_cell_angle_gamma 90.000000
_cell_volume 1103.620674
_symmetry_space_group_name_H-M "P 2/M"
_symmetry_group_IT_number 10
_symmetry_cell_setting 'monoclinic'
loop_
_space_group_symop_operation_xyz
x,y,z
-x,y,-z
-x,-y,-z
x,-y,z
loop_
_atom_site_type_symbol
_atom_site_label
_atom_site_fract_x
_atom_site_fract_y
_atom_site_fract_z
Si Si1 0.870315 0.000000 0.749997
Si Si2 0.631608 0.243097 0.250003
Si Si3 0.545803 0.853963 0.750007
Si Si4 0.972736 0.106557 0.749993
Si Si5 0.543376 0.354296 0.250005
Si Si6 0.971989 0.606269 0.249996
Si Si7 0.870850 0.500000 0.249997
O O1 0.500000 0.000000 0.500000
O O2 0.980920 0.049518 0.749996
O O3 0.000000 0.000000 0.000000
O O4 0.470552 0.203088 0.250001
O O5 0.561334 0.297402 0.250007
O O6 0.000000 0.236867 0.500000
O O7 0.500000 0.236868 0.000000
O O8 0.207333 0.872930 0.502760
O O9 0.754922 0.875615 0.750000
O O10 0.701836 0.872928 0.997263
O O11 0.752016 0.377735 0.250002
O O12 0.704253 0.372161 0.499617
O O13 0.205035 0.372161 0.000397
O O14 0.983313 0.549292 0.249995
O O15 0.000000 0.500000 0.500000
O O16 0.500000 0.500000 0.000000
#
# Coordination Sequence:
#
# PCOD9141406 Si02
#       7
#     2   4   4   4   4   4   2
#     4  12  16  30  58  82 100 114 142 194 244 292
#     4  12  21  32  47  67  91 133 171 191 219 263
#     4  10  20  32  49  71 103 121 151 199 231 273
#     4  10  19  35  52  81  97 115 149 189 249 282
#     4  10  16  27  38  51  78 111 152 194 203 251
#     4  10  16  25  36  51  77 107 147 198 215 266
#     4  12  16  20  34  52  68 102 146 180 244 258
#
# _framework density 21.746603
#
# number of rings (size 3 to 8) (size 9 to 14) (size 15 to 20)
#    0.000    1.333   10.000    1.000    0.000    0.000 
#    0.000    0.000    0.000    0.000    0.000   19.833 
#    0.000    0.000    0.000    0.000    0.000  113.333 
#
# Total GULP energy -133948.391133 kJ/mol
# GULP energy per Si atom -5581.182964 kJ/mol
# Density = 2.169711 g / cm^3
# Si number density = 21.746603 Si / 1000 Ang^3
#
#
#
# Elastic Constant Matrix: (Units=GPa)
#
#
# Indices 1 2 3 4 5 6 
#
# 1 70.9942 17.4744 18.0178 0.0000 10.5567 0.0000
# 2 17.4744 218.8784 47.5102 0.0000 -3.2757 0.0000
# 3 18.0178 47.5102 249.0601 0.0000 -29.9839 0.0000
# 4 0.0000 0.0000 0.0000 45.1697 0.0000 11.1207
# 5 10.5567 -3.2757 -29.9839 0.0000 -17.3914 0.0000
# 6 0.0000 0.0000 0.0000 11.1207 0.0000 147.0913
#
#
#
# Elastic Compliance Matrix: (Units=1/GPa)
#
#
# Indices 1 2 3 4 5 6 
#
# 1 0.013114 -0.000969 0.000179 0.000000 0.007834 0.000000
# 2 -0.000969 0.004831 -0.000854 0.000000 -0.000025 0.000000
# 3 0.000179 -0.000854 0.003476 0.000000 -0.005723 0.000000
# 4 0.000000 0.000000 0.000000 0.022559 0.000000 -0.001706
# 5 0.007834 -0.000025 -0.005723 0.000000 -0.042873 0.000000
# 6 0.000000 0.000000 0.000000 -0.001706 0.000000 0.006927
#
#
# Mechanical properties :
#
#
# Convention : Reuss Voigt Hill
#
# Bulk Modulus (GPa) = 55.14754 78.32641 66.73697
# Shear Modulus (GPa) = 287.90593 65.36928 176.63761
#
# Velocity S-wave (km/s) = 11.51862 5.48861 9.02229
# Velocity P-wave (km/s) = 14.22389 8.73283 11.80215
#
# Compressibility (1/GPa) = 0.01813318
#
# Stress axis : x y z
#
# Youngs Moduli (GPa) = 76.25581 206.98861 287.67769
#
# Poissons Ratio (x) = 0.20049 -0.05154
# Poissons Ratio (y) = 0.07386 0.24582
# Poissons Ratio (z) = -0.01366 0.17687
#
# Static dielectric constant tensor:
#      x y z
#    x 1.770290 0.000000 -0.005490 
#    y 0.000000 1.742860 0.000000 
#    z -0.005490 0.000000 1.820540 
# 
# From -- ./inp_files/43727.got.cif
#   From: 2010.05.17/outbox.cif.g08.bks.cpg/sg10_22_cif.got.tgz:43727.got - 2010.06.03 11:33:40.
