data_PCOD9141677
_publ_section_title
;
Structure prediction by ZEFSAII (Michael W. Deem and Ramdas Pophale) SiO2 
 PCOD9141677
Probable space group: P 2/M
;
_chemical_formula_sum "Si O2"
_cell_formula_units_Z 32
_cell_length_a 29.666101
_cell_length_b 9.219856
_cell_length_c 19.966852
_cell_angle_alpha 90.000000
_cell_angle_beta 156.370852
_cell_angle_gamma 90.000000
_cell_volume 2188.962633
_symmetry_space_group_name_H-M "P 2/M"
_symmetry_group_IT_number 10
_symmetry_cell_setting 'monoclinic'
loop_
_space_group_symop_operation_xyz
x,y,z
-x,y,-z
-x,-y,-z
x,-y,z
loop_
_atom_site_type_symbol
_atom_site_label
_atom_site_fract_x
_atom_site_fract_y
_atom_site_fract_z
Si Si1 0.065505 0.172910 0.742929
Si Si2 0.833614 0.668490 0.247767
Si Si3 0.733958 0.827213 0.888647
Si Si4 0.488152 0.172522 0.325420
Si Si5 0.174949 0.827447 0.624667
Si Si6 0.410217 0.674246 0.935316
Si Si7 0.563745 0.667913 0.878226
Si Si8 0.385904 0.333342 0.389451
O O1 0.108231 0.260642 0.736849
O O2 0.932460 0.199102 0.569149
O O3 0.080362 0.000000 0.750366
O O4 0.147229 0.210036 0.915732
O O5 0.864987 0.500000 0.299024
O O6 0.856590 0.758973 0.346190
O O7 0.698984 0.673825 0.054331
O O8 0.633509 0.795320 0.805295
O O9 0.705727 0.742816 0.782386
O O10 0.729801 0.000000 0.870458
O O11 0.488205 0.236127 0.250982
O O12 0.581321 0.246407 0.499362
O O13 0.501400 0.000000 0.343205
O O14 0.291418 0.752861 0.762265
O O15 0.190682 0.000000 0.652847
O O16 0.390506 0.500000 0.910496
O O17 0.500000 0.706202 0.000000
O O18 0.455652 0.714510 0.071262
O O19 0.528838 0.500000 0.822877
O O20 0.500000 0.331638 0.500000
O O21 0.357919 0.500000 0.365779
#
# Coordination Sequence:
#
# PCOD9141677 Si02
#       8
#     4   4   4   4   4   4   4   4
#     4  10  19  30  42  60  88 120 150 184 219 255
#     4  10  19  29  42  60  86 118 152 186 219 255
#     4   9  17  28  40  56  82 117 153 181 213 253
#     4  10  17  26  42  60  82 114 149 182 214 254
#     4  10  20  31  45  64  87 114 147 183 222 264
#     4   9  19  36  53  67  87 114 144 183 230 272
#     4   9  17  28  43  64  86 111 144 182 221 259
#     4   9  17  27  39  56  81 112 147 185 219 250
#
# _framework density 14.618798
#
# number of rings (size 3 to 8) (size 9 to 14) (size 15 to 20)
#    0.000    2.500    1.250    2.625    0.000    7.250 
#    0.000    0.000    0.000    0.000    0.000    0.000 
#    0.000    1.000    0.000   11.500    0.000    3.500 
#
# Total GULP energy -178341.215575 kJ/mol
# GULP energy per Si atom -5573.162987 kJ/mol
# Density = 1.458552 g / cm^3
# Si number density = 14.618798 Si / 1000 Ang^3
#
#
#
# Elastic Constant Matrix: (Units=GPa)
#
#
# Indices 1 2 3 4 5 6 
#
# 1 81.7260 47.3542 58.7459 0.0000 -15.1156 0.0000
# 2 47.3542 62.8527 57.5789 0.0000 -15.5631 0.0000
# 3 58.7459 57.5789 105.7788 0.0000 -26.6619 0.0000
# 4 0.0000 0.0000 0.0000 14.8865 0.0000 -8.3938
# 5 -15.1156 -15.5631 -26.6619 0.0000 15.9034 0.0000
# 6 0.0000 0.0000 0.0000 -8.3938 0.0000 18.4349
#
#
#
# Elastic Compliance Matrix: (Units=1/GPa)
#
#
# Indices 1 2 3 4 5 6 
#
# 1 0.024043 -0.011751 -0.007091 0.000000 -0.000536 0.000000
# 2 -0.011751 0.037600 -0.012957 0.000000 0.003905 0.000000
# 3 -0.007091 -0.012957 0.026929 0.000000 0.025727 0.000000
# 4 0.000000 0.000000 0.000000 0.090377 0.000000 0.041151
# 5 -0.000536 0.003905 0.025727 0.000000 0.109324 0.000000
# 6 0.000000 0.000000 0.000000 0.041151 0.000000 0.072981
#
#
# Mechanical properties :
#
#
# Convention : Reuss Voigt Hill
#
# Bulk Modulus (GPa) = 40.04044 64.19059 52.11551
# Shear Modulus (GPa) = 11.54263 15.62353 13.58308
#
# Velocity S-wave (km/s) = 2.81298 3.27269 3.05151
# Velocity P-wave (km/s) = 6.16439 7.63450 6.93849
#
# Compressibility (1/GPa) = 0.02497475
#
# Stress axis : x y z
#
# Youngs Moduli (GPa) = 41.59223 26.59597 37.13411
#
# Poissons Ratio (x) = 0.31252 0.26334
# Poissons Ratio (y) = 0.48873 0.48113
# Poissons Ratio (z) = 0.29495 0.34459
#
# Static dielectric constant tensor:
#      x y z
#    x 1.455810 0.000000 -0.013820 
#    y 0.000000 1.489400 0.000000 
#    z -0.013820 0.000000 1.490070 
# 
# From -- ./inp_files/66080.got.cif
#   From: 2010.05.17/outbox.cif.g08.bks.cpg/sg10_34_cif.got.tgz:66080.got - 2010.06.03 11:33:40.
