data_PCOD9141062
_publ_section_title
;
Structure prediction by ZEFSAII (Michael W. Deem and Ramdas Pophale) SiO2 
 PCOD9141062
Probable space group: C C
;
_chemical_formula_sum "Si O2"
_cell_formula_units_Z 24
_cell_length_a 10.351993
_cell_length_b 8.397565
_cell_length_c 20.144316
_cell_angle_alpha 90.000000
_cell_angle_beta 144.691438
_cell_angle_gamma 90.000000
_cell_volume 1012.144134
_symmetry_space_group_name_H-M "C C"
_symmetry_group_IT_number 9
_symmetry_cell_setting 'monoclinic'
loop_
_space_group_symop_operation_xyz
x,y,z
x,-y,1/2+z
1/2+x,1/2+y,z
1/2+x,1/2-y,1/2+z
loop_
_atom_site_type_symbol
_atom_site_label
_atom_site_fract_x
_atom_site_fract_y
_atom_site_fract_z
Si Si1 0.314240 0.578306 0.553310
Si Si2 0.431504 0.298782 0.242011
Si Si3 0.485787 0.771450 0.125786
Si Si4 0.344170 0.236034 0.391541
Si Si5 0.338975 0.597639 0.417510
Si Si6 0.617925 0.433406 0.920280
O O1 0.448549 0.630446 0.675282
O O2 0.336396 0.387427 0.559605
O O3 0.407198 0.643686 0.521343
O O4 0.057852 0.636570 0.455597
O O5 0.170952 0.275567 0.145827
O O6 0.578047 0.139839 0.307146
O O7 0.520707 0.415658 0.338816
O O8 0.643486 0.751739 0.255132
O O9 0.335296 0.931527 0.060511
O O10 0.409405 0.416353 0.435495
O O11 0.228701 0.163162 0.407152
O O12 0.440491 0.662751 0.391082
#
# Coordination Sequence:
#
# PCOD9141062 Si02
#       6
#     4   4   4   4   4   4
#     4  12  25  49  80 109 155 205 258 327 389 462
#     4  12  27  49  79 115 160 200 265 330 387 464
#     4  12  26  48  82 109 157 207 258 327 387 464
#     4  12  26  50  74 114 152 195 268 317 392 470
#     4  12  27  47  77 113 155 201 262 322 391 470
#     4  12  27  47  78 116 151 202 263 321 386 464
#
# _framework density 23.712036999999999
#
# number of rings (size 3 to 8) (size 9 to 14) (size 15 to 20)
#    0.000    0.000    8.333    0.000    2.333    6.667 
#    0.000    0.000    0.000    0.000    0.000    0.000 
#    0.000    0.000    0.000    0.000    0.000    0.000 
#
# Total GULP energy -66920.105542 kJ/mol
# GULP energy per Si atom -5576.675462 kJ/mol
# Density = 2.365807 g / cm^3
# Si number density = 23.712037 Si / 1000 Ang^3
#
#
#
# Elastic Constant Matrix: (Units=GPa)
#
#
# Indices 1 2 3 4 5 6 
#
# 1 169.9544 34.8208 51.5392 0.0000 -9.5034 0.0000
# 2 34.8208 86.0098 54.7395 0.0000 13.6200 0.0000
# 3 51.5392 54.7395 136.6507 -0.0001 -3.7881 0.0000
# 4 0.0000 0.0000 -0.0001 50.2488 0.0000 3.2845
# 5 -9.5034 13.6200 -3.7881 0.0000 52.9966 0.0000
# 6 0.0000 0.0000 0.0000 3.2845 0.0000 32.6470
#
#
#
# Elastic Compliance Matrix: (Units=1/GPa)
#
#
# Indices 1 2 3 4 5 6 
#
# 1 0.006909 -0.001906 -0.001798 0.000000 0.001600 0.000000
# 2 -0.001906 0.017262 -0.006341 0.000000 -0.005231 0.000000
# 3 -0.001798 -0.006341 0.010593 0.000000 0.002064 0.000000
# 4 0.000000 0.000000 0.000000 0.020033 0.000000 -0.002015
# 5 0.001600 -0.005231 0.002064 0.000000 0.020648 0.000000
# 6 0.000000 0.000000 0.000000 -0.002015 0.000000 0.030833
#
#
# Mechanical properties :
#
#
# Convention : Reuss Voigt Hill
#
# Bulk Modulus (GPa) = 68.14550 74.97933 71.56242
# Shear Modulus (GPa) = 38.09199 43.94619 41.01909
#
# Velocity S-wave (km/s) = 4.01239 4.30970 4.16370
# Velocity P-wave (km/s) = 7.08991 7.51360 7.30483
#
# Compressibility (1/GPa) = 0.01467448
#
# Stress axis : x y z
#
# Youngs Moduli (GPa) = 144.73433 57.92929 94.39925
#
# Poissons Ratio (x) = 0.11044 0.16972
# Poissons Ratio (y) = 0.27592 0.59858
# Poissons Ratio (z) = 0.26021 0.36733
#
# Static dielectric constant tensor:
#      x y z
#    x 2.009170 0.000000 -0.070400 
#    y 0.000000 1.901720 0.000000 
#    z -0.070400 0.000000 1.962820 
# 
# From -- ./inp_files/35341.got.cif
#   From: 2010.05.17/outbox.cif.g08.bks.cpg/sg9_18_cif.got.tgz:35341.got - 2010.06.03 20:04:27.
