data_PCOD9141720
_publ_section_title
;
Structure prediction by ZEFSAII (Michael W. Deem and Ramdas Pophale) SiO2 
 PCOD9141720
Probable space group: P 2/M
;
_chemical_formula_sum "Si O2"
_cell_formula_units_Z 32
_cell_length_a 31.075012
_cell_length_b 8.482543
_cell_length_c 22.694002
_cell_angle_alpha 90.000000
_cell_angle_beta 17.750611
_cell_angle_gamma 90.000000
_cell_volume 1823.767621
_symmetry_space_group_name_H-M "P 2/M"
_symmetry_group_IT_number 10
_symmetry_cell_setting 'monoclinic'
loop_
_space_group_symop_operation_xyz
x,y,z
-x,y,-z
-x,-y,-z
x,-y,z
loop_
_atom_site_type_symbol
_atom_site_label
_atom_site_fract_x
_atom_site_fract_y
_atom_site_fract_z
Si Si1 0.913325 0.812219 0.171472
Si Si2 0.789220 0.185781 0.799815
Si Si3 0.925388 0.315242 0.515697
Si Si4 0.366733 0.311429 0.514303
Si Si5 0.334494 0.809371 0.918550
Si Si6 0.055329 0.688382 0.104464
Si Si7 0.350544 0.691947 0.670421
Si Si8 0.028257 0.187744 0.266768
O O1 0.750491 0.768524 0.373506
O O2 0.972004 0.733876 0.154120
O O3 0.930612 0.000000 0.153693
O O4 0.000000 0.758241 0.000000
O O5 0.797578 0.271560 0.726096
O O6 0.940156 0.219711 0.634193
O O7 0.774467 0.000000 0.809184
O O8 0.681020 0.235976 0.992072
O O9 0.954814 0.500000 0.482748
O O10 0.921892 0.266647 0.452212
O O11 0.352183 0.500000 0.529660
O O12 0.525917 0.263917 0.290968
O O13 0.334922 0.260927 0.622949
O O14 0.342444 0.000000 0.905359
O O15 0.188999 0.761753 0.075203
O O16 0.054718 0.500000 0.111965
O O17 0.000693 0.764670 0.235730
O O18 0.216747 0.743340 0.882800
O O19 0.500000 0.748135 0.500000
O O20 0.352124 0.500000 0.669579
O O21 0.021218 0.000000 0.283143
#
# Coordination Sequence:
#
# PCOD9141720 Si02
#       8
#     4   4   4   4   4   4   4   4
#     4  11  23  39  57  74  98 131 172 218 264 312
#     4   9  16  28  45  67 101 141 174 207 253 306
#     4  10  17  26  44  71 101 135 176 214 251 298
#     4  11  21  34  54  76 101 133 172 217 262 304
#     4   9  19  33  49  73 107 142 173 209 254 310
#     4  11  21  35  55  76 102 131 172 219 260 305
#     4   9  18  31  48  73 103 132 161 200 254 308
#     4  10  20  34  50  73 108 143 174 208 258 314
#
# _framework density 17.546095000000001
#
# number of rings (size 3 to 8) (size 9 to 14) (size 15 to 20)
#    0.000    2.000    1.250    5.250    0.000    4.500 
#    0.000    0.000    0.000    3.000    0.000    0.875 
#    0.000    7.000    0.000    0.000    0.000    0.000 
#
# Total GULP energy -178505.013470 kJ/mol
# GULP energy per Si atom -5578.281671 kJ/mol
# Density = 1.750616 g / cm^3
# Si number density = 17.546095 Si / 1000 Ang^3
#
#
#
# Elastic Constant Matrix: (Units=GPa)
#
#
# Indices 1 2 3 4 5 6 
#
# 1 90.0953 9.2372 18.8770 0.0000 19.7722 0.0000
# 2 9.2372 22.7007 4.3730 0.0000 6.9458 0.0000
# 3 18.8770 4.3730 18.7681 0.0000 20.7890 0.0000
# 4 0.0000 0.0000 0.0000 27.9468 0.0000 20.0456
# 5 19.7722 6.9458 20.7890 0.0000 36.7402 0.0000
# 6 0.0000 0.0000 0.0000 20.0456 0.0000 63.4880
#
#
#
# Elastic Compliance Matrix: (Units=1/GPa)
#
#
# Indices 1 2 3 4 5 6 
#
# 1 0.014319 -0.003361 -0.015505 0.000000 0.001703 0.000000
# 2 -0.003361 0.047606 0.000680 0.000000 -0.007576 0.000000
# 3 -0.015505 0.000680 0.159734 0.000000 -0.082168 0.000000
# 4 0.000000 0.000000 0.000000 0.046258 0.000000 -0.014606
# 5 0.001703 -0.007576 -0.082168 0.000000 0.074228 0.000000
# 6 0.000000 0.000000 0.000000 -0.014606 0.000000 0.020363
#
#
# Mechanical properties :
#
#
# Convention : Reuss Voigt Hill
#
# Bulk Modulus (GPa) = 5.39703 21.83762 13.61732
# Shear Modulus (GPa) = 10.85443 32.24013 21.54728
#
# Velocity S-wave (km/s) = 2.48991 4.29120 3.50814
# Velocity P-wave (km/s) = 3.36880 6.08485 4.91804
#
# Compressibility (1/GPa) = 0.18528711
#
# Stress axis : x y z
#
# Youngs Moduli (GPa) = 69.83775 21.00571 6.26042
#
# Poissons Ratio (x) = 0.07059 0.09707
# Poissons Ratio (y) = 0.23471 -0.00426
# Poissons Ratio (z) = 1.08285 -0.01429
#
# Static dielectric constant tensor:
#      x y z
#    x 1.606960 0.000000 0.032750 
#    y 0.000000 1.587540 0.000000 
#    z 0.032750 0.000000 1.601910 
# 
# From -- ./inp_files/87193.got.cif
#   From: 2010.05.17/outbox.cif.g08.bks.cpg/sg10_44_cif.got.tgz:87193.got - 2010.06.03 11:33:40.
