data_PCOD9141055
_publ_section_title
;
Structure prediction by ZEFSAII (Michael W. Deem and Ramdas Pophale) SiO2 
 PCOD9141055
Probable space group: C C
;
_chemical_formula_sum "Si O2"
_cell_formula_units_Z 24
_cell_length_a 5.124831
_cell_length_b 18.893923
_cell_length_c 12.558778
_cell_angle_alpha 90.000000
_cell_angle_beta 124.140046
_cell_angle_gamma 90.000000
_cell_volume 1006.480548
_symmetry_space_group_name_H-M "C C"
_symmetry_group_IT_number 9
_symmetry_cell_setting 'monoclinic'
loop_
_space_group_symop_operation_xyz
x,y,z
x,-y,1/2+z
1/2+x,1/2+y,z
1/2+x,1/2-y,1/2+z
loop_
_atom_site_type_symbol
_atom_site_label
_atom_site_fract_x
_atom_site_fract_y
_atom_site_fract_z
Si Si1 0.910760 0.088754 0.912450
Si Si2 0.154603 0.786737 0.347139
Si Si3 0.208895 0.962809 0.883663
Si Si4 0.772154 0.645886 0.666754
Si Si5 0.776243 0.699257 0.440541
Si Si6 0.429761 0.501819 0.596179
O O1 0.580047 0.119340 0.799943
O O2 0.161945 0.138506 0.911684
O O3 0.943921 0.007216 0.885318
O O4 0.963717 0.075080 0.047788
O O5 0.069196 0.808355 0.204794
O O6 0.477791 0.747320 0.398649
O O7 0.965812 0.737194 0.388091
O O8 0.131690 0.991580 0.749141
O O9 0.185704 0.878893 0.880335
O O10 0.551491 0.984302 0.010428
O O11 0.893648 0.685461 0.589122
O O12 0.573765 0.576790 0.588131
#
# Coordination Sequence:
#
# PCOD9141055 Si02
#       6
#     4   4   4   4   4   4
#     4  12  25  50  81 120 158 221 278 344 413 494
#     4  12  28  51  77 118 167 218 274 337 425 495
#     4  12  27  47  80 122 159 218 287 339 412 499
#     4  12  26  53  83 117 178 212 274 358 422 481
#     4  12  29  49  80 120 162 223 270 343 419 502
#     4  12  25  48  83 119 166 214 283 349 413 487
#
# _framework density 23.845469000000001
#
# number of rings (size 3 to 8) (size 9 to 14) (size 15 to 20)
#    0.000    0.000    6.667    2.000    2.333    2.667 
#    0.000    0.000    0.000    0.000    0.000    0.000 
#    0.000    0.000    0.000    0.000    0.000    0.000 
#
# Total GULP energy -66928.778489 kJ/mol
# GULP energy per Si atom -5577.398207 kJ/mol
# Density = 2.379120 g / cm^3
# Si number density = 23.845469 Si / 1000 Ang^3
#
#
#
# Elastic Constant Matrix: (Units=GPa)
#
#
# Indices 1 2 3 4 5 6 
#
# 1 137.4032 22.1640 81.1682 0.0000 8.0998 0.0000
# 2 22.1640 60.7946 119.4678 0.0000 22.8094 0.0000
# 3 81.1682 119.4678 55.1929 0.0000 -36.9638 0.0000
# 4 0.0000 0.0000 0.0000 39.8860 0.0000 -15.6438
# 5 8.0998 22.8094 -36.9638 0.0000 14.3462 0.0000
# 6 0.0000 0.0000 0.0000 -15.6438 0.0000 55.8662
#
#
#
# Elastic Compliance Matrix: (Units=1/GPa)
#
#
# Indices 1 2 3 4 5 6 
#
# 1 0.007680 -0.004352 0.000199 0.000000 0.003095 0.000000
# 2 -0.004352 0.003689 0.005330 0.000000 0.010324 0.000000
# 3 0.000199 0.005330 -0.000744 0.000000 -0.010502 0.000000
# 4 0.000000 0.000000 0.000000 0.028165 0.000000 0.007887
# 5 0.003095 0.010324 -0.010502 0.000000 0.024483 0.000000
# 6 0.000000 0.000000 0.000000 0.007887 0.000000 0.020108
#
#
# Mechanical properties :
#
#
# Convention : Reuss Voigt Hill
#
# Bulk Modulus (GPa) = 77.05473 77.66565 77.36019
# Shear Modulus (GPa) = 58.57943 24.05907 41.31925
#
# Velocity S-wave (km/s) = 4.96181 3.17986 4.16720
# Velocity P-wave (km/s) = 8.07530 6.79140 7.46102
#
# Compressibility (1/GPa) = 0.01297779
#
# Stress axis : x y z
#
# Youngs Moduli (GPa) = 130.20950 271.08639 -1344.40458
#
# Poissons Ratio (x) = 1.17976 0.26728
# Poissons Ratio (y) = 0.56667 7.16508
# Poissons Ratio (z) = -0.02589 -1.44477
#
# Static dielectric constant tensor:
#      x y z
#    x 2.253810 0.000000 -0.317270 
#    y 0.000000 1.917690 0.000000 
#    z -0.317270 0.000000 2.353160 
# 
# From -- ./inp_files/13409.got.cif
#   From: 2010.05.17/outbox.cif.g08.bks.cpg/sg9_7_cif.got.tgz:13409.got - 2010.06.03 20:04:27.
