data_PCOD9141053
_publ_section_title
;
Structure prediction by ZEFSAII (Michael W. Deem and Ramdas Pophale) SiO2 
 PCOD9141053
Probable space group: C C
;
_chemical_formula_sum "Si O2"
_cell_formula_units_Z 32
_cell_length_a 9.393364
_cell_length_b 11.232995
_cell_length_c 13.490718
_cell_angle_alpha 90.000000
_cell_angle_beta 116.960332
_cell_angle_gamma 90.000000
_cell_volume 1268.778287
_symmetry_space_group_name_H-M "C C"
_symmetry_group_IT_number 9
_symmetry_cell_setting 'monoclinic'
loop_
_space_group_symop_operation_xyz
x,y,z
x,-y,1/2+z
1/2+x,1/2+y,z
1/2+x,1/2-y,1/2+z
loop_
_atom_site_type_symbol
_atom_site_label
_atom_site_fract_x
_atom_site_fract_y
_atom_site_fract_z
Si Si1 0.969920 0.920179 0.234460
Si Si2 0.817590 0.422527 0.665521
Si Si3 0.135645 0.311237 0.139301
Si Si4 0.830899 0.877118 0.892394
Si Si5 0.802852 0.389558 0.440843
Si Si6 0.880005 0.822214 0.677489
Si Si7 0.543331 0.952083 0.909954
Si Si8 0.123535 0.152961 0.598325
O O1 0.798679 0.879387 0.223413
O O2 0.124693 0.933294 0.353632
O O3 0.021465 0.826411 0.165707
O O4 0.937316 0.045657 0.168239
O O5 0.687221 0.319605 0.620934
O O6 0.868905 0.431470 0.567885
O O7 0.747524 0.551581 0.667914
O O8 0.939298 0.388046 0.791067
O O9 0.010725 0.276945 0.186769
O O10 0.070032 0.379313 0.020865
O O11 0.790724 0.752026 0.932377
O O12 0.837268 0.845406 0.779290
O O13 0.708898 0.969481 0.903178
O O14 0.009545 0.903583 0.981474
O O15 0.936794 0.435889 0.407369
O O16 0.714719 0.767450 0.585735
#
# Coordination Sequence:
#
# PCOD9141053 Si02
#       8
#     4   4   4   4   4   4   4   4
#     4  12  25  52  78 114 158 203 267 328 401 480
#     4  12  25  50  79 109 162 207 259 338 393 474
#     4  12  27  49  83 114 152 213 267 322 409 478
#     4  12  27  46  76 119 154 208 266 332 400 481
#     4  12  25  48  81 111 160 206 256 340 399 479
#     4  12  28  49  78 118 155 206 268 332 395 483
#     4  12  26  46  82 117 152 215 269 315 416 474
#     4  12  25  50  75 110 161 202 260 327 403 471
#
# _framework density 25.221112999999999
#
# number of rings (size 3 to 8) (size 9 to 14) (size 15 to 20)
#    0.000    0.000    6.250    2.250    3.500    3.000 
#    0.000    0.000    2.750    0.000    0.000    0.000 
#    0.000    0.000    0.000    0.000    0.000    0.000 
#
# Total GULP energy -89417.730769 kJ/mol
# GULP energy per Si atom -5588.608173 kJ/mol
# Density = 2.516371 g / cm^3
# Si number density = 25.221113 Si / 1000 Ang^3
#
#
#
# Elastic Constant Matrix: (Units=GPa)
#
#
# Indices 1 2 3 4 5 6 
#
# 1 162.0932 49.7822 49.2893 0.0000 -3.2678 0.0000
# 2 49.7822 73.4730 22.5622 0.0000 19.1080 0.0000
# 3 49.2893 22.5622 110.7403 0.0000 10.8838 0.0000
# 4 0.0000 0.0000 0.0000 21.5367 0.0000 7.6924
# 5 -3.2678 19.1080 10.8838 0.0000 40.5233 0.0000
# 6 0.0000 0.0000 0.0000 7.6924 0.0000 57.4846
#
#
#
# Elastic Compliance Matrix: (Units=1/GPa)
#
#
# Indices 1 2 3 4 5 6 
#
# 1 0.009243 -0.006479 -0.003253 0.000000 0.004674 0.000000
# 2 -0.006479 0.020764 -0.000342 0.000000 -0.010221 0.000000
# 3 -0.003253 -0.000342 0.010844 0.000000 -0.003014 0.000000
# 4 0.000000 0.000000 0.000000 0.048763 0.000000 -0.006525
# 5 0.004674 -0.010221 -0.003014 0.000000 0.030683 0.000000
# 6 0.000000 0.000000 0.000000 -0.006525 0.000000 0.018269
#
#
# Mechanical properties :
#
#
# Convention : Reuss Voigt Hill
#
# Bulk Modulus (GPa) = 48.30511 65.50823 56.90667
# Shear Modulus (GPa) = 30.19060 38.88709 34.53885
#
# Velocity S-wave (km/s) = 3.46358 3.93090 3.70461
# Velocity P-wave (km/s) = 5.93206 6.82880 6.39617
#
# Compressibility (1/GPa) = 0.02070174
#
# Stress axis : x y z
#
# Youngs Moduli (GPa) = 108.19515 48.16120 92.21743
#
# Poissons Ratio (x) = 0.31204 0.29999
# Poissons Ratio (y) = 0.70099 0.03155
# Poissons Ratio (z) = 0.35197 0.01647
#
# Static dielectric constant tensor:
#      x y z
#    x 2.101590 0.000000 0.011370 
#    y 0.000000 2.002230 0.000000 
#    z 0.011370 0.000000 2.012280 
# 
# From -- ./inp_files/22952.got.cif
#   From: 2010.05.17/outbox.cif.g08.bks.cpg/sg9_12_cif.got.tgz:22952.got - 2010.06.03 20:04:27.
