data_PCOD9141968
_publ_section_title
;
Structure prediction by ZEFSAII (Michael W. Deem and Ramdas Pophale) SiO2 
 PCOD9141968
Probable space group: P 2/M
;
_chemical_formula_sum "Si O2"
_cell_formula_units_Z 26
_cell_length_a 8.913959
_cell_length_b 14.435035
_cell_length_c 13.340731
_cell_angle_alpha 90.000000
_cell_angle_beta 57.473453
_cell_angle_gamma 90.000000
_cell_volume 1447.334898
_symmetry_space_group_name_H-M "P 2/M"
_symmetry_group_IT_number 10
_symmetry_cell_setting 'monoclinic'
loop_
_space_group_symop_operation_xyz
x,y,z
-x,y,-z
-x,-y,-z
x,-y,z
loop_
_atom_site_type_symbol
_atom_site_label
_atom_site_fract_x
_atom_site_fract_y
_atom_site_fract_z
Si Si1 0.523732 0.759661 0.104972
Si Si2 0.861125 0.110246 0.961471
Si Si3 0.364603 0.606438 0.776735
Si Si4 0.056934 0.604720 0.737599
Si Si5 0.000000 0.756341 0.500000
Si Si6 0.877557 0.207118 0.749252
Si Si7 0.269031 0.602689 0.455187
O O1 0.676017 0.837419 0.048471
O O2 0.584559 0.678568 0.156486
O O3 0.331019 0.801219 0.200653
O O4 0.500000 0.724098 0.000000
O O5 0.837179 0.000000 0.968455
O O6 0.922713 0.145453 0.829647
O O7 0.000000 0.133380 0.000000
O O8 0.364842 0.500000 0.812674
O O9 0.175062 0.624305 0.793186
O O10 0.521359 0.612764 0.636867
O O11 0.982987 0.500000 0.769963
O O12 0.195405 0.605208 0.594449
O O13 0.919243 0.686417 0.766245
O O14 0.010210 0.810869 0.392145
O O15 0.166876 0.685797 0.437981
O O16 0.221223 0.500000 0.431161
#
# Coordination Sequence:
#
# PCOD9141968 Si02
#       7
#     4   4   4   4   2   4   4
#     4  10  21  35  54  79 107 137 179 223 264 316
#     4  10  22  42  66  83  98 129 176 226 271 322
#     4  10  18  30  47  72 109 149 187 224 260 301
#     4   9  18  30  48  75 109 149 186 219 255 303
#     4  10  17  30  49  80 118 144 174 214 268 320
#     4  10  20  34  55  84 112 143 177 218 267 318
#     4   9  16  26  45  71 105 148 191 222 250 297
#
# _framework density 17.964051000000001
#
# number of rings (size 3 to 8) (size 9 to 14) (size 15 to 20)
#    0.000    2.308    1.538    1.615    0.000    6.154 
#    0.000    2.692    0.000    8.308    0.000    2.154 
#    0.000    0.000    0.000    0.000    0.000    0.000 
#
# Total GULP energy -144951.707325 kJ/mol
# GULP energy per Si atom -5575.065666 kJ/mol
# Density = 1.792316 g / cm^3
# Si number density = 17.964051 Si / 1000 Ang^3
#
#
#
# Elastic Constant Matrix: (Units=GPa)
#
#
# Indices 1 2 3 4 5 6 
#
# 1 90.4464 47.0808 37.1377 0.0000 10.7836 0.0000
# 2 47.0808 65.3243 40.2052 0.0000 10.4271 0.0000
# 3 37.1377 40.2052 73.4765 0.0000 10.8104 0.0000
# 4 0.0000 0.0000 0.0000 10.8624 0.0000 -17.6614
# 5 10.7836 10.4271 10.8104 0.0000 27.5037 0.0000
# 6 0.0000 0.0000 0.0000 -17.6614 0.0000 -38.8373
#
#
#
# Elastic Compliance Matrix: (Units=1/GPa)
#
#
# Indices 1 2 3 4 5 6 
#
# 1 0.018216 -0.011063 -0.002887 0.000000 -0.001813 0.000000
# 2 -0.011063 0.030226 -0.010508 0.000000 -0.002992 0.000000
# 3 -0.002887 -0.010508 0.021298 0.000000 -0.003256 0.000000
# 4 0.000000 0.000000 0.000000 0.052927 0.000000 -0.024069
# 5 -0.001813 -0.002992 -0.003256 0.000000 0.039484 0.000000
# 6 0.000000 0.000000 0.000000 -0.024069 0.000000 -0.014803
#
#
# Mechanical properties :
#
#
# Convention : Reuss Voigt Hill
#
# Bulk Modulus (GPa) = 48.01836 53.12162 50.56999
# Shear Modulus (GPa) = 24.60579 6.89399 15.74989
#
# Velocity S-wave (km/s) = 3.70499 1.96112 2.96420
# Velocity P-wave (km/s) = 6.71498 5.89604 6.31879
#
# Compressibility (1/GPa) = 0.02082537
#
# Stress axis : x y z
#
# Youngs Moduli (GPa) = 54.89536 33.08410 46.95356
#
# Poissons Ratio (x) = 0.36600 0.13556
# Poissons Ratio (y) = 0.60729 0.49337
# Poissons Ratio (z) = 0.15849 0.34763
#
# Static dielectric constant tensor:
#      x y z
#    x 1.629410 0.000000 0.007040 
#    y 0.000000 1.590030 0.000000 
#    z 0.007040 0.000000 1.653060 
# 
# From -- ./inp_files/28416.got.cif
#   From: 2010.05.17/outbox.cif.g08.bks.cpg/sg10_15_cif.got.tgz:28416.got - 2010.06.03 11:33:40.
