data_PCOD9141725
_publ_section_title
;
Structure prediction by ZEFSAII (Michael W. Deem and Ramdas Pophale) SiO2 
 PCOD9141725
Probable space group: P 2/M
;
_chemical_formula_sum "Si O2"
_cell_formula_units_Z 30
_cell_length_a 22.561892
_cell_length_b 11.315089
_cell_length_c 10.296617
_cell_angle_alpha 90.000000
_cell_angle_beta 37.248275
_cell_angle_gamma 90.000000
_cell_volume 1591.025770
_symmetry_space_group_name_H-M "P 2/M"
_symmetry_group_IT_number 10
_symmetry_cell_setting 'monoclinic'
loop_
_space_group_symop_operation_xyz
x,y,z
-x,y,-z
-x,-y,-z
x,-y,z
loop_
_atom_site_type_symbol
_atom_site_label
_atom_site_fract_x
_atom_site_fract_y
_atom_site_fract_z
Si Si1 0.500000 0.292120 0.500000
Si Si2 0.680806 0.862648 0.874755
Si Si3 0.897032 0.373581 0.601946
Si Si4 0.824469 0.139386 0.091294
Si Si5 0.537402 0.862574 0.690146
Si Si6 0.032533 0.868508 0.594275
Si Si7 0.714102 0.292572 0.071849
Si Si8 0.271621 0.142691 0.485411
O O1 0.477133 0.211564 0.414791
O O2 0.607054 0.350286 0.285129
O O3 0.730574 0.813646 0.657654
O O4 0.705767 0.000000 0.851491
O O5 0.563960 0.856845 0.054828
O O6 0.698878 0.796141 0.977248
O O7 0.890138 0.500000 0.542243
O O8 0.000000 0.375043 0.500000
O O9 0.902461 0.249649 0.514785
O O10 0.806239 0.367852 0.860459
O O11 0.753135 0.218023 0.126855
O O12 0.812170 0.171123 0.264168
O O13 0.798292 0.000000 0.122028
O O14 0.934600 0.151653 0.847959
O O15 0.628205 0.821128 0.617535
O O16 0.554160 0.000000 0.625940
O O17 0.000000 0.877065 0.500000
O O18 0.072469 0.000000 0.559484
O O19 0.274818 0.000000 0.467705
#
# Coordination Sequence:
#
# PCOD9141725 Si02
#       8
#     2   4   4   4   4   4   4   4
#     4  10  19  26  41  72 106 128 171 218 263 302
#     4   9  18  27  39  63 100 140 177 213 256 308
#     4  10  20  35  55  80 105 134 174 221 265 312
#     4  10  17  26  45  71 100 133 170 213 260 305
#     4   9  15  23  37  58  95 141 181 213 252 300
#     4   9  16  28  48  78 104 126 165 216 264 307
#     4  11  19  31  47  73 101 133 171 216 261 309
#     4   9  16  26  39  60  97 143 180 211 253 308
#
# _framework density 18.855758999999999
#
# number of rings (size 3 to 8) (size 9 to 14) (size 15 to 20)
#    0.000    2.400    4.000    1.000    0.000    3.200 
#    0.000    0.333    0.000    0.800    0.000    6.533 
#    0.000    2.400    0.000    0.000    0.000    0.000 
#
# Total GULP energy -167001.363851 kJ/mol
# GULP energy per Si atom -5566.712128 kJ/mol
# Density = 1.881284 g / cm^3
# Si number density = 18.855759 Si / 1000 Ang^3
#
#
#
# Elastic Constant Matrix: (Units=GPa)
#
#
# Indices 1 2 3 4 5 6 
#
# 1 50.7782 13.7308 34.6350 0.0000 2.6822 0.0000
# 2 13.7308 82.0789 25.1363 0.0000 -5.0392 0.0000
# 3 34.6350 25.1363 146.8332 0.0000 -11.8515 0.0000
# 4 0.0000 0.0000 0.0000 -13.4163 0.0000 10.3046
# 5 2.6822 -5.0392 -11.8515 0.0000 40.9702 0.0000
# 6 0.0000 0.0000 0.0000 10.3046 0.0000 -10.0621
#
#
#
# Elastic Compliance Matrix: (Units=1/GPa)
#
#
# Indices 1 2 3 4 5 6 
#
# 1 0.024397 -0.002584 -0.005598 0.000000 -0.003534 0.000000
# 2 -0.002584 0.013169 -0.001536 0.000000 0.001344 0.000000
# 3 -0.005598 -0.001536 0.008609 0.000000 0.002668 0.000000
# 4 0.000000 0.000000 0.000000 -0.349252 0.000000 -0.357670
# 5 -0.003534 0.001344 0.002668 0.000000 0.025576 0.000000
# 6 0.000000 0.000000 0.000000 -0.357670 0.000000 -0.465675
#
#
# Mechanical properties :
#
#
# Convention : Reuss Voigt Hill
#
# Bulk Modulus (GPa) = 37.39878 47.41050 42.40464
# Shear Modulus (GPa) = -6.99470 17.24426 5.12478
#
# Velocity S-wave (km/s) = -1.92812 3.02741 1.65039
# Velocity P-wave (km/s) = 3.86269 6.11708 5.11561
#
# Compressibility (1/GPa) = 0.02673884
#
# Stress axis : x y z
#
# Youngs Moduli (GPa) = 40.98870 75.93761 116.15540
#
# Poissons Ratio (x) = 0.19623 0.65020
# Poissons Ratio (y) = 0.10592 0.17845
# Poissons Ratio (z) = 0.22944 0.11666
#
# Static dielectric constant tensor:
#      x y z
#    x 1.640660 0.000000 -0.041340 
#    y 0.000000 1.663280 0.000000 
#    z -0.041340 0.000000 1.723800 
# 
# From -- ./inp_files/58399.got.cif
#   From: 2010.05.17/outbox.cif.g08.bks.cpg/sg10_30_cif.got.tgz:58399.got - 2010.06.03 11:33:40.
