data_PCOD9141867
_publ_section_title
;
Structure prediction by ZEFSAII (Michael W. Deem and Ramdas Pophale) SiO2 
 PCOD9141867
Probable space group: P 2/M
;
_chemical_formula_sum "Si O2"
_cell_formula_units_Z 32
_cell_length_a 24.314093
_cell_length_b 8.800783
_cell_length_c 30.985986
_cell_angle_alpha 90.000000
_cell_angle_beta 163.422551
_cell_angle_gamma 90.000000
_cell_volume 1891.748795
_symmetry_space_group_name_H-M "P 2/M"
_symmetry_group_IT_number 10
_symmetry_cell_setting 'monoclinic'
loop_
_space_group_symop_operation_xyz
x,y,z
-x,y,-z
-x,-y,-z
x,-y,z
loop_
_atom_site_type_symbol
_atom_site_label
_atom_site_fract_x
_atom_site_fract_y
_atom_site_fract_z
Si Si1 0.331154 0.825456 0.140549
Si Si2 0.457019 0.316859 0.918135
Si Si3 0.978773 0.683387 0.033586
Si Si4 0.279074 0.682763 0.333341
Si Si5 0.985068 0.825410 0.174546
Si Si6 0.970270 0.315288 0.428397
Si Si7 0.347189 0.816995 0.016285
Si Si8 0.378544 0.682466 0.703185
O O1 0.517094 0.742446 0.261147
O O2 0.373491 0.000000 0.182730
O O3 0.177001 0.823494 0.985126
O O4 0.219570 0.744082 0.095258
O O5 0.468272 0.500000 0.920604
O O6 0.598931 0.240129 0.990522
O O7 0.238630 0.265759 0.744255
O O8 0.500000 0.282662 0.000000
O O9 0.975996 0.500000 0.032411
O O10 0.153398 0.733304 0.196929
O O11 0.000000 0.732779 0.000000
O O12 0.500000 0.737565 0.500000
O O13 0.282285 0.500000 0.334614
O O14 0.162437 0.733633 0.288197
O O15 0.043895 0.000000 0.225661
O O16 0.864738 0.769645 0.125546
O O17 0.968603 0.500000 0.426987
O O18 0.156276 0.269376 0.540709
O O19 0.000000 0.265806 0.500000
O O20 0.504171 0.747489 0.167486
O O21 0.355656 0.000000 0.025525
O O22 0.390252 0.500000 0.713587
#
# Coordination Sequence:
#
# PCOD9141867 Si02
#       8
#     4   4   4   4   4   4   4   4
#     4   9  17  29  45  70 101 125 156 199 240 279
#     4  10  20  34  52  72  95 126 164 200 238 290
#     4   9  17  30  49  71  95 126 161 192 230 284
#     4   9  17  29  47  72  97 118 148 196 239 270
#     4   8  16  29  45  67  93 123 155 190 228 277
#     4   9  16  29  49  74  98 120 154 201 244 282
#     4  10  19  31  48  72 100 126 159 201 243 283
#     4  10  17  28  50  73  97 126 159 200 245 284
#
# _framework density 16.915565000000001
#
# number of rings (size 3 to 8) (size 9 to 14) (size 15 to 20)
#    0.000    2.750    1.250    1.875    0.000    4.250 
#    0.000    1.875    2.750    0.000    0.000    0.000 
#    0.000    0.000    0.000    0.000    0.000    0.000 
#
# Total GULP energy -178241.785975 kJ/mol
# GULP energy per Si atom -5570.055812 kJ/mol
# Density = 1.687706 g / cm^3
# Si number density = 16.915565 Si / 1000 Ang^3
#
#
#
# Elastic Constant Matrix: (Units=GPa)
#
#
# Indices 1 2 3 4 5 6 
#
# 1 158.1466 35.5160 69.7499 0.0000 29.5717 0.0000
# 2 35.5160 26.6099 23.6794 0.0000 7.4638 0.0000
# 3 69.7499 23.6794 92.3338 0.0000 23.5870 0.0000
# 4 0.0000 0.0000 0.0000 2.0741 0.0000 -0.3727
# 5 29.5717 7.4638 23.5870 0.0000 29.8947 0.0000
# 6 0.0000 0.0000 0.0000 -0.3727 0.0000 18.3947
#
#
#
# Elastic Compliance Matrix: (Units=1/GPa)
#
#
# Indices 1 2 3 4 5 6 
#
# 1 0.011675 -0.009665 -0.005019 0.000000 -0.005176 0.000000
# 2 -0.009665 0.056892 -0.007644 0.000000 0.001387 0.000000
# 3 -0.005019 -0.007644 0.018568 0.000000 -0.007778 0.000000
# 4 0.000000 0.000000 0.000000 0.483891 0.000000 0.009804
# 5 -0.005176 0.001387 -0.007778 0.000000 0.044361 0.000000
# 6 0.000000 0.000000 0.000000 0.009804 0.000000 0.054562
#
#
# Mechanical properties :
#
#
# Convention : Reuss Voigt Hill
#
# Bulk Modulus (GPa) = 23.53954 59.44231 41.49092
# Shear Modulus (GPa) = 6.86091 19.94905 13.40498
#
# Velocity S-wave (km/s) = 2.01613 3.43786 2.81813
# Velocity P-wave (km/s) = 4.40066 7.13971 5.93048
#
# Compressibility (1/GPa) = 0.04248171
#
# Stress axis : x y z
#
# Youngs Moduli (GPa) = 85.65266 17.57702 53.85469
#
# Poissons Ratio (x) = 0.16988 0.27027
# Poissons Ratio (y) = 0.82782 0.41165
# Poissons Ratio (z) = 0.42985 0.13435
#
# Static dielectric constant tensor:
#      x y z
#    x 1.575210 0.000000 0.013820 
#    y 0.000000 1.573890 0.000000 
#    z 0.013820 0.000000 1.568500 
# 
# From -- ./inp_files/86147.got.cif
#   From: 2010.05.17/outbox.cif.g08.bks.cpg/sg10_44_cif.got.tgz:86147.got - 2010.06.03 11:33:40.
