data_PCOD9141858
_publ_section_title
;
Structure prediction by ZEFSAII (Michael W. Deem and Ramdas Pophale) SiO2 
 PCOD9141858
Probable space group: P 2/M
;
_chemical_formula_sum "Si O2"
_cell_formula_units_Z 32
_cell_length_a 20.774254
_cell_length_b 9.437240
_cell_length_c 16.765543
_cell_angle_alpha 90.000000
_cell_angle_beta 27.835789
_cell_angle_gamma 90.000000
_cell_volume 1534.787643
_symmetry_space_group_name_H-M "P 2/M"
_symmetry_group_IT_number 10
_symmetry_cell_setting 'monoclinic'
loop_
_space_group_symop_operation_xyz
x,y,z
-x,y,-z
-x,-y,-z
x,-y,z
loop_
_atom_site_type_symbol
_atom_site_label
_atom_site_fract_x
_atom_site_fract_y
_atom_site_fract_z
Si Si1 0.391187 0.157502 0.356378
Si Si2 0.981372 0.168716 0.819688
Si Si3 0.850180 0.838872 0.508073
Si Si4 0.376620 0.341675 0.947607
Si Si5 0.286156 0.337637 0.863250
Si Si6 0.663257 0.335933 0.831484
Si Si7 0.141339 0.832017 0.802513
Si Si8 0.595603 0.668577 0.499910
O O1 0.266697 0.152281 0.432045
O O2 0.384525 0.276475 0.431353
O O3 0.408331 0.000000 0.373670
O O4 0.522004 0.208480 0.163058
O O5 0.023345 0.219692 0.684643
O O6 0.102473 0.190069 0.751964
O O7 0.961462 0.000000 0.835908
O O8 0.844470 0.238731 0.004843
O O9 0.776013 0.750340 0.657974
O O10 0.882231 0.000000 0.499354
O O11 0.444602 0.500000 0.876566
O O12 0.297856 0.331213 0.117403
O O13 0.306511 0.337194 0.937744
O O14 0.258200 0.500000 0.869743
O O15 0.434065 0.296008 0.662504
O O16 0.666600 0.500000 0.801269
O O17 0.500000 0.291660 0.000000
O O18 0.275812 0.746423 0.681803
O O19 0.163424 0.000000 0.791041
O O20 0.000000 0.790056 0.000000
O O21 0.607640 0.500000 0.479255
#
# Coordination Sequence:
#
# PCOD9141858 Si02
#       8
#     4   4   4   4   4   4   4   4
#     4  10  17  28  49  76 106 139 178 225 275 323
#     4  10  21  39  58  82 112 143 184 230 275 332
#     4  10  20  32  48  74 107 139 178 230 279 329
#     4   9  18  33  49  73 109 140 182 235 276 326
#     4   9  20  37  57  81 109 149 192 230 272 324
#     4  10  19  30  48  75 106 142 184 233 286 335
#     4  10  21  39  63  90 119 147 179 224 275 328
#     4  10  20  35  57  85 116 146 185 229 270 325
#
# _framework density 20.849789000000001
#
# number of rings (size 3 to 8) (size 9 to 14) (size 15 to 20)
#    0.000    2.250    2.500    1.500    0.000    5.000 
#    0.000    1.250    0.000    7.500    0.000    0.000 
#    0.000    0.000    0.000    0.000    0.000    0.000 
#
# Total GULP energy -178267.282744 kJ/mol
# GULP energy per Si atom -5570.852586 kJ/mol
# Density = 2.080233 g / cm^3
# Si number density = 20.849789 Si / 1000 Ang^3
#
#
#
# Elastic Constant Matrix: (Units=GPa)
#
#
# Indices 1 2 3 4 5 6 
#
# 1 48.2323 18.5691 24.3627 0.0000 3.2177 0.0000
# 2 18.5691 43.4538 61.1028 0.0000 -7.2049 0.0000
# 3 24.3627 61.1028 149.7410 0.0000 2.2050 0.0000
# 4 0.0000 0.0000 0.0000 42.6845 0.0000 -4.0618
# 5 3.2177 -7.2049 2.2050 0.0000 34.3255 0.0000
# 6 0.0000 0.0000 0.0000 -4.0618 0.0000 12.6953
#
#
#
# Elastic Compliance Matrix: (Units=1/GPa)
#
#
# Indices 1 2 3 4 5 6 
#
# 1 0.025761 -0.014434 0.001780 0.000000 -0.005559 0.000000
# 2 -0.014434 0.068310 -0.025781 0.000000 0.017347 0.000000
# 3 0.001780 -0.025781 0.017007 0.000000 -0.006671 0.000000
# 4 0.000000 0.000000 0.000000 0.024163 0.000000 0.007731
# 5 -0.005559 0.017347 -0.006671 0.000000 0.033724 0.000000
# 6 0.000000 0.000000 0.000000 0.007731 0.000000 0.081243
#
#
# Mechanical properties :
#
#
# Convention : Reuss Voigt Hill
#
# Bulk Modulus (GPa) = 29.23230 49.94405 39.58818
# Shear Modulus (GPa) = 14.77189 27.10056 20.93623
#
# Velocity S-wave (km/s) = 2.66464 3.60919 3.17226
# Velocity P-wave (km/s) = 4.84953 6.43230 5.69616
#
# Compressibility (1/GPa) = 0.03420873
#
# Stress axis : x y z
#
# Youngs Moduli (GPa) = 38.81763 14.63919 58.79911
#
# Poissons Ratio (x) = 0.21130 -0.10468
# Poissons Ratio (y) = 0.56028 1.51592
# Poissons Ratio (z) = -0.06911 0.37742
#
# Static dielectric constant tensor:
#      x y z
#    x 1.780990 0.000000 0.039260 
#    y 0.000000 1.727980 0.000000 
#    z 0.039260 0.000000 1.819220 
# 
# From -- ./inp_files/86818.got.cif
#   From: 2010.05.17/outbox.cif.g08.bks.cpg/sg10_44_cif.got.tgz:86818.got - 2010.06.03 11:33:40.
