data_PCOD9141983
_publ_section_title
;
Structure prediction by ZEFSAII (Michael W. Deem and Ramdas Pophale) SiO2 
 PCOD9141983
Probable space group: P 2/M
;
_chemical_formula_sum "Si O2"
_cell_formula_units_Z 30
_cell_length_a 12.674154
_cell_length_b 13.337774
_cell_length_c 19.599591
_cell_angle_alpha 90.000000
_cell_angle_beta 147.778734
_cell_angle_gamma 90.000000
_cell_volume 1766.573023
_symmetry_space_group_name_H-M "P 2/M"
_symmetry_group_IT_number 10
_symmetry_cell_setting 'monoclinic'
loop_
_space_group_symop_operation_xyz
x,y,z
-x,y,-z
-x,-y,-z
x,-y,z
loop_
_atom_site_type_symbol
_atom_site_label
_atom_site_fract_x
_atom_site_fract_y
_atom_site_fract_z
Si Si1 0.291567 0.253465 0.020020
Si Si2 0.236171 0.882543 0.119713
Si Si3 0.840006 0.618991 0.268847
Si Si4 0.500000 0.732873 0.000000
Si Si5 0.903756 0.614305 0.806121
Si Si6 0.733889 0.384250 0.562428
Si Si7 0.388790 0.618806 0.730023
Si Si8 0.559483 0.287663 0.690173
O O1 0.077830 0.304568 0.895070
O O2 0.286814 0.168778 0.075153
O O3 0.390765 0.215083 0.004211
O O4 0.428068 0.343601 0.123636
O O5 0.356594 0.820286 0.242668
O O6 0.282119 0.000000 0.146364
O O7 0.000000 0.870067 0.000000
O O8 0.808237 0.500000 0.246832
O O9 0.798050 0.647155 0.324684
O O10 0.060204 0.637861 0.363485
O O11 0.677148 0.669331 0.131174
O O12 0.977489 0.500000 0.854845
O O13 0.783047 0.617386 0.669152
O O14 0.754631 0.644137 0.785168
O O15 0.671520 0.500000 0.511485
O O16 0.573364 0.305048 0.449066
O O17 0.388419 0.500000 0.719331
O O18 0.423351 0.671983 0.677219
#
# Coordination Sequence:
#
# PCOD9141983 Si02
#       8
#     4   4   4   2   4   4   4   4
#     4  10  19  32  52  81 104 135 172 215 266 310
#     4  10  21  40  61  78  97 126 172 229 283 321
#     4   9  17  28  45  71 106 148 183 210 241 288
#     4  10  17  30  51  76 108 136 178 216 250 304
#     4  11  20  31  49  77 114 149 174 200 244 304
#     4  10  20  32  48  75 111 153 182 201 239 300
#     4   9  18  29  45  73 106 139 177 219 251 293
#     4  11  21  34  51  74 103 141 178 214 257 313
#
# _framework density 16.982032
#
# number of rings (size 3 to 8) (size 9 to 14) (size 15 to 20)
#    0.000    2.000    2.667    2.200    0.000    2.667 
#    0.000    4.333    0.000    2.400    0.000   12.133 
#    0.000    0.000    0.000    0.000    0.000    0.000 
#
# Total GULP energy -167179.626896 kJ/mol
# GULP energy per Si atom -5572.654230 kJ/mol
# Density = 1.694338 g / cm^3
# Si number density = 16.982032 Si / 1000 Ang^3
#
#
#
# Elastic Constant Matrix: (Units=GPa)
#
#
# Indices 1 2 3 4 5 6 
#
# 1 94.5247 22.0613 2.2354 0.0000 6.3732 0.0000
# 2 22.0613 81.7389 32.9767 0.0000 4.7820 0.0000
# 3 2.2354 32.9767 50.4059 0.0000 1.1677 0.0000
# 4 0.0000 0.0000 0.0000 19.4495 0.0000 0.9946
# 5 6.3732 4.7820 1.1677 0.0000 16.0855 0.0000
# 6 0.0000 0.0000 0.0000 0.9946 0.0000 10.8913
#
#
#
# Elastic Compliance Matrix: (Units=1/GPa)
#
#
# Indices 1 2 3 4 5 6 
#
# 1 0.011652 -0.003746 0.002018 0.000000 -0.003650 0.000000
# 2 -0.003746 0.018108 -0.011609 0.000000 -0.003056 0.000000
# 3 0.002018 -0.011609 0.027329 0.000000 0.000668 0.000000
# 4 0.000000 0.000000 0.000000 0.051656 0.000000 -0.004718
# 5 -0.003650 -0.003056 0.000668 0.000000 0.064474 0.000000
# 6 0.000000 0.000000 0.000000 -0.004718 0.000000 0.092247
#
#
# Mechanical properties :
#
#
# Convention : Reuss Voigt Hill
#
# Bulk Modulus (GPa) = 32.87858 37.91292 35.39575
# Shear Modulus (GPa) = 16.54109 20.57835 18.55972
#
# Velocity S-wave (km/s) = 3.12434 3.48483 3.30949
# Velocity P-wave (km/s) = 5.69369 6.21014 5.95751
#
# Compressibility (1/GPa) = 0.03041493
#
# Stress axis : x y z
#
# Youngs Moduli (GPa) = 85.82394 55.22569 36.59093
#
# Poissons Ratio (x) = 0.20685 -0.07385
# Poissons Ratio (y) = 0.32146 0.42480
# Poissons Ratio (z) = -0.17321 0.64114
#
# Static dielectric constant tensor:
#      x y z
#    x 1.639080 0.000000 -0.010670 
#    y 0.000000 1.529890 0.000000 
#    z -0.010670 0.000000 1.590200 
# 
# From -- ./inp_files/76690.got.cif
#   From: 2010.05.17/outbox.cif.g08.bks.cpg/sg10_39_cif.got.tgz:76690.got - 2010.06.03 11:33:40.
