data_PCOD9141269
_publ_section_title
;
Structure prediction by ZEFSAII (Michael W. Deem and Ramdas Pophale) SiO2 
 PCOD9141269
Probable space group: C C
;
_chemical_formula_sum "Si O2"
_cell_formula_units_Z 16
_cell_length_a 21.000000
_cell_length_b 15.000000
_cell_length_c 15.000000
_cell_angle_alpha 90.000000
_cell_angle_beta 20.000000
_cell_angle_gamma 90.000000
_cell_volume 1616.045177
_symmetry_space_group_name_H-M "C C"
_symmetry_group_IT_number 9
_symmetry_cell_setting 'monoclinic'
loop_
_space_group_symop_operation_xyz
x,y,z
x,-y,1/2+z
1/2+x,1/2+y,z
1/2+x,1/2-y,1/2+z
loop_
_atom_site_type_symbol
_atom_site_label
_atom_site_fract_x
_atom_site_fract_y
_atom_site_fract_z
Si Si1 0.856710 0.975010 0.579540
Si Si2 0.050116 0.716303 0.217695
Si Si3 0.408065 0.388406 0.328754
Si Si4 0.268247 0.947338 0.549522
Si Si5 0.338909 0.851716 0.273446
Si Si6 0.503133 0.915644 0.619554
Si Si7 0.253966 0.282118 0.746265
Si Si8 0.263811 0.959422 0.770201
O O1 0.863325 0.875861 0.614670
O O2 0.831473 0.954892 0.506334
O O3 0.052847 0.024111 0.330497
O O4 0.691620 0.032420 0.841536
O O5 0.870925 0.719524 0.522190
O O6 0.047860 0.821123 0.197267
O O7 0.031456 0.670445 0.144722
O O8 0.231745 0.668818 0.022860
O O9 0.545178 0.435402 0.077015
O O10 0.296563 0.869957 0.434750
O O11 0.310036 0.943997 0.603093
O O12 0.391730 0.022321 0.337135
O O13 0.226421 0.773015 0.373003
O O14 0.301055 0.941135 0.263534
O O15 0.552508 0.818169 0.980249
O O16 0.391573 0.903481 0.672871
#
# Coordination Sequence:
#
# PCOD9141269 Si02
#       8
#     4   4   4   4   4   4   4   4
#     4  11  22  42  70 101 140 184 235 296 355 423
#     4  11  24  38  71 105 137 181 238 296 353 407
#     4  11  23  43  70 106 139 185 236 297 354 427
#     4  11  24  42  67 100 141 190 229 295 362 431
#     4  11  24  45  66 107 142 184 240 294 361 422
#     4  11  23  43  67 105 137 184 245 289 357 427
#     4  11  23  42  72 107 141 176 240 302 350 421
#     4  11  23  45  69  97 149 186 241 291 358 440
#
# _framework density 9.9007129999999997
#
# number of rings (size 3 to 8) (size 9 to 14) (size 15 to 20)
#    0.000    1.000    5.000    3.750    7.000    0.000 
#    0.000    5.000    0.000    0.000    0.000    0.000 
#    0.000    0.000    0.000    0.000    0.000    0.000 
#
# Total GULP energy -89145.295103 kJ/mol
# GULP energy per Si atom -5571.580944 kJ/mol
# Density = 0.987818 g / cm^3
# Si number density = 9.900713 Si / 1000 Ang^3
#
#
#
# Elastic Constant Matrix: (Units=GPa)
#
#
# Indices 1 2 3 4 5 6 
#
# 1 153.0515 29.3218 51.1164 -0.0001 24.4129 -0.0002
# 2 29.3218 56.9139 35.9981 0.0002 4.6501 0.0000
# 3 51.1164 35.9981 149.9728 -0.0003 8.7952 0.0000
# 4 -0.0001 0.0002 -0.0003 47.1276 0.0001 5.1089
# 5 24.4129 4.6501 8.7952 0.0001 47.3853 0.0002
# 6 -0.0002 0.0000 0.0000 5.1089 0.0002 40.9887
#
#
#
# Elastic Compliance Matrix: (Units=1/GPa)
#
#
# Indices 1 2 3 4 5 6 
#
# 1 0.008292 -0.002738 -0.001956 0.000000 -0.003640 0.000000
# 2 -0.002738 0.021678 -0.004275 0.000000 0.000077 0.000000
# 3 -0.001956 -0.004275 0.008368 0.000000 -0.000126 0.000000
# 4 0.000000 0.000000 0.000000 0.021510 0.000000 -0.002681
# 5 -0.003640 0.000077 -0.000126 0.000000 0.022995 0.000000
# 6 0.000000 0.000000 0.000000 -0.002681 0.000000 0.024731
#
#
# Mechanical properties :
#
#
# Convention : Reuss Voigt Hill
#
# Bulk Modulus (GPa) = 49.01461 65.86787 57.44124
# Shear Modulus (GPa) = 37.78967 43.33378 40.56172
#
# Velocity S-wave (km/s) = 4.37330 4.68313 4.53086
# Velocity P-wave (km/s) = 7.09280 7.91067 7.51287
#
# Compressibility (1/GPa) = 0.02040208
#
# Stress axis : x y z
#
# Youngs Moduli (GPa) = 120.59737 46.12875 119.50378
#
# Poissons Ratio (x) = 0.12628 0.23371
# Poissons Ratio (y) = 0.33015 0.51087
# Poissons Ratio (z) = 0.23584 0.19720
#
# Static dielectric constant tensor:
#      x y z
#    x 1.757740 0.000000 -0.027790 
#    y 0.000000 1.761100 0.000000 
#    z -0.027790 0.000000 1.727870 
# 
# From -- ./inp_files/27468.got.cif
#   From: 2010.05.17/outbox.ucp.g08.bks.cvg/sg9_14_cif.got.tgz:27468.got - 2010.06.11 13:03:20.
