data_PCOD9141176
_publ_section_title
;
Structure prediction by ZEFSAII (Michael W. Deem and Ramdas Pophale) SiO2 
 PCOD9141176
Probable space group: C C
;
_chemical_formula_sum "Si O2"
_cell_formula_units_Z 24
_cell_length_a 10.410316
_cell_length_b 12.986480
_cell_length_c 8.443534
_cell_angle_alpha 90.000000
_cell_angle_beta 120.703206
_cell_angle_gamma 90.000000
_cell_volume 981.497128
_symmetry_space_group_name_H-M "C C"
_symmetry_group_IT_number 9
_symmetry_cell_setting 'monoclinic'
loop_
_space_group_symop_operation_xyz
x,y,z
x,-y,1/2+z
1/2+x,1/2+y,z
1/2+x,1/2-y,1/2+z
loop_
_atom_site_type_symbol
_atom_site_label
_atom_site_fract_x
_atom_site_fract_y
_atom_site_fract_z
Si Si1 0.931870 0.112090 0.082980
Si Si2 0.614954 0.518812 0.455534
Si Si3 0.295382 0.835175 0.487213
Si Si4 0.078324 0.648200 0.352225
Si Si5 0.875786 0.331425 0.192558
Si Si6 0.637411 0.960139 0.219670
O O1 0.922109 0.232950 0.116781
O O2 0.780660 0.084676 0.897966
O O3 0.967000 0.054031 0.269692
O O4 0.062492 0.061649 0.057264
O O5 0.726798 0.448368 0.422989
O O6 0.710509 0.620484 0.559109
O O7 0.163021 0.754582 0.421175
O O8 0.404818 0.833665 0.706383
O O9 0.382736 0.805486 0.382489
O O10 0.137704 0.582756 0.239813
O O11 0.117118 0.581415 0.530582
O O12 0.992272 0.420200 0.222688
#
# Coordination Sequence:
#
# PCOD9141176 Si02
#       6
#     4   4   4   4   4   4
#     4  12  29  49  84 121 164 216 281 339 415 497
#     4  12  27  54  81 119 167 220 277 344 411 499
#     4  12  30  51  81 118 163 217 274 341 421 492
#     4  12  30  50  81 116 161 212 268 338 414 494
#     4  12  28  52  82 118 162 219 273 344 415 490
#     4  12  28  52  79 118 159 210 269 340 408 492
#
# _framework density 24.452439999999999
#
# number of rings (size 3 to 8) (size 9 to 14) (size 15 to 20)
#    0.000    0.000    3.333    4.000   18.667    0.000 
#    0.000    0.000    0.000    0.000    0.000    0.000 
#    0.000    0.000    0.000    0.000    0.000    0.000 
#
# Total GULP energy -67211.320298 kJ/mol
# GULP energy per Si atom -5600.943358 kJ/mol
# Density = 2.439678 g / cm^3
# Si number density = 24.452440 Si / 1000 Ang^3
#
#
#
# Elastic Constant Matrix: (Units=GPa)
#
#
# Indices 1 2 3 4 5 6 
#
# 1 67.6351 16.6371 34.3412 0.0000 7.8770 0.0000
# 2 16.6371 143.2541 67.3177 0.0000 12.0545 0.0000
# 3 34.3412 67.3177 173.3754 0.0000 32.3689 0.0000
# 4 0.0000 0.0000 0.0000 39.6603 0.0000 1.7096
# 5 7.8770 12.0545 32.3689 0.0000 41.1010 0.0000
# 6 0.0000 0.0000 0.0000 1.7096 0.0000 49.0446
#
#
#
# Elastic Compliance Matrix: (Units=1/GPa)
#
#
# Indices 1 2 3 4 5 6 
#
# 1 0.016481 -0.000468 -0.002953 0.000000 -0.000696 0.000000
# 2 -0.000468 0.008552 -0.003255 0.000000 0.000145 0.000000
# 3 -0.002953 -0.003255 0.008597 0.000000 -0.005250 0.000000
# 4 0.000000 0.000000 0.000000 0.025252 0.000000 -0.000880
# 5 -0.000696 0.000145 -0.005250 0.000000 0.028556 0.000000
# 6 0.000000 0.000000 0.000000 -0.000880 0.000000 0.020420
#
#
# Mechanical properties :
#
#
# Convention : Reuss Voigt Hill
#
# Bulk Modulus (GPa) = 49.31411 68.98406 59.14909
# Shear Modulus (GPa) = 39.07212 43.69241 41.38227
#
# Velocity S-wave (km/s) = 4.00169 4.23168 4.11829
# Velocity P-wave (km/s) = 6.44690 7.22142 6.84512
#
# Compressibility (1/GPa) = 0.02027817
#
# Stress axis : x y z
#
# Youngs Moduli (GPa) = 60.67733 116.92678 116.32388
#
# Poissons Ratio (x) = 0.05471 0.34348
# Poissons Ratio (y) = 0.02839 0.37864
# Poissons Ratio (z) = 0.17917 0.38060
#
# Static dielectric constant tensor:
#      x y z
#    x 1.984080 0.000000 -0.052970 
#    y 0.000000 1.904380 0.000000 
#    z -0.052970 0.000000 1.924300 
# 
# From -- ./inp_files/6926.got.cif
#   From: 2010.05.17/outbox.cif.g08.bks.cpg/sg9_4_cif.got.tgz:6926.got - 2010.06.03 20:04:27.
