data_PCOD9141438
_publ_section_title
;
Structure prediction by ZEFSAII (Michael W. Deem and Ramdas Pophale) SiO2 
 PCOD9141438
Probable space group: P 2/M
;
_chemical_formula_sum "Si O2"
_cell_formula_units_Z 26
_cell_length_a 13.639833
_cell_length_b 23.844370
_cell_length_c 5.488736
_cell_angle_alpha 90.000000
_cell_angle_beta 42.991371
_cell_angle_gamma 90.000000
_cell_volume 1217.251805
_symmetry_space_group_name_H-M "P 2/M"
_symmetry_group_IT_number 10
_symmetry_cell_setting 'monoclinic'
loop_
_space_group_symop_operation_xyz
x,y,z
-x,y,-z
-x,-y,-z
x,-y,z
loop_
_atom_site_type_symbol
_atom_site_label
_atom_site_fract_x
_atom_site_fract_y
_atom_site_fract_z
Si Si1 0.006072 0.752281 0.738960
Si Si2 0.686191 0.286383 0.306664
Si Si3 0.911407 0.565971 0.411169
Si Si4 0.595436 0.000000 0.072924
Si Si5 0.670534 0.883261 0.750249
Si Si6 0.338826 0.157294 0.738628
Si Si7 0.281561 0.330009 0.252368
O O1 0.142624 0.711858 0.503216
O O2 0.000000 0.785583 0.500000
O O3 0.000000 0.785823 0.000000
O O4 0.862216 0.714170 0.988712
O O5 0.648024 0.220814 0.379324
O O6 0.643759 0.317513 0.628381
O O7 0.639646 0.312916 0.137380
O O8 0.874721 0.500000 0.477924
O O9 0.776654 0.607217 0.654812
O O10 0.000000 0.577117 0.500000
O O11 0.000000 0.577107 0.000000
O O12 0.500000 0.000000 0.500000
O O13 0.500000 0.000000 0.000000
O O14 0.684221 0.056936 0.864077
O O15 0.730077 0.876085 0.365669
O O16 0.500000 0.873640 0.000000
O O17 0.721840 0.841844 0.873170
O O18 0.500000 0.134685 0.500000
#
# Coordination Sequence:
#
# PCOD9141438 Si02
#       7
#     4   4   4   2   4   4   4
#     4   8  14  23  37  54  74 100 129 160 193 236
#     4  10  18  27  42  58  79 114 144 169 205 250
#     4  10  18  27  41  62  89 117 140 165 205 259
#     4  10  16  26  44  64  80 108 148 172 202 254
#     4   9  17  28  42  59  83 111 139 173 206 246
#     4  10  19  30  41  59  87 115 142 175 211 241
#     4  10  17  28  42  60  83 110 140 170 206 252
#
# _framework density 21.359590000000001
#
# number of rings (size 3 to 8) (size 9 to 14) (size 15 to 20)
#    0.000    2.462    0.000    6.923    0.000    0.000 
#    0.000    0.000    0.000    0.000    0.000    0.000 
#    0.000    3.692    0.000  124.615    0.000   13.846 
#
# Total GULP energy -144774.338130 kJ/mol
# GULP energy per Si atom -5568.243774 kJ/mol
# Density = 2.131097 g / cm^3
# Si number density = 21.359590 Si / 1000 Ang^3
#
#
#
# Elastic Constant Matrix: (Units=GPa)
#
#
# Indices 1 2 3 4 5 6 
#
# 1 110.6677 29.6549 67.0848 0.0000 56.4076 0.0000
# 2 29.6549 96.8247 25.1576 0.0000 22.4964 0.0000
# 3 67.0848 25.1576 106.5375 0.0000 54.2963 0.0000
# 4 0.0000 0.0000 0.0000 19.7931 0.0000 5.3034
# 5 56.4076 22.4964 54.2963 0.0000 69.7048 0.0000
# 6 0.0000 0.0000 0.0000 5.3034 0.0000 26.2266
#
#
#
# Elastic Compliance Matrix: (Units=1/GPa)
#
#
# Indices 1 2 3 4 5 6 
#
# 1 0.017912 -0.001758 -0.006245 0.000000 -0.009064 0.000000
# 2 -0.001758 0.011452 -0.000728 0.000000 -0.001707 0.000000
# 3 -0.006245 -0.000728 0.017902 0.000000 -0.008657 0.000000
# 4 0.000000 0.000000 0.000000 0.053417 0.000000 -0.010802
# 5 -0.009064 -0.001707 -0.008657 0.000000 0.028975 0.000000
# 6 0.000000 0.000000 0.000000 -0.010802 0.000000 0.040313
#
#
# Mechanical properties :
#
#
# Convention : Reuss Voigt Hill
#
# Bulk Modulus (GPa) = 33.54982 61.98046 47.76514
# Shear Modulus (GPa) = 25.33357 35.95375 30.64366
#
# Velocity S-wave (km/s) = 3.44765 4.10721 3.79179
# Velocity P-wave (km/s) = 5.62046 7.18142 6.44835
#
# Compressibility (1/GPa) = 0.02980642
#
# Stress axis : x y z
#
# Youngs Moduli (GPa) = 55.82759 87.32185 55.85921
#
# Poissons Ratio (x) = 0.15348 0.34883
# Poissons Ratio (y) = 0.09813 0.04064
# Poissons Ratio (z) = 0.34863 0.06353
#
# Static dielectric constant tensor:
#      x y z
#    x 1.839370 0.000000 0.027300 
#    y 0.000000 1.777770 0.000000 
#    z 0.027300 0.000000 1.995120 
# 
# From -- ./inp_files/10037.got.cif
#   From: 2010.05.17/outbox.cif.g08.bks.cpg/sg10_6_cif.got.tgz:10037.got - 2010.06.03 11:33:40.
