data_PCOD9141607
_publ_section_title
;
Structure prediction by ZEFSAII (Michael W. Deem and Ramdas Pophale) SiO2 
 PCOD9141607
Probable space group: P 2/M
;
_chemical_formula_sum "Si O2"
_cell_formula_units_Z 32
_cell_length_a 17.680506
_cell_length_b 8.969410
_cell_length_c 13.971949
_cell_angle_alpha 90.000000
_cell_angle_beta 101.717770
_cell_angle_gamma 90.000000
_cell_volume 2169.547506
_symmetry_space_group_name_H-M "P 2/M"
_symmetry_group_IT_number 10
_symmetry_cell_setting 'monoclinic'
loop_
_space_group_symop_operation_xyz
x,y,z
-x,y,-z
-x,-y,-z
x,-y,z
loop_
_atom_site_type_symbol
_atom_site_label
_atom_site_fract_x
_atom_site_fract_y
_atom_site_fract_z
Si Si1 0.159793 0.320607 0.650859
Si Si2 0.160467 0.321883 0.426062
Si Si3 0.308877 0.177712 0.373581
Si Si4 0.468508 0.819786 0.888197
Si Si5 0.439674 0.820094 0.275981
Si Si6 0.000068 0.171691 0.383813
Si Si7 0.401787 0.176345 0.591736
Si Si8 0.325569 0.677734 0.753860
O O1 0.152216 0.500000 0.650917
O O2 0.172264 0.278655 0.541640
O O3 0.235535 0.277738 0.730560
O O4 0.080469 0.247453 0.665344
O O5 0.159852 0.500000 0.421822
O O6 0.229684 0.257537 0.380481
O O7 0.077357 0.257876 0.374095
O O8 0.357534 0.233714 0.294439
O O9 0.366379 0.198097 0.478697
O O10 0.294590 0.000000 0.360829
O O11 0.526744 0.770574 0.817817
O O12 0.384285 0.754879 0.842346
O O13 0.464025 0.000000 0.883212
O O14 0.500000 0.776113 0.000000
O O15 0.508064 0.788419 0.369713
O O16 0.433190 0.000000 0.269894
O O17 0.000000 0.175701 0.500000
O O18 0.003237 0.000000 0.354484
O O19 0.356347 0.273251 0.657484
O O20 0.392670 0.000000 0.613656
O O21 0.330219 0.500000 0.765058
#
# Coordination Sequence:
#
# PCOD9141607 Si02
#       8
#     4   4   4   4   4   4   4   4
#     4   9  17  28  40  56  82 114 143 173 210 250
#     4  10  18  28  39  54  83 118 147 174 210 249
#     4  10  17  25  40  59  82 111 146 180 207 244
#     4   9  18  33  50  65  83 109 142 180 222 262
#     4   8  15  27  42  61  81 106 140 178 217 252
#     4   9  17  27  40  58  78 106 147 184 210 240
#     4   9  16  26  40  57  81 112 144 176 209 244
#     4  10  18  28  43  64  87 112 143 175 212 256
#
# _framework density 14.749618999999999
#
# number of rings (size 3 to 8) (size 9 to 14) (size 15 to 20)
#    0.000    2.750    1.250    2.250    0.000    4.750 
#    0.000    2.500    0.000    3.750    0.000    0.000 
#    0.000    1.000    0.000   11.500    0.000    2.875 
#
# Total GULP energy -178180.542563 kJ/mol
# GULP energy per Si atom -5568.141955 kJ/mol
# Density = 1.471605 g / cm^3
# Si number density = 14.749619 Si / 1000 Ang^3
#
#
#
# Elastic Constant Matrix: (Units=GPa)
#
#
# Indices 1 2 3 4 5 6 
#
# 1 153.4884 44.5528 51.1150 0.0000 6.9795 0.0000
# 2 44.5528 27.9586 23.4311 0.0000 4.4025 0.0000
# 3 51.1150 23.4311 52.5184 0.0000 9.1398 0.0000
# 4 0.0000 0.0000 0.0000 4.1672 0.0000 11.1341
# 5 6.9795 4.4025 9.1398 0.0000 13.4547 0.0000
# 6 0.0000 0.0000 0.0000 11.1341 0.0000 16.3179
#
#
#
# Elastic Compliance Matrix: (Units=1/GPa)
#
#
# Indices 1 2 3 4 5 6 
#
# 1 0.013112 -0.016338 -0.005919 0.000000 0.002565 0.000000
# 2 -0.016338 0.077514 -0.017853 0.000000 -0.004760 0.000000
# 3 -0.005919 -0.017853 0.035401 0.000000 -0.015136 0.000000
# 4 0.000000 0.000000 0.000000 -0.291560 0.000000 0.198938
# 5 0.002565 -0.004760 -0.015136 0.000000 0.084832 0.000000
# 6 0.000000 0.000000 0.000000 0.198938 0.000000 -0.074457
#
#
# Mechanical properties :
#
#
# Convention : Reuss Voigt Hill
#
# Bulk Modulus (GPa) = 21.83069 52.46258 37.14664
# Shear Modulus (GPa) = -83.79430 14.44574 -34.67428
#
# Velocity S-wave (km/s) = -7.54550 3.13293 -4.85383
# Velocity P-wave (km/s) = 7.81535 6.98090 2.48462
#
# Compressibility (1/GPa) = 0.04580706
#
# Stress axis : x y z
#
# Youngs Moduli (GPa) = 76.26627 12.90096 28.24795
#
# Poissons Ratio (x) = 0.21077 0.16719
# Poissons Ratio (y) = 1.24602 0.50431
# Poissons Ratio (z) = 0.45141 0.23032
#
# Static dielectric constant tensor:
#      x y z
#    x 1.501890 0.000000 0.000850 
#    y 0.000000 1.493300 0.000000 
#    z 0.000850 0.000000 1.471410 
# 
# From -- ./inp_files/66130.got.cif
#   From: 2010.05.17/outbox.cif.g08.bks.cpg/sg10_34_cif.got.tgz:66130.got - 2010.06.03 11:33:40.
