data_PCOD9141175
_publ_section_title
;
Structure prediction by ZEFSAII (Michael W. Deem and Ramdas Pophale) SiO2 
 PCOD9141175
Probable space group: C C
;
_chemical_formula_sum "Si O2"
_cell_formula_units_Z 20
_cell_length_a 8.631156
_cell_length_b 12.165862
_cell_length_c 7.857824
_cell_angle_alpha 90.000000
_cell_angle_beta 118.212998
_cell_angle_gamma 90.000000
_cell_volume 727.087668
_symmetry_space_group_name_H-M "C C"
_symmetry_group_IT_number 9
_symmetry_cell_setting 'monoclinic'
loop_
_space_group_symop_operation_xyz
x,y,z
x,-y,1/2+z
1/2+x,1/2+y,z
1/2+x,1/2-y,1/2+z
loop_
_atom_site_type_symbol
_atom_site_label
_atom_site_fract_x
_atom_site_fract_y
_atom_site_fract_z
Si Si1 0.844010 0.051464 0.623980
Si Si2 0.832818 0.608405 0.199191
Si Si3 0.311561 0.325330 0.742688
Si Si4 0.567640 0.790104 0.122197
Si Si5 0.231309 0.893686 0.302794
O O1 0.831867 0.110753 0.433499
O O2 0.730431 0.124524 0.696545
O O3 0.051511 0.048627 0.772234
O O4 0.777584 0.926351 0.598455
O O5 0.652516 0.675745 0.108971
O O6 0.810284 0.479144 0.211653
O O7 0.942603 0.659425 0.410485
O O8 0.877562 0.620507 0.025180
O O9 0.466777 0.249585 0.739056
O O10 0.178893 0.225700 0.709263
#
# Coordination Sequence:
#
# PCOD9141175 Si02
#       5
#     4   4   4   4   4
#     4  12  29  53  84 127 169 223 285 345 427 506
#     4  12  27  53  83 127 171 221 284 348 419 509
#     4  12  30  49  88 124 173 221 280 350 430 499
#     4  12  29  53  86 121 173 220 284 344 427 499
#     4  12  27  54  85 123 176 221 281 357 423 499
#
# _framework density 27.507000000000001
#
# number of rings (size 3 to 8) (size 9 to 14) (size 15 to 20)
#    0.000    0.000    4.000    3.600    5.600    4.800 
#    0.000    0.000    0.000    0.000    0.000    0.000 
#    0.000    0.000    0.000    0.000    0.000    0.000 
#
# Total GULP energy -55942.668556 kJ/mol
# GULP energy per Si atom -5594.266856 kJ/mol
# Density = 2.744439 g / cm^3
# Si number density = 27.507000 Si / 1000 Ang^3
#
#
#
# Elastic Constant Matrix: (Units=GPa)
#
#
# Indices 1 2 3 4 5 6 
#
# 1 98.8535 52.1166 36.0310 0.0000 -29.2807 0.0000
# 2 52.1166 255.4726 70.8060 0.0000 -17.4691 0.0000
# 3 36.0310 70.8060 138.9269 0.0000 -27.3543 0.0000
# 4 0.0000 0.0000 0.0000 41.9672 0.0000 -16.5442
# 5 -29.2807 -17.4691 -27.3543 0.0000 33.8937 0.0000
# 6 0.0000 0.0000 0.0000 -16.5442 0.0000 55.4452
#
#
#
# Elastic Compliance Matrix: (Units=1/GPa)
#
#
# Indices 1 2 3 4 5 6 
#
# 1 0.014738 -0.002087 -0.000551 0.000000 0.011212 0.000000
# 2 -0.002087 0.004863 -0.002138 0.000000 -0.001023 0.000000
# 3 -0.000551 -0.002138 0.009654 0.000000 0.006213 0.000000
# 4 0.000000 0.000000 0.000000 0.027005 0.000000 0.008058
# 5 0.011212 -0.001023 0.006213 0.000000 0.043677 0.000000
# 6 0.000000 0.000000 0.000000 0.008058 0.000000 0.020440
#
#
# Mechanical properties :
#
#
# Convention : Reuss Voigt Hill
#
# Bulk Modulus (GPa) = 50.75656 90.12889 70.44272
# Shear Modulus (GPa) = 36.63049 48.54785 42.58917
#
# Velocity S-wave (km/s) = 3.65318 4.20566 3.93912
# Velocity P-wave (km/s) = 6.02383 7.51135 6.80834
#
# Compressibility (1/GPa) = 0.01970189
#
# Stress axis : x y z
#
# Youngs Moduli (GPa) = 67.85081 205.63996 103.58165
#
# Poissons Ratio (x) = 0.42922 0.05708
# Poissons Ratio (y) = 0.14162 0.22150
# Poissons Ratio (z) = 0.03739 0.43975
#
# Static dielectric constant tensor:
#      x y z
#    x 2.262360 0.000000 -0.067170 
#    y 0.000000 2.018500 0.000000 
#    z -0.067170 0.000000 2.187060 
# 
# From -- ./inp_files/4717.got.cif
#   From: 2010.05.17/outbox.cif.g08.bks.cpg/sg9_3_cif.got.tgz:4717.got - 2010.06.03 20:04:27.
