data_PCOD9141721
_publ_section_title
;
Structure prediction by ZEFSAII (Michael W. Deem and Ramdas Pophale) SiO2 
 PCOD9141721
Probable space group: P 2/M
;
_chemical_formula_sum "Si O2"
_cell_formula_units_Z 18
_cell_length_a 5.678076
_cell_length_b 18.926754
_cell_length_c 6.942094
_cell_angle_alpha 90.000000
_cell_angle_beta 102.344816
_cell_angle_gamma 90.000000
_cell_volume 728.800136
_symmetry_space_group_name_H-M "P 2/M"
_symmetry_group_IT_number 10
_symmetry_cell_setting 'monoclinic'
loop_
_space_group_symop_operation_xyz
x,y,z
-x,y,-z
-x,-y,-z
x,-y,z
loop_
_atom_site_type_symbol
_atom_site_label
_atom_site_fract_x
_atom_site_fract_y
_atom_site_fract_z
Si Si1 0.500000 0.381919 0.500000
Si Si2 0.826268 0.135908 0.742361
Si Si3 0.684303 0.083575 0.291123
Si Si4 0.078026 0.295225 0.289836
Si Si5 0.259277 0.576318 0.829635
O O1 0.334859 0.332991 0.339119
O O2 0.666667 0.423382 0.382395
O O3 0.752546 0.121942 0.504763
O O4 0.583396 0.110749 0.806966
O O5 0.884770 0.217814 0.786458
O O6 0.084328 0.097073 0.804422
O O7 0.667227 0.000000 0.322757
O O8 0.000000 0.285473 0.500000
O O9 0.892867 0.352242 0.170899
O O10 0.137072 0.500000 0.844402
O O11 0.500000 0.578214 0.000000
#
# Coordination Sequence:
#
# PCOD9141721 Si02
#       5
#     2   4   4   4   4
#     4  10  21  36  64  86 117 160 202 254 321 380
#     4  10  17  27  45  71 114 157 196 252 307 365
#     4  10  17  26  44  73 115 159 199 251 312 370
#     4  10  20  34  55  82 115 159 202 252 317 373
#     4  10  23  41  60  87 121 158 210 264 311 377
#
# _framework density 24.698129000000002
#
# number of rings (size 3 to 8) (size 9 to 14) (size 15 to 20)
#    0.000    2.000    2.222    5.000    3.111    5.778 
#    0.000    2.222    0.000    0.000    0.000    0.000 
#    0.000    9.778    0.000    0.000    0.000    0.000 
#
# Total GULP energy -100626.539306 kJ/mol
# GULP energy per Si atom -5590.363295 kJ/mol
# Density = 2.464192 g / cm^3
# Si number density = 24.698129 Si / 1000 Ang^3
#
#
#
# Elastic Constant Matrix: (Units=GPa)
#
#
# Indices 1 2 3 4 5 6 
#
# 1 190.9056 76.6277 43.0195 0.0000 1.5522 0.0000
# 2 76.6277 247.1589 33.2470 0.0000 19.1970 0.0000
# 3 43.0195 33.2470 92.6107 0.0000 4.1531 0.0000
# 4 0.0000 0.0000 0.0000 40.6305 0.0000 -49.5083
# 5 1.5522 19.1970 4.1531 0.0000 55.9690 0.0000
# 6 0.0000 0.0000 0.0000 -49.5083 0.0000 94.6930
#
#
#
# Elastic Compliance Matrix: (Units=1/GPa)
#
#
# Indices 1 2 3 4 5 6 
#
# 1 0.006470 -0.001728 -0.002412 0.000000 0.000592 0.000000
# 2 -0.001728 0.004817 -0.000858 0.000000 -0.001541 0.000000
# 3 -0.002412 -0.000858 0.012251 0.000000 -0.000548 0.000000
# 4 0.000000 0.000000 0.000000 0.067815 0.000000 0.035456
# 5 0.000592 -0.001541 -0.000548 0.000000 0.018420 0.000000
# 6 0.000000 0.000000 0.000000 0.035456 0.000000 0.029098
#
#
# Mechanical properties :
#
#
# Convention : Reuss Voigt Hill
#
# Bulk Modulus (GPa) = 73.83632 92.94040 83.38836
# Shear Modulus (GPa) = 32.59911 63.44390 48.02150
#
# Velocity S-wave (km/s) = 3.63699 5.07381 4.41425
# Velocity P-wave (km/s) = 6.89908 8.48746 7.73415
#
# Compressibility (1/GPa) = 0.01354347
#
# Stress axis : x y z
#
# Youngs Moduli (GPa) = 154.55183 207.61561 81.62779
#
# Poissons Ratio (x) = 0.35867 0.19688
# Poissons Ratio (y) = 0.26700 0.07000
# Poissons Ratio (z) = 0.37277 0.17805
#
# Static dielectric constant tensor:
#      x y z
#    x 1.982030 0.000000 -0.043390 
#    y 0.000000 1.886510 0.000000 
#    z -0.043390 0.000000 2.040970 
# 
# From -- ./inp_files/14547.got.cif
#   From: 2010.05.17/outbox.cif.g08.bks.cpg/sg10_8_cif.got.tgz:14547.got - 2010.06.03 11:33:40.
