data_PCOD9141353
_publ_section_title
;
Structure prediction by ZEFSAII (Michael W. Deem and Ramdas Pophale) SiO2 
 PCOD9141353
Probable space group: P 2/M
;
_chemical_formula_sum "Si O2"
_cell_formula_units_Z 24
_cell_length_a 18.281235
_cell_length_b 11.418566
_cell_length_c 6.555773
_cell_angle_alpha 90.000000
_cell_angle_beta 41.727234
_cell_angle_gamma 90.000000
_cell_volume 910.845348
_symmetry_space_group_name_H-M "P 2/M"
_symmetry_group_IT_number 10
_symmetry_cell_setting 'monoclinic'
loop_
_space_group_symop_operation_xyz
x,y,z
-x,y,-z
-x,-y,-z
x,-y,z
loop_
_atom_site_type_symbol
_atom_site_label
_atom_site_fract_x
_atom_site_fract_y
_atom_site_fract_z
Si Si1 0.971051 0.128202 0.303312
Si Si2 0.280991 0.627513 0.583425
Si Si3 0.400582 0.874906 0.872791
Si Si4 0.900582 0.374906 0.372791
Si Si5 0.471051 0.371798 0.803312
Si Si6 0.780991 0.872487 0.083425
O O1 0.913860 0.253071 0.461058
O O2 0.916285 0.000000 0.443238
O O3 0.000000 0.131382 0.000000
O O4 0.087331 0.125862 0.177745
O O5 0.248642 0.500000 0.747662
O O6 0.212336 0.628851 0.517795
O O7 0.412669 0.625862 0.322255
O O8 0.250000 0.750000 0.750000
O O9 0.500000 0.877533 0.500000
O O10 0.413860 0.753071 0.961058
O O11 0.287664 0.871149 0.982205
O O12 0.405982 0.000000 0.974712
O O13 0.905982 0.500000 0.474712
O O14 0.000000 0.377533 0.000000
O O15 0.500000 0.368618 0.500000
O O16 0.416285 0.500000 0.943238
O O17 0.748642 0.000000 0.247662
#
# Coordination Sequence:
#
# PCOD9141353 Si02
#       6
#     4   4   4   4   4   4
#     4   9  15  20  25  30  35  40  45  50  55  60
#     4  10  16  20  24  30  36  40  44  50  56  60
#     4   9  15  20  25  30  35  40  45  50  55  60
#     4   9  15  20  25  30  35  40  45  50  55  60
#     4   9  15  20  25  30  35  40  45  50  55  60
#     4  10  16  20  24  30  36  40  44  50  56  60
#
# _framework density 26.349150000000002
#
# number of rings (size 3 to 8) (size 9 to 14) (size 15 to 20)
#    0.000    2.667    6.667    0.000    0.000    0.000 
#    0.000    0.000    0.000    0.000    0.000    0.000 
#    0.000    0.000    0.000    0.000    0.000    0.000 
#
# Total GULP energy -134066.675199 kJ/mol
# GULP energy per Si atom -5586.111467 kJ/mol
# Density = 2.628918 g / cm^3
# Si number density = 26.349150 Si / 1000 Ang^3
#
#
#
# Elastic Constant Matrix: (Units=GPa)
#
#
# Indices 1 2 3 4 5 6 
#
# 1 86.5187 65.8106 26.1767 0.0000 -23.8197 0.0000
# 2 65.8106 411.5813 60.0582 0.0000 -21.3293 0.0000
# 3 26.1767 60.0582 137.9712 0.0000 -26.1357 0.0000
# 4 0.0000 0.0000 0.0000 41.0197 0.0000 -14.8586
# 5 -23.8197 -21.3293 -26.1357 0.0000 42.5180 0.0000
# 6 0.0000 0.0000 0.0000 -14.8586 0.0000 19.0261
#
#
#
# Elastic Compliance Matrix: (Units=1/GPa)
#
#
# Indices 1 2 3 4 5 6 
#
# 1 0.015220 -0.001965 -0.000683 0.000000 0.007121 0.000000
# 2 -0.001965 0.002866 -0.000918 0.000000 -0.000227 0.000000
# 3 -0.000683 -0.000918 0.008621 0.000000 0.004456 0.000000
# 4 0.000000 0.000000 0.000000 0.033995 0.000000 0.026549
# 5 0.007121 -0.000227 0.004456 0.000000 0.030134 0.000000
# 6 0.000000 0.000000 0.000000 0.026549 0.000000 0.073293
#
#
# Mechanical properties :
#
#
# Convention : Reuss Voigt Hill
#
# Bulk Modulus (GPa) = 51.08568 104.46245 77.77407
# Shear Modulus (GPa) = 28.12355 52.78115 40.45235
#
# Velocity S-wave (km/s) = 3.27056 4.48051 3.92247
# Velocity P-wave (km/s) = 5.80450 8.15464 7.07779
#
# Compressibility (1/GPa) = 0.01957496
#
# Stress axis : x y z
#
# Youngs Moduli (GPa) = 65.70296 348.92031 115.99325
#
# Poissons Ratio (x) = 0.68559 0.07927
# Poissons Ratio (y) = 0.12910 0.10646
# Poissons Ratio (z) = 0.04490 0.32024
#
# Static dielectric constant tensor:
#      x y z
#    x 2.155750 0.000000 0.134480 
#    y 0.000000 2.083330 0.000000 
#    z 0.134480 0.000000 2.070610 
# 
# From -- ./inp_files/72276.got.cif
#   From: 2010.05.17/outbox.cif.g08.bks.cpg/sg10_37_cif.got.tgz:72276.got - 2010.06.03 11:33:40.
