data_PCOD9141044
_publ_section_title
;
Structure prediction by ZEFSAII (Michael W. Deem and Ramdas Pophale) SiO2 
 PCOD9141044
Probable space group: C C
;
_chemical_formula_sum "Si O2"
_cell_formula_units_Z 32
_cell_length_a 14.757129
_cell_length_b 10.682859
_cell_length_c 9.156654
_cell_angle_alpha 90.000000
_cell_angle_beta 121.627845
_cell_angle_gamma 90.000000
_cell_volume 1229.126659
_symmetry_space_group_name_H-M "C C"
_symmetry_group_IT_number 9
_symmetry_cell_setting 'monoclinic'
loop_
_space_group_symop_operation_xyz
x,y,z
x,-y,1/2+z
1/2+x,1/2+y,z
1/2+x,1/2-y,1/2+z
loop_
_atom_site_type_symbol
_atom_site_label
_atom_site_fract_x
_atom_site_fract_y
_atom_site_fract_z
Si Si1 0.822710 0.433226 0.642270
Si Si2 0.108016 0.298210 0.279233
Si Si3 0.953427 0.641693 0.893812
Si Si4 0.069868 0.234410 0.734575
Si Si5 0.948907 0.249085 0.922226
Si Si6 0.177623 0.985555 0.767993
Si Si7 0.788327 0.153853 0.295724
Si Si8 0.819128 0.941604 0.507004
O O1 0.920728 0.514799 0.786785
O O2 0.851120 0.301443 0.743248
O O3 0.716424 0.476817 0.636019
O O4 0.782878 0.464006 0.445843
O O5 0.206730 0.391136 0.349220
O O6 0.056233 0.307874 0.394700
O O7 0.144706 0.154141 0.288298
O O8 0.015231 0.337192 0.088610
O O9 0.851733 0.729594 0.784300
O O10 0.983759 0.672541 0.086659
O O11 0.087742 0.091160 0.700336
O O12 0.180152 0.300258 0.779706
O O13 0.037660 0.219674 0.875751
O O14 0.905247 0.147115 0.000542
O O15 0.844229 0.079873 0.473648
O O16 0.797605 0.063962 0.161966
#
# Coordination Sequence:
#
# PCOD9141044 Si02
#       8
#     4   4   4   4   4   4   4   4
#     4  12  25  48  74 103 148 198 252 310 369 443
#     4  12  26  47  76 106 151 201 253 306 382 448
#     4  12  26  47  76 106 151 201 253 306 382 448
#     4  12  29  45  75 114 149 196 255 310 377 453
#     4  12  29  45  75 114 149 196 255 310 377 453
#     4  12  25  48  74 103 148 198 252 310 369 443
#     4  12  29  51  74 109 157 199 248 316 381 452
#     4  12  29  51  74 109 157 199 248 316 381 452
#
# _framework density 26.034744
#
# number of rings (size 3 to 8) (size 9 to 14) (size 15 to 20)
#    0.000    0.000    5.000    3.750   10.500    0.000 
#    0.000    0.000    0.000    0.000    0.000    0.000 
#    0.000    0.000    0.000    0.000    0.000    0.000 
#
# Total GULP energy -89425.164228 kJ/mol
# GULP energy per Si atom -5589.072764 kJ/mol
# Density = 2.597549 g / cm^3
# Si number density = 26.034744 Si / 1000 Ang^3
#
#
#
# Elastic Constant Matrix: (Units=GPa)
#
#
# Indices 1 2 3 4 5 6 
#
# 1 112.3856 7.2100 19.9353 0.0000 -23.4444 0.0000
# 2 7.2100 82.6824 11.2832 0.0000 -0.9823 0.0000
# 3 19.9353 11.2832 81.7436 0.0000 -2.6891 0.0000
# 4 0.0000 0.0000 0.0000 35.8098 0.0000 2.0377
# 5 -23.4444 -0.9823 -2.6891 0.0000 58.8647 0.0000
# 6 0.0000 0.0000 0.0000 2.0377 0.0000 17.9497
#
#
#
# Elastic Compliance Matrix: (Units=1/GPa)
#
#
# Indices 1 2 3 4 5 6 
#
# 1 0.010156 -0.000528 -0.002274 0.000000 0.003932 0.000000
# 2 -0.000528 0.012355 -0.001579 0.000000 -0.000076 0.000000
# 3 -0.002274 -0.001579 0.012995 0.000000 -0.000339 0.000000
# 4 0.000000 0.000000 0.000000 0.028107 0.000000 -0.003191
# 5 0.003932 -0.000076 -0.000339 0.000000 0.018537 0.000000
# 6 0.000000 0.000000 0.000000 -0.003191 0.000000 0.056074
#
#
# Mechanical properties :
#
#
# Convention : Reuss Voigt Hill
#
# Bulk Modulus (GPa) = 37.39477 39.29650 38.34563
# Shear Modulus (GPa) = 32.07162 38.41704 35.24433
#
# Velocity S-wave (km/s) = 3.51362 3.84553 3.68332
# Velocity P-wave (km/s) = 5.55475 5.90289 5.73147
#
# Compressibility (1/GPa) = 0.02674171
#
# Stress axis : x y z
#
# Youngs Moduli (GPa) = 98.46866 80.93800 76.95346
#
# Poissons Ratio (x) = 0.04277 0.17502
# Poissons Ratio (y) = 0.05204 0.12151
# Poissons Ratio (z) = 0.22396 0.12780
#
# Static dielectric constant tensor:
#      x y z
#    x 2.018200 0.000000 0.026570 
#    y 0.000000 2.051990 0.000000 
#    z 0.026570 0.000000 2.046460 
# 
# From -- ./inp_files/9098.got.cif
#   From: 2010.05.17/outbox.cif.g08.bks.cpg/sg9_5_cif.got.tgz:9098.got - 2010.06.03 20:04:27.
