data_PCOD9141360
_publ_section_title
;
Structure prediction by ZEFSAII (Michael W. Deem and Ramdas Pophale) SiO2 
 PCOD9141360
Probable space group: P 2/M
;
_chemical_formula_sum "Si O2"
_cell_formula_units_Z 24
_cell_length_a 17.478903
_cell_length_b 8.732744
_cell_length_c 16.658530
_cell_angle_alpha 90.000000
_cell_angle_beta 155.936884
_cell_angle_gamma 90.000000
_cell_volume 1036.782875
_symmetry_space_group_name_H-M "P 2/M"
_symmetry_group_IT_number 10
_symmetry_cell_setting 'monoclinic'
loop_
_space_group_symop_operation_xyz
x,y,z
-x,y,-z
-x,-y,-z
x,-y,z
loop_
_atom_site_type_symbol
_atom_site_label
_atom_site_fract_x
_atom_site_fract_y
_atom_site_fract_z
Si Si1 0.761073 0.684451 0.690390
Si Si2 0.120867 0.678257 0.363310
Si Si3 0.575258 0.673717 0.822075
Si Si4 0.435225 0.325285 0.847568
Si Si5 0.058623 0.175319 0.469069
Si Si6 0.344842 0.820192 0.255525
O O1 0.755437 0.500000 0.683714
O O2 0.891530 0.736378 0.740824
O O3 0.552969 0.750007 0.470950
O O4 0.790302 0.740499 0.809273
O O5 0.067974 0.500000 0.312715
O O6 0.347849 0.687485 0.595418
O O7 0.023181 0.754337 0.346675
O O8 0.623559 0.500000 0.845257
O O9 0.599075 0.695514 0.939674
O O10 0.681074 0.783509 0.862969
O O11 0.358389 0.500000 0.759002
O O12 0.282665 0.194925 0.689636
O O13 0.500000 0.321782 0.000000
O O14 0.000000 0.246435 0.500000
O O15 0.994871 0.000000 0.407696
O O16 0.345337 0.000000 0.270712
#
# Coordination Sequence:
#
# PCOD9141360 Si02
#       6
#     4   4   4   4   4   4
#     4   9  15  23  33  47  71 102 135 169 208 250
#     4   8  15  26  40  56  75 106 144 178 213 253
#     4   8  14  25  38  53  77 106 134 169 213 254
#     4   9  18  32  49  67  86 113 151 189 223 260
#     4  10  20  31  44  65  92 120 148 179 219 265
#     4  10  16  20  30  50  74 102 136 167 200 248
#
# _framework density 23.148530999999998
#
# number of rings (size 3 to 8) (size 9 to 14) (size 15 to 20)
#    0.000    3.000    0.000    5.500    0.000    8.333 
#    0.000    0.000    0.000    0.000    0.000    0.000 
#    0.000    1.333    0.000   15.000    0.000   15.833 
#
# Total GULP energy -133735.340659 kJ/mol
# GULP energy per Si atom -5572.305861 kJ/mol
# Density = 2.309584 g / cm^3
# Si number density = 23.148531 Si / 1000 Ang^3
#
#
#
# Elastic Constant Matrix: (Units=GPa)
#
#
# Indices 1 2 3 4 5 6 
#
# 1 232.4241 67.8811 17.6289 0.0000 -35.8544 0.0000
# 2 67.8811 68.2869 -3.9023 0.0000 -0.9277 0.0000
# 3 17.6289 -3.9023 37.8374 0.0000 14.2224 0.0000
# 4 0.0000 0.0000 0.0000 -5.1555 0.0000 -4.6748
# 5 -35.8544 -0.9277 14.2224 0.0000 35.7789 0.0000
# 6 0.0000 0.0000 0.0000 -4.6748 0.0000 34.0673
#
#
#
# Elastic Compliance Matrix: (Units=1/GPa)
#
#
# Indices 1 2 3 4 5 6 
#
# 1 0.010895 -0.011309 -0.012034 0.000000 0.015408 0.000000
# 2 -0.011309 0.026471 0.014108 0.000000 -0.016254 0.000000
# 3 -0.012034 0.014108 0.044541 0.000000 -0.029399 0.000000
# 4 0.000000 0.000000 0.000000 -0.172503 0.000000 -0.023671
# 5 0.015408 -0.016254 -0.029399 0.000000 0.054655 0.000000
# 6 0.000000 0.000000 0.000000 -0.023671 0.000000 0.026105
#
#
# Mechanical properties :
#
#
# Convention : Reuss Voigt Hill
#
# Bulk Modulus (GPa) = 15.76325 55.75155 35.75740
# Shear Modulus (GPa) = 167.90580 30.06754 98.98667
#
# Velocity S-wave (km/s) = 8.52594 3.60793 6.54632
# Velocity P-wave (km/s) = 10.18560 6.44149 8.52172
#
# Compressibility (1/GPa) = 0.06343868
#
# Stress axis : x y z
#
# Youngs Moduli (GPa) = 91.78617 37.77747 22.45114
#
# Poissons Ratio (x) = 0.42721 0.27018
# Poissons Ratio (y) = 1.03796 -0.31675
# Poissons Ratio (z) = 1.10455 -0.53298
#
# Static dielectric constant tensor:
#      x y z
#    x 1.979630 0.000000 -0.085170 
#    y 0.000000 1.828890 0.000000 
#    z -0.085170 0.000000 2.135080 
# 
# From -- ./inp_files/54445.got.cif
#   From: 2010.05.17/outbox.cif.g08.bks.cpg/sg10_28_cif.got.tgz:54445.got - 2010.06.03 11:33:40.
