data_PCOD9141822
_publ_section_title
;
Structure prediction by ZEFSAII (Michael W. Deem and Ramdas Pophale) SiO2 
 PCOD9141822
Probable space group: P 2/M
;
_chemical_formula_sum "Si O2"
_cell_formula_units_Z 32
_cell_length_a 20.816626
_cell_length_b 7.732099
_cell_length_c 32.658094
_cell_angle_alpha 90.000000
_cell_angle_beta 19.149357
_cell_angle_gamma 90.000000
_cell_volume 1724.306727
_symmetry_space_group_name_H-M "P 2/M"
_symmetry_group_IT_number 10
_symmetry_cell_setting 'monoclinic'
loop_
_space_group_symop_operation_xyz
x,y,z
-x,y,-z
-x,-y,-z
x,-y,z
loop_
_atom_site_type_symbol
_atom_site_label
_atom_site_fract_x
_atom_site_fract_y
_atom_site_fract_z
Si Si1 0.875793 0.301221 0.458726
Si Si2 0.286594 0.292874 0.616322
Si Si3 0.191461 0.711432 0.410605
Si Si4 0.294900 0.208908 0.082436
Si Si5 0.313804 0.800613 0.188313
Si Si6 0.104847 0.793943 0.111095
Si Si7 0.508561 0.703383 0.155132
Si Si8 0.896644 0.292408 0.358461
O O1 0.807121 0.500000 0.500146
O O2 0.112528 0.299052 0.315210
O O3 0.814767 0.223272 0.538999
O O4 0.819795 0.223631 0.448265
O O5 0.500000 0.225719 0.500000
O O6 0.300847 0.500000 0.603491
O O7 0.207621 0.224558 0.619940
O O8 0.121140 0.258086 0.750168
O O9 0.182305 0.500000 0.417942
O O10 0.385515 0.759573 0.268685
O O11 0.000000 0.766276 0.500000
O O12 0.195688 0.270950 0.099565
O O13 0.129596 0.257577 0.214474
O O14 0.306427 0.000000 0.075410
O O15 0.520276 0.267081 0.943108
O O16 0.422116 0.797138 0.167203
O O17 0.267488 0.000000 0.205910
O O18 0.113550 0.000000 0.106084
O O19 0.257750 0.730327 0.985101
O O20 0.469807 0.500000 0.172431
O O21 0.874397 0.500000 0.372319
#
# Coordination Sequence:
#
# PCOD9141822 Si02
#       8
#     4   4   4   4   4   4   4   4
#     4  10  19  31  44  60  85 116 153 190 224 266
#     4   9  17  31  51  74  97 119 145 177 219 274
#     4   9  16  28  45  64  84 115 157 195 231 264
#     4   8  16  29  42  56  83 119 148 177 214 261
#     4  10  19  29  41  61  86 117 155 191 227 259
#     4   9  17  29  45  69  97 120 147 183 225 269
#     4  10  17  28  47  65  87 120 156 193 230 266
#     4   9  18  30  45  65  87 113 145 183 221 260
#
# _framework density 18.558183
#
# number of rings (size 3 to 8) (size 9 to 14) (size 15 to 20)
#    0.000    2.750    1.250    1.875    0.000    4.750 
#    0.000    4.375    0.000    0.000    0.000    0.875 
#    0.000    7.000    0.000    0.000    0.000    0.000 
#
# Total GULP energy -178335.773664 kJ/mol
# GULP energy per Si atom -5572.992927 kJ/mol
# Density = 1.851594 g / cm^3
# Si number density = 18.558183 Si / 1000 Ang^3
#
#
#
# Elastic Constant Matrix: (Units=GPa)
#
#
# Indices 1 2 3 4 5 6 
#
# 1 76.2282 3.7448 70.0230 0.0000 13.0771 0.0000
# 2 3.7448 35.4354 1.0431 0.0000 0.9474 0.0000
# 3 70.0230 1.0431 150.8066 0.0000 19.7059 0.0000
# 4 0.0000 0.0000 0.0000 47.4846 0.0000 1.4532
# 5 13.0771 0.9474 19.7059 0.0000 39.1783 0.0000
# 6 0.0000 0.0000 0.0000 1.4532 0.0000 4.4198
#
#
#
# Elastic Compliance Matrix: (Units=1/GPa)
#
#
# Indices 1 2 3 4 5 6 
#
# 1 0.023251 -0.002084 -0.010462 0.000000 -0.002448 0.000000
# 2 -0.002084 0.028427 0.000824 0.000000 -0.000406 0.000000
# 3 -0.010462 0.000824 0.011805 0.000000 -0.002466 0.000000
# 4 0.000000 0.000000 0.000000 0.021274 0.000000 -0.006995
# 5 -0.002448 -0.000406 -0.002466 0.000000 0.027592 0.000000
# 6 0.000000 0.000000 0.000000 -0.006995 0.000000 0.228557
#
#
# Mechanical properties :
#
#
# Convention : Reuss Voigt Hill
#
# Bulk Modulus (GPa) = 24.97475 45.78801 35.38138
# Shear Modulus (GPa) = 13.23821 30.72716 21.98269
#
# Velocity S-wave (km/s) = 2.67373 4.07347 3.44543
# Velocity P-wave (km/s) = 4.79776 6.84474 5.91054
#
# Compressibility (1/GPa) = 0.04004044
#
# Stress axis : x y z
#
# Youngs Moduli (GPa) = 43.00921 35.17763 84.70959
#
# Poissons Ratio (x) = 0.07330 0.88619
# Poissons Ratio (y) = 0.08962 -0.06980
# Poissons Ratio (z) = 0.44994 -0.02899
#
# Static dielectric constant tensor:
#      x y z
#    x 1.682540 0.000000 0.026780 
#    y 0.000000 1.664790 0.000000 
#    z 0.026780 0.000000 1.669330 
# 
# From -- ./inp_files/66202.got.cif
#   From: 2010.05.17/outbox.cif.g08.bks.cpg/sg10_34_cif.got.tgz:66202.got - 2010.06.03 11:33:40.
