data_PCOD9141485
_publ_section_title
;
Structure prediction by ZEFSAII (Michael W. Deem and Ramdas Pophale) SiO2 
 PCOD9141485
Probable space group: P 2/M
;
_chemical_formula_sum "Si O2"
_cell_formula_units_Z 26
_cell_length_a 7.233761
_cell_length_b 11.794548
_cell_length_c 14.366034
_cell_angle_alpha 90.000000
_cell_angle_beta 105.153621
_cell_angle_gamma 90.000000
_cell_volume 1183.075457
_symmetry_space_group_name_H-M "P 2/M"
_symmetry_group_IT_number 10
_symmetry_cell_setting 'monoclinic'
loop_
_space_group_symop_operation_xyz
x,y,z
-x,y,-z
-x,-y,-z
x,-y,z
loop_
_atom_site_type_symbol
_atom_site_label
_atom_site_fract_x
_atom_site_fract_y
_atom_site_fract_z
Si Si1 0.252654 0.000000 0.233752
Si Si2 0.643464 0.729025 0.219513
Si Si3 0.041018 0.370430 0.252231
Si Si4 0.278270 0.875646 0.939713
Si Si5 0.715048 0.126413 0.393727
Si Si6 0.848866 0.829309 0.612096
Si Si7 0.234189 0.767170 0.115716
O O1 0.219901 0.097071 0.311055
O O2 0.264221 0.103514 0.157148
O O3 0.724542 0.831893 0.165894
O O4 0.613804 0.779035 0.318568
O O5 0.438315 0.702314 0.150382
O O6 0.811774 0.638572 0.237356
O O7 0.102444 0.500000 0.256634
O O8 0.133124 0.299153 0.349367
O O9 0.097869 0.302939 0.166079
O O10 0.185874 0.000000 0.930129
O O11 0.500000 0.884019 0.000000
O O12 0.192320 0.787581 0.001498
O O13 0.722323 0.150782 0.503908
O O14 0.936127 0.131904 0.388549
O O15 0.635185 0.000000 0.362754
#
# Coordination Sequence:
#
# PCOD9141485 Si02
#       7
#     2   4   4   4   4   4   4
#     4  10  16  31  52  79 118 148 175 222 281 349
#     4  10  22  36  57  87 116 149 196 234 280 340
#     4  10  23  42  61  80 111 154 200 243 280 327
#     4   9  17  34  57  85 123 155 181 224 285 352
#     4  10  16  29  55  85 121 152 180 228 287 348
#     4   9  17  32  54  83 115 150 188 231 284 342
#     4  10  21  37  59  86 118 152 188 231 288 341
#
# _framework density 21.976621999999999
#
# number of rings (size 3 to 8) (size 9 to 14) (size 15 to 20)
#    0.000    2.308    2.308    0.923    2.154    1.231 
#    1.385   12.308    0.000    3.692    0.000    0.000 
#    0.000    0.000    0.000    0.000    0.000    0.000 
#
# Total GULP energy -144804.206232 kJ/mol
# GULP energy per Si atom -5569.392547 kJ/mol
# Density = 2.192660 g / cm^3
# Si number density = 21.976622 Si / 1000 Ang^3
#
#
#
# Elastic Constant Matrix: (Units=GPa)
#
#
# Indices 1 2 3 4 5 6 
#
# 1 76.7231 19.1353 -7.8919 0.0000 -3.9026 0.0000
# 2 19.1353 81.1622 9.0644 0.0000 -33.9743 0.0000
# 3 -7.8919 9.0644 88.6596 0.0000 -23.6832 0.0000
# 4 0.0000 0.0000 0.0000 12.0362 0.0000 -2.8723
# 5 -3.9026 -33.9743 -23.6832 0.0000 1.7016 0.0000
# 6 0.0000 0.0000 0.0000 -2.8723 0.0000 15.0015
#
#
#
# Elastic Compliance Matrix: (Units=1/GPa)
#
#
# Indices 1 2 3 4 5 6 
#
# 1 0.014033 -0.002894 0.001948 0.000000 0.001509 0.000000
# 2 -0.002894 0.003981 -0.006915 0.000000 -0.023399 0.000000
# 3 0.001948 -0.006915 0.008657 0.000000 -0.013113 0.000000
# 4 0.000000 0.000000 0.000000 0.087061 0.000000 0.016670
# 5 0.001509 -0.023399 -0.013113 0.000000 -0.058547 0.000000
# 6 0.000000 0.000000 0.000000 0.016670 0.000000 0.069852
#
#
# Mechanical properties :
#
#
# Convention : Reuss Voigt Hill
#
# Bulk Modulus (GPa) = 91.34118 31.90672 61.62395
# Shear Modulus (GPa) = 34.62406 20.83033 27.72720
#
# Velocity S-wave (km/s) = 3.97356 3.08204 3.55585
# Velocity P-wave (km/s) = 7.91867 5.21683 6.70525
#
# Compressibility (1/GPa) = 0.01094796
#
# Stress axis : x y z
#
# Youngs Moduli (GPa) = 71.26104 251.19566 115.51685
#
# Poissons Ratio (x) = 0.72706 -0.22504
# Poissons Ratio (y) = 0.20626 0.79881
# Poissons Ratio (z) = -0.13883 1.73704
#
# Static dielectric constant tensor:
#      x y z
#    x 1.925360 0.000000 0.051840 
#    y 0.000000 1.740740 0.000000 
#    z 0.051840 0.000000 1.786150 
# 
# From -- ./inp_files/60759.got.cif
#   From: 2010.05.17/outbox.cif.g08.bks.cpg/sg10_31_cif.got.tgz:60759.got - 2010.06.03 11:33:40.
