data_PCOD9141335
_publ_section_title
;
Structure prediction by ZEFSAII (Michael W. Deem and Ramdas Pophale) SiO2 
 PCOD9141335
Probable space group: P 2/M
;
_chemical_formula_sum "Si O2"
_cell_formula_units_Z 28
_cell_length_a 25.611256
_cell_length_b 13.033060
_cell_length_c 7.461576
_cell_angle_alpha 90.000000
_cell_angle_beta 143.602091
_cell_angle_gamma 90.000000
_cell_volume 1477.909036
_symmetry_space_group_name_H-M "P 2/M"
_symmetry_group_IT_number 10
_symmetry_cell_setting 'monoclinic'
loop_
_space_group_symop_operation_xyz
x,y,z
-x,y,-z
-x,-y,-z
x,-y,z
loop_
_atom_site_type_symbol
_atom_site_label
_atom_site_fract_x
_atom_site_fract_y
_atom_site_fract_z
Si Si1 0.413125 0.880260 0.992274
Si Si2 0.217210 0.876481 0.468975
Si Si3 0.895341 0.616319 0.175143
Si Si4 0.926411 0.717391 0.907474
Si Si5 0.397304 0.120776 0.514599
Si Si6 0.039134 0.108317 0.407885
Si Si7 0.791644 0.814537 0.979680
O O1 0.317660 0.846050 0.796075
O O2 0.406029 0.875528 0.755706
O O3 0.418204 0.000000 0.054685
O O4 0.510015 0.838164 0.306273
O O5 0.149402 0.795531 0.369337
O O6 0.206603 0.856368 0.222736
O O7 0.204692 0.000000 0.463881
O O8 0.872166 0.500000 0.156683
O O9 0.000000 0.630161 0.500000
O O10 0.883987 0.641872 0.934016
O O11 0.836504 0.702573 0.106961
O O12 0.000000 0.656029 0.000000
O O13 0.992823 0.798731 0.183471
O O14 0.307546 0.179118 0.225852
O O15 0.386627 0.000000 0.438510
O O16 0.000000 0.109757 0.500000
O O17 0.015153 0.000000 0.256092
O O18 0.142734 0.117085 0.722870
#
# Coordination Sequence:
#
# PCOD9141335 Si02
#       7
#     4   4   4   4   4   4   4
#     4   7  11  19  31  53  84 115 143 168 196 239
#     4   9  15  24  39  59  87 120 148 170 201 248
#     4  10  19  34  50  62  81 110 144 183 225 262
#     4  11  21  31  42  63  89 115 148 182 214 256
#     4   8  12  18  33  59  88 110 136 171 203 244
#     4  11  18  27  42  62  89 118 144 168 206 256
#     4  10  15  25  41  64  81 110 142 177 213 251
#
# _framework density 18.945685000000001
#
# number of rings (size 3 to 8) (size 9 to 14) (size 15 to 20)
#    0.000    2.571    4.286    3.429    0.000    1.429 
#    0.000    0.000    0.000    0.000    0.000   19.000 
#    0.000    4.571    0.000    3.143    0.000    1.286 
#
# Total GULP energy -155923.912516 kJ/mol
# GULP energy per Si atom -5568.711161 kJ/mol
# Density = 1.890256 g / cm^3
# Si number density = 18.945685 Si / 1000 Ang^3
#
#
#
# Elastic Constant Matrix: (Units=GPa)
#
#
# Indices 1 2 3 4 5 6 
#
# 1 51.2774 5.2334 34.6487 0.0000 18.4804 0.0000
# 2 5.2334 79.1930 23.3656 0.0000 13.3732 0.0000
# 3 34.6487 23.3656 96.2731 0.0000 51.9856 0.0000
# 4 0.0000 0.0000 0.0000 -2.6193 0.0000 -6.2143
# 5 18.4804 13.3732 51.9856 0.0000 40.7706 0.0000
# 6 0.0000 0.0000 0.0000 -6.2143 0.0000 -7.6244
#
#
#
# Elastic Compliance Matrix: (Units=1/GPa)
#
#
# Indices 1 2 3 4 5 6 
#
# 1 0.025862 0.001113 -0.009794 0.000000 0.000400 0.000000
# 2 0.001113 0.013658 -0.003287 0.000000 -0.000793 0.000000
# 3 -0.009794 -0.003287 0.037659 0.000000 -0.042501 0.000000
# 4 0.000000 0.000000 0.000000 0.408879 0.000000 -0.333260
# 5 0.000400 -0.000793 -0.042501 0.000000 0.078798 0.000000
# 6 0.000000 0.000000 0.000000 -0.333260 0.000000 0.140467
#
#
# Mechanical properties :
#
#
# Convention : Reuss Voigt Hill
#
# Bulk Modulus (GPa) = 18.78188 39.24876 29.01532
# Shear Modulus (GPa) = 6.69338 17.00511 11.84925
#
# Velocity S-wave (km/s) = 1.88165 2.99920 2.50358
# Velocity P-wave (km/s) = 3.82830 5.72320 4.86882
#
# Compressibility (1/GPa) = 0.05324281
#
# Stress axis : x y z
#
# Youngs Moduli (GPa) = 38.66716 73.21945 26.55375
#
# Poissons Ratio (x) = -0.08149 0.26007
# Poissons Ratio (y) = -0.04304 0.08728
# Poissons Ratio (z) = 0.37871 0.24067
#
# Static dielectric constant tensor:
#      x y z
#    x 1.868290 0.000000 -0.016100 
#    y 0.000000 1.621630 0.000000 
#    z -0.016100 0.000000 1.716250 
# 
# From -- ./inp_files/38266.got.cif
#   From: 2010.05.17/outbox.cif.g08.bks.cpg/sg10_20_cif.got.tgz:38266.got - 2010.06.03 11:33:40.
