data_PCOD9141094
_publ_section_title
;
Structure prediction by ZEFSAII (Michael W. Deem and Ramdas Pophale) SiO2 
 PCOD9141094
Probable space group: C C
;
_chemical_formula_sum "Si O2"
_cell_formula_units_Z 24
_cell_length_a 6.896645
_cell_length_b 7.837206
_cell_length_c 17.627877
_cell_angle_alpha 90.000000
_cell_angle_beta 100.689103
_cell_angle_gamma 90.000000
_cell_volume 936.261489
_symmetry_space_group_name_H-M "C C"
_symmetry_group_IT_number 9
_symmetry_cell_setting 'monoclinic'
loop_
_space_group_symop_operation_xyz
x,y,z
x,-y,1/2+z
1/2+x,1/2+y,z
1/2+x,1/2-y,1/2+z
loop_
_atom_site_type_symbol
_atom_site_label
_atom_site_fract_x
_atom_site_fract_y
_atom_site_fract_z
Si Si1 0.786120 0.052956 0.644770
Si Si2 0.916059 0.035550 0.363728
Si Si3 0.017359 0.831112 0.026120
Si Si4 0.922539 0.462853 0.004709
Si Si5 0.980892 0.649097 0.337232
Si Si6 0.095796 0.185499 0.244858
O O1 0.958396 0.144888 0.608892
O O2 0.667702 0.160400 0.698245
O O3 0.622654 0.026125 0.567921
O O4 0.907468 0.900301 0.691575
O O5 0.952059 0.033858 0.456453
O O6 0.688690 0.070205 0.332779
O O7 0.982719 0.855603 0.333479
O O8 0.032486 0.188382 0.329228
O O9 0.890487 0.665411 0.992758
O O10 0.253401 0.853188 0.034031
O O11 0.942520 0.392150 0.922159
O O12 0.804730 0.584492 0.270156
#
# Coordination Sequence:
#
# PCOD9141094 Si02
#       6
#     4   4   4   4   4   4
#     4  12  28  50  73 116 162 204 262 334 407 464
#     4  12  27  50  81 115 160 214 271 327 399 485
#     4  12  26  46  80 117 155 210 268 327 397 483
#     4  12  26  46  80 117 155 210 268 327 397 483
#     4  12  27  50  81 115 160 214 271 327 399 485
#     4  12  28  50  75 118 158 212 262 342 401 472
#
# _framework density 25.633863000000002
#
# number of rings (size 3 to 8) (size 9 to 14) (size 15 to 20)
#    0.000    0.000    5.000    4.000    2.333    4.000 
#    6.000    0.000    0.000    0.000    0.000    0.000 
#    0.000    0.000    0.000    0.000    0.000    0.000 
#
# Total GULP energy -67072.289498 kJ/mol
# GULP energy per Si atom -5589.357458 kJ/mol
# Density = 2.557552 g / cm^3
# Si number density = 25.633863 Si / 1000 Ang^3
#
#
#
# Elastic Constant Matrix: (Units=GPa)
#
#
# Indices 1 2 3 4 5 6 
#
# 1 145.1164 31.5860 38.3713 0.0000 -1.5529 0.0000
# 2 31.5860 94.0242 27.3803 0.0000 -15.0599 0.0000
# 3 38.3713 27.3803 122.5829 0.0000 17.7066 0.0000
# 4 0.0000 0.0000 0.0000 35.7442 0.0000 0.2885
# 5 -1.5529 -15.0599 17.7066 0.0000 69.1183 0.0000
# 6 0.0000 0.0000 0.0000 0.2885 0.0000 44.0786
#
#
#
# Elastic Compliance Matrix: (Units=1/GPa)
#
#
# Indices 1 2 3 4 5 6 
#
# 1 0.007874 -0.002004 -0.002056 0.000000 0.000267 0.000000
# 2 -0.002004 0.012635 -0.002685 0.000000 0.003396 0.000000
# 3 -0.002056 -0.002685 0.009857 0.000000 -0.003156 0.000000
# 4 0.000000 0.000000 0.000000 0.027978 0.000000 -0.000183
# 5 0.000267 0.003396 -0.003156 0.000000 0.016022 0.000000
# 6 0.000000 0.000000 0.000000 -0.000183 0.000000 0.022688
#
#
# Mechanical properties :
#
#
# Convention : Reuss Voigt Hill
#
# Bulk Modulus (GPa) = 59.25669 61.82207 60.53938
# Shear Modulus (GPa) = 43.04110 47.41394 45.22752
#
# Velocity S-wave (km/s) = 4.10209 4.30543 4.20499
# Velocity P-wave (km/s) = 6.75300 6.99181 6.87344
#
# Compressibility (1/GPa) = 0.01687573
#
# Stress axis : x y z
#
# Youngs Moduli (GPa) = 127.00785 79.14803 101.45123
#
# Poissons Ratio (x) = 0.15858 0.20855
# Poissons Ratio (y) = 0.25448 0.27244
# Poissons Ratio (z) = 0.26108 0.21254
#
# Static dielectric constant tensor:
#      x y z
#    x 2.032770 0.000000 0.040580 
#    y 0.000000 2.158600 0.000000 
#    z 0.040580 0.000000 2.040460 
# 
# From -- ./inp_files/31920.got.cif
#   From: 2010.05.17/outbox.cif.g08.bks.cpg/sg9_16_cif.got.tgz:31920.got - 2010.06.03 20:04:27.
