data_PCOD9141132
_publ_section_title
;
Structure prediction by ZEFSAII (Michael W. Deem and Ramdas Pophale) SiO2 
 PCOD9141132
Probable space group: C C
;
_chemical_formula_sum "Si O2"
_cell_formula_units_Z 28
_cell_length_a 25.805133
_cell_length_b 8.850912
_cell_length_c 18.205631
_cell_angle_alpha 90.000000
_cell_angle_beta 165.176685
_cell_angle_gamma 90.000000
_cell_volume 1063.816889
_symmetry_space_group_name_H-M "C C"
_symmetry_group_IT_number 9
_symmetry_cell_setting 'monoclinic'
loop_
_space_group_symop_operation_xyz
x,y,z
x,-y,1/2+z
1/2+x,1/2+y,z
1/2+x,1/2-y,1/2+z
loop_
_atom_site_type_symbol
_atom_site_label
_atom_site_fract_x
_atom_site_fract_y
_atom_site_fract_z
Si Si1 0.319980 0.559055 0.354980
Si Si2 0.315963 0.122721 0.129094
Si Si3 0.758194 0.934462 0.600387
Si Si4 0.041631 0.404615 0.083463
Si Si5 0.964326 0.306378 0.682912
Si Si6 0.660281 0.679233 0.364525
Si Si7 0.228034 0.900451 0.239595
O O1 0.253412 0.527467 0.179846
O O2 0.161931 0.538034 0.206314
O O3 0.471311 0.420791 0.579315
O O4 0.336132 0.741431 0.368045
O O5 0.427447 0.166611 0.356851
O O6 0.417482 0.214053 0.203161
O O7 0.076276 0.155917 0.809266
O O8 0.322983 0.947472 0.112452
O O9 0.646640 0.784612 0.418069
O O10 0.993236 0.914732 0.899879
O O11 0.637455 0.072614 0.400050
O O12 0.180738 0.296429 0.324093
O O13 0.863166 0.469752 0.889774
O O14 0.762324 0.385814 0.374039
#
# Coordination Sequence:
#
# PCOD9141132 Si02
#       7
#     4   4   4   4   4   4   4
#     4  12  26  51  80 117 166 214 271 343 411 494
#     4  12  28  53  79 121 165 215 273 345 418 494
#     4  12  28  53  83 117 166 219 276 345 412 499
#     4  12  29  48  84 124 157 218 278 339 413 498
#     4  12  28  51  84 116 166 219 273 345 426 495
#     4  12  28  50  86 121 164 218 278 340 418 496
#     4  12  27  52  82 118 166 217 279 339 418 504
#
# _framework density 26.320319000000001
#
# number of rings (size 3 to 8) (size 9 to 14) (size 15 to 20)
#    0.000    0.000    4.286    4.286    6.000    2.286 
#    0.000    0.000    0.000    0.000    0.000    0.000 
#    0.000    0.000    0.000    0.000    0.000    0.000 
#
# Total GULP energy -78197.281534 kJ/mol
# GULP energy per Si atom -5585.520110 kJ/mol
# Density = 2.626041 g / cm^3
# Si number density = 26.320319 Si / 1000 Ang^3
#
#
#
# Elastic Constant Matrix: (Units=GPa)
#
#
# Indices 1 2 3 4 5 6 
#
# 1 115.8843 48.4390 35.2263 0.0002 -5.8156 0.0002
# 2 48.4390 103.4195 25.7057 0.0000 -0.2050 0.0001
# 3 35.2263 25.7057 116.9265 0.0001 -5.2740 0.0002
# 4 0.0002 0.0000 0.0001 44.7892 0.0001 6.2311
# 5 -5.8156 -0.2050 -5.2740 0.0001 38.5540 0.0001
# 6 0.0002 0.0001 0.0002 6.2311 0.0001 30.2366
#
#
#
# Elastic Compliance Matrix: (Units=1/GPa)
#
#
# Indices 1 2 3 4 5 6 
#
# 1 0.011393 -0.004756 -0.002325 0.000000 0.001375 0.000000
# 2 -0.004756 0.012216 -0.001290 0.000000 -0.000829 0.000000
# 3 -0.002325 -0.001290 0.009579 0.000000 0.000953 0.000000
# 4 0.000000 0.000000 0.000000 0.022986 0.000000 -0.004737
# 5 0.001375 -0.000829 0.000953 0.000000 0.026271 0.000000
# 6 0.000000 0.000000 0.000000 -0.004737 0.000000 0.034049
#
#
# Mechanical properties :
#
#
# Convention : Reuss Voigt Hill
#
# Bulk Modulus (GPa) = 60.80203 61.66358 61.23281
# Shear Modulus (GPa) = 36.04467 37.83994 36.94230
#
# Velocity S-wave (km/s) = 3.70464 3.79578 3.75048
# Velocity P-wave (km/s) = 6.43817 6.53372 6.48612
#
# Compressibility (1/GPa) = 0.01644682
#
# Stress axis : x y z
#
# Youngs Moduli (GPa) = 87.77505 81.86142 104.39065
#
# Poissons Ratio (x) = 0.38929 0.24269
# Poissons Ratio (y) = 0.41741 0.13469
# Poissons Ratio (z) = 0.20406 0.10562
#
# Static dielectric constant tensor:
#      x y z
#    x 2.114600 0.000000 -0.142080 
#    y 0.000000 2.124290 0.000000 
#    z -0.142080 0.000000 2.272620 
# 
# From -- ./inp_files/31696.got.cif
#   From: 2010.05.17/outbox.cif.g08.bks.cpg/sg9_16_cif.got.tgz:31696.got - 2010.06.03 20:04:27.
