data_PCOD9141651
_publ_section_title
;
Structure prediction by ZEFSAII (Michael W. Deem and Ramdas Pophale) SiO2 
 PCOD9141651
Probable space group: P 2/M
;
_chemical_formula_sum "Si O2"
_cell_formula_units_Z 32
_cell_length_a 13.264575
_cell_length_b 20.298181
_cell_length_c 7.642428
_cell_angle_alpha 90.000000
_cell_angle_beta 137.843143
_cell_angle_gamma 90.000000
_cell_volume 1381.050479
_symmetry_space_group_name_H-M "P 2/M"
_symmetry_group_IT_number 10
_symmetry_cell_setting 'monoclinic'
loop_
_space_group_symop_operation_xyz
x,y,z
-x,y,-z
-x,-y,-z
x,-y,z
loop_
_atom_site_type_symbol
_atom_site_label
_atom_site_fract_x
_atom_site_fract_y
_atom_site_fract_z
Si Si1 0.367565 0.361951 0.941206
Si Si2 0.254619 0.075139 0.018245
Si Si3 0.971499 0.812845 0.253268
Si Si4 0.166531 0.067511 0.495812
Si Si5 0.880887 0.679231 0.662185
Si Si6 0.408322 0.271527 0.558866
Si Si7 0.555305 0.872899 0.269122
Si Si8 0.102127 0.574522 0.808247
O O1 0.235974 0.331390 0.650382
O O2 0.267069 0.399487 0.958555
O O3 0.500000 0.400467 0.000000
O O4 0.472203 0.305563 0.156928
O O5 0.189694 0.069704 0.734847
O O6 0.176662 0.144014 0.979529
O O7 0.242438 0.000000 0.075987
O O8 0.425035 0.096176 0.215627
O O9 0.089992 0.866221 0.342036
O O10 0.015002 0.743413 0.228295
O O11 0.000000 0.804551 0.500000
O O12 0.322700 0.071166 0.600629
O O13 0.083550 0.000000 0.347458
O O14 0.753270 0.691776 0.645663
O O15 0.000454 0.619799 0.804599
O O16 0.500000 0.274597 0.500000
O O17 0.386420 0.195961 0.583334
O O18 0.500000 0.858195 0.000000
O O19 0.116489 0.500000 0.893425
O O20 0.000000 0.572837 0.500000
#
# Coordination Sequence:
#
# PCOD9141651 Si02
#       8
#     4   4   4   4   4   4   4   4
#     4   9  19  34  59  85 116 148 181 220 267 319
#     4   9  18  27  43  76 110 136 169 221 281 332
#     4  10  17  25  46  77 109 136 168 217 268 325
#     4   9  16  26  42  70 106 137 169 215 270 323
#     4  10  19  35  57  86 112 144 183 221 277 327
#     4  11  23  37  54  79 109 143 190 239 278 318
#     4  10  18  31  53  74 103 136 180 228 279 329
#     4   9  18  33  59  94 124 145 174 220 269 322
#
# _framework density 23.170769
#
# number of rings (size 3 to 8) (size 9 to 14) (size 15 to 20)
#    0.000    2.375    1.250    3.000    5.250    3.250 
#    0.000    2.500    0.000    3.750    0.000    0.875 
#    0.000    0.000    0.000    0.000    0.000    0.000 
#
# Total GULP energy -178332.889795 kJ/mol
# GULP energy per Si atom -5572.902806 kJ/mol
# Density = 2.311803 g / cm^3
# Si number density = 23.170769 Si / 1000 Ang^3
#
#
#
# Elastic Constant Matrix: (Units=GPa)
#
#
# Indices 1 2 3 4 5 6 
#
# 1 146.4273 68.6544 41.7538 0.0000 29.2974 0.0000
# 2 68.6544 158.0897 31.6438 0.0000 18.1591 0.0000
# 3 41.7538 31.6438 68.9261 0.0000 13.5469 0.0000
# 4 0.0000 0.0000 0.0000 -1.5685 0.0000 19.2484
# 5 29.2974 18.1591 13.5469 0.0000 29.1834 0.0000
# 6 0.0000 0.0000 0.0000 19.2484 0.0000 22.7097
#
#
#
# Elastic Compliance Matrix: (Units=1/GPa)
#
#
# Indices 1 2 3 4 5 6 
#
# 1 0.010777 -0.003119 -0.003688 0.000000 -0.007167 0.000000
# 2 -0.003119 0.008139 -0.001615 0.000000 -0.001184 0.000000
# 3 -0.003688 -0.001615 0.018221 0.000000 -0.003751 0.000000
# 4 0.000000 0.000000 0.000000 -0.055919 0.000000 0.047396
# 5 -0.007167 -0.001184 -0.003751 0.000000 0.043938 0.000000
# 6 0.000000 0.000000 0.000000 0.047396 0.000000 0.003862
#
#
# Mechanical properties :
#
#
# Convention : Reuss Voigt Hill
#
# Bulk Modulus (GPa) = 49.27566 73.06081 61.16824
# Shear Modulus (GPa) = 95.00759 25.49100 60.24929
#
# Velocity S-wave (km/s) = 6.41032 3.32043 5.10478
# Velocity P-wave (km/s) = 8.72365 6.80443 7.82312
#
# Compressibility (1/GPa) = 0.02029399
#
# Stress axis : x y z
#
# Youngs Moduli (GPa) = 92.78825 122.86290 54.88178
#
# Poissons Ratio (x) = 0.38319 0.20241
# Poissons Ratio (y) = 0.28939 0.08861
# Poissons Ratio (z) = 0.34222 0.19838
#
# Static dielectric constant tensor:
#      x y z
#    x 1.986690 0.000000 -0.024760 
#    y 0.000000 1.808110 0.000000 
#    z -0.024760 0.000000 1.928420 
# 
# From -- ./inp_files/26110.got.cif
#   From: 2010.05.17/outbox.cif.g08.bks.cpg/sg10_14_cif.got.tgz:26110.got - 2010.06.03 11:33:40.
