data_PCOD9141446
_publ_section_title
;
Structure prediction by ZEFSAII (Michael W. Deem and Ramdas Pophale) SiO2 
 PCOD9141446
Probable space group: P 2/M
;
_chemical_formula_sum "Si O2"
_cell_formula_units_Z 26
_cell_length_a 10.881773
_cell_length_b 31.286478
_cell_length_c 7.807855
_cell_angle_alpha 90.000000
_cell_angle_beta 26.719235
_cell_angle_gamma 90.000000
_cell_volume 1195.178102
_symmetry_space_group_name_H-M "P 2/M"
_symmetry_group_IT_number 10
_symmetry_cell_setting 'monoclinic'
loop_
_space_group_symop_operation_xyz
x,y,z
-x,y,-z
-x,-y,-z
x,-y,z
loop_
_atom_site_type_symbol
_atom_site_label
_atom_site_fract_x
_atom_site_fract_y
_atom_site_fract_z
Si Si1 0.387960 0.231772 0.330486
Si Si2 0.186795 0.410885 0.594588
Si Si3 0.317610 0.138385 0.555542
Si Si4 0.322482 0.624322 0.885799
Si Si5 0.318340 0.500000 0.552397
Si Si6 0.116579 0.718781 0.159559
Si Si7 0.320534 0.954022 0.549524
O O1 0.357919 0.181646 0.401648
O O2 0.109624 0.258785 0.676104
O O3 0.500000 0.236727 0.000000
O O4 0.615824 0.251897 0.168172
O O5 0.435939 0.377332 0.275158
O O6 0.339484 0.456344 0.419239
O O7 0.000000 0.405179 0.000000
O O8 0.945116 0.404961 0.758883
O O9 0.500000 0.141073 0.500000
O O10 0.378962 0.092143 0.392686
O O11 0.000000 0.137579 0.000000
O O12 0.500000 0.609873 0.500000
O O13 0.204609 0.671252 0.000251
O O14 0.500000 0.500000 0.500000
O O15 0.000000 0.500000 0.000000
O O16 0.000000 0.716025 0.500000
O O17 0.500000 0.954008 0.500000
O O18 0.375190 0.000000 0.393446
O O19 0.000000 0.954082 0.000000
#
# Coordination Sequence:
#
# PCOD9141446 Si02
#       7
#     4   4   4   4   2   4   4
#     4  10  21  36  51  69  97 130 164 202 245 294
#     4   9  17  28  44  69  97 123 150 185 231 279
#     4  10  19  31  50  75  99 125 163 205 243 287
#     4  10  19  31  47  70  96 119 151 197 240 271
#     4  10  16  26  44  66  97 130 153 180 225 286
#     4  10  21  36  52  69  92 129 169 197 235 295
#     4   8  14  25  42  66  95 124 154 192 237 284
#
# _framework density 21.754079999999998
#
# number of rings (size 3 to 8) (size 9 to 14) (size 15 to 20)
#    0.000    2.462    0.000    4.154    0.000    1.846 
#    0.000    0.000    0.000    0.462    0.000    3.231 
#    0.000   16.000    0.000    0.000    0.000    2.462 
#
# Total GULP energy -144908.107234 kJ/mol
# GULP energy per Si atom -5573.388740 kJ/mol
# Density = 2.170457 g / cm^3
# Si number density = 21.754080 Si / 1000 Ang^3
#
#
#
# Elastic Constant Matrix: (Units=GPa)
#
#
# Indices 1 2 3 4 5 6 
#
# 1 31.9398 5.2494 69.4854 0.0000 -3.3827 0.0000
# 2 5.2494 162.7649 52.5231 0.0000 -20.9784 0.0000
# 3 69.4854 52.5231 105.7659 0.0000 -61.3010 0.0000
# 4 0.0000 0.0000 0.0000 162.3735 0.0000 154.3226
# 5 -3.3827 -20.9784 -61.3010 0.0000 37.9577 0.0000
# 6 0.0000 0.0000 0.0000 154.3226 0.0000 228.3814
#
#
#
# Elastic Compliance Matrix: (Units=1/GPa)
#
#
# Indices 1 2 3 4 5 6 
#
# 1 -0.001144 -0.001983 0.016290 0.000000 0.025109 0.000000
# 2 -0.001983 0.006581 0.000633 0.000000 0.004482 0.000000
# 3 0.016290 0.000633 -0.008083 0.000000 -0.011253 0.000000
# 4 0.000000 0.000000 0.000000 0.017213 0.000000 -0.011632
# 5 0.025109 0.004482 -0.011253 0.000000 0.012887 0.000000
# 6 0.000000 0.000000 0.000000 -0.011632 0.000000 0.012238
#
#
# Mechanical properties :
#
#
# Convention : Reuss Voigt Hill
#
# Bulk Modulus (GPa) = 36.72169 61.66516 49.19343
# Shear Modulus (GPa) = 264.66133 97.29003 180.97568
#
# Velocity S-wave (km/s) = 11.04195 6.69476 9.13084
# Velocity P-wave (km/s) = 13.39714 9.38976 11.56830
#
# Compressibility (1/GPa) = 0.02723186
#
# Stress axis : x y z
#
# Youngs Moduli (GPa) = -874.13935 151.94431 -123.71168
#
# Poissons Ratio (x) = 0.30136 2.01521
# Poissons Ratio (y) = -1.73374 0.07827
# Poissons Ratio (z) = 14.23936 -0.09613
#
# Static dielectric constant tensor:
#      x y z
#    x 1.865400 0.000000 0.000050 
#    y 0.000000 1.873070 0.000000 
#    z 0.000050 0.000000 1.593100 
# 
# From -- ./inp_files/52119.got.cif
#   From: 2010.05.17/outbox.cif.g08.bks.cpg/sg10_27_cif.got.tgz:52119.got - 2010.06.03 11:33:40.
