data_PCOD9141474
_publ_section_title
;
Structure prediction by ZEFSAII (Michael W. Deem and Ramdas Pophale) SiO2 
 PCOD9141474
Probable space group: P 2/M
;
_chemical_formula_sum "Si O2"
_cell_formula_units_Z 26
_cell_length_a 9.608924
_cell_length_b 11.962892
_cell_length_c 16.664279
_cell_angle_alpha 90.000000
_cell_angle_beta 128.252477
_cell_angle_gamma 90.000000
_cell_volume 1504.276349
_symmetry_space_group_name_H-M "P 2/M"
_symmetry_group_IT_number 10
_symmetry_cell_setting 'monoclinic'
loop_
_space_group_symop_operation_xyz
x,y,z
-x,y,-z
-x,-y,-z
x,-y,z
loop_
_atom_site_type_symbol
_atom_site_label
_atom_site_fract_x
_atom_site_fract_y
_atom_site_fract_z
Si Si1 0.803472 0.371876 0.470298
Si Si2 0.732679 0.000000 0.247834
Si Si3 0.275707 0.243463 0.091016
Si Si4 0.324327 0.248225 0.722721
Si Si5 0.997822 0.634028 0.694172
Si Si6 0.055028 0.000000 0.832788
Si Si7 0.665429 0.000000 0.934306
Si Si8 0.981166 0.249945 0.857633
O O1 0.739426 0.500000 0.445181
O O2 0.686599 0.294665 0.371586
O O3 0.000000 0.371404 0.500000
O O4 0.840882 0.336883 0.575052
O O5 0.723703 0.116457 0.292483
O O6 0.894638 0.000000 0.243078
O O7 0.545068 0.000000 0.134016
O O8 0.482398 0.271706 0.170848
O O9 0.167424 0.281222 0.130194
O O10 0.272036 0.108811 0.090131
O O11 0.167296 0.272095 0.971325
O O12 0.176359 0.310912 0.722651
O O13 0.014741 0.500000 0.698706
O O14 0.967749 0.679982 0.771956
O O15 0.969399 0.882037 0.829034
O O16 0.240526 0.000000 0.946982
#
# Coordination Sequence:
#
# PCOD9141474 Si02
#       8
#     4   2   4   4   4   2   2   4
#     4   8  16  33  55  73  93 128 169 208 249 295
#     4  10  17  26  46  83 106 123 157 211 251 291
#     4   9  19  32  51  75 104 139 165 202 243 302
#     4  10  18  33  52  77 105 129 165 206 252 295
#     4  10  20  36  55  73  98 131 170 213 250 293
#     4  10  16  28  50  75 101 134 167 203 239 297
#     4   8  16  28  47  71 105 137 166 196 240 292
#     4  10  19  34  51  75 105 135 171 199 248 295
#
# _framework density 17.284058999999999
#
# number of rings (size 3 to 8) (size 9 to 14) (size 15 to 20)
#    0.000    2.615    1.538    2.077    0.000    2.462 
#    0.000   10.385    0.000    1.846    0.000    4.308 
#    0.000    0.000    0.000    0.000    0.000    0.000 
#
# Total GULP energy -144755.853164 kJ/mol
# GULP energy per Si atom -5567.532814 kJ/mol
# Density = 1.724472 g / cm^3
# Si number density = 17.284059 Si / 1000 Ang^3
#
#
#
# Elastic Constant Matrix: (Units=GPa)
#
#
# Indices 1 2 3 4 5 6 
#
# 1 34.3842 11.6142 23.5813 0.0000 -16.7073 0.0000
# 2 11.6142 57.2838 31.8862 0.0000 -9.4925 0.0000
# 3 23.5813 31.8862 82.4503 0.0000 -26.7161 0.0000
# 4 0.0000 0.0000 0.0000 30.8927 0.0000 -3.0387
# 5 -16.7073 -9.4925 -26.7161 0.0000 22.8220 0.0000
# 6 0.0000 0.0000 0.0000 -3.0387 0.0000 21.1330
#
#
#
# Elastic Compliance Matrix: (Units=1/GPa)
#
#
# Indices 1 2 3 4 5 6 
#
# 1 0.046227 -0.003121 -0.002367 0.000000 0.029772 0.000000
# 2 -0.003121 0.022481 -0.008881 0.000000 -0.003330 0.000000
# 3 -0.002367 -0.008881 0.023332 0.000000 0.021886 0.000000
# 4 0.000000 0.000000 0.000000 0.032834 0.000000 0.004721
# 5 0.029772 -0.003330 0.021886 0.000000 0.089848 0.000000
# 6 0.000000 0.000000 0.000000 0.004721 0.000000 0.047998
#
#
# Mechanical properties :
#
#
# Convention : Reuss Voigt Hill
#
# Bulk Modulus (GPa) = 15.79731 34.25352 25.02541
# Shear Modulus (GPa) = 15.99698 22.10532 19.05115
#
# Velocity S-wave (km/s) = 3.04556 3.58011 3.32360
# Velocity P-wave (km/s) = 4.63971 6.07870 5.40729
#
# Compressibility (1/GPa) = 0.06330193
#
# Stress axis : x y z
#
# Youngs Moduli (GPa) = 21.63227 44.48166 42.86040
#
# Poissons Ratio (x) = 0.13884 0.10146
# Poissons Ratio (y) = 0.06752 0.38062
# Poissons Ratio (z) = 0.05121 0.39502
#
# Static dielectric constant tensor:
#      x y z
#    x 1.594290 0.000000 -0.002060 
#    y 0.000000 1.590990 0.000000 
#    z -0.002060 0.000000 1.603560 
# 
# From -- ./inp_files/61090.got.cif
#   From: 2010.05.17/outbox.cif.g08.bks.cpg/sg10_31_cif.got.tgz:61090.got - 2010.06.03 11:33:40.
