data_PCOD9141982
_publ_section_title
;
Structure prediction by ZEFSAII (Michael W. Deem and Ramdas Pophale) SiO2 
 PCOD9141982
Probable space group: P 2/M
;
_chemical_formula_sum "Si O2"
_cell_formula_units_Z 28
_cell_length_a 19.588218
_cell_length_b 7.904599
_cell_length_c 24.946679
_cell_angle_alpha 90.000000
_cell_angle_beta 158.238443
_cell_angle_gamma 90.000000
_cell_volume 1432.064415
_symmetry_space_group_name_H-M "P 2/M"
_symmetry_group_IT_number 10
_symmetry_cell_setting 'monoclinic'
loop_
_space_group_symop_operation_xyz
x,y,z
-x,y,-z
-x,-y,-z
x,-y,z
loop_
_atom_site_type_symbol
_atom_site_label
_atom_site_fract_x
_atom_site_fract_y
_atom_site_fract_z
Si Si1 0.109780 0.802761 0.028902
Si Si2 0.887687 0.701047 0.652603
Si Si3 0.866667 0.698245 0.071697
Si Si4 0.525418 0.302080 0.335341
Si Si5 0.597433 0.206629 0.153371
Si Si6 0.450669 0.804229 0.765283
Si Si7 0.782512 0.204546 0.181032
O O1 0.328933 0.786621 0.197604
O O2 0.062297 0.000000 0.988102
O O3 0.068834 0.714851 0.942485
O O4 0.000000 0.734370 0.000000
O O5 0.863487 0.500000 0.641869
O O6 0.688352 0.769304 0.490950
O O7 0.986413 0.765269 0.778367
O O8 0.032229 0.729866 0.710167
O O9 0.830181 0.500000 0.056435
O O10 0.672230 0.793358 0.934466
O O11 0.495295 0.500000 0.324799
O O12 0.587611 0.286695 0.318549
O O13 0.630518 0.264531 0.238155
O O14 0.739538 0.257970 0.210648
O O15 0.596589 0.000000 0.154370
O O16 0.394617 0.257051 0.983936
O O17 0.396714 0.000000 0.719511
O O18 0.787218 0.000000 0.183662
#
# Coordination Sequence:
#
# PCOD9141982 Si02
#       7
#     4   4   4   4   4   4   4
#     4  10  21  38  59  83 106 127 160 205 247 295
#     4  10  21  35  49  74 108 137 171 211 250 296
#     4  10  19  32  53  78 103 134 170 205 245 298
#     4  10  21  36  53  74 105 140 169 203 248 302
#     4   8  15  27  46  73 100 128 171 221 262 299
#     4  10  17  30  51  75 100 130 173 221 258 297
#     4   9  16  29  49  71  98 135 173 215 262 302
#
# _framework density 19.552194
#
# number of rings (size 3 to 8) (size 9 to 14) (size 15 to 20)
#    0.000    2.429    1.429    4.286    0.000    2.857 
#    0.000    4.286    0.000    8.571    0.000    0.000 
#    0.000    0.000    0.000    0.000    0.000    0.000 
#
# Total GULP energy -156178.935206 kJ/mol
# GULP energy per Si atom -5577.819114 kJ/mol
# Density = 1.950769 g / cm^3
# Si number density = 19.552194 Si / 1000 Ang^3
#
#
#
# Elastic Constant Matrix: (Units=GPa)
#
#
# Indices 1 2 3 4 5 6 
#
# 1 100.9790 -12.7731 30.8689 0.0000 1.1525 0.0000
# 2 -12.7731 24.0990 -7.0346 0.0000 -1.8134 0.0000
# 3 30.8689 -7.0346 82.8487 0.0000 -13.6384 0.0000
# 4 0.0000 0.0000 0.0000 -44.9475 0.0000 -4.5121
# 5 1.1525 -1.8134 -13.6384 0.0000 16.9817 0.0000
# 6 0.0000 0.0000 0.0000 -4.5121 0.0000 29.3975
#
#
#
# Elastic Compliance Matrix: (Units=1/GPa)
#
#
# Indices 1 2 3 4 5 6 
#
# 1 0.011993 0.004658 -0.004753 0.000000 -0.004134 0.000000
# 2 0.004658 0.045472 0.003311 0.000000 0.007199 0.000000
# 3 -0.004753 0.003311 0.016402 0.000000 0.013849 0.000000
# 4 0.000000 0.000000 0.000000 -0.021911 0.000000 -0.003363
# 5 -0.004134 0.007199 0.013849 0.000000 0.071059 0.000000
# 6 0.000000 0.000000 0.000000 -0.003363 0.000000 0.033500
#
#
# Mechanical properties :
#
#
# Convention : Reuss Voigt Hill
#
# Bulk Modulus (GPa) = 12.45380 25.56102 19.00741
# Shear Modulus (GPa) = 28.27232 13.41070 20.84151
#
# Velocity S-wave (km/s) = 3.80675 2.62180 3.26842
# Velocity P-wave (km/s) = 5.07002 4.71876 4.89754
#
# Compressibility (1/GPa) = 0.08029675
#
# Stress axis : x y z
#
# Youngs Moduli (GPa) = 83.38544 21.99143 60.96742
#
# Poissons Ratio (x) = -0.10243 0.28980
# Poissons Ratio (y) = -0.38839 -0.20184
# Poissons Ratio (z) = 0.39636 -0.07280
#
# Static dielectric constant tensor:
#      x y z
#    x 1.704290 0.000000 -0.022550 
#    y 0.000000 1.691940 0.000000 
#    z -0.022550 0.000000 1.679770 
# 
# From -- ./inp_files/93552.got.cif
#   From: 2010.05.17/outbox.cif.g08.bks.cpg/sg10_47_cif.got.tgz:93552.got - 2010.06.03 11:33:40.
