data_PCOD9141468
_publ_section_title
;
Structure prediction by ZEFSAII (Michael W. Deem and Ramdas Pophale) SiO2 
 PCOD9141468
Probable space group: P 2/M
;
_chemical_formula_sum "Si O2"
_cell_formula_units_Z 28
_cell_length_a 13.747529
_cell_length_b 18.887099
_cell_length_c 8.507210
_cell_angle_alpha 90.000000
_cell_angle_beta 47.520444
_cell_angle_gamma 90.000000
_cell_volume 1629.108034
_symmetry_space_group_name_H-M "P 2/M"
_symmetry_group_IT_number 10
_symmetry_cell_setting 'monoclinic'
loop_
_space_group_symop_operation_xyz
x,y,z
-x,y,-z
-x,-y,-z
x,-y,z
loop_
_atom_site_type_symbol
_atom_site_label
_atom_site_fract_x
_atom_site_fract_y
_atom_site_fract_z
Si Si1 0.941681 0.833178 0.723243
Si Si2 0.397324 0.418857 0.470766
Si Si3 0.376142 0.302751 0.236441
Si Si4 0.803843 0.789127 0.349009
Si Si5 0.855185 0.352717 0.099792
Si Si6 0.847925 0.920055 0.104353
Si Si7 0.859139 0.320851 0.734654
O O1 0.860778 0.764051 0.760614
O O2 0.000000 0.865798 0.500000
O O3 0.063185 0.802597 0.695184
O O4 0.860382 0.887488 0.917007
O O5 0.500000 0.408298 0.500000
O O6 0.404271 0.500000 0.410460
O O7 0.423221 0.363785 0.303730
O O8 0.254484 0.400469 0.698203
O O9 0.307497 0.241463 0.414821
O O10 0.261551 0.334841 0.250104
O O11 0.500000 0.277797 0.000000
O O12 0.831248 0.727518 0.190938
O O13 0.774933 0.862526 0.292388
O O14 0.846963 0.354367 0.920364
O O15 0.000000 0.373095 0.000000
O O16 0.796863 0.000000 0.165131
O O17 0.000000 0.921815 0.000000
O O18 0.000000 0.338372 0.500000
#
# Coordination Sequence:
#
# PCOD9141468 Si02
#       7
#     4   4   4   4   4   4   4
#     4  10  16  27  49  76 109 144 170 217 273 316
#     4  10  23  42  58  76 108 145 175 214 269 328
#     4  11  22  35  56  84 106 134 181 227 270 319
#     4  10  17  31  50  76 109 142 179 222 270 307
#     4  11  18  32  58  82 106 141 182 223 261 315
#     4   9  17  28  46  75 111 148 184 219 261 317
#     4  11  18  31  53  83 110 139 169 223 278 313
#
# _framework density 17.187318000000001
#
# number of rings (size 3 to 8) (size 9 to 14) (size 15 to 20)
#    0.000    1.714    5.714    2.143    0.000    0.857 
#    0.000    0.714    0.000    2.143    0.000    1.000 
#    0.000    0.000    0.000    0.000    0.000    0.000 
#
# Total GULP energy -156181.944292 kJ/mol
# GULP energy per Si atom -5577.926582 kJ/mol
# Density = 1.714820 g / cm^3
# Si number density = 17.187318 Si / 1000 Ang^3
#
#
#
# Elastic Constant Matrix: (Units=GPa)
#
#
# Indices 1 2 3 4 5 6 
#
# 1 38.1186 29.1718 20.1870 0.0000 7.3128 0.0000
# 2 29.1718 78.8368 23.6405 0.0000 5.5846 0.0000
# 3 20.1870 23.6405 97.9460 0.0000 7.7044 0.0000
# 4 0.0000 0.0000 0.0000 5.4272 0.0000 -0.8740
# 5 7.3128 5.5846 7.7044 0.0000 33.1053 0.0000
# 6 0.0000 0.0000 0.0000 -0.8740 0.0000 11.5329
#
#
#
# Elastic Compliance Matrix: (Units=1/GPa)
#
#
# Indices 1 2 3 4 5 6 
#
# 1 0.039587 -0.012874 -0.004619 0.000000 -0.005498 0.000000
# 2 -0.012874 0.017941 -0.001694 0.000000 0.000211 0.000000
# 3 -0.004619 -0.001694 0.011682 0.000000 -0.001413 0.000000
# 4 0.000000 0.000000 0.000000 0.186534 0.000000 0.014136
# 5 -0.005498 0.000211 -0.001413 0.000000 0.031714 0.000000
# 6 0.000000 0.000000 0.000000 0.014136 0.000000 0.087780
#
#
# Mechanical properties :
#
#
# Convention : Reuss Voigt Hill
#
# Bulk Modulus (GPa) = 32.42915 40.09998 36.26457
# Shear Modulus (GPa) = 11.79552 19.47323 15.63438
#
# Velocity S-wave (km/s) = 2.62256 3.36966 3.01931
# Velocity P-wave (km/s) = 5.29901 6.20655 5.77065
#
# Compressibility (1/GPa) = 0.03083645
#
# Stress axis : x y z
#
# Youngs Moduli (GPa) = 25.26082 55.73859 85.60439
#
# Poissons Ratio (x) = 0.71756 0.39543
# Poissons Ratio (y) = 0.32520 0.14498
# Poissons Ratio (z) = 0.11669 0.09440
#
# Static dielectric constant tensor:
#      x y z
#    x 1.592580 0.000000 0.019580 
#    y 0.000000 1.579370 0.000000 
#    z 0.019580 0.000000 1.591430 
# 
# From -- ./inp_files/30099.got.cif
#   From: 2010.05.17/outbox.cif.g08.bks.cpg/sg10_16_cif.got.tgz:30099.got - 2010.06.03 11:33:40.
