data_PCOD9141820
_publ_section_title
;
Structure prediction by ZEFSAII (Michael W. Deem and Ramdas Pophale) SiO2 
 PCOD9141820
Probable space group: P 2/M
;
_chemical_formula_sum "Si O2"
_cell_formula_units_Z 24
_cell_length_a 20.006448
_cell_length_b 10.849566
_cell_length_c 27.931404
_cell_angle_alpha 90.000000
_cell_angle_beta 11.473624
_cell_angle_gamma 90.000000
_cell_volume 1205.998038
_symmetry_space_group_name_H-M "P 2/M"
_symmetry_group_IT_number 10
_symmetry_cell_setting 'monoclinic'
loop_
_space_group_symop_operation_xyz
x,y,z
-x,y,-z
-x,-y,-z
x,-y,z
loop_
_atom_site_type_symbol
_atom_site_label
_atom_site_fract_x
_atom_site_fract_y
_atom_site_fract_z
Si Si1 0.231451 0.248245 0.534791
Si Si2 0.582762 0.000000 0.858972
Si Si3 0.787778 0.361281 0.196938
Si Si4 0.402759 0.500000 0.149909
Si Si5 0.374630 0.747677 0.968112
Si Si6 0.951394 0.500000 0.375633
Si Si7 0.048523 0.000000 0.622402
Si Si8 0.905025 0.644943 0.217323
O O1 0.499418 0.262778 0.389171
O O2 0.251466 0.374852 0.491038
O O3 0.254409 0.124390 0.488391
O O4 0.870619 0.249306 0.813530
O O5 0.566246 0.122920 0.838166
O O6 0.889028 0.000000 0.681605
O O7 0.256775 0.000000 0.123914
O O8 0.639709 0.500000 0.307635
O O9 0.000657 0.336954 0.094757
O O10 0.000000 0.362433 0.000000
O O11 0.406717 0.624483 0.178102
O O12 0.107701 0.500000 0.318375
O O13 0.743728 0.500000 0.877529
O O14 0.130628 0.725937 0.094124
O O15 0.500000 0.668273 0.500000
O O16 0.950560 0.500000 0.198487
#
# Coordination Sequence:
#
# PCOD9141820 Si02
#       8
#     4   2   4   2   4   2   2   4
#     4  10  17  29  47  70  98 133 168 198 248 293
#     4   9  18  30  44  70 110 134 159 199 254 302
#     4  10  20  33  50  75 103 132 167 206 246 294
#     4   9  16  24  40  70  96 120 165 207 244 284
#     4  10  17  28  46  72 100 133 162 200 247 296
#     4   9  16  24  42  67  96 123 161 211 242 289
#     4   9  18  30  46  69 104 141 159 197 256 301
#     4  10  18  29  50  74 100 132 165 201 252 293
#
# _framework density 19.90053
#
# number of rings (size 3 to 8) (size 9 to 14) (size 15 to 20)
#    0.000    2.333    3.333    1.000    0.000    4.000 
#    0.000    1.667    0.000    0.000    0.000    7.000 
#    0.000    0.000    0.000    0.000    0.000    0.000 
#
# Total GULP energy -133752.157869 kJ/mol
# GULP energy per Si atom -5573.006578 kJ/mol
# Density = 1.985524 g / cm^3
# Si number density = 19.900530 Si / 1000 Ang^3
#
#
#
# Elastic Constant Matrix: (Units=GPa)
#
#
# Indices 1 2 3 4 5 6 
#
# 1 120.1122 84.5991 16.0005 0.0000 -31.3883 0.0000
# 2 84.5991 176.5825 19.9841 0.0000 -39.1738 0.0000
# 3 16.0005 19.9841 9.5252 0.0000 -8.9446 0.0000
# 4 0.0000 0.0000 0.0000 7.0793 0.0000 -8.9607
# 5 -31.3883 -39.1738 -8.9446 0.0000 33.0206 0.0000
# 6 0.0000 0.0000 0.0000 -8.9607 0.0000 22.1936
#
#
#
# Elastic Compliance Matrix: (Units=1/GPa)
#
#
# Indices 1 2 3 4 5 6 
#
# 1 0.014197 -0.004518 -0.009026 0.000000 0.005691 0.000000
# 2 -0.004518 0.009931 -0.008336 0.000000 0.005229 0.000000
# 3 -0.009026 -0.008336 0.161329 0.000000 0.025231 0.000000
# 4 0.000000 0.000000 0.000000 0.288903 0.000000 0.116645
# 5 0.005691 0.005229 0.025231 0.000000 0.048731 0.000000
# 6 0.000000 0.000000 0.000000 0.116645 0.000000 0.092154
#
#
# Mechanical properties :
#
#
# Convention : Reuss Voigt Hill
#
# Bulk Modulus (GPa) = 7.05733 60.82082 33.93907
# Shear Modulus (GPa) = 7.07977 24.83445 15.95711
#
# Velocity S-wave (km/s) = 1.88820 3.53644 2.83476
# Velocity P-wave (km/s) = 2.88231 6.87779 5.27312
#
# Compressibility (1/GPa) = 0.14169672
#
# Stress axis : x y z
#
# Youngs Moduli (GPa) = 70.43709 100.69569 6.19852
#
# Poissons Ratio (x) = 0.45492 0.05595
# Poissons Ratio (y) = 0.31822 0.05167
# Poissons Ratio (z) = 0.63578 0.83942
#
# Static dielectric constant tensor:
#      x y z
#    x 1.718940 0.000000 0.023020 
#    y 0.000000 1.715700 0.000000 
#    z 0.023020 0.000000 1.733380 
# 
# From -- ./inp_files/46249.got.cif
#   From: 2010.05.17/outbox.cif.g08.bks.cpg/sg10_24_cif.got.tgz:46249.got - 2010.06.03 11:33:40.
