data_PCOD9141056
_publ_section_title
;
Structure prediction by ZEFSAII (Michael W. Deem and Ramdas Pophale) SiO2 
 PCOD9141056
Probable space group: C C
;
_chemical_formula_sum "Si O2"
_cell_formula_units_Z 32
_cell_length_a 20.833822
_cell_length_b 14.803029
_cell_length_c 14.631467
_cell_angle_alpha 90.000000
_cell_angle_beta 162.159307
_cell_angle_gamma 90.000000
_cell_volume 1382.469986
_symmetry_space_group_name_H-M "C C"
_symmetry_group_IT_number 9
_symmetry_cell_setting 'monoclinic'
loop_
_space_group_symop_operation_xyz
x,y,z
x,-y,1/2+z
1/2+x,1/2+y,z
1/2+x,1/2-y,1/2+z
loop_
_atom_site_type_symbol
_atom_site_label
_atom_site_fract_x
_atom_site_fract_y
_atom_site_fract_z
Si Si1 0.078740 0.122206 0.349230
Si Si2 0.258607 0.488997 0.208636
Si Si3 0.797792 0.624963 0.314294
Si Si4 0.291473 0.043689 0.121225
Si Si5 0.419481 0.848576 0.470608
Si Si6 0.185962 0.488948 0.396105
Si Si7 0.099635 0.853432 0.205954
Si Si8 0.988023 0.805739 0.547839
O O1 0.258041 0.139972 0.667075
O O2 0.169635 0.040142 0.412770
O O3 0.865958 0.078460 0.101072
O O4 0.057284 0.203159 0.248087
O O5 0.411415 0.572906 0.439637
O O6 0.334090 0.390322 0.341283
O O7 0.238213 0.488219 0.071222
O O8 0.029266 0.489289 0.942535
O O9 0.710371 0.562724 0.114043
O O10 0.895024 0.710315 0.394090
O O11 0.974385 0.568439 0.603997
O O12 0.649703 0.664573 0.190222
O O13 0.231662 0.126347 0.976280
O O14 0.267009 0.862347 0.350976
O O15 0.507088 0.747096 0.583977
O O16 0.615131 0.919114 0.746492
#
# Coordination Sequence:
#
# PCOD9141056 Si02
#       8
#     4   4   4   4   4   4   4   4
#     4  12  26  47  77 105 147 198 243 303 376 435
#     4  12  25  49  74 106 153 195 244 307 369 445
#     4  12  27  47  73 109 146 192 251 304 369 443
#     4  12  26  47  77 105 147 198 243 303 376 435
#     4  12  29  49  74 114 151 196 249 307 376 446
#     4  12  25  49  74 106 153 195 244 307 369 445
#     4  12  29  49  74 114 151 196 249 307 376 446
#     4  12  27  47  73 109 146 192 251 304 369 443
#
# _framework density 23.146977
#
# number of rings (size 3 to 8) (size 9 to 14) (size 15 to 20)
#    0.000    0.000    5.000    4.500    7.000    2.000 
#    0.000    0.000    0.000    0.000    0.000    0.000 
#    0.000    0.000    0.000    0.000    0.000    0.000 
#
# Total GULP energy -89447.423180 kJ/mol
# GULP energy per Si atom -5590.463949 kJ/mol
# Density = 2.309429 g / cm^3
# Si number density = 23.146977 Si / 1000 Ang^3
#
#
#
# Elastic Constant Matrix: (Units=GPa)
#
#
# Indices 1 2 3 4 5 6 
#
# 1 102.0780 -5.6855 35.6957 0.0001 -18.8012 0.0000
# 2 -5.6855 92.8641 17.1516 0.0001 -1.2540 0.0001
# 3 35.6957 17.1516 65.1880 0.0002 -8.5492 0.0001
# 4 0.0001 0.0001 0.0002 81.0251 0.0001 24.0166
# 5 -18.8012 -1.2540 -8.5492 0.0001 36.4692 0.0000
# 6 0.0000 0.0001 0.0001 24.0166 0.0000 41.6066
#
#
#
# Elastic Compliance Matrix: (Units=1/GPa)
#
#
# Indices 1 2 3 4 5 6 
#
# 1 0.013432 0.002232 -0.007247 0.000000 0.005302 0.000000
# 2 0.002232 0.011693 -0.004225 0.000000 0.000562 0.000000
# 3 -0.007247 -0.004225 0.020543 0.000000 0.000934 0.000000
# 4 0.000000 0.000000 0.000000 0.014889 0.000000 -0.008595
# 5 0.005302 0.000562 0.000934 0.000000 0.030392 0.000000
# 6 0.000000 0.000000 0.000000 -0.008595 0.000000 0.028996
#
#
# Mechanical properties :
#
#
# Convention : Reuss Voigt Hill
#
# Bulk Modulus (GPa) = 36.78091 39.38375 38.08233
# Shear Modulus (GPa) = 33.90136 46.01807 39.95971
#
# Velocity S-wave (km/s) = 3.83118 4.46363 4.15944
# Velocity P-wave (km/s) = 5.95779 6.60431 6.28936
#
# Compressibility (1/GPa) = 0.02718802
#
# Stress axis : x y z
#
# Youngs Moduli (GPa) = 74.45167 85.52072 48.67910
#
# Poissons Ratio (x) = -0.19091 0.35277
# Poissons Ratio (y) = -0.16620 0.20568
# Poissons Ratio (z) = 0.53954 0.36134
#
# Static dielectric constant tensor:
#      x y z
#    x 1.871570 0.000000 0.020120 
#    y 0.000000 1.515170 0.000000 
#    z 0.020120 0.000000 1.912200 
# 
# From -- ./inp_files/27460.got.cif
#   From: 2010.05.17/outbox.cif.g08.bks.cpg/sg9_14_cif.got.tgz:27460.got - 2010.06.03 20:04:27.
