data_PCOD9141131
_publ_section_title
;
Structure prediction by ZEFSAII (Michael W. Deem and Ramdas Pophale) SiO2 
 PCOD9141131
Probable space group: C C
;
_chemical_formula_sum "Si O2"
_cell_formula_units_Z 32
_cell_length_a 26.294945
_cell_length_b 9.439187
_cell_length_c 9.229171
_cell_angle_alpha 90.000000
_cell_angle_beta 32.989086
_cell_angle_gamma 90.000000
_cell_volume 1247.242496
_symmetry_space_group_name_H-M "C C"
_symmetry_group_IT_number 9
_symmetry_cell_setting 'monoclinic'
loop_
_space_group_symop_operation_xyz
x,y,z
x,-y,1/2+z
1/2+x,1/2+y,z
1/2+x,1/2-y,1/2+z
loop_
_atom_site_type_symbol
_atom_site_label
_atom_site_fract_x
_atom_site_fract_y
_atom_site_fract_z
Si Si1 0.880300 0.193761 0.653650
Si Si2 0.975355 0.427909 0.273773
Si Si3 0.715793 0.189117 0.491529
Si Si4 0.795968 0.416722 0.082141
Si Si5 0.545064 0.851328 0.833974
Si Si6 0.496871 0.437572 0.435926
Si Si7 0.734231 0.090891 0.767244
Si Si8 0.116828 0.071355 0.372885
O O1 0.964677 0.279526 0.379153
O O2 0.817375 0.138685 0.672617
O O3 0.828173 0.306308 0.880593
O O4 0.922922 0.060581 0.636315
O O5 0.880163 0.478419 0.423661
O O6 0.998173 0.542194 0.337647
O O7 0.056968 0.422048 0.961050
O O8 0.771926 0.317072 0.278252
O O9 0.752020 0.115661 0.554202
O O10 0.628318 0.277563 0.764954
O O11 0.707311 0.067731 0.388675
O O12 0.709262 0.509971 0.230179
O O13 0.473325 0.723014 0.027579
O O14 0.644690 0.814425 0.528355
O O15 0.587583 0.466439 0.315388
O O16 0.530645 0.434002 0.189675
#
# Coordination Sequence:
#
# PCOD9141131 Si02
#       8
#     4   4   4   4   4   4   4   4
#     4  12  29  50  79 120 162 210 273 335 406 482
#     4  12  28  49  80 115 164 206 269 330 403 483
#     4  12  27  48  83 115 161 209 275 325 401 483
#     4  12  27  50  81 116 162 215 268 332 408 490
#     4  12  28  50  78 113 161 210 262 329 407 479
#     4  12  29  48  81 116 163 205 271 335 408 471
#     4  12  28  50  80 116 160 213 269 335 403 485
#     4  12  26  51  80 115 159 214 269 329 404 491
#
# _framework density 25.656597999999999
#
# number of rings (size 3 to 8) (size 9 to 14) (size 15 to 20)
#    0.000    0.000    3.750    4.500    7.000    3.000 
#    0.000    0.000    0.000    0.000    0.000    0.000 
#    0.000    0.000    0.000    0.000    0.000    0.000 
#
# Total GULP energy -89634.568327 kJ/mol
# GULP energy per Si atom -5602.160520 kJ/mol
# Density = 2.559820 g / cm^3
# Si number density = 25.656598 Si / 1000 Ang^3
#
#
#
# Elastic Constant Matrix: (Units=GPa)
#
#
# Indices 1 2 3 4 5 6 
#
# 1 112.8638 30.2096 23.8338 0.0000 12.9824 0.0000
# 2 30.2096 132.3943 10.7442 0.0000 5.5235 0.0000
# 3 23.8338 10.7442 58.0243 0.0000 25.0329 0.0000
# 4 0.0000 0.0000 0.0000 50.0973 0.0000 2.5497
# 5 12.9824 5.5235 25.0329 0.0000 48.6864 0.0000
# 6 0.0000 0.0000 0.0000 2.5497 0.0000 36.5902
#
#
#
# Elastic Compliance Matrix: (Units=1/GPa)
#
#
# Indices 1 2 3 4 5 6 
#
# 1 0.010225 -0.002018 -0.003532 0.000000 -0.000681 0.000000
# 2 -0.002018 0.008068 -0.000645 0.000000 -0.000045 0.000000
# 3 -0.003532 -0.000645 0.023602 0.000000 -0.011120 0.000000
# 4 0.000000 0.000000 0.000000 0.020032 0.000000 -0.001396
# 5 -0.000681 -0.000045 -0.011120 0.000000 0.026444 0.000000
# 6 0.000000 0.000000 0.000000 -0.001396 0.000000 0.027427
#
#
# Mechanical properties :
#
#
# Convention : Reuss Voigt Hill
#
# Bulk Modulus (GPa) = 33.89447 48.09529 40.99488
# Shear Modulus (GPa) = 36.22564 42.97444 39.60004
#
# Velocity S-wave (km/s) = 3.76166 4.09710 3.93296
# Velocity P-wave (km/s) = 5.66624 6.41624 6.05287
#
# Compressibility (1/GPa) = 0.02950334
#
# Stress axis : x y z
#
# Youngs Moduli (GPa) = 97.80281 123.94762 42.36913
#
# Poissons Ratio (x) = 0.25012 0.14966
# Poissons Ratio (y) = 0.19736 0.02735
# Poissons Ratio (z) = 0.34546 0.08000
#
# Static dielectric constant tensor:
#      x y z
#    x 1.978720 0.000000 -0.010170 
#    y 0.000000 2.042970 0.000000 
#    z -0.010170 0.000000 2.014370 
# 
# From -- ./inp_files/12400.got.cif
#   From: 2010.05.17/outbox.cif.g08.bks.cpg/sg9_7_cif.got.tgz:12400.got - 2010.06.03 20:04:27.
