data_PCOD9141873
_publ_section_title
;
Structure prediction by ZEFSAII (Michael W. Deem and Ramdas Pophale) SiO2 
 PCOD9141873
Probable space group: P 2/M
;
_chemical_formula_sum "Si O2"
_cell_formula_units_Z 28
_cell_length_a 8.910707
_cell_length_b 14.441494
_cell_length_c 19.089465
_cell_angle_alpha 90.000000
_cell_angle_beta 148.754783
_cell_angle_gamma 90.000000
_cell_volume 1274.194935
_symmetry_space_group_name_H-M "P 2/M"
_symmetry_group_IT_number 10
_symmetry_cell_setting 'monoclinic'
loop_
_space_group_symop_operation_xyz
x,y,z
-x,y,-z
-x,-y,-z
x,-y,z
loop_
_atom_site_type_symbol
_atom_site_label
_atom_site_fract_x
_atom_site_fract_y
_atom_site_fract_z
Si Si1 0.282307 0.286906 0.964207
Si Si2 0.965524 0.897463 0.199472
Si Si3 0.695067 0.392702 0.766203
Si Si4 0.191963 0.197159 0.419849
Si Si5 0.435374 0.105965 0.650825
Si Si6 0.345135 0.236233 0.141819
Si Si7 0.255822 0.601430 0.462754
O O1 0.200839 0.189918 0.896244
O O2 0.989185 0.345079 0.856208
O O3 0.500000 0.338586 0.000000
O O4 0.422831 0.257340 0.093469
O O5 0.021085 0.874173 0.303019
O O6 0.262958 0.896499 0.272890
O O7 0.840919 0.000000 0.141742
O O8 0.743557 0.500000 0.800727
O O9 0.619314 0.332364 0.803032
O O10 0.439960 0.385330 0.607428
O O11 0.500000 0.202705 0.500000
O O12 0.231261 0.159069 0.514043
O O13 0.085555 0.303522 0.381142
O O14 0.494618 0.160356 0.746641
O O15 0.347184 0.000000 0.627619
O O16 0.000000 0.212000 0.000000
O O17 0.500000 0.595892 0.500000
O O18 0.107874 0.500000 0.405822
#
# Coordination Sequence:
#
# PCOD9141873 Si02
#       7
#     4   4   4   4   4   4   4
#     4  11  23  37  52  73 105 143 184 220 257 308
#     4  10  19  32  51  76 106 143 176 216 268 314
#     4  10  19  35  56  81 109 137 172 217 264 312
#     4   9  15  27  46  75 112 132 165 214 266 319
#     4  10  17  28  50  79 104 131 169 221 272 315
#     4  10  19  34  51  76 105 137 174 218 264 310
#     4   9  15  24  47  80 112 137 161 206 265 313
#
# _framework density 21.974658999999999
#
# number of rings (size 3 to 8) (size 9 to 14) (size 15 to 20)
#    0.000    2.143    4.286    2.143    0.000    5.714 
#    0.000    0.000    0.000    0.857    0.000    2.000 
#    0.000    6.857    0.000    0.000    0.000    0.000 
#
# Total GULP energy -156335.150307 kJ/mol
# GULP energy per Si atom -5583.398225 kJ/mol
# Density = 2.192464 g / cm^3
# Si number density = 21.974659 Si / 1000 Ang^3
#
#
#
# Elastic Constant Matrix: (Units=GPa)
#
#
# Indices 1 2 3 4 5 6 
#
# 1 42.0779 0.3486 24.0956 0.0000 -14.6976 0.0000
# 2 0.3486 141.9453 15.8353 0.0000 -0.4671 0.0000
# 3 24.0956 15.8353 50.4826 0.0000 -17.6084 0.0000
# 4 0.0000 0.0000 0.0000 -25.0129 0.0000 -3.8277
# 5 -14.6976 -0.4671 -17.6084 0.0000 33.2700 0.0000
# 6 0.0000 0.0000 0.0000 -3.8277 0.0000 5.1717
#
#
#
# Elastic Compliance Matrix: (Units=1/GPa)
#
#
# Indices 1 2 3 4 5 6 
#
# 1 0.034663 0.001538 -0.014323 0.000000 0.007754 0.000000
# 2 0.001538 0.007419 -0.003419 0.000000 -0.001026 0.000000
# 3 -0.014323 -0.003419 0.031266 0.000000 0.010172 0.000000
# 4 0.000000 0.000000 0.000000 -0.035912 0.000000 -0.026580
# 5 0.007754 -0.001026 0.010172 0.000000 0.038852 0.000000
# 6 0.000000 0.000000 0.000000 -0.026580 0.000000 0.173689
#
#
# Mechanical properties :
#
#
# Convention : Reuss Voigt Hill
#
# Bulk Modulus (GPa) = 24.42566 35.00718 29.71642
# Shear Modulus (GPa) = 16.89009 15.63418 16.26213
#
# Velocity S-wave (km/s) = 2.77540 2.67022 2.72332
# Velocity P-wave (km/s) = 4.62709 5.04699 4.84159
#
# Compressibility (1/GPa) = 0.04094055
#
# Stress axis : x y z
#
# Youngs Moduli (GPa) = 28.84923 134.78420 31.98394
#
# Poissons Ratio (x) = -0.20732 0.45809
# Poissons Ratio (y) = -0.04438 0.10936
# Poissons Ratio (z) = 0.41320 0.46087
#
# Static dielectric constant tensor:
#      x y z
#    x 1.886040 0.000000 0.082210 
#    y 0.000000 1.769510 0.000000 
#    z 0.082210 0.000000 1.981750 
# 
# From -- ./inp_files/75329.got.cif
#   From: 2010.05.17/outbox.cif.g08.bks.cpg/sg10_38_cif.got.tgz:75329.got - 2010.06.03 11:33:40.
