data_PCOD9141355
_publ_section_title
;
Structure prediction by ZEFSAII (Michael W. Deem and Ramdas Pophale) SiO2 
 PCOD9141355
Probable space group: P 2/M
;
_chemical_formula_sum "Si O2"
_cell_formula_units_Z 32
_cell_length_a 21.851449
_cell_length_b 9.069280
_cell_length_c 22.358434
_cell_angle_alpha 90.000000
_cell_angle_beta 161.207908
_cell_angle_gamma 90.000000
_cell_volume 1427.356292
_symmetry_space_group_name_H-M "P 2/M"
_symmetry_group_IT_number 10
_symmetry_cell_setting 'monoclinic'
loop_
_space_group_symop_operation_xyz
x,y,z
-x,y,-z
-x,-y,-z
x,-y,z
loop_
_atom_site_type_symbol
_atom_site_label
_atom_site_fract_x
_atom_site_fract_y
_atom_site_fract_z
Si Si1 0.307568 0.179047 0.755824
Si Si2 0.918642 0.167877 0.986893
Si Si3 0.670756 0.169827 0.355234
Si Si4 0.728220 0.676693 0.159094
Si Si5 0.215454 0.830944 0.906386
Si Si6 0.847824 0.332011 0.035610
Si Si7 0.606089 0.331399 0.414263
Si Si8 0.521309 0.832516 0.452710
O O1 0.239060 0.214733 0.625174
O O2 0.200668 0.244721 0.714458
O O3 0.324120 0.000000 0.775613
O O4 0.514874 0.256600 0.952824
O O5 0.952753 0.270629 0.074639
O O6 0.693628 0.158707 0.769540
O O7 0.987304 0.000000 0.059495
O O8 0.000000 0.225620 0.000000
O O9 0.701670 0.261002 0.443969
O O10 0.719579 0.000000 0.412055
O O11 0.442794 0.174497 0.130740
O O12 0.724374 0.500000 0.161396
O O13 0.827710 0.728816 0.190237
O O14 0.169687 0.000000 0.850327
O O15 0.120593 0.772451 0.878750
O O16 0.895484 0.500000 0.093545
O O17 0.621204 0.328605 0.810933
O O18 0.662719 0.500000 0.473059
O O19 0.629419 0.249192 0.499168
O O20 0.500000 0.766617 0.500000
O O21 0.593627 0.000000 0.526698
#
# Coordination Sequence:
#
# PCOD9141355 Si02
#       8
#     4   4   4   4   4   4   4   4
#     4   9  15  22  29  38  55  82 115 150 189 231
#     4   9  17  29  44  61  81 105 133 164 199 240
#     4   8  14  22  32  44  60  85 117 152 188 228
#     4  10  16  20  27  40  58  81 112 152 193 230
#     4   9  15  23  33  44  61  87 118 152 190 231
#     4   9  16  25  37  54  73  93 121 157 195 233
#     4   9  16  24  36  53  72  93 119 155 195 233
#     4   9  17  29  44  60  79 104 133 164 198 237
#
# _framework density 22.419067999999999
#
# number of rings (size 3 to 8) (size 9 to 14) (size 15 to 20)
#    0.000    3.000    0.000    4.125    0.000    7.000 
#    0.000    0.000    0.000    0.000    0.000    0.000 
#    0.000    0.000    0.000    0.000    0.000    1.250 
#
# Total GULP energy -178593.530380 kJ/mol
# GULP energy per Si atom -5581.047824 kJ/mol
# Density = 2.236804 g / cm^3
# Si number density = 22.419068 Si / 1000 Ang^3
#
#
#
# Elastic Constant Matrix: (Units=GPa)
#
#
# Indices 1 2 3 4 5 6 
#
# 1 187.1783 76.9968 -10.7935 0.0000 -20.8264 0.0000
# 2 76.9968 115.7786 -2.3330 0.0000 -18.5624 0.0000
# 3 -10.7935 -2.3330 85.3976 0.0000 -3.4384 0.0000
# 4 0.0000 0.0000 0.0000 -16.9167 0.0000 -4.1624
# 5 -20.8264 -18.5624 -3.4384 0.0000 10.7354 0.0000
# 6 0.0000 0.0000 0.0000 -4.1624 0.0000 45.4021
#
#
#
# Elastic Compliance Matrix: (Units=1/GPa)
#
#
# Indices 1 2 3 4 5 6 
#
# 1 0.008029 -0.003805 0.001290 0.000000 0.009410 0.000000
# 2 -0.003805 0.013870 0.000574 0.000000 0.016785 0.000000
# 3 0.001290 0.000574 0.012186 0.000000 0.007397 0.000000
# 4 0.000000 0.000000 0.000000 -0.057809 0.000000 -0.005300
# 5 0.009410 0.016785 0.007397 0.000000 0.142799 0.000000
# 6 0.000000 0.000000 0.000000 -0.005300 0.000000 0.021540
#
#
# Mechanical properties :
#
#
# Convention : Reuss Voigt Hill
#
# Bulk Modulus (GPa) = 33.10907 57.34389 45.22648
# Shear Modulus (GPa) = 32.34885 29.47644 30.91265
#
# Velocity S-wave (km/s) = 3.80270 3.62994 3.71732
# Velocity P-wave (km/s) = 5.83789 6.57285 6.21624
#
# Compressibility (1/GPa) = 0.03020320
#
# Stress axis : x y z
#
# Youngs Moduli (GPa) = 124.54728 72.09673 82.05825
#
# Poissons Ratio (x) = 0.27432 -0.10583
# Poissons Ratio (y) = 0.47389 -0.04709
# Poissons Ratio (z) = -0.16063 -0.04137
#
# Static dielectric constant tensor:
#      x y z
#    x 1.825000 0.000000 -0.014740 
#    y 0.000000 1.755730 0.000000 
#    z -0.014740 0.000000 1.822270 
# 
# From -- ./inp_files/56290.got.cif
#   From: 2010.05.17/outbox.cif.g08.bks.cpg/sg10_29_cif.got.tgz:56290.got - 2010.06.03 11:33:40.
