data_PCOD9141759
_publ_section_title
;
Structure prediction by ZEFSAII (Michael W. Deem and Ramdas Pophale) SiO2 
 PCOD9141759
Probable space group: P 2/M
;
_chemical_formula_sum "Si O2"
_cell_formula_units_Z 26
_cell_length_a 7.547045
_cell_length_b 7.717855
_cell_length_c 18.666795
_cell_angle_alpha 90.000000
_cell_angle_beta 110.413997
_cell_angle_gamma 90.000000
_cell_volume 1018.999834
_symmetry_space_group_name_H-M "P 2/M"
_symmetry_group_IT_number 10
_symmetry_cell_setting 'monoclinic'
loop_
_space_group_symop_operation_xyz
x,y,z
-x,y,-z
-x,-y,-z
x,-y,z
loop_
_atom_site_type_symbol
_atom_site_label
_atom_site_fract_x
_atom_site_fract_y
_atom_site_fract_z
Si Si1 0.500000 0.242370 0.000000
Si Si2 0.807296 0.297340 0.781685
Si Si3 0.172262 0.707186 0.367574
Si Si4 0.263491 0.697332 0.842757
Si Si5 0.220451 0.209047 0.527279
Si Si6 0.266132 0.199503 0.685775
Si Si7 0.176844 0.697233 0.063888
O O1 0.363403 0.181356 0.914997
O O2 0.660654 0.316074 0.970961
O O3 0.749102 0.500000 0.772791
O O4 0.743964 0.225662 0.695864
O O5 0.757053 0.221726 0.851981
O O6 0.036792 0.283674 0.812233
O O7 0.142104 0.500000 0.356954
O O8 0.283567 0.741358 0.456470
O O9 0.964180 0.791631 0.345702
O O10 0.305643 0.500000 0.871886
O O11 0.325944 0.715139 0.768854
O O12 0.315242 0.274914 0.614160
O O13 0.000000 0.267570 0.500000
O O14 0.223034 0.000000 0.531765
O O15 0.324787 0.000000 0.697687
O O16 0.115005 0.500000 0.074437
O O17 0.000000 0.784379 0.000000
#
# Coordination Sequence:
#
# PCOD9141759 Si02
#       7
#     2   4   4   4   4   4   4
#     4  12  21  30  49  76 101 132 173 212 255 310
#     4   8  15  26  39  62  97 130 157 197 249 293
#     4   9  15  23  40  66  95 127 164 205 251 299
#     4  10  18  29  45  69  97 125 166 212 252 297
#     4   8  14  24  38  60  92 127 164 203 246 300
#     4   9  17  28  41  61  93 132 167 203 251 301
#     4  10  17  27  44  67 100 136 166 203 253 305
#
# _framework density 25.515215000000001
#
# number of rings (size 3 to 8) (size 9 to 14) (size 15 to 20)
#    0.000    2.769    1.538    4.154    0.000    3.385 
#    0.000    0.385    0.000    0.000    0.000   16.154 
#    0.000    7.385    0.000    0.000    0.000    0.000 
#
# Total GULP energy -144865.956066 kJ/mol
# GULP energy per Si atom -5571.767541 kJ/mol
# Density = 2.545714 g / cm^3
# Si number density = 25.515215 Si / 1000 Ang^3
#
#
#
# Elastic Constant Matrix: (Units=GPa)
#
#
# Indices 1 2 3 4 5 6 
#
# 1 87.1637 1.6406 60.3300 0.0000 11.5293 0.0000
# 2 1.6406 70.5010 16.6911 0.0000 -3.5734 0.0000
# 3 60.3300 16.6911 287.4640 0.0000 -55.0880 0.0000
# 4 0.0000 0.0000 0.0000 71.5938 0.0000 -2.7464
# 5 11.5293 -3.5734 -55.0880 0.0000 40.3132 0.0000
# 6 0.0000 0.0000 0.0000 -2.7464 0.0000 -9.4002
#
#
#
# Elastic Compliance Matrix: (Units=1/GPa)
#
#
# Indices 1 2 3 4 5 6 
#
# 1 0.017684 0.000400 -0.006363 0.000000 -0.013717 0.000000
# 2 0.000400 0.014392 -0.000944 0.000000 -0.000129 0.000000
# 3 -0.006363 -0.000944 0.007047 0.000000 0.011366 0.000000
# 4 0.000000 0.000000 0.000000 0.013813 0.000000 -0.004036
# 5 -0.013717 -0.000129 0.011366 0.000000 0.044249 0.000000
# 6 0.000000 0.000000 0.000000 -0.004036 0.000000 -0.105202
#
#
# Mechanical properties :
#
#
# Convention : Reuss Voigt Hill
#
# Bulk Modulus (GPa) = 39.51423 66.93912 53.22667
# Shear Modulus (GPa) = 351.27162 44.93252 198.10207
#
# Velocity S-wave (km/s) = 11.74608 4.20099 8.82096
# Velocity P-wave (km/s) = 14.12376 7.05854 11.16476
#
# Compressibility (1/GPa) = 0.02530734
#
# Stress axis : x y z
#
# Youngs Moduli (GPa) = 56.54876 69.48347 141.90270
#
# Poissons Ratio (x) = -0.02777 0.90296
# Poissons Ratio (y) = -0.02260 0.13399
# Poissons Ratio (z) = 0.35983 0.06561
#
# Static dielectric constant tensor:
#      x y z
#    x 1.973780 0.000000 -0.001140 
#    y 0.000000 2.016470 0.000000 
#    z -0.001140 0.000000 2.088790 
# 
# From -- ./inp_files/74444.got.cif
#   From: 2010.05.17/outbox.cif.g08.bks.cpg/sg10_38_cif.got.tgz:74444.got - 2010.06.03 11:33:40.
