data_PCOD9141614
_publ_section_title
;
Structure prediction by ZEFSAII (Michael W. Deem and Ramdas Pophale) SiO2 
 PCOD9141614
Probable space group: P 2/M
;
_chemical_formula_sum "Si O2"
_cell_formula_units_Z 28
_cell_length_a 8.243345
_cell_length_b 7.402259
_cell_length_c 17.566764
_cell_angle_alpha 90.000000
_cell_angle_beta 77.455297
_cell_angle_gamma 90.000000
_cell_volume 1046.323006
_symmetry_space_group_name_H-M "P 2/M"
_symmetry_group_IT_number 10
_symmetry_cell_setting 'monoclinic'
loop_
_space_group_symop_operation_xyz
x,y,z
-x,y,-z
-x,-y,-z
x,-y,z
loop_
_atom_site_type_symbol
_atom_site_label
_atom_site_fract_x
_atom_site_fract_y
_atom_site_fract_z
Si Si1 0.277217 0.793964 0.486551
Si Si2 0.112371 0.778717 0.101201
Si Si3 0.361731 0.219756 0.954484
Si Si4 0.514593 0.778638 0.338751
Si Si5 0.247167 0.780042 0.808000
Si Si6 0.986026 0.709322 0.618810
Si Si7 0.256879 0.793926 0.237509
O O1 0.440446 0.716624 0.427297
O O2 0.173988 0.722676 0.568999
O O3 0.137353 0.788740 0.433421
O O4 0.312399 0.000000 0.502594
O O5 0.235587 0.717396 0.156116
O O6 0.932246 0.717840 0.146161
O O7 0.108569 0.000000 0.102440
O O8 0.187462 0.729440 0.012351
O O9 0.366614 0.274732 0.866216
O O10 0.369746 0.000000 0.952681
O O11 0.500000 0.281222 0.000000
O O12 0.685070 0.721534 0.281045
O O13 0.379917 0.719562 0.288570
O O14 0.512495 0.000000 0.343326
O O15 0.244845 0.000000 0.806105
O O16 0.946501 0.500000 0.628228
O O17 0.925411 0.795035 0.703650
O O18 0.312809 0.000000 0.221105
#
# Coordination Sequence:
#
# PCOD9141614 Si02
#       7
#     4   4   4   4   4   4   4
#     4   9  15  25  41  62  89 118 145 176 221 268
#     4   9  16  24  36  55  82 116 149 180 215 257
#     4   9  15  22  34  54  84 119 147 173 214 265
#     4   8  14  23  37  56  80 110 141 175 215 259
#     4   9  15  23  35  55  84 114 145 180 216 255
#     4  10  17  25  40  64  89 112 144 185 225 259
#     4   9  16  27  41  59  85 116 148 180 219 263
#
# _framework density 26.760379
#
# number of rings (size 3 to 8) (size 9 to 14) (size 15 to 20)
#    0.000    3.000    0.000    4.714    0.000    5.143 
#    0.000    0.000    0.000    0.857    0.000   11.000 
#    0.000   17.714    0.000    0.000    0.000    2.000 
#
# Total GULP energy -156436.789612 kJ/mol
# GULP energy per Si atom -5587.028200 kJ/mol
# Density = 2.669947 g / cm^3
# Si number density = 26.760379 Si / 1000 Ang^3
#
#
#
# Elastic Constant Matrix: (Units=GPa)
#
#
# Indices 1 2 3 4 5 6 
#
# 1 92.9623 -1.3956 46.9191 0.0000 -19.7461 0.0000
# 2 -1.3956 100.6816 -5.2916 0.0000 1.0244 0.0000
# 3 46.9191 -5.2916 205.0046 0.0000 -19.8764 0.0000
# 4 0.0000 0.0000 0.0000 7.3989 0.0000 17.7100
# 5 -19.7461 1.0244 -19.8764 0.0000 56.3622 0.0000
# 6 0.0000 0.0000 0.0000 17.7100 0.0000 -28.2474
#
#
#
# Elastic Compliance Matrix: (Units=1/GPa)
#
#
# Indices 1 2 3 4 5 6 
#
# 1 0.012824 0.000005 -0.002588 0.000000 0.003580 0.000000
# 2 0.000005 0.009946 0.000247 0.000000 -0.000092 0.000000
# 3 -0.002588 0.000247 0.005579 0.000000 0.001056 0.000000
# 4 0.000000 0.000000 0.000000 0.054047 0.000000 0.033885
# 5 0.003580 -0.000092 0.001056 0.000000 0.019371 0.000000
# 6 0.000000 0.000000 0.000000 0.033885 0.000000 -0.014157
#
#
# Mechanical properties :
#
#
# Convention : Reuss Voigt Hill
#
# Bulk Modulus (GPa) = 42.23452 53.23471 47.73461
# Shear Modulus (GPa) = 49.91311 30.99718 40.45514
#
# Velocity S-wave (km/s) = 4.32347 3.40711 3.89235
# Velocity P-wave (km/s) = 6.38278 5.95098 6.17066
#
# Compressibility (1/GPa) = 0.02367732
#
# Stress axis : x y z
#
# Youngs Moduli (GPa) = 77.98134 100.54020 179.24470
#
# Poissons Ratio (x) = -0.00054 0.46383
# Poissons Ratio (y) = -0.00042 -0.04420
# Poissons Ratio (z) = 0.20179 -0.02479
#
# Static dielectric constant tensor:
#      x y z
#    x 2.187600 0.000000 -0.043690 
#    y 0.000000 2.038790 0.000000 
#    z -0.043690 0.000000 2.045320 
# 
# From -- ./inp_files/81740.got.cif
#   From: 2010.05.17/outbox.cif.g08.bks.cpg/sg10_41_cif.got.tgz:81740.got - 2010.06.03 11:33:40.
