data_PCOD9141005
_publ_section_title
;
Structure prediction by ZEFSAII (Michael W. Deem and Ramdas Pophale) SiO2 
 PCOD9141005
Probable space group: C C
;
_chemical_formula_sum "Si O2"
_cell_formula_units_Z 28
_cell_length_a 11.740578
_cell_length_b 11.516683
_cell_length_c 10.446971
_cell_angle_alpha 90.000000
_cell_angle_beta 130.558384
_cell_angle_gamma 90.000000
_cell_volume 1073.184615
_symmetry_space_group_name_H-M "C C"
_symmetry_group_IT_number 9
_symmetry_cell_setting 'monoclinic'
loop_
_space_group_symop_operation_xyz
x,y,z
x,-y,1/2+z
1/2+x,1/2+y,z
1/2+x,1/2-y,1/2+z
loop_
_atom_site_type_symbol
_atom_site_label
_atom_site_fract_x
_atom_site_fract_y
_atom_site_fract_z
Si Si1 0.787780 0.768589 0.620320
Si Si2 0.443010 0.573574 0.416500
Si Si3 0.541169 0.656544 0.932155
Si Si4 0.169831 0.866648 0.275133
Si Si5 0.183709 0.491745 0.910590
Si Si6 0.205623 0.336841 0.169369
Si Si7 0.409763 0.956340 0.070159
O O1 0.926404 0.822119 0.804283
O O2 0.697480 0.718438 0.675754
O O3 0.719241 0.877149 0.490144
O O4 0.823151 0.655367 0.562295
O O5 0.539774 0.479758 0.410685
O O6 0.528750 0.567770 0.613535
O O7 0.276955 0.537481 0.347744
O O8 0.606525 0.705359 0.848311
O O9 0.371269 0.679149 0.846698
O O10 0.650870 0.704642 0.117205
O O11 0.307700 0.949522 0.419753
O O12 0.237116 0.405007 0.059944
O O13 0.005213 0.481754 0.754274
O O14 0.053503 0.400491 0.103267
#
# Coordination Sequence:
#
# PCOD9141005 Si02
#       7
#     4   4   4   4   4   4   4
#     4  12  26  48  80 116 156 210 268 332 402 472
#     4  12  24  50  76 111 152 203 267 328 399 472
#     4  12  27  47  74 110 151 204 255 323 401 471
#     4  12  28  47  76 112 155 201 263 327 399 480
#     4  12  24  50  76 111 152 203 267 328 399 472
#     4  12  27  47  74 110 151 204 255 323 401 471
#     4  12  28  47  76 112 155 201 263 327 399 480
#
# _framework density 26.090571000000001
#
# number of rings (size 3 to 8) (size 9 to 14) (size 15 to 20)
#    0.000    0.000    4.286    4.286    4.000    2.286 
#    0.000    0.000    0.000    0.000    0.000    0.000 
#    0.000    0.000    0.000    0.000    0.000    0.000 
#
# Total GULP energy -78081.555159 kJ/mol
# GULP energy per Si atom -5577.253940 kJ/mol
# Density = 2.603119 g / cm^3
# Si number density = 26.090571 Si / 1000 Ang^3
#
#
#
# Elastic Constant Matrix: (Units=GPa)
#
#
# Indices 1 2 3 4 5 6 
#
# 1 107.7445 19.9446 -3.4038 0.0000 -5.0662 0.0000
# 2 19.9446 77.8170 21.7905 0.0000 0.2470 0.0000
# 3 -3.4038 21.7905 101.2918 0.0000 16.9346 0.0000
# 4 0.0000 0.0000 0.0000 48.7542 0.0000 -12.9373
# 5 -5.0662 0.2470 16.9346 0.0000 31.4132 0.0000
# 6 0.0000 0.0000 0.0000 -12.9373 0.0000 21.3895
#
#
#
# Elastic Compliance Matrix: (Units=1/GPa)
#
#
# Indices 1 2 3 4 5 6 
#
# 1 0.009867 -0.002733 0.000714 0.000000 0.001228 0.000000
# 2 -0.002733 0.014507 -0.003429 0.000000 0.001294 0.000000
# 3 0.000714 -0.003429 0.011661 0.000000 -0.006144 0.000000
# 4 0.000000 0.000000 0.000000 0.024432 0.000000 0.014778
# 5 0.001228 0.001294 -0.006144 0.000000 0.035334 0.000000
# 6 0.000000 0.000000 0.000000 0.014778 0.000000 0.055690
#
#
# Mechanical properties :
#
#
# Convention : Reuss Voigt Hill
#
# Bulk Modulus (GPa) = 39.77628 40.39065 40.08346
# Shear Modulus (GPa) = 29.27947 36.87953 33.07950
#
# Velocity S-wave (km/s) = 3.35360 3.76376 3.56458
# Velocity P-wave (km/s) = 5.50218 5.86535 5.68667
#
# Compressibility (1/GPa) = 0.02514061
#
# Stress axis : x y z
#
# Youngs Moduli (GPa) = 101.34374 68.93133 85.75301
#
# Poissons Ratio (x) = 0.18838 -0.06125
# Poissons Ratio (y) = 0.27696 0.29405
# Poissons Ratio (z) = -0.07238 0.23637
#
# Static dielectric constant tensor:
#      x y z
#    x 2.130670 0.000000 -0.018520 
#    y 0.000000 2.216180 0.000000 
#    z -0.018520 0.000000 2.227510 
# 
# From -- ./inp_files/16526.got.cif
#   From: 2010.05.17/outbox.cif.g08.bks.cpg/sg9_9_cif.got.tgz:16526.got - 2010.06.03 20:04:27.
