data_PCOD9141279
_publ_section_title
;
Structure prediction by ZEFSAII (Michael W. Deem and Ramdas Pophale) SiO2 
 PCOD9141279
Probable space group: C C
;
_chemical_formula_sum "Si O2"
_cell_formula_units_Z 16
_cell_length_a 15.000000
_cell_length_b 12.000000
_cell_length_c 18.000000
_cell_angle_alpha 90.000000
_cell_angle_beta 150.000000
_cell_angle_gamma 90.000000
_cell_volume 1620.000000
_symmetry_space_group_name_H-M "C C"
_symmetry_group_IT_number 9
_symmetry_cell_setting 'monoclinic'
loop_
_space_group_symop_operation_xyz
x,y,z
x,-y,1/2+z
1/2+x,1/2+y,z
1/2+x,1/2-y,1/2+z
loop_
_atom_site_type_symbol
_atom_site_label
_atom_site_fract_x
_atom_site_fract_y
_atom_site_fract_z
Si Si1 0.455770 0.341433 0.250000
Si Si2 0.733850 0.374290 0.583592
Si Si3 0.220730 0.862772 0.048513
Si Si4 0.625637 0.561524 0.722684
Si Si5 0.344240 0.861450 0.963768
Si Si6 0.947124 0.886372 0.488963
Si Si7 0.315666 0.732561 0.258631
Si Si8 0.715468 0.022143 0.687131
O O1 0.611279 0.347239 0.423782
O O2 0.394137 0.213372 0.197404
O O3 0.527896 0.382245 0.222496
O O4 0.299954 0.422801 0.172491
O O5 0.755832 0.508048 0.596506
O O6 0.636109 0.348610 0.590954
O O7 0.324344 0.786227 0.182534
O O8 0.280680 0.858629 0.004800
O O9 0.016828 0.817839 0.915322
O O10 0.730188 0.453997 0.834753
O O11 0.486446 0.491239 0.571453
O O12 0.734269 0.663803 0.754160
O O13 0.351037 0.729036 0.945476
O O14 0.537642 0.914478 0.085446
O O15 0.850152 0.941889 0.349081
O O16 0.202747 0.614441 0.176257
#
# Coordination Sequence:
#
# PCOD9141279 Si02
#       8
#     4   4   4   4   4   4   4   4
#     4  11  25  46  72 100 143 180 235 286 344 410
#     4  11  23  49  68  99 142 181 228 292 342 412
#     4  12  27  47  68 104 144 184 231 288 349 420
#     4  12  26  45  70 105 135 185 232 280 350 416
#     4  12  26  43  71 102 139 181 235 287 345 410
#     4  11  24  44  71  98 137 178 236 285 339 413
#     4  12  25  47  72  98 149 183 227 288 354 416
#     4  11  24  45  68 102 137 184 226 292 347 407
#
# _framework density 9.8765429999999999
#
# number of rings (size 3 to 8) (size 9 to 14) (size 15 to 20)
#    0.000    0.500    6.250    1.500    8.750    2.000 
#    2.250    0.000    0.000    0.000    0.000    0.000 
#    0.000    0.000    0.000    0.000    0.000    0.000 
#
# Total GULP energy -89111.814910 kJ/mol
# GULP energy per Si atom -5569.488432 kJ/mol
# Density = 0.985406 g / cm^3
# Si number density = 9.876543 Si / 1000 Ang^3
#
#
#
# Elastic Constant Matrix: (Units=GPa)
#
#
# Indices 1 2 3 4 5 6 
#
# 1 130.9240 46.1241 8.9654 -0.0003 -11.0984 -0.0002
# 2 46.1241 201.8384 28.1644 -0.0004 -7.3789 -0.0002
# 3 8.9654 28.1644 41.4026 -0.0006 -2.9204 -0.0003
# 4 -0.0003 -0.0004 -0.0006 39.1077 -0.0003 0.7910
# 5 -11.0984 -7.3789 -2.9204 -0.0003 23.7259 -0.0001
# 6 -0.0002 -0.0002 -0.0003 0.7910 -0.0001 49.0295
#
#
#
# Elastic Compliance Matrix: (Units=1/GPa)
#
#
# Indices 1 2 3 4 5 6 
#
# 1 0.008582 -0.001780 -0.000407 0.000000 0.003411 0.000000
# 2 -0.001780 0.005880 -0.003576 0.000000 0.000556 0.000000
# 3 -0.000407 -0.003576 0.026814 0.000000 0.001998 0.000000
# 4 0.000000 0.000000 0.000000 0.025579 0.000000 -0.000413
# 5 0.003411 0.000556 0.001998 0.000000 0.044162 0.000000
# 6 0.000000 0.000000 0.000000 -0.000413 0.000000 0.020403
#
#
# Mechanical properties :
#
#
# Convention : Reuss Voigt Hill
#
# Bulk Modulus (GPa) = 33.61105 60.07476 46.84291
# Shear Modulus (GPa) = 32.70907 41.76670 37.23789
#
# Velocity S-wave (km/s) = 4.07369 4.60329 4.34656
# Velocity P-wave (km/s) = 6.25932 7.66372 6.99685
#
# Compressibility (1/GPa) = 0.02975212
#
# Stress axis : x y z
#
# Youngs Moduli (GPa) = 116.52285 170.05595 37.29326
#
# Poissons Ratio (x) = 0.30264 0.01518
# Poissons Ratio (y) = 0.20737 0.13335
# Poissons Ratio (z) = 0.04744 0.60805
#
# Static dielectric constant tensor:
#      x y z
#    x 1.711040 0.000000 0.032820 
#    y 0.000000 1.709340 0.000000 
#    z 0.032820 0.000000 1.799790 
# 
# From -- ./inp_files/9154.got.cif
#   From: 2010.05.17/outbox.ucp.g08.bks.cvg/sg9_5_cif.got.tgz:9154.got - 2010.06.11 13:03:20.
