data_PCOD9141273
_publ_section_title
;
Structure prediction by ZEFSAII (Michael W. Deem and Ramdas Pophale) SiO2 
 PCOD9141273
Probable space group: C C
;
_chemical_formula_sum "Si O2"
_cell_formula_units_Z 16
_cell_length_a 15.000000
_cell_length_b 21.000000
_cell_length_c 15.000000
_cell_angle_alpha 90.000000
_cell_angle_beta 20.000000
_cell_angle_gamma 90.000000
_cell_volume 1616.045177
_symmetry_space_group_name_H-M "C C"
_symmetry_group_IT_number 9
_symmetry_cell_setting 'monoclinic'
loop_
_space_group_symop_operation_xyz
x,y,z
x,-y,1/2+z
1/2+x,1/2+y,z
1/2+x,1/2-y,1/2+z
loop_
_atom_site_type_symbol
_atom_site_label
_atom_site_fract_x
_atom_site_fract_y
_atom_site_fract_z
Si Si1 0.474880 0.404158 0.242120
Si Si2 0.768890 0.294372 0.500830
Si Si3 0.525924 0.632126 0.378438
Si Si4 0.852172 0.205647 0.716845
Si Si5 0.832707 0.023376 0.256511
Si Si6 0.594176 0.909159 0.138575
Si Si7 0.503275 0.051320 0.299088
Si Si8 0.780249 0.497943 0.195510
O O1 0.392908 0.344068 0.259786
O O2 0.453449 0.468793 0.204638
O O3 0.283829 0.418578 0.506871
O O4 0.782018 0.401306 0.971310
O O5 0.496294 0.254816 0.756174
O O6 0.739143 0.321793 0.630460
O O7 0.853730 0.359036 0.367745
O O8 0.384144 0.664740 0.595474
O O9 0.306679 0.615350 0.510666
O O10 0.663281 0.566218 0.277117
O O11 0.082561 0.257806 0.488765
O O12 0.743101 0.082075 0.404066
O O13 0.551768 0.994508 0.492480
O O14 0.045945 0.033023 0.976415
O O15 0.506537 0.980054 0.252314
O O16 0.394424 0.038994 0.501552
#
# Coordination Sequence:
#
# PCOD9141273 Si02
#       8
#     4   4   4   4   4   4   4   4
#     4  11  23  42  63  89 131 171 213 264 317 377
#     4  12  25  39  60  88 125 174 217 246 298 375
#     4  12  25  41  62  92 137 176 213 250 306 391
#     4  12  28  41  63  95 136 176 216 250 305 384
#     4  11  24  38  62  92 129 163 211 266 327 372
#     4  11  25  41  64  90 131 175 217 260 316 381
#     4  11  23  40  66  92 124 169 217 265 329 378
#     4  12  23  38  64  96 127 164 208 265 328 380
#
# _framework density 9.9007129999999997
#
# number of rings (size 3 to 8) (size 9 to 14) (size 15 to 20)
#    0.000    0.500    3.750    6.000    5.250    0.000 
#    0.000    0.000    0.000    0.000    0.000   17.500 
#    0.000    0.000    0.000    0.000    0.000    0.000 
#
# Total GULP energy -89298.509854 kJ/mol
# GULP energy per Si atom -5581.156866 kJ/mol
# Density = 0.987818 g / cm^3
# Si number density = 9.900713 Si / 1000 Ang^3
#
#
#
# Elastic Constant Matrix: (Units=GPa)
#
#
# Indices 1 2 3 4 5 6 
#
# 1 33.7072 1.2046 20.8413 -0.0714 13.8863 0.1085
# 2 1.2046 42.5766 10.8257 -0.0995 8.3374 0.0877
# 3 20.8413 10.8257 157.8731 -0.2894 18.2422 0.1325
# 4 -0.0714 -0.0995 -0.2894 51.1856 0.0827 7.9507
# 5 13.8863 8.3374 18.2422 0.0827 48.5033 -0.1656
# 6 0.1085 0.0877 0.1325 7.9507 -0.1656 29.9365
#
#
#
# Elastic Compliance Matrix: (Units=1/GPa)
#
#
# Indices 1 2 3 4 5 6 
#
# 1 0.035690 0.001733 -0.003779 0.000076 -0.009095 -0.000188
# 2 0.001733 0.024623 -0.001433 0.000067 -0.004190 -0.000113
# 3 -0.003779 -0.001433 0.007086 0.000039 -0.001337 -0.000031
# 4 0.000076 0.000067 0.000039 0.020378 -0.000101 -0.005413
# 5 -0.009095 -0.004190 -0.001337 -0.000101 0.024445 0.000213
# 6 -0.000188 -0.000113 -0.000031 -0.005413 0.000213 0.034844
#
#
# Mechanical properties :
#
#
# Convention : Reuss Voigt Hill
#
# Bulk Modulus (GPa) = 16.54519 33.32223 24.93371
# Shear Modulus (GPa) = 28.70735 39.34410 34.02573
#
# Velocity S-wave (km/s) = 3.81170 4.46234 4.14979
# Velocity P-wave (km/s) = 5.26743 6.58898 5.96492
#
# Compressibility (1/GPa) = 0.06044053
#
# Stress axis : x y z
#
# Youngs Moduli (GPa) = 28.01935 40.61195 141.12481
#
# Poissons Ratio (x) = -0.07037 0.53332
# Poissons Ratio (y) = -0.04855 0.20221
# Poissons Ratio (z) = 0.10589 0.05819
#
# Static dielectric constant tensor:
#      x y z
#    x 1.814260 -0.000010 -0.033310 
#    y -0.000010 1.704410 -0.000030 
#    z -0.033310 -0.000030 1.713150 
# 
# From -- ./inp_files/26121.got.cif
#   From: 2010.05.17/outbox.ucp.g08.bks.cvg/sg9_14_cif.got.tgz:26121.got - 2010.06.11 13:03:20.
