data_PCOD9141623
_publ_section_title
;
Structure prediction by ZEFSAII (Michael W. Deem and Ramdas Pophale) SiO2 
 PCOD9141623
Probable space group: P 2/M
;
_chemical_formula_sum "Si O2"
_cell_formula_units_Z 20
_cell_length_a 7.890663
_cell_length_b 21.884090
_cell_length_c 5.703204
_cell_angle_alpha 90.000000
_cell_angle_beta 58.241743
_cell_angle_gamma 90.000000
_cell_volume 837.376966
_symmetry_space_group_name_H-M "P 2/M"
_symmetry_group_IT_number 10
_symmetry_cell_setting 'monoclinic'
loop_
_space_group_symop_operation_xyz
x,y,z
-x,y,-z
-x,-y,-z
x,-y,z
loop_
_atom_site_type_symbol
_atom_site_label
_atom_site_fract_x
_atom_site_fract_y
_atom_site_fract_z
Si Si1 0.738900 0.183989 0.080220
Si Si2 0.618218 0.000000 0.665552
Si Si3 0.500000 0.600082 0.000000
Si Si4 0.272741 0.862406 0.414148
Si Si5 0.709412 0.676794 0.209322
Si Si6 0.170512 0.565895 0.572723
O O1 0.812713 0.155385 0.270461
O O2 0.502388 0.163947 0.249815
O O3 0.775201 0.255828 0.092724
O O4 0.809137 0.163277 0.771762
O O5 0.500000 0.000000 0.500000
O O6 0.730291 0.935669 0.591081
O O7 0.500000 0.000000 0.000000
O O8 0.662493 0.642295 0.003913
O O9 0.383887 0.565425 0.286325
O O10 0.500000 0.685441 0.500000
O O11 0.830746 0.628269 0.277825
O O12 0.155836 0.500000 0.710433
O O13 0.000000 0.567041 0.500000
#
# Coordination Sequence:
#
# PCOD9141623 Si02
#       6
#     4   2   2   4   4   4
#     4  10  17  27  43  67  99 141 191 235 294 349
#     4  12  16  24  34  62  94 148 194 231 290 355
#     4  10  21  36  62  86 110 153 194 242 306 363
#     4  10  17  25  41  63 102 145 189 241 293 352
#     4  10  20  33  55  80 108 145 198 243 294 370
#     4  10  23  41  59  85 118 151 195 252 309 366
#
# _framework density 23.884104000000001
#
# number of rings (size 3 to 8) (size 9 to 14) (size 15 to 20)
#    0.000    1.800    6.000    1.500    2.800    5.200 
#    0.000    2.000    0.000    0.000    0.000    0.000 
#    0.000    0.000    0.000    9.900    0.000    0.800 
#
# Total GULP energy -111679.378067 kJ/mol
# GULP energy per Si atom -5583.968903 kJ/mol
# Density = 2.382974 g / cm^3
# Si number density = 23.884104 Si / 1000 Ang^3
#
#
#
# Elastic Constant Matrix: (Units=GPa)
#
#
# Indices 1 2 3 4 5 6 
#
# 1 106.1908 48.9489 38.6313 0.0000 27.9718 0.0000
# 2 48.9489 278.2121 80.7542 0.0000 37.0504 0.0000
# 3 38.6313 80.7542 203.2965 0.0000 28.5619 0.0000
# 4 0.0000 0.0000 0.0000 100.2386 0.0000 10.2075
# 5 27.9718 37.0504 28.5619 0.0000 51.5100 0.0000
# 6 0.0000 0.0000 0.0000 10.2075 0.0000 7.2967
#
#
#
# Elastic Compliance Matrix: (Units=1/GPa)
#
#
# Indices 1 2 3 4 5 6 
#
# 1 0.011604 -0.001069 -0.001088 0.000000 -0.004929 0.000000
# 2 -0.001069 0.004405 -0.001283 0.000000 -0.001876 0.000000
# 3 -0.001088 -0.001283 0.005881 0.000000 -0.001747 0.000000
# 4 0.000000 0.000000 0.000000 0.011633 0.000000 -0.016274
# 5 -0.004929 -0.001876 -0.001747 0.000000 0.024409 0.000000
# 6 0.000000 0.000000 0.000000 -0.016274 0.000000 0.159815
#
#
# Mechanical properties :
#
#
# Convention : Reuss Voigt Hill
#
# Bulk Modulus (GPa) = 66.62501 102.70756 84.66629
# Shear Modulus (GPa) = 21.77412 59.76670 40.77041
#
# Velocity S-wave (km/s) = 3.02264 5.00779 4.13608
# Velocity P-wave (km/s) = 6.33542 8.74832 7.63776
#
# Compressibility (1/GPa) = 0.01500938
#
# Stress axis : x y z
#
# Youngs Moduli (GPa) = 86.17667 227.02672 170.04781
#
# Poissons Ratio (x) = 0.24280 0.18497
# Poissons Ratio (y) = 0.09216 0.21815
# Poissons Ratio (z) = 0.09374 0.29124
#
# Static dielectric constant tensor:
#      x y z
#    x 1.995710 0.000000 -0.072230 
#    y 0.000000 1.874150 0.000000 
#    z -0.072230 0.000000 1.969340 
# 
# From -- ./inp_files/4701.got.cif
#   From: 2010.05.17/outbox.cif.g08.bks.cpg/sg10_3_cif.got.tgz:4701.got - 2010.06.03 11:33:40.
