data_PCOD9141488
_publ_section_title
;
Structure prediction by ZEFSAII (Michael W. Deem and Ramdas Pophale) SiO2 
 PCOD9141488
Probable space group: P 2/M
;
_chemical_formula_sum "Si O2"
_cell_formula_units_Z 26
_cell_length_a 15.275624
_cell_length_b 8.241808
_cell_length_c 12.266369
_cell_angle_alpha 90.000000
_cell_angle_beta 74.588686
_cell_angle_gamma 90.000000
_cell_volume 1488.791428
_symmetry_space_group_name_H-M "P 2/M"
_symmetry_group_IT_number 10
_symmetry_cell_setting 'monoclinic'
loop_
_space_group_symop_operation_xyz
x,y,z
-x,y,-z
-x,-y,-z
x,-y,z
loop_
_atom_site_type_symbol
_atom_site_label
_atom_site_fract_x
_atom_site_fract_y
_atom_site_fract_z
Si Si1 0.994150 0.823339 0.634226
Si Si2 0.634591 0.810728 0.955079
Si Si3 0.738400 0.500000 0.609932
Si Si4 0.426991 0.177012 0.622115
Si Si5 0.928003 0.500000 0.422210
Si Si6 0.489279 0.310417 0.826925
Si Si7 0.390427 0.500000 0.545228
Si Si8 0.780026 0.812021 0.740297
O O1 0.888817 0.800457 0.700297
O O2 0.000000 0.830802 0.500000
O O3 0.051190 0.665921 0.647822
O O4 0.025059 0.000000 0.664585
O O5 0.568242 0.761698 0.877076
O O6 0.734920 0.788685 0.873743
O O7 0.620457 0.000000 0.985118
O O8 0.601555 0.710815 0.069981
O O9 0.828755 0.500000 0.505927
O O10 0.653206 0.500000 0.558538
O O11 0.742428 0.665556 0.678568
O O12 0.500000 0.168645 0.500000
O O13 0.477670 0.216101 0.718258
O O14 0.366007 0.333830 0.615294
O O15 0.382121 0.000000 0.643464
O O16 0.000000 0.500000 0.500000
O O17 0.505989 0.500000 0.801904
O O18 0.500000 0.500000 0.500000
O O19 0.756872 0.000000 0.714141
#
# Coordination Sequence:
#
# PCOD9141488 Si02
#       8
#     4   4   2   4   2   4   2   4
#     4   9  15  28  45  68 104 135 164 201 245 312
#     4  10  21  33  48  74 103 136 175 213 262 317
#     4  12  22  32  53  70 110 142 174 223 252 309
#     4  10  21  37  55  70  91 129 175 220 259 296
#     4  10  16  30  46  74  95 142 170 194 266 313
#     4  11  21  35  52  72  99 135 177 221 268 306
#     4  10  24  38  47  72 100 134 183 222 257 293
#     4  10  21  31  48  77 105 140 175 205 253 313
#
# _framework density 17.463830000000002
#
# number of rings (size 3 to 8) (size 9 to 14) (size 15 to 20)
#    0.000    1.846    3.846    2.769    6.462    0.615 
#    0.000    0.000    0.000    0.000    0.000    0.000 
#    0.000    2.462    0.000    7.077    0.000    0.154 
#
# Total GULP energy -144887.438951 kJ/mol
# GULP energy per Si atom -5572.593806 kJ/mol
# Density = 1.742408 g / cm^3
# Si number density = 17.463830 Si / 1000 Ang^3
#
#
#
# Elastic Constant Matrix: (Units=GPa)
#
#
# Indices 1 2 3 4 5 6 
#
# 1 36.5020 6.1868 21.7987 0.0000 -17.1638 0.0000
# 2 6.1868 135.4028 8.4742 0.0000 13.2816 0.0000
# 3 21.7987 8.4742 78.6786 0.0000 -7.0390 0.0000
# 4 0.0000 0.0000 0.0000 28.1874 0.0000 0.5993
# 5 -17.1638 13.2816 -7.0390 0.0000 25.2509 0.0000
# 6 0.0000 0.0000 0.0000 0.5993 0.0000 20.1097
#
#
#
# Elastic Compliance Matrix: (Units=1/GPa)
#
#
# Indices 1 2 3 4 5 6 
#
# 1 0.050444 -0.004991 -0.010395 0.000000 0.034016 0.000000
# 2 -0.004991 0.008400 -0.000226 0.000000 -0.007874 0.000000
# 3 -0.010395 -0.000226 0.015376 0.000000 -0.002661 0.000000
# 4 0.000000 0.000000 0.000000 0.035499 0.000000 -0.001058
# 5 0.034016 -0.007874 -0.002661 0.000000 0.066124 0.000000
# 6 0.000000 0.000000 0.000000 -0.001058 0.000000 0.049759
#
#
# Mechanical properties :
#
#
# Convention : Reuss Voigt Hill
#
# Bulk Modulus (GPa) = 23.25828 35.94476 29.60152
# Shear Modulus (GPa) = 18.43933 28.98452 23.71192
#
# Velocity S-wave (km/s) = 3.25292 4.07835 3.68880
# Velocity P-wave (km/s) = 5.23981 6.54250 5.92705
#
# Compressibility (1/GPa) = 0.04299544
#
# Stress axis : x y z
#
# Youngs Moduli (GPa) = 19.82384 119.04878 65.03465
#
# Poissons Ratio (x) = 0.59416 0.67606
# Poissons Ratio (y) = 0.09894 0.01472
# Poissons Ratio (z) = 0.20608 0.02695
#
# Static dielectric constant tensor:
#      x y z
#    x 1.572790 0.000000 -0.030410 
#    y 0.000000 1.685930 0.000000 
#    z -0.030410 0.000000 1.602780 
# 
# From -- ./inp_files/48757.got.cif
#   From: 2010.05.17/outbox.cif.g08.bks.cpg/sg10_25_cif.got.tgz:48757.got - 2010.06.03 11:33:40.
