data_PCOD9141769
_publ_section_title
;
Structure prediction by ZEFSAII (Michael W. Deem and Ramdas Pophale) SiO2 
 PCOD9141769
Probable space group: P 2/M
;
_chemical_formula_sum "Si O2"
_cell_formula_units_Z 32
_cell_length_a 11.463165
_cell_length_b 7.322261
_cell_length_c 17.258274
_cell_angle_alpha 90.000000
_cell_angle_beta 80.223367
_cell_angle_gamma 90.000000
_cell_volume 1427.557809
_symmetry_space_group_name_H-M "P 2/M"
_symmetry_group_IT_number 10
_symmetry_cell_setting 'monoclinic'
loop_
_space_group_symop_operation_xyz
x,y,z
-x,y,-z
-x,-y,-z
x,-y,z
loop_
_atom_site_type_symbol
_atom_site_label
_atom_site_fract_x
_atom_site_fract_y
_atom_site_fract_z
Si Si1 0.960179 0.293850 0.922307
Si Si2 0.316244 0.720761 0.570817
Si Si3 0.306035 0.220246 0.016076
Si Si4 0.328533 0.708271 0.262008
Si Si5 0.921634 0.277432 0.758016
Si Si6 0.507532 0.219531 0.118259
Si Si7 0.553767 0.277081 0.603774
Si Si8 0.046076 0.722537 0.581287
O O1 0.010782 0.500000 0.916238
O O2 0.979481 0.214649 0.833338
O O3 0.818495 0.301198 0.947596
O O4 0.000000 0.207408 0.000000
O O5 0.309230 0.500000 0.577544
O O6 0.381293 0.766163 0.483313
O O7 0.416290 0.781789 0.621016
O O8 0.181299 0.783131 0.582013
O O9 0.364985 0.277293 0.927819
O O10 0.293850 0.000000 0.017240
O O11 0.406617 0.268200 0.066944
O O12 0.292618 0.500000 0.281852
O O13 0.216230 0.783703 0.228720
O O14 0.451724 0.708450 0.202467
O O15 0.361934 0.795205 0.338987
O O16 0.929082 0.500000 0.762278
O O17 0.974023 0.225245 0.667721
O O18 0.509486 0.000000 0.122316
O O19 0.551173 0.500000 0.608495
O O20 0.043021 0.500000 0.579515
O O21 0.000000 0.779538 0.500000
#
# Coordination Sequence:
#
# PCOD9141769 Si02
#       8
#     4   4   4   4   4   4   4   4
#     4  10  20  34  49  69 100 135 162 194 242 288
#     4   8  13  23  36  54  88 124 153 187 228 276
#     4   9  18  34  53  70  90 120 160 201 239 283
#     4  10  17  27  45  69  94 121 154 192 238 288
#     4   9  17  28  41  61  92 123 156 197 232 275
#     4   9  18  32  50  71  94 118 150 200 248 282
#     4   8  14  23  37  60  89 120 150 186 233 281
#     4   9  15  23  38  59  85 124 162 189 228 278
#
# _framework density 22.415904000000001
#
# number of rings (size 3 to 8) (size 9 to 14) (size 15 to 20)
#    0.000    3.000    1.250    2.250    0.000    3.750 
#    2.250    1.250    0.000    0.000    0.000    1.750 
#    0.000    9.000    0.000    0.000    0.000    0.000 
#
# Total GULP energy -178192.238113 kJ/mol
# GULP energy per Si atom -5568.507441 kJ/mol
# Density = 2.236488 g / cm^3
# Si number density = 22.415904 Si / 1000 Ang^3
#
#
#
# Elastic Constant Matrix: (Units=GPa)
#
#
# Indices 1 2 3 4 5 6 
#
# 1 70.2537 0.1465 42.8653 0.0000 2.8681 0.0000
# 2 0.1465 84.5171 1.4299 0.0000 5.0072 0.0000
# 3 42.8653 1.4299 129.0188 0.0000 15.9421 0.0000
# 4 0.0000 0.0000 0.0000 16.1299 0.0000 -23.2678
# 5 2.8681 5.0072 15.9421 0.0000 42.1899 0.0000
# 6 0.0000 0.0000 0.0000 -23.2678 0.0000 3.8755
#
#
#
# Elastic Compliance Matrix: (Units=1/GPa)
#
#
# Indices 1 2 3 4 5 6 
#
# 1 0.017900 0.000008 -0.006081 0.000000 0.001080 0.000000
# 2 0.000008 0.011916 0.000042 0.000000 -0.001431 0.000000
# 3 -0.006081 0.000042 0.010196 0.000000 -0.003444 0.000000
# 4 0.000000 0.000000 0.000000 -0.008093 0.000000 -0.048588
# 5 0.001080 -0.001431 -0.003444 0.000000 0.025100 0.000000
# 6 0.000000 0.000000 0.000000 -0.048588 0.000000 -0.033683
#
#
# Mechanical properties :
#
#
# Convention : Reuss Voigt Hill
#
# Bulk Modulus (GPa) = 35.77703 41.40812 38.59257
# Shear Modulus (GPa) = 111.81814 28.39558 70.10686
#
# Velocity S-wave (km/s) = 7.07048 3.56302 5.59852
# Velocity P-wave (km/s) = 9.09125 5.95311 7.68409
#
# Compressibility (1/GPa) = 0.02795090
#
# Stress axis : x y z
#
# Youngs Moduli (GPa) = 55.86541 83.92102 98.07580
#
# Poissons Ratio (x) = -0.00066 0.59637
# Poissons Ratio (y) = -0.00044 -0.00413
# Poissons Ratio (z) = 0.33970 -0.00353
#
# Static dielectric constant tensor:
#      x y z
#    x 1.825760 0.000000 0.023120 
#    y 0.000000 1.871060 0.000000 
#    z 0.023120 0.000000 1.904680 
# 
# From -- ./inp_files/64396.got.cif
#   From: 2010.05.17/outbox.cif.g08.bks.cpg/sg10_33_cif.got.tgz:64396.got - 2010.06.03 11:33:40.
