data_PCOD9141917
_publ_section_title
;
Structure prediction by ZEFSAII (Michael W. Deem and Ramdas Pophale) SiO2 
 PCOD9141917
Probable space group: P 2/M
;
_chemical_formula_sum "Si O2"
_cell_formula_units_Z 24
_cell_length_a 13.472177
_cell_length_b 10.876849
_cell_length_c 10.281359
_cell_angle_alpha 90.000000
_cell_angle_beta 115.222351
_cell_angle_gamma 90.000000
_cell_volume 1362.941507
_symmetry_space_group_name_H-M "P 2/M"
_symmetry_group_IT_number 10
_symmetry_cell_setting 'monoclinic'
loop_
_space_group_symop_operation_xyz
x,y,z
-x,y,-z
-x,-y,-z
x,-y,z
loop_
_atom_site_type_symbol
_atom_site_label
_atom_site_fract_x
_atom_site_fract_y
_atom_site_fract_z
Si Si1 0.527788 0.858412 0.170346
Si Si2 0.685637 0.721986 0.908526
Si Si3 0.806615 0.500000 0.883257
Si Si4 0.941909 0.264444 0.335617
Si Si5 0.996438 0.500000 0.208761
Si Si6 0.692143 0.644829 0.206685
Si Si7 0.084859 0.142253 0.942067
O O1 0.418076 0.807323 0.178004
O O2 0.617291 0.749272 0.233314
O O3 0.556881 0.000000 0.224217
O O4 0.500000 0.864726 0.000000
O O5 0.725946 0.615958 0.835223
O O6 0.664858 0.657355 0.037130
O O7 0.794758 0.802370 0.982041
O O8 0.899466 0.500000 0.826564
O O9 0.882475 0.500000 0.059169
O O10 0.817360 0.309434 0.291365
O O11 0.949106 0.164425 0.225506
O O12 0.000000 0.227138 0.500000
O O13 0.997913 0.382319 0.300981
O O14 0.679326 0.500000 0.236283
O O15 0.092466 0.000000 0.975775
O O16 0.000000 0.199957 0.000000
#
# Coordination Sequence:
#
# PCOD9141917 Si02
#       7
#     4   4   2   4   2   4   4
#     4   9  19  30  45  68 102 140 174 215 266 319
#     4  10  17  29  48  73 103 134 173 211 269 312
#     4  11  18  28  52  80 103 136 171 220 259 327
#     4  11  21  34  53  77 106 143 174 213 266 322
#     4  11  19  32  49  75 110 135 172 209 270 318
#     4  10  18  30  47  71 102 139 176 215 262 314
#     4  10  20  34  52  76 108 141 176 220 263 312
#
# _framework density 17.608972999999999
#
# number of rings (size 3 to 8) (size 9 to 14) (size 15 to 20)
#    0.000    1.833    5.000    1.750    1.167    5.333 
#    0.000    0.000    0.000    0.000    0.000    5.833 
#    0.000    8.000    0.000    0.000    0.000    0.000 
#
# Total GULP energy -133663.027448 kJ/mol
# GULP energy per Si atom -5569.292810 kJ/mol
# Density = 1.756889 g / cm^3
# Si number density = 17.608973 Si / 1000 Ang^3
#
#
#
# Elastic Constant Matrix: (Units=GPa)
#
#
# Indices 1 2 3 4 5 6 
#
# 1 113.5171 53.0625 23.8393 0.0000 3.5626 0.0000
# 2 53.0625 101.7836 8.8589 0.0000 9.4389 0.0000
# 3 23.8393 8.8589 37.4114 0.0000 -1.7419 0.0000
# 4 0.0000 0.0000 0.0000 -6.1056 0.0000 3.4295
# 5 3.5626 9.4389 -1.7419 0.0000 9.0299 0.0000
# 6 0.0000 0.0000 0.0000 3.4295 0.0000 26.8691
#
#
#
# Elastic Compliance Matrix: (Units=1/GPa)
#
#
# Indices 1 2 3 4 5 6 
#
# 1 0.013198 -0.006280 -0.006922 0.000000 0.000022 0.000000
# 2 -0.006280 0.014244 0.000051 0.000000 -0.012402 0.000000
# 3 -0.006922 0.000051 0.031536 0.000000 0.008761 0.000000
# 4 0.000000 0.000000 0.000000 -0.152827 0.000000 0.019507
# 5 0.000022 -0.012402 0.008761 0.000000 0.125388 0.000000
# 6 0.000000 0.000000 0.000000 0.019507 0.000000 0.034728
#
#
# Mechanical properties :
#
#
# Convention : Reuss Voigt Hill
#
# Bulk Modulus (GPa) = 30.60222 47.13708 38.86965
# Shear Modulus (GPa) = 48.32793 17.08879 32.70836
#
# Velocity S-wave (km/s) = 5.24449 3.11860 4.31453
# Velocity P-wave (km/s) = 7.35455 6.30828 6.85142
#
# Compressibility (1/GPa) = 0.03267737
#
# Stress axis : x y z
#
# Youngs Moduli (GPa) = 75.77127 70.20366 31.70956
#
# Poissons Ratio (x) = 0.44087 0.21948
# Poissons Ratio (y) = 0.47583 -0.00162
# Poissons Ratio (z) = 0.52447 -0.00359
#
# Static dielectric constant tensor:
#      x y z
#    x 1.625090 0.000000 0.010260 
#    y 0.000000 1.662960 0.000000 
#    z 0.010260 0.000000 1.596130 
# 
# From -- ./inp_files/46245.got.cif
#   From: 2010.05.17/outbox.cif.g08.bks.cpg/sg10_24_cif.got.tgz:46245.got - 2010.06.03 11:33:40.
