data_PCOD9141661
_publ_section_title
;
Structure prediction by ZEFSAII (Michael W. Deem and Ramdas Pophale) SiO2 
 PCOD9141661
Probable space group: P 2/M
;
_chemical_formula_sum "Si O2"
_cell_formula_units_Z 28
_cell_length_a 14.167268
_cell_length_b 7.619716
_cell_length_c 15.051031
_cell_angle_alpha 90.000000
_cell_angle_beta 76.851798
_cell_angle_gamma 90.000000
_cell_volume 1582.173843
_symmetry_space_group_name_H-M "P 2/M"
_symmetry_group_IT_number 10
_symmetry_cell_setting 'monoclinic'
loop_
_space_group_symop_operation_xyz
x,y,z
-x,y,-z
-x,-y,-z
x,-y,z
loop_
_atom_site_type_symbol
_atom_site_label
_atom_site_fract_x
_atom_site_fract_y
_atom_site_fract_z
Si Si1 0.747350 0.712693 0.206835
Si Si2 0.632684 0.286171 0.396046
Si Si3 0.633973 0.287888 0.784557
Si Si4 0.424187 0.704954 0.884290
Si Si5 0.280269 0.206261 0.057944
Si Si6 0.891889 0.207309 0.028854
Si Si7 0.413130 0.713901 0.399081
O O1 0.748659 0.500000 0.204978
O O2 0.718496 0.769818 0.312052
O O3 0.658355 0.776567 0.163763
O O4 0.844083 0.771548 0.136234
O O5 0.633077 0.500000 0.396587
O O6 0.634616 0.228138 0.497990
O O7 0.527009 0.235739 0.379332
O O8 0.634518 0.500000 0.784192
O O9 0.530339 0.221248 0.844849
O O10 0.714905 0.234383 0.838055
O O11 0.636550 0.228695 0.681668
O O12 0.432802 0.500000 0.859571
O O13 0.377145 0.717279 0.991426
O O14 0.284388 0.000000 0.039365
O O15 0.186810 0.279410 0.025315
O O16 0.899394 0.000000 0.007984
O O17 0.000000 0.282032 0.000000
O O18 0.412445 0.500000 0.399247
#
# Coordination Sequence:
#
# PCOD9141661 Si02
#       7
#     4   4   4   4   4   4   4
#     4   9  15  25  44  68  89 108 136 175 211 240
#     4   8  12  21  38  62  88 113 143 174 198 229
#     4  10  17  26  40  60  86 117 145 166 193 234
#     4   9  16  26  39  58  85 115 142 166 194 235
#     4  10  20  30  41  58  79 106 139 174 211 250
#     4   9  19  35  49  60  78 106 139 175 218 265
#     4   8  13  21  37  60  87 118 147 169 192 230
#
# _framework density 17.69717
#
# number of rings (size 3 to 8) (size 9 to 14) (size 15 to 20)
#    0.000    3.000    1.429    1.714    0.000    3.143 
#    0.000    0.000    0.000    0.857    0.000    3.000 
#    0.000    8.000    0.000    0.000    0.000    0.000 
#
# Total GULP energy -155960.537340 kJ/mol
# GULP energy per Si atom -5570.019191 kJ/mol
# Density = 1.765689 g / cm^3
# Si number density = 17.697170 Si / 1000 Ang^3
#
#
#
# Elastic Constant Matrix: (Units=GPa)
#
#
# Indices 1 2 3 4 5 6 
#
# 1 76.4400 3.6111 61.3721 0.0000 -7.7161 0.0000
# 2 3.6111 32.6440 -10.7316 0.0000 1.4828 0.0000
# 3 61.3721 -10.7316 133.9068 0.0000 3.4721 0.0000
# 4 0.0000 0.0000 0.0000 7.3211 0.0000 -1.6578
# 5 -7.7161 1.4828 3.4721 0.0000 19.2732 0.0000
# 6 0.0000 0.0000 0.0000 -1.6578 0.0000 9.2710
#
#
#
# Elastic Compliance Matrix: (Units=1/GPa)
#
#
# Indices 1 2 3 4 5 6 
#
# 1 0.024384 -0.007236 -0.012079 0.000000 0.012495 0.000000
# 2 -0.007236 0.033771 0.006194 0.000000 -0.006611 0.000000
# 3 -0.012079 0.006194 0.013702 0.000000 -0.007781 0.000000
# 4 0.000000 0.000000 0.000000 0.142355 0.000000 0.025456
# 5 0.012495 -0.006611 -0.007781 0.000000 0.058798 0.000000
# 6 0.000000 0.000000 0.000000 0.025456 0.000000 0.112415
#
#
# Mechanical properties :
#
#
# Convention : Reuss Voigt Hill
#
# Bulk Modulus (GPa) = 21.92296 39.05489 30.48892
# Shear Modulus (GPa) = 11.71314 19.75569 15.73441
#
# Velocity S-wave (km/s) = 2.57546 3.34476 2.98500
# Velocity P-wave (km/s) = 4.61072 6.08547 5.39869
#
# Compressibility (1/GPa) = 0.04561428
#
# Stress axis : x y z
#
# Youngs Moduli (GPa) = 41.01133 29.61162 72.98075
#
# Poissons Ratio (x) = 0.21427 0.88156
# Poissons Ratio (y) = 0.29675 -0.45206
# Poissons Ratio (z) = 0.49539 -0.18342
#
# Static dielectric constant tensor:
#      x y z
#    x 1.597050 0.000000 0.012780 
#    y 0.000000 1.668460 0.000000 
#    z 0.012780 0.000000 1.644100 
# 
# From -- ./inp_files/65718.got.cif
#   From: 2010.05.17/outbox.cif.g08.bks.cpg/sg10_33_cif.got.tgz:65718.got - 2010.06.03 11:33:40.
