data_PCOD9141417
_publ_section_title
;
Structure prediction by ZEFSAII (Michael W. Deem and Ramdas Pophale) SiO2 
 PCOD9141417
Probable space group: P 2/M
;
_chemical_formula_sum "Si O2"
_cell_formula_units_Z 24
_cell_length_a 14.884429
_cell_length_b 22.359935
_cell_length_c 12.763592
_cell_angle_alpha 90.000000
_cell_angle_beta 20.274779
_cell_angle_gamma 90.000000
_cell_volume 1471.998627
_symmetry_space_group_name_H-M "P 2/M"
_symmetry_group_IT_number 10
_symmetry_cell_setting 'monoclinic'
loop_
_space_group_symop_operation_xyz
x,y,z
-x,y,-z
-x,-y,-z
x,-y,z
loop_
_atom_site_type_symbol
_atom_site_label
_atom_site_fract_x
_atom_site_fract_y
_atom_site_fract_z
Si Si1 0.515731 0.375028 0.692392
Si Si2 0.801853 0.071071 0.077631
Si Si3 0.056790 0.429573 0.059505
Si Si4 0.287507 0.568985 0.140758
Si Si5 0.303506 0.876693 0.572451
Si Si6 0.286839 0.738968 0.640667
O O1 0.781434 0.413281 0.413104
O O2 0.617306 0.309964 0.547385
O O3 0.360891 0.385251 0.968963
O O4 0.309931 0.396850 0.828751
O O5 0.749673 0.098213 0.251092
O O6 0.590612 0.101229 0.234928
O O7 0.775133 0.000000 0.111840
O O8 0.089504 0.091691 0.736247
O O9 0.106601 0.500000 0.014748
O O10 0.000000 0.415499 0.000000
O O11 0.294053 0.500000 0.092146
O O12 0.000000 0.578978 0.500000
O O13 0.500000 0.572925 0.000000
O O14 0.275079 0.805756 0.606940
O O15 0.500000 0.740074 0.500000
O O16 0.000000 0.725010 0.000000
#
# Coordination Sequence:
#
# PCOD9141417 Si02
#       6
#     4   4   4   4   4   4
#     4  12  23  35  54  76  94 127 164 193 245 303
#     4  10  16  25  41  60  83 118 170 208 225 250
#     4  11  22  36  51  72 101 127 156 196 236 282
#     4  10  21  38  58  76  93 113 148 206 264 306
#     4  10  16  27  38  58  85 122 159 202 221 257
#     4  12  21  34  47  65 101 134 165 194 222 276
#
# _framework density 16.304362999999999
#
# number of rings (size 3 to 8) (size 9 to 14) (size 15 to 20)
#    0.000    1.167    3.333    8.000    0.000    2.667 
#    0.000    0.000    0.000    0.000    0.000    0.000 
#    0.000    0.000    0.000    0.000    0.000   28.333 
#
# Total GULP energy -133867.411798 kJ/mol
# GULP energy per Si atom -5577.808825 kJ/mol
# Density = 1.626725 g / cm^3
# Si number density = 16.304363 Si / 1000 Ang^3
#
#
#
# Elastic Constant Matrix: (Units=GPa)
#
#
# Indices 1 2 3 4 5 6 
#
# 1 44.1111 29.5149 36.9772 0.0000 -17.2497 0.0000
# 2 29.5149 138.7732 48.6995 0.0000 -0.5289 0.0000
# 3 36.9772 48.6995 103.9970 0.0000 -26.9574 0.0000
# 4 0.0000 0.0000 0.0000 22.2057 0.0000 -11.1550
# 5 -17.2497 -0.5289 -26.9574 0.0000 37.1406 0.0000
# 6 0.0000 0.0000 0.0000 -11.1550 0.0000 6.1324
#
#
#
# Elastic Compliance Matrix: (Units=1/GPa)
#
#
# Indices 1 2 3 4 5 6 
#
# 1 0.037153 -0.005107 -0.007840 0.000000 0.011493 0.000000
# 2 -0.005107 0.009702 -0.004072 0.000000 -0.005190 0.000000
# 3 -0.007840 -0.004072 0.016445 0.000000 0.008237 0.000000
# 4 0.000000 0.000000 0.000000 0.522312 0.000000 0.950094
# 5 0.011493 -0.005190 0.008237 0.000000 0.038167 0.000000
# 6 0.000000 0.000000 0.000000 0.950094 0.000000 1.891304
#
#
# Mechanical properties :
#
#
# Convention : Reuss Voigt Hill
#
# Bulk Modulus (GPa) = 34.17404 57.47385 45.82395
# Shear Modulus (GPa) = 1.95398 24.54173 13.24785
#
# Velocity S-wave (km/s) = 1.09592 3.88393 2.85359
# Velocity P-wave (km/s) = 4.75468 7.44583 6.24689
#
# Compressibility (1/GPa) = 0.02926198
#
# Stress axis : x y z
#
# Youngs Moduli (GPa) = 26.91565 103.07684 60.80745
#
# Poissons Ratio (x) = 0.52640 0.47671
# Poissons Ratio (y) = 0.13746 0.24763
# Poissons Ratio (z) = 0.21101 0.41977
#
# Static dielectric constant tensor:
#      x y z
#    x 1.576510 0.000000 -0.097720 
#    y 0.000000 1.550900 0.000000 
#    z -0.097720 0.000000 1.640680 
# 
# From -- ./inp_files/52056.got.cif
#   From: 2010.05.17/outbox.cif.g08.bks.cpg/sg10_27_cif.got.tgz:52056.got - 2010.06.03 11:33:40.
