data_PCOD9141834
_publ_section_title
;
Structure prediction by ZEFSAII (Michael W. Deem and Ramdas Pophale) SiO2 
 PCOD9141834
Probable space group: P 2/M
;
_chemical_formula_sum "Si O2"
_cell_formula_units_Z 32
_cell_length_a 24.439747
_cell_length_b 8.811416
_cell_length_c 18.190241
_cell_angle_alpha 90.000000
_cell_angle_beta 30.232547
_cell_angle_gamma 90.000000
_cell_volume 1972.375824
_symmetry_space_group_name_H-M "P 2/M"
_symmetry_group_IT_number 10
_symmetry_cell_setting 'monoclinic'
loop_
_space_group_symop_operation_xyz
x,y,z
-x,y,-z
-x,-y,-z
x,-y,z
loop_
_atom_site_type_symbol
_atom_site_label
_atom_site_fract_x
_atom_site_fract_y
_atom_site_fract_z
Si Si1 0.863364 0.817272 0.050336
Si Si2 0.165207 0.818602 0.173692
Si Si3 0.230580 0.680356 0.694695
Si Si4 0.464202 0.818341 0.457083
Si Si5 0.869837 0.675545 0.635768
Si Si6 0.929642 0.317313 0.409345
Si Si7 0.311656 0.815651 0.870020
Si Si8 0.897455 0.818452 0.290486
O O1 0.841664 0.740081 0.153312
O O2 0.770097 0.770027 0.100677
O O3 0.856268 0.000000 0.068077
O O4 0.980946 0.782245 0.880129
O O5 0.183157 0.769258 0.236956
O O6 0.051725 0.746208 0.278423
O O7 0.154146 0.000000 0.182176
O O8 0.259298 0.769377 0.008149
O O9 0.224255 0.500000 0.697648
O O10 0.353128 0.734209 0.568284
O O11 0.186103 0.754240 0.671789
O O12 0.500000 0.794872 0.500000
O O13 0.566022 0.767163 0.289224
O O14 0.447186 0.000000 0.467694
O O15 0.835771 0.500000 0.680749
O O16 0.861364 0.728687 0.561362
O O17 0.000000 0.679627 0.500000
O O18 0.934410 0.500000 0.403468
O O19 0.884633 0.254225 0.385515
O O20 0.312895 0.000000 0.867174
O O21 0.889009 0.000000 0.305318
#
# Coordination Sequence:
#
# PCOD9141834 Si02
#       8
#     4   4   4   4   4   4   4   4
#     4  10  19  36  55  73  99 134 173 208 248 299
#     4  10  17  28  47  74 103 132 170 211 247 293
#     4  12  25  37  50  74 105 132 169 214 256 299
#     4  10  19  36  59  73  92 132 175 211 254 301
#     4   8  16  29  43  65 100 139 168 196 244 303
#     4  10  19  31  47  70 104 138 166 202 252 301
#     4   9  17  31  52  77 100 128 170 214 253 293
#     4  11  22  36  55  75  99 134 176 210 245 301
#
# _framework density 16.22409
#
# number of rings (size 3 to 8) (size 9 to 14) (size 15 to 20)
#    0.000    2.000    2.500    3.375    0.000    5.500 
#    0.000    1.250    0.000    0.000    0.000    0.875 
#    0.000    7.000    0.000    0.000    0.000    0.000 
#
# Total GULP energy -178538.233304 kJ/mol
# GULP energy per Si atom -5579.319791 kJ/mol
# Density = 1.618716 g / cm^3
# Si number density = 16.224090 Si / 1000 Ang^3
#
#
#
# Elastic Constant Matrix: (Units=GPa)
#
#
# Indices 1 2 3 4 5 6 
#
# 1 111.1792 38.3822 44.7151 0.0000 26.3270 0.0000
# 2 38.3822 43.1484 26.5041 0.0000 10.2429 0.0000
# 3 44.7151 26.5041 56.6553 0.0000 24.7614 0.0000
# 4 0.0000 0.0000 0.0000 -8.7456 0.0000 10.8363
# 5 26.3270 10.2429 24.7614 0.0000 32.0265 0.0000
# 6 0.0000 0.0000 0.0000 10.8363 0.0000 23.9235
#
#
#
# Elastic Compliance Matrix: (Units=1/GPa)
#
#
# Indices 1 2 3 4 5 6 
#
# 1 0.015804 -0.009221 -0.005694 0.000000 -0.005639 0.000000
# 2 -0.009221 0.037992 -0.012834 0.000000 0.005353 0.000000
# 3 -0.005694 -0.012834 0.036716 0.000000 -0.019601 0.000000
# 4 0.000000 0.000000 0.000000 -0.073238 0.000000 0.033174
# 5 -0.005639 0.005353 -0.019601 0.000000 0.049303 0.000000
# 6 0.000000 0.000000 0.000000 0.033174 0.000000 0.026774
#
#
# Mechanical properties :
#
#
# Convention : Reuss Voigt Hill
#
# Bulk Modulus (GPa) = 28.56278 47.79840 38.18059
# Shear Modulus (GPa) = 31.14897 16.19962 23.67430
#
# Velocity S-wave (km/s) = 4.38644 3.16332 3.82410
# Velocity P-wave (km/s) = 6.58011 6.54733 6.56374
#
# Compressibility (1/GPa) = 0.03501060
#
# Stress axis : x y z
#
# Youngs Moduli (GPa) = 63.27681 26.32167 27.23629
#
# Poissons Ratio (x) = 0.24272 0.15509
# Poissons Ratio (y) = 0.58350 0.34956
# Poissons Ratio (z) = 0.36032 0.33782
#
# Static dielectric constant tensor:
#      x y z
#    x 1.539490 0.000000 0.022920 
#    y 0.000000 1.544890 0.000000 
#    z 0.022920 0.000000 1.541730 
# 
# From -- ./inp_files/56463.got.cif
#   From: 2010.05.17/outbox.cif.g08.bks.cpg/sg10_29_cif.got.tgz:56463.got - 2010.06.03 11:33:40.
