data_PCOD9141628
_publ_section_title
;
Structure prediction by ZEFSAII (Michael W. Deem and Ramdas Pophale) SiO2 
 PCOD9141628
Probable space group: P 2/M
;
_chemical_formula_sum "Si O2"
_cell_formula_units_Z 24
_cell_length_a 10.531875
_cell_length_b 8.531652
_cell_length_c 15.902386
_cell_angle_alpha 90.000000
_cell_angle_beta 78.104759
_cell_angle_gamma 90.000000
_cell_volume 1398.213650
_symmetry_space_group_name_H-M "P 2/M"
_symmetry_group_IT_number 10
_symmetry_cell_setting 'monoclinic'
loop_
_space_group_symop_operation_xyz
x,y,z
-x,y,-z
-x,-y,-z
x,-y,z
loop_
_atom_site_type_symbol
_atom_site_label
_atom_site_fract_x
_atom_site_fract_y
_atom_site_fract_z
Si Si1 0.862942 0.188921 0.058019
Si Si2 0.645087 0.189633 0.954879
Si Si3 0.843826 0.184878 0.595802
Si Si4 0.211049 0.312495 0.225476
Si Si5 0.087690 0.688847 0.767871
Si Si6 0.133776 0.685991 0.579292
O O1 0.853582 0.247517 0.154420
O O2 0.864504 0.000000 0.058965
O O3 0.746801 0.239595 0.013020
O O4 0.000000 0.243283 0.000000
O O5 0.692086 0.258904 0.860208
O O6 0.650007 0.000000 0.948296
O O7 0.500000 0.235542 0.000000
O O8 0.760823 0.237168 0.687396
O O9 0.797442 0.231326 0.508795
O O10 0.980379 0.275763 0.589731
O O11 0.868371 0.000000 0.595294
O O12 0.210563 0.500000 0.233699
O O13 0.064293 0.261832 0.218309
O O14 0.088383 0.500000 0.769496
O O15 0.159615 0.737715 0.671691
O O16 0.152771 0.500000 0.570007
#
# Coordination Sequence:
#
# PCOD9141628 Si02
#       6
#     4   4   4   4   4   4
#     4  10  19  31  49  72  95 125 164 201 240 287
#     4  10  21  36  51  70  98 129 162 204 247 287
#     4  10  17  25  41  65  93 127 162 196 241 290
#     4  10  19  31  47  68  95 128 164 201 243 288
#     4   9  18  29  45  69  96 128 160 198 241 284
#     4   9  16  27  40  62  96 128 159 196 242 288
#
# _framework density 17.164759
#
# number of rings (size 3 to 8) (size 9 to 14) (size 15 to 20)
#    0.000    2.333    1.667    4.500    0.000    4.667 
#    0.000    0.000    0.000    0.000    0.000    1.167 
#    0.000    9.333    0.000    0.000    0.000    0.000 
#
# Total GULP energy -133753.906390 kJ/mol
# GULP energy per Si atom -5573.079433 kJ/mol
# Density = 1.712569 g / cm^3
# Si number density = 17.164759 Si / 1000 Ang^3
#
#
#
# Elastic Constant Matrix: (Units=GPa)
#
#
# Indices 1 2 3 4 5 6 
#
# 1 61.1649 13.2981 51.5183 0.0000 -0.8838 0.0000
# 2 13.2981 14.5770 26.6565 0.0000 -1.5710 0.0000
# 3 51.5183 26.6565 194.8907 0.0000 10.4462 0.0000
# 4 0.0000 0.0000 0.0000 44.9635 0.0000 4.3226
# 5 -0.8838 -1.5710 10.4462 0.0000 14.9848 0.0000
# 6 0.0000 0.0000 0.0000 4.3226 0.0000 9.2430
#
#
#
# Elastic Compliance Matrix: (Units=1/GPa)
#
#
# Indices 1 2 3 4 5 6 
#
# 1 0.022885 -0.012197 -0.004555 0.000000 0.003246 0.000000
# 2 -0.012197 0.103521 -0.011924 0.000000 0.018446 0.000000
# 3 -0.004555 -0.011924 0.008360 0.000000 -0.007347 0.000000
# 4 0.000000 0.000000 0.000000 0.023287 0.000000 -0.010890
# 5 0.003246 0.018446 -0.007347 0.000000 0.073981 0.000000
# 6 0.000000 0.000000 0.000000 -0.010890 0.000000 0.113283
#
#
# Mechanical properties :
#
#
# Convention : Reuss Voigt Hill
#
# Bulk Modulus (GPa) = 12.91768 50.39760 31.65764
# Shear Modulus (GPa) = 11.66934 25.78223 18.72579
#
# Velocity S-wave (km/s) = 2.61021 3.87983 3.30653
# Velocity P-wave (km/s) = 4.07753 7.03531 5.74986
#
# Compressibility (1/GPa) = 0.07741327
#
# Stress axis : x y z
#
# Youngs Moduli (GPa) = 43.69717 9.65990 119.61883
#
# Poissons Ratio (x) = 0.11782 0.54489
# Poissons Ratio (y) = 0.53298 1.42630
# Poissons Ratio (z) = 0.19905 0.11518
#
# Static dielectric constant tensor:
#      x y z
#    x 1.556570 0.000000 0.010160 
#    y 0.000000 1.579850 0.000000 
#    z 0.010160 0.000000 1.631540 
# 
# From -- ./inp_files/48659.got.cif
#   From: 2010.05.17/outbox.cif.g08.bks.cpg/sg10_25_cif.got.tgz:48659.got - 2010.06.03 11:33:40.
