data_PCOD9141401
_publ_section_title
;
Structure prediction by ZEFSAII (Michael W. Deem and Ramdas Pophale) SiO2 
 PCOD9141401
Probable space group: P 2/M
;
_chemical_formula_sum "Si O2"
_cell_formula_units_Z 28
_cell_length_a 15.938873
_cell_length_b 13.876641
_cell_length_c 9.732393
_cell_angle_alpha 90.000000
_cell_angle_beta 33.348362
_cell_angle_gamma 90.000000
_cell_volume 1183.339996
_symmetry_space_group_name_H-M "P 2/M"
_symmetry_group_IT_number 10
_symmetry_cell_setting 'monoclinic'
loop_
_space_group_symop_operation_xyz
x,y,z
-x,y,-z
-x,-y,-z
x,-y,z
loop_
_atom_site_type_symbol
_atom_site_label
_atom_site_fract_x
_atom_site_fract_y
_atom_site_fract_z
Si Si1 0.148305 0.107586 0.965567
Si Si2 0.874737 0.387892 0.862748
Si Si3 0.238195 0.613216 0.416023
Si Si4 0.327915 0.263948 0.065792
Si Si5 0.180511 0.301283 0.778321
Si Si6 0.888303 0.889320 0.521558
Si Si7 0.563212 0.892764 0.259031
O O1 0.204997 0.190645 0.788334
O O2 0.256326 0.104028 0.952035
O O3 0.150434 0.000000 0.902408
O O4 0.982919 0.131084 0.253323
O O5 0.854118 0.500000 0.850598
O O6 0.790547 0.312721 0.879106
O O7 0.058087 0.369772 0.618800
O O8 0.798337 0.367472 0.115929
O O9 0.252416 0.500000 0.415862
O O10 0.348624 0.650937 0.145831
O O11 0.261400 0.663985 0.530623
O O12 0.247189 0.183290 0.269963
O O13 0.453161 0.201539 0.811841
O O14 0.000000 0.310895 0.000000
O O15 0.000000 0.879663 0.500000
O O16 0.837686 0.000000 0.585580
O O17 0.500000 0.883093 0.500000
O O18 0.517723 0.000000 0.269310
#
# Coordination Sequence:
#
# PCOD9141401 Si02
#       7
#     4   4   4   4   4   4   4
#     4  10  19  32  51  77 107 139 175 214 258 311
#     4  10  19  30  48  75 107 143 181 213 252 310
#     4  10  21  32  47  76 113 142 170 212 259 313
#     4  12  19  31  52  78 106 136 174 217 266 308
#     4  10  18  32  49  73 109 150 176 199 252 319
#     4  10  16  24  43  73 105 132 157 197 257 316
#     4  10  21  36  55  79 105 136 176 220 265 312
#
# _framework density 23.661837999999999
#
# number of rings (size 3 to 8) (size 9 to 14) (size 15 to 20)
#    0.000    1.714    2.857    4.286    0.000    3.143 
#    0.000    1.429    0.000    2.571    0.000    4.000 
#    0.000    0.000    0.000    0.000    0.000    0.000 
#
# Total GULP energy -156485.287283 kJ/mol
# GULP energy per Si atom -5588.760260 kJ/mol
# Density = 2.360798 g / cm^3
# Si number density = 23.661838 Si / 1000 Ang^3
#
#
#
# Elastic Constant Matrix: (Units=GPa)
#
#
# Indices 1 2 3 4 5 6 
#
# 1 47.6480 29.9778 20.1789 0.0000 10.4094 0.0000
# 2 29.9778 174.8669 64.7471 0.0000 22.8336 0.0000
# 3 20.1789 64.7471 95.9798 0.0000 21.4487 0.0000
# 4 0.0000 0.0000 0.0000 17.3879 0.0000 16.7702
# 5 10.4094 22.8336 21.4487 0.0000 24.8790 0.0000
# 6 0.0000 0.0000 0.0000 16.7702 0.0000 21.5089
#
#
#
# Elastic Compliance Matrix: (Units=1/GPa)
#
#
# Indices 1 2 3 4 5 6 
#
# 1 0.024902 -0.002712 -0.002024 0.000000 -0.006185 0.000000
# 2 -0.002712 0.008126 -0.004333 0.000000 -0.002587 0.000000
# 3 -0.002024 -0.004333 0.015718 0.000000 -0.008727 0.000000
# 4 0.000000 0.000000 0.000000 0.231891 0.000000 -0.180802
# 5 -0.006185 -0.002587 -0.008727 0.000000 0.052681 0.000000
# 6 0.000000 0.000000 0.000000 -0.180802 0.000000 0.187461
#
#
# Mechanical properties :
#
#
# Convention : Reuss Voigt Hill
#
# Bulk Modulus (GPa) = 32.67178 60.92249 46.79714
# Shear Modulus (GPa) = 9.10551 26.32787 17.71669
#
# Velocity S-wave (km/s) = 1.96381 3.33929 2.73929
# Velocity P-wave (km/s) = 4.35658 6.37737 5.46126
#
# Compressibility (1/GPa) = 0.03060745
#
# Stress axis : x y z
#
# Youngs Moduli (GPa) = 40.15775 123.06382 63.62254
#
# Poissons Ratio (x) = 0.33375 0.12875
# Poissons Ratio (y) = 0.10891 0.27569
# Poissons Ratio (z) = 0.08127 0.53327
#
# Static dielectric constant tensor:
#      x y z
#    x 1.974450 0.000000 -0.041140 
#    y 0.000000 1.890370 0.000000 
#    z -0.041140 0.000000 1.958170 
# 
# From -- ./inp_files/25060.got.cif
#   From: 2010.05.17/outbox.cif.g08.bks.cpg/sg10_13_cif.got.tgz:25060.got - 2010.06.03 11:33:40.
