data_PCOD9141578
_publ_section_title
;
Structure prediction by ZEFSAII (Michael W. Deem and Ramdas Pophale) SiO2 
 PCOD9141578
Probable space group: P 2/M
;
_chemical_formula_sum "Si O2"
_cell_formula_units_Z 24
_cell_length_a 23.570292
_cell_length_b 8.833041
_cell_length_c 17.104613
_cell_angle_alpha 90.000000
_cell_angle_beta 156.245559
_cell_angle_gamma 90.000000
_cell_volume 1434.488056
_symmetry_space_group_name_H-M "P 2/M"
_symmetry_group_IT_number 10
_symmetry_cell_setting 'monoclinic'
loop_
_space_group_symop_operation_xyz
x,y,z
-x,y,-z
-x,-y,-z
x,-y,z
loop_
_atom_site_type_symbol
_atom_site_label
_atom_site_fract_x
_atom_site_fract_y
_atom_site_fract_z
Si Si1 0.351995 0.818191 0.112478
Si Si2 0.927207 0.818380 0.517233
Si Si3 0.067029 0.180989 0.849141
Si Si4 0.894932 0.319015 0.936010
Si Si5 0.586487 0.182311 0.531309
Si Si6 0.208428 0.680564 0.791747
O O1 0.491787 0.778683 0.336698
O O2 0.346937 0.000000 0.094325
O O3 0.332444 0.736886 0.004798
O O4 0.217407 0.780180 0.998097
O O5 0.945974 0.784024 0.632640
O O6 0.801026 0.746981 0.307839
O O7 0.069694 0.750365 0.658859
O O8 0.928315 0.000000 0.509086
O O9 0.068642 0.000000 0.863371
O O10 0.054512 0.262086 0.915624
O O11 0.889812 0.500000 0.929672
O O12 0.739242 0.254972 0.724961
O O13 0.000000 0.268195 0.000000
O O14 0.500000 0.226734 0.500000
O O15 0.601122 0.000000 0.552109
O O16 0.199873 0.500000 0.779236
#
# Coordination Sequence:
#
# PCOD9141578 Si02
#       6
#     4   4   4   4   4   4
#     4   9  17  30  48  70  98 127 160 205 252 293
#     4   9  16  27  42  61  91 128 163 201 247 290
#     4   9  17  31  50  70  93 128 170 210 247 293
#     4  11  24  37  49  72 106 138 168 206 253 304
#     4  10  19  35  56  76  97 128 173 215 251 297
#     4  10  17  24  38  65  98 128 160 195 239 298
#
# _framework density 16.730709000000001
#
# number of rings (size 3 to 8) (size 9 to 14) (size 15 to 20)
#    0.000    2.333    1.667    4.500    0.000    5.667 
#    0.000    0.000    0.000    0.000    0.000    1.167 
#    0.000    9.333    0.000    0.000    0.000    0.000 
#
# Total GULP energy -133753.505358 kJ/mol
# GULP energy per Si atom -5573.062723 kJ/mol
# Density = 1.669263 g / cm^3
# Si number density = 16.730709 Si / 1000 Ang^3
#
#
#
# Elastic Constant Matrix: (Units=GPa)
#
#
# Indices 1 2 3 4 5 6 
#
# 1 101.3026 46.8600 83.2142 0.0000 -28.3899 0.0000
# 2 46.8600 58.2843 49.4239 0.0000 -21.0461 0.0000
# 3 83.2142 49.4239 107.0717 0.0000 -35.9122 0.0000
# 4 0.0000 0.0000 0.0000 11.6819 0.0000 2.2074
# 5 -28.3899 -21.0461 -35.9122 0.0000 35.6369 0.0000
# 6 0.0000 0.0000 0.0000 2.2074 0.0000 15.8284
#
#
#
# Elastic Compliance Matrix: (Units=1/GPa)
#
#
# Indices 1 2 3 4 5 6 
#
# 1 0.028899 -0.006976 -0.019486 0.000000 -0.000734 0.000000
# 2 -0.006976 0.030566 -0.006793 0.000000 0.005648 0.000000
# 3 -0.019486 -0.006793 0.031823 0.000000 0.012534 0.000000
# 4 0.000000 0.000000 0.000000 0.087919 0.000000 -0.012261
# 5 -0.000734 0.005648 0.012534 0.000000 0.043443 0.000000
# 6 0.000000 0.000000 0.000000 -0.012261 0.000000 0.064887
#
#
# Mechanical properties :
#
#
# Convention : Reuss Voigt Hill
#
# Bulk Modulus (GPa) = 40.35783 69.51719 54.93751
# Shear Modulus (GPa) = 13.80045 18.44016 16.12031
#
# Velocity S-wave (km/s) = 2.87515 3.32350 3.10742
# Velocity P-wave (km/s) = 5.93265 7.50789 6.76627
#
# Compressibility (1/GPa) = 0.02477834
#
# Stress axis : x y z
#
# Youngs Moduli (GPa) = 34.60281 32.71629 31.42344
#
# Poissons Ratio (x) = 0.22823 0.61232
# Poissons Ratio (y) = 0.24139 0.21346
# Poissons Ratio (z) = 0.67428 0.22224
#
# Static dielectric constant tensor:
#      x y z
#    x 1.568270 0.000000 -0.048060 
#    y 0.000000 1.555910 0.000000 
#    z -0.048060 0.000000 1.584270 
# 
# From -- ./inp_files/48660.got.cif
#   From: 2010.05.17/outbox.cif.g08.bks.cpg/sg10_25_cif.got.tgz:48660.got - 2010.06.03 11:33:40.
