data_PCOD9141453
_publ_section_title
;
Structure prediction by ZEFSAII (Michael W. Deem and Ramdas Pophale) SiO2 
 PCOD9141453
Probable space group: P 2/M
;
_chemical_formula_sum "Si O2"
_cell_formula_units_Z 22
_cell_length_a 11.799644
_cell_length_b 18.562589
_cell_length_c 5.508604
_cell_angle_alpha 90.000000
_cell_angle_beta 128.278363
_cell_angle_gamma 90.000000
_cell_volume 947.162289
_symmetry_space_group_name_H-M "P 2/M"
_symmetry_group_IT_number 10
_symmetry_cell_setting 'monoclinic'
loop_
_space_group_symop_operation_xyz
x,y,z
-x,y,-z
-x,-y,-z
x,-y,z
loop_
_atom_site_type_symbol
_atom_site_label
_atom_site_fract_x
_atom_site_fract_y
_atom_site_fract_z
Si Si1 0.000000 0.808850 0.000000
Si Si2 0.660694 0.298477 0.157819
Si Si3 0.317851 0.867511 0.906363
Si Si4 0.404619 0.500000 0.619676
Si Si5 0.000000 0.183415 0.500000
Si Si6 0.269843 0.081604 0.343607
Si Si7 0.670993 0.650094 0.665674
O O1 0.003439 0.770151 0.747618
O O2 0.860958 0.861183 0.825832
O O3 0.643530 0.216772 0.042873
O O4 0.722384 0.297222 0.516446
O O5 0.500000 0.328782 0.000000
O O6 0.730363 0.340478 0.020189
O O7 0.141390 0.865690 0.673449
O O8 0.359024 0.901870 0.705207
O O9 0.352948 0.905828 0.202837
O O10 0.500000 0.500000 0.500000
O O11 0.315271 0.573082 0.453107
O O12 0.500000 0.500000 0.000000
O O13 0.216201 0.000000 0.281881
O O14 0.500000 0.662711 0.500000
#
# Coordination Sequence:
#
# PCOD9141453 Si02
#       7
#     2   4   4   2   2   4   4
#     4   8  15  26  42  64  86 106 130 171 230 287
#     4  10  19  31  46  64  89 121 153 177 207 256
#     4  10  19  31  46  64  88 114 144 185 224 265
#     4  10  16  26  44  68  98 123 142 173 218 258
#     4   8  16  28  43  64  86 109 138 176 224 268
#     4  10  18  29  45  64  85 110 143 184 232 276
#     4   9  17  28  44  67  92 119 147 174 209 257
#
# _framework density 23.227273
#
# number of rings (size 3 to 8) (size 9 to 14) (size 15 to 20)
#    0.000    2.545    0.000    4.636    0.000    0.000 
#    0.000    5.455    0.000    3.273    0.000    0.000 
#    0.000    4.364    0.000    0.000    0.000    1.818 
#
# Total GULP energy -122480.303805 kJ/mol
# GULP energy per Si atom -5567.286537 kJ/mol
# Density = 2.317441 g / cm^3
# Si number density = 23.227273 Si / 1000 Ang^3
#
#
#
# Elastic Constant Matrix: (Units=GPa)
#
#
# Indices 1 2 3 4 5 6 
#
# 1 64.5769 13.1966 68.8974 0.0000 -25.0734 0.0000
# 2 13.1966 91.0487 12.7670 0.0000 -16.0203 0.0000
# 3 68.8974 12.7670 173.0955 0.0000 -76.7928 0.0000
# 4 0.0000 0.0000 0.0000 24.1113 0.0000 -12.3949
# 5 -25.0734 -16.0203 -76.7928 0.0000 66.4966 0.0000
# 6 0.0000 0.0000 0.0000 -12.3949 0.0000 22.1064
#
#
#
# Elastic Compliance Matrix: (Units=1/GPa)
#
#
# Indices 1 2 3 4 5 6 
#
# 1 0.028489 -0.003239 -0.013700 0.000000 -0.005860 0.000000
# 2 -0.003239 0.011889 0.002340 0.000000 0.004346 0.000000
# 3 -0.013700 0.002340 0.018488 0.000000 0.016749 0.000000
# 4 0.000000 0.000000 0.000000 0.058270 0.000000 0.032672
# 5 -0.005860 0.004346 0.016749 0.000000 0.033218 0.000000
# 6 0.000000 0.000000 0.000000 0.032672 0.000000 0.063555
#
#
# Mechanical properties :
#
#
# Convention : Reuss Voigt Hill
#
# Bulk Modulus (GPa) = 33.70643 57.60480 45.65561
# Shear Modulus (GPa) = 19.76311 38.13353 28.94832
#
# Velocity S-wave (km/s) = 2.92011 4.05626 3.53414
# Velocity P-wave (km/s) = 5.09043 6.84046 6.02928
#
# Compressibility (1/GPa) = 0.02966793
#
# Stress axis : x y z
#
# Youngs Moduli (GPa) = 35.10125 84.11082 54.08858
#
# Poissons Ratio (x) = 0.27245 0.74103
# Poissons Ratio (y) = 0.11370 -0.12658
# Poissons Ratio (z) = 0.48090 -0.19684
#
# Static dielectric constant tensor:
#      x y z
#    x 1.945130 0.000000 -0.032180 
#    y 0.000000 1.885590 0.000000 
#    z -0.032180 0.000000 1.966020 
# 
# From -- ./inp_files/7309.got.cif
#   From: 2010.05.17/outbox.cif.g08.bks.cpg/sg10_4_cif.got.tgz:7309.got - 2010.06.03 11:33:40.
