data_PCOD9141706
_publ_section_title
;
Structure prediction by ZEFSAII (Michael W. Deem and Ramdas Pophale) SiO2 
 PCOD9141706
Probable space group: P 2/M
;
_chemical_formula_sum "Si O2"
_cell_formula_units_Z 30
_cell_length_a 11.467745
_cell_length_b 8.985622
_cell_length_c 16.633363
_cell_angle_alpha 90.000000
_cell_angle_beta 99.406017
_cell_angle_gamma 90.000000
_cell_volume 1690.937446
_symmetry_space_group_name_H-M "P 2/M"
_symmetry_group_IT_number 10
_symmetry_cell_setting 'monoclinic'
loop_
_space_group_symop_operation_xyz
x,y,z
-x,y,-z
-x,-y,-z
x,-y,z
loop_
_atom_site_type_symbol
_atom_site_label
_atom_site_fract_x
_atom_site_fract_y
_atom_site_fract_z
Si Si1 0.643818 0.332240 0.175295
Si Si2 0.542876 0.176954 0.316966
Si Si3 0.717784 0.177707 0.646844
Si Si4 0.877921 0.320058 0.117769
Si Si5 0.728451 0.681200 0.947555
Si Si6 0.500000 0.274246 0.000000
Si Si7 0.634688 0.671745 0.481138
Si Si8 0.862700 0.320774 0.800402
O O1 0.656001 0.500000 0.208555
O O2 0.577760 0.235593 0.233634
O O3 0.772409 0.270698 0.164966
O O4 0.570975 0.342167 0.083766
O O5 0.407907 0.216915 0.324867
O O6 0.626577 0.249692 0.394117
O O7 0.552889 0.000000 0.322377
O O8 0.711895 0.245413 0.556918
O O9 0.818654 0.245725 0.714169
O O10 0.726057 0.000000 0.643699
O O11 0.879318 0.500000 0.122846
O O12 0.007449 0.268794 0.156941
O O13 0.834452 0.288730 0.022290
O O14 0.699996 0.500000 0.950138
O O15 0.771701 0.710925 0.862832
O O16 0.616243 0.778799 0.963463
O O17 0.500000 0.676750 0.500000
O O18 0.669391 0.500000 0.477498
O O19 0.865241 0.500000 0.791049
#
# Coordination Sequence:
#
# PCOD9141706 Si02
#       8
#     4   4   4   4   4   2   4   4
#     4  10  18  30  49  71  97 129 165 204 245 287
#     4  10  20  33  49  72 102 131 158 191 239 296
#     4  10  20  32  47  71 103 132 155 191 244 291
#     4   8  16  29  45  68  96 126 164 211 251 279
#     4   9  15  24  42  68  97 127 161 204 249 287
#     4  10  17  26  43  72 103 128 161 206 247 282
#     4   9  17  31  52  76  99 124 157 194 234 287
#     4  10  18  29  48  71  94 126 170 209 240 283
#
# _framework density 17.741638999999999
#
# number of rings (size 3 to 8) (size 9 to 14) (size 15 to 20)
#    0.000    2.533    0.000    4.400    0.000    5.867 
#    0.000    1.000    0.000    5.600    0.000    5.600 
#    0.000    0.000    0.000    0.000    0.000    0.000 
#
# Total GULP energy -167004.195365 kJ/mol
# GULP energy per Si atom -5566.806512 kJ/mol
# Density = 1.770126 g / cm^3
# Si number density = 17.741639 Si / 1000 Ang^3
#
#
#
# Elastic Constant Matrix: (Units=GPa)
#
#
# Indices 1 2 3 4 5 6 
#
# 1 65.4054 14.3357 35.3898 0.0000 15.2561 0.0000
# 2 14.3357 21.0967 21.9730 0.0000 1.3151 0.0000
# 3 35.3898 21.9730 95.3546 0.0000 9.7643 0.0000
# 4 0.0000 0.0000 0.0000 -17.6300 0.0000 -8.6341
# 5 15.2561 1.3151 9.7643 0.0000 26.3419 0.0000
# 6 0.0000 0.0000 0.0000 -8.6341 0.0000 2.5653
#
#
#
# Elastic Compliance Matrix: (Units=1/GPa)
#
#
# Indices 1 2 3 4 5 6 
#
# 1 0.022624 -0.009347 -0.005144 0.000000 -0.010729 0.000000
# 2 -0.009347 0.066366 -0.012514 0.000000 0.006739 0.000000
# 3 -0.005144 -0.012514 0.015499 0.000000 -0.002141 0.000000
# 4 0.000000 0.000000 0.000000 -0.021418 0.000000 -0.072087
# 5 -0.010729 0.006739 -0.002141 0.000000 0.044634 0.000000
# 6 0.000000 0.000000 0.000000 -0.072087 0.000000 0.147195
#
#
# Mechanical properties :
#
#
# Convention : Reuss Voigt Hill
#
# Bulk Modulus (GPa) = 19.81018 36.13929 27.97474
# Shear Modulus (GPa) = 14.46186 9.59931 12.03059
#
# Velocity S-wave (km/s) = 2.85816 2.32860 2.60686
# Velocity P-wave (km/s) = 4.69918 5.25774 4.98628
#
# Compressibility (1/GPa) = 0.05047909
#
# Stress axis : x y z
#
# Youngs Moduli (GPa) = 44.20088 15.06798 64.51905
#
# Poissons Ratio (x) = 0.14084 0.33189
# Poissons Ratio (y) = 0.41314 0.80740
# Poissons Ratio (z) = 0.22737 0.18856
#
# Static dielectric constant tensor:
#      x y z
#    x 1.624870 0.000000 0.006320 
#    y 0.000000 1.607800 0.000000 
#    z 0.006320 0.000000 1.583530 
# 
# From -- ./inp_files/49749.got.cif
#   From: 2010.05.17/outbox.cif.g08.bks.cpg/sg10_25_cif.got.tgz:49749.got - 2010.06.03 11:33:40.
