data_PCOD9141332
_publ_section_title
;
Structure prediction by ZEFSAII (Michael W. Deem and Ramdas Pophale) SiO2 
 PCOD9141332
Probable space group: P 2/M
;
_chemical_formula_sum "Si O2"
_cell_formula_units_Z 30
_cell_length_a 24.642780
_cell_length_b 7.656633
_cell_length_c 14.516654
_cell_angle_alpha 90.000000
_cell_angle_beta 151.047474
_cell_angle_gamma 90.000000
_cell_volume 1325.914347
_symmetry_space_group_name_H-M "P 2/M"
_symmetry_group_IT_number 10
_symmetry_cell_setting 'monoclinic'
loop_
_space_group_symop_operation_xyz
x,y,z
-x,y,-z
-x,-y,-z
x,-y,z
loop_
_atom_site_type_symbol
_atom_site_label
_atom_site_fract_x
_atom_site_fract_y
_atom_site_fract_z
Si Si1 0.407782 0.305098 0.161134
Si Si2 0.628178 0.713233 0.201222
Si Si3 0.841839 0.806301 0.207781
Si Si4 0.726487 0.283567 0.746269
Si Si5 0.635515 0.712099 0.416244
Si Si6 0.843004 0.288834 0.417098
Si Si7 0.057988 0.696500 0.827511
Si Si8 0.500000 0.747518 0.500000
O O1 0.379879 0.500000 0.084350
O O2 0.508554 0.228834 0.250462
O O3 0.458229 0.323237 0.338822
O O4 0.292948 0.203091 0.994006
O O5 0.625775 0.500000 0.193752
O O6 0.668895 0.765274 0.363825
O O7 0.718739 0.771014 0.260609
O O8 0.500000 0.771696 0.000000
O O9 0.874200 0.760809 0.359745
O O10 0.887676 0.688762 0.193902
O O11 0.880594 0.000000 0.242734
O O12 0.714127 0.500000 0.740691
O O13 0.711960 0.242643 0.616945
O O14 0.623083 0.193850 0.646472
O O15 0.845026 0.227383 0.964141
O O16 0.629256 0.500000 0.407448
O O17 0.844941 0.500000 0.424103
O O18 0.936428 0.223310 0.627968
O O19 0.039592 0.500000 0.835756
#
# Coordination Sequence:
#
# PCOD9141332 Si02
#       8
#     4   4   4   4   4   4   4   2
#     4  10  17  29  52  79 105 137 175 208 247 304
#     4   9  16  29  50  78 106 131 166 215 263 305
#     4  12  24  35  50  75 106 140 173 215 265 311
#     4   9  15  25  45  75 106 134 166 205 251 304
#     4   8  15  26  48  80 108 134 168 211 256 303
#     4  10  21  36  55  76  99 134 177 218 260 309
#     4  10  20  35  54  75 102 136 175 215 256 310
#     4  10  15  24  49  78 101 134 173 206 241 294
#
# _framework density 22.625896999999998
#
# number of rings (size 3 to 8) (size 9 to 14) (size 15 to 20)
#    0.000    2.267    1.333    4.400    0.000    4.267 
#    0.000    1.000    0.000    7.600    0.000    0.000 
#    0.000    2.133    0.000    0.000    0.000    0.000 
#
# Total GULP energy -167238.795963 kJ/mol
# GULP energy per Si atom -5574.626532 kJ/mol
# Density = 2.257440 g / cm^3
# Si number density = 22.625897 Si / 1000 Ang^3
#
#
#
# Elastic Constant Matrix: (Units=GPa)
#
#
# Indices 1 2 3 4 5 6 
#
# 1 74.2510 -4.1608 10.3590 0.0000 -7.3901 0.0000
# 2 -4.1608 56.4775 4.8796 0.0000 2.0228 0.0000
# 3 10.3590 4.8796 143.4171 0.0000 0.5653 0.0000
# 4 0.0000 0.0000 0.0000 -41.5380 0.0000 20.5782
# 5 -7.3901 2.0228 0.5653 0.0000 28.5552 0.0000
# 6 0.0000 0.0000 0.0000 20.5782 0.0000 -3.0412
#
#
#
# Elastic Compliance Matrix: (Units=1/GPa)
#
#
# Indices 1 2 3 4 5 6 
#
# 1 0.014028 0.000997 -0.001061 0.000000 0.003581 0.000000
# 2 0.000997 0.017874 -0.000676 0.000000 -0.000995 0.000000
# 3 -0.001061 -0.000676 0.007074 0.000000 -0.000367 0.000000
# 4 0.000000 0.000000 0.000000 0.010235 0.000000 0.069255
# 5 0.003581 -0.000995 -0.000367 0.000000 0.036024 0.000000
# 6 0.000000 0.000000 0.000000 0.069255 0.000000 0.139795
#
#
# Mechanical properties :
#
#
# Convention : Reuss Voigt Hill
#
# Bulk Modulus (GPa) = 26.67064 32.92236 29.79650
# Shear Modulus (GPa) = 20.91967 14.33306 17.62636
#
# Velocity S-wave (km/s) = 3.04401 2.51963 2.79415
# Velocity P-wave (km/s) = 4.91608 4.80074 4.85875
#
# Compressibility (1/GPa) = 0.03749442
#
# Stress axis : x y z
#
# Youngs Moduli (GPa) = 71.28524 55.94827 141.36718
#
# Poissons Ratio (x) = -0.05578 0.15003
# Poissons Ratio (y) = -0.07107 0.09559
# Poissons Ratio (z) = 0.07565 0.03783
#
# Static dielectric constant tensor:
#      x y z
#    x 1.789590 0.000000 0.001230 
#    y 0.000000 1.877230 0.000000 
#    z 0.001230 0.000000 1.855610 
# 
# From -- ./inp_files/71325.got.cif
#   From: 2010.05.17/outbox.cif.g08.bks.cpg/sg10_36_cif.got.tgz:71325.got - 2010.06.03 11:33:40.
