data_PCOD9141870
_publ_section_title
;
Structure prediction by ZEFSAII (Michael W. Deem and Ramdas Pophale) SiO2 
 PCOD9141870
Probable space group: P 2/M
;
_chemical_formula_sum "Si O2"
_cell_formula_units_Z 32
_cell_length_a 12.660858
_cell_length_b 8.448428
_cell_length_c 20.709514
_cell_angle_alpha 90.000000
_cell_angle_beta 53.178080
_cell_angle_gamma 90.000000
_cell_volume 1773.256048
_symmetry_space_group_name_H-M "P 2/M"
_symmetry_group_IT_number 10
_symmetry_cell_setting 'monoclinic'
loop_
_space_group_symop_operation_xyz
x,y,z
-x,y,-z
-x,-y,-z
x,-y,z
loop_
_atom_site_type_symbol
_atom_site_label
_atom_site_fract_x
_atom_site_fract_y
_atom_site_fract_z
Si Si1 0.384905 0.188058 0.958155
Si Si2 0.326622 0.688402 0.113214
Si Si3 0.415963 0.807050 0.804994
Si Si4 0.339957 0.809072 0.692677
Si Si5 0.365049 0.190980 0.453665
Si Si6 0.711554 0.809274 0.659599
Si Si7 0.893484 0.690636 0.703250
Si Si8 0.816197 0.311246 0.366421
O O1 0.539813 0.224074 0.913845
O O2 0.358425 0.244002 0.894788
O O3 0.363635 0.000000 0.970213
O O4 0.308427 0.271424 0.044500
O O5 0.347300 0.500000 0.112567
O O6 0.206252 0.738364 0.202771
O O7 0.341720 0.757455 0.766897
O O8 0.569570 0.758018 0.741075
O O9 0.417140 0.000000 0.805092
O O10 0.482369 0.760542 0.610899
O O11 0.225758 0.746423 0.688884
O O12 0.337071 0.000000 0.693039
O O13 0.290742 0.238967 0.414659
O O14 0.293518 0.256340 0.542335
O O15 0.363897 0.000000 0.457394
O O16 0.829624 0.746612 0.659755
O O17 0.713558 0.000000 0.660512
O O18 0.896652 0.500000 0.701376
O O19 0.040736 0.749558 0.663245
O O20 0.820437 0.500000 0.364504
#
# Coordination Sequence:
#
# PCOD9141870 Si02
#       8
#     4   4   4   4   4   4   4   4
#     4  10  17  28  50  78 103 125 156 199 247 290
#     4  10  19  31  46  69 102 136 165 194 235 290
#     4   8  15  29  51  77 102 124 152 201 253 291
#     4   9  18  35  56  75  97 126 162 205 252 295
#     4   9  19  35  55  77  99 124 159 208 258 298
#     4   9  17  32  53  75  98 127 164 201 244 298
#     4  10  22  36  48  66 102 142 168 199 241 290
#     4  11  23  36  49  70  99 133 172 208 244 286
#
# _framework density 18.0459
#
# number of rings (size 3 to 8) (size 9 to 14) (size 15 to 20)
#    0.000    2.500    1.250    3.750    0.000    4.500 
#    0.000    5.625    0.000    0.750    0.000    5.250 
#    0.000    0.000    0.000    0.000    0.000    0.000 
#
# Total GULP energy -178460.511279 kJ/mol
# GULP energy per Si atom -5576.890977 kJ/mol
# Density = 1.800483 g / cm^3
# Si number density = 18.045900 Si / 1000 Ang^3
#
#
#
# Elastic Constant Matrix: (Units=GPa)
#
#
# Indices 1 2 3 4 5 6 
#
# 1 113.0476 8.1110 16.0237 0.0000 21.5591 0.0000
# 2 8.1110 7.6304 2.6786 0.0000 -0.5753 0.0000
# 3 16.0237 2.6786 31.2416 0.0000 21.3402 0.0000
# 4 0.0000 0.0000 0.0000 76.4511 0.0000 42.6193
# 5 21.5591 -0.5753 21.3402 0.0000 23.9029 0.0000
# 6 0.0000 0.0000 0.0000 42.6193 0.0000 50.1242
#
#
#
# Elastic Compliance Matrix: (Units=1/GPa)
#
#
# Indices 1 2 3 4 5 6 
#
# 1 0.012577 -0.017573 0.007929 0.000000 -0.018845 0.000000
# 2 -0.017573 0.172035 -0.049702 0.000000 0.064364 0.000000
# 3 0.007929 -0.049702 0.097152 0.000000 -0.095084 0.000000
# 4 0.000000 0.000000 0.000000 0.024868 0.000000 -0.021144
# 5 -0.018845 0.064364 -0.095084 0.000000 0.145272 0.000000
# 6 0.000000 0.000000 0.000000 -0.021144 0.000000 0.037929
#
#
# Mechanical properties :
#
#
# Convention : Reuss Voigt Hill
#
# Bulk Modulus (GPa) = 6.13225 22.83845 14.48535
# Shear Modulus (GPa) = 7.54281 38.43606 22.98943
#
# Velocity S-wave (km/s) = 2.04667 4.62010 3.57310
# Velocity P-wave (km/s) = 2.99844 6.41433 5.00671
#
# Compressibility (1/GPa) = 0.16307219
#
# Stress axis : x y z
#
# Youngs Moduli (GPa) = 79.51173 5.81276 10.29310
#
# Poissons Ratio (x) = 0.10215 -0.08161
# Poissons Ratio (y) = 1.39727 0.51159
# Poissons Ratio (z) = -0.63042 0.28890
#
# Static dielectric constant tensor:
#      x y z
#    x 1.623060 0.000000 0.022310 
#    y 0.000000 1.619180 0.000000 
#    z 0.022310 0.000000 1.621080 
# 
# From -- ./inp_files/83590.got.cif
#   From: 2010.05.17/outbox.cif.g08.bks.cpg/sg10_42_cif.got.tgz:83590.got - 2010.06.03 11:33:40.
