data_PCOD9141809
_publ_section_title
;
Structure prediction by ZEFSAII (Michael W. Deem and Ramdas Pophale) SiO2 
 PCOD9141809
Probable space group: P 2/M
;
_chemical_formula_sum "Si O2"
_cell_formula_units_Z 30
_cell_length_a 10.444683
_cell_length_b 7.568591
_cell_length_c 16.005908
_cell_angle_alpha 90.000000
_cell_angle_beta 63.501771
_cell_angle_gamma 90.000000
_cell_volume 1132.370359
_symmetry_space_group_name_H-M "P 2/M"
_symmetry_group_IT_number 10
_symmetry_cell_setting 'monoclinic'
loop_
_space_group_symop_operation_xyz
x,y,z
-x,y,-z
-x,-y,-z
x,-y,z
loop_
_atom_site_type_symbol
_atom_site_label
_atom_site_fract_x
_atom_site_fract_y
_atom_site_fract_z
Si Si1 0.814828 0.213623 0.718865
Si Si2 0.097423 0.000000 0.768963
Si Si3 0.650550 0.709919 0.108767
Si Si4 0.368321 0.794106 0.387609
Si Si5 0.907308 0.290422 0.447581
Si Si6 0.609541 0.201341 0.905418
Si Si7 0.071999 0.708952 0.071077
Si Si8 0.693595 0.701313 0.287003
O O1 0.721666 0.277484 0.666542
O O2 0.747508 0.285790 0.823881
O O3 0.980644 0.251234 0.658002
O O4 0.804222 0.000000 0.726620
O O5 0.998599 0.844875 0.844748
O O6 0.207968 0.846455 0.700719
O O7 0.627392 0.500000 0.116167
O O8 0.501264 0.806578 0.140663
O O9 0.708562 0.751142 0.183671
O O10 0.762245 0.749948 0.001906
O O11 0.253741 0.776622 0.495853
O O12 0.523603 0.710597 0.354956
O O13 0.394646 0.000000 0.365046
O O14 0.896872 0.500000 0.458205
O O15 0.000000 0.217868 0.500000
O O16 0.635576 0.000000 0.924824
O O17 0.500000 0.295363 0.000000
O O18 0.057942 0.500000 0.096163
O O19 0.000000 0.729021 0.000000
O O20 0.740731 0.500000 0.287069
#
# Coordination Sequence:
#
# PCOD9141809 Si02
#       8
#     4   2   4   4   4   4   4   4
#     4   9  17  29  45  62  86 119 161 204 242 288
#     4  12  21  30  48  68  89 132 153 195 246 296
#     4  10  21  33  47  65  90 124 162 204 247 287
#     4  10  17  28  44  66  90 126 161 193 238 288
#     4   9  17  27  41  62  88 116 153 198 240 283
#     4  10  21  34  50  70  93 124 169 214 250 287
#     4  10  20  32  45  68  93 118 162 203 238 293
#     4  11  21  30  44  69  97 126 164 200 232 288
#
# _framework density 26.493099999999998
#
# number of rings (size 3 to 8) (size 9 to 14) (size 15 to 20)
#    0.000    2.000    3.333    1.400    1.867    2.933 
#    0.000    0.000    0.000    0.000    0.000    0.000 
#    0.000    0.000    0.000    2.400    0.000   11.200 
#
# Total GULP energy -167358.917241 kJ/mol
# GULP energy per Si atom -5578.630575 kJ/mol
# Density = 2.643280 g / cm^3
# Si number density = 26.493100 Si / 1000 Ang^3
#
#
#
# Elastic Constant Matrix: (Units=GPa)
#
#
# Indices 1 2 3 4 5 6 
#
# 1 89.3346 40.8783 39.9411 0.0000 -29.9874 0.0000
# 2 40.8783 116.5988 32.4071 0.0000 -10.5531 0.0000
# 3 39.9411 32.4071 213.5214 0.0000 -44.9623 0.0000
# 4 0.0000 0.0000 0.0000 62.7940 0.0000 -24.7285
# 5 -29.9874 -10.5531 -44.9623 0.0000 50.8163 0.0000
# 6 0.0000 0.0000 0.0000 -24.7285 0.0000 8.8352
#
#
#
# Elastic Compliance Matrix: (Units=1/GPa)
#
#
# Indices 1 2 3 4 5 6 
#
# 1 0.016420 -0.004848 -0.000624 0.000000 0.008131 0.000000
# 2 -0.004848 0.010412 -0.001008 0.000000 -0.001591 0.000000
# 3 -0.000624 -0.001008 0.005938 0.000000 0.004676 0.000000
# 4 0.000000 0.000000 0.000000 -0.155823 0.000000 -0.436126
# 5 0.008131 -0.001591 0.004676 0.000000 0.028284 0.000000
# 6 0.000000 0.000000 0.000000 -0.436126 0.000000 -1.107473
#
#
# Mechanical properties :
#
#
# Convention : Reuss Voigt Hill
#
# Bulk Modulus (GPa) = 50.47638 71.76754 61.12196
# Shear Modulus (GPa) = -4.22769 44.90433 20.33832
#
# Velocity S-wave (km/s) = -1.26461 4.12144 2.77372
# Velocity P-wave (km/s) = 4.11846 7.05665 5.77745
#
# Compressibility (1/GPa) = 0.01981124
#
# Stress axis : x y z
#
# Youngs Moduli (GPa) = 60.90007 96.04075 168.41260
#
# Poissons Ratio (x) = 0.46556 0.10502
# Poissons Ratio (y) = 0.29522 0.16984
# Poissons Ratio (z) = 0.03798 0.09685
#
# Static dielectric constant tensor:
#      x y z
#    x 2.288680 0.000000 0.097820 
#    y 0.000000 2.216290 0.000000 
#    z 0.097820 0.000000 2.138890 
# 
# From -- ./inp_files/71032.got.cif
#   From: 2010.05.17/outbox.cif.g08.bks.cpg/sg10_36_cif.got.tgz:71032.got - 2010.06.03 11:33:40.
