data_PCOD9141071
_publ_section_title
;
Structure prediction by ZEFSAII (Michael W. Deem and Ramdas Pophale) SiO2 
 PCOD9141071
Probable space group: C C
;
_chemical_formula_sum "Si O2"
_cell_formula_units_Z 20
_cell_length_a 10.510806
_cell_length_b 12.437230
_cell_length_c 11.864730
_cell_angle_alpha 90.000000
_cell_angle_beta 29.310733
_cell_angle_gamma 90.000000
_cell_volume 759.295592
_symmetry_space_group_name_H-M "C C"
_symmetry_group_IT_number 9
_symmetry_cell_setting 'monoclinic'
loop_
_space_group_symop_operation_xyz
x,y,z
x,-y,1/2+z
1/2+x,1/2+y,z
1/2+x,1/2-y,1/2+z
loop_
_atom_site_type_symbol
_atom_site_label
_atom_site_fract_x
_atom_site_fract_y
_atom_site_fract_z
Si Si1 0.735840 0.667622 0.404600
Si Si2 0.086918 0.020964 0.171196
Si Si3 0.286311 0.689213 0.263528
Si Si4 0.439721 0.786162 0.429176
Si Si5 0.255963 0.627102 0.043979
O O1 0.577988 0.575952 0.588342
O O2 0.597911 0.729312 0.409793
O O3 0.817056 0.760194 0.432587
O O4 0.995827 0.601471 0.174444
O O5 0.345705 0.089863 0.995628
O O6 0.882030 0.104852 0.280858
O O7 0.982739 0.959464 0.360527
O O8 0.182643 0.632557 0.231078
O O9 0.549772 0.743880 0.003694
O O10 0.654640 0.771324 0.164238
#
# Coordination Sequence:
#
# PCOD9141071 Si02
#       5
#     4   4   4   4   4
#     4  12  25  50  77 116 165 214 281 348 416 511
#     4  12  30  48  85 119 165 229 278 351 441 497
#     4  12  28  53  80 117 167 216 283 352 419 515
#     4  12  28  52  80 119 171 213 281 355 413 511
#     4  12  25  51  78 115 166 218 283 348 423 516
#
# _framework density 26.340202000000001
#
# number of rings (size 3 to 8) (size 9 to 14) (size 15 to 20)
#    0.000    0.000    6.000    1.200    8.400    1.600 
#    0.000    0.000    0.000    0.000    0.000    0.000 
#    0.000    0.000    0.000    0.000    0.000    0.000 
#
# Total GULP energy -55732.708139 kJ/mol
# GULP energy per Si atom -5573.270814 kJ/mol
# Density = 2.628025 g / cm^3
# Si number density = 26.340202 Si / 1000 Ang^3
#
#
#
# Elastic Constant Matrix: (Units=GPa)
#
#
# Indices 1 2 3 4 5 6 
#
# 1 105.1829 49.5471 21.4781 -0.0053 9.5804 0.0042
# 2 49.5471 95.4555 34.3474 -0.0110 -6.4819 0.0046
# 3 21.4781 34.3474 153.7660 -0.0214 1.2624 0.0111
# 4 -0.0053 -0.0110 -0.0214 60.0091 0.0055 -8.8494
# 5 9.5804 -6.4819 1.2624 0.0055 36.9664 -0.0050
# 6 0.0042 0.0046 0.0111 -8.8494 -0.0050 20.8852
#
#
#
# Elastic Compliance Matrix: (Units=1/GPa)
#
#
# Indices 1 2 3 4 5 6 
#
# 1 0.013362 -0.007175 -0.000225 0.000000 -0.004713 -0.000002
# 2 -0.007175 0.015407 -0.002478 0.000001 0.004646 0.000001
# 3 -0.000225 -0.002478 0.007093 0.000002 -0.000618 -0.000003
# 4 0.000000 0.000001 0.000002 0.017775 -0.000001 0.007531
# 5 -0.004713 0.004646 -0.000618 -0.000001 0.029109 0.000007
# 6 -0.000002 0.000001 -0.000003 0.007531 0.000007 0.051072
#
#
# Mechanical properties :
#
#
# Convention : Reuss Voigt Hill
#
# Bulk Modulus (GPa) = 62.08152 62.79440 62.43796
# Shear Modulus (GPa) = 31.45786 40.17427 35.81607
#
# Velocity S-wave (km/s) = 3.45960 3.90963 3.69148
# Velocity P-wave (km/s) = 6.29116 6.65370 6.47497
#
# Compressibility (1/GPa) = 0.01610785
#
# Stress axis : x y z
#
# Youngs Moduli (GPa) = 74.83732 64.90453 140.97776
#
# Poissons Ratio (x) = 0.46569 0.03173
# Poissons Ratio (y) = 0.53695 0.34928
# Poissons Ratio (z) = 0.01684 0.16080
#
# Static dielectric constant tensor:
#      x y z
#    x 2.106390 0.000000 0.071590 
#    y 0.000000 2.078590 0.000000 
#    z 0.071590 0.000000 2.355100 
# 
# From -- ./inp_files/16330.got.cif
#   From: 2010.05.17/outbox.cif.g08.bks.cpg/sg9_9_cif.got.tgz:16330.got - 2010.06.03 20:04:27.
