data_PCOD9141121
_publ_section_title
;
Structure prediction by ZEFSAII (Michael W. Deem and Ramdas Pophale) SiO2 
 PCOD9141121
Probable space group: C C
;
_chemical_formula_sum "Si O2"
_cell_formula_units_Z 32
_cell_length_a 5.035515
_cell_length_b 31.688772
_cell_length_c 8.705418
_cell_angle_alpha 90.000000
_cell_angle_beta 118.766717
_cell_angle_gamma 90.000000
_cell_volume 1217.681344
_symmetry_space_group_name_H-M "C C"
_symmetry_group_IT_number 9
_symmetry_cell_setting 'monoclinic'
loop_
_space_group_symop_operation_xyz
x,y,z
x,-y,1/2+z
1/2+x,1/2+y,z
1/2+x,1/2-y,1/2+z
loop_
_atom_site_type_symbol
_atom_site_label
_atom_site_fract_x
_atom_site_fract_y
_atom_site_fract_z
Si Si1 0.717530 0.723382 0.271630
Si Si2 0.361322 0.165618 0.567707
Si Si3 0.234109 0.217237 0.796179
Si Si4 0.034556 0.008128 0.434581
Si Si5 0.450497 0.035747 0.817036
Si Si6 0.337806 0.393340 0.266466
Si Si7 0.837553 0.652724 0.080823
Si Si8 0.370568 0.600565 0.401878
O O1 0.906474 0.700572 0.455920
O O2 0.446673 0.747601 0.277682
O O3 0.648023 0.683528 0.142410
O O4 0.943430 0.757650 0.268240
O O5 0.150730 0.184769 0.639238
O O6 0.674413 0.151769 0.724413
O O7 0.181325 0.125366 0.455615
O O8 0.405867 0.188435 0.970284
O O9 0.915572 0.053814 0.343354
O O10 0.314593 0.017322 0.622431
O O11 0.746451 0.990542 0.446152
O O12 0.170842 0.973482 0.354541
O O13 0.606500 0.079015 0.805498
O O14 0.650205 0.383911 0.441324
O O15 0.350618 0.404577 0.085425
O O16 0.104868 0.628764 0.249996
#
# Coordination Sequence:
#
# PCOD9141121 Si02
#       8
#     4   4   4   4   4   4   4   4
#     4  12  27  50  78 123 168 220 284 350 414 502
#     4  12  26  50  81 110 176 216 270 350 427 478
#     4  12  27  50  78 123 168 220 284 350 414 502
#     4  12  28  55  85 123 168 216 271 343 425 509
#     4  12  28  55  85 123 168 216 271 343 425 509
#     4  12  27  55  84 124 173 214 284 359 421 499
#     4  12  28  52  89 126 160 234 294 338 429 514
#     4  12  27  55  84 124 173 214 284 359 421 499
#
# _framework density 26.279449
#
# number of rings (size 3 to 8) (size 9 to 14) (size 15 to 20)
#    0.000    0.000    3.750    5.250    1.750    3.000 
#    9.000    0.000    0.000    0.000    0.000    0.000 
#    0.000    0.000    0.000    0.000    0.000    0.000 
#
# Total GULP energy -89509.667273 kJ/mol
# GULP energy per Si atom -5594.354205 kJ/mol
# Density = 2.621964 g / cm^3
# Si number density = 26.279449 Si / 1000 Ang^3
#
#
#
# Elastic Constant Matrix: (Units=GPa)
#
#
# Indices 1 2 3 4 5 6 
#
# 1 108.5235 27.8437 29.1519 0.0000 2.9658 0.0000
# 2 27.8437 132.7775 47.2266 0.0000 -2.4879 0.0000
# 3 29.1519 47.2266 112.5545 0.0000 9.1145 0.0000
# 4 0.0000 0.0000 0.0000 41.8201 0.0000 -5.1182
# 5 2.9658 -2.4879 9.1145 0.0000 39.7109 0.0000
# 6 0.0000 0.0000 0.0000 -5.1182 0.0000 49.2982
#
#
#
# Elastic Compliance Matrix: (Units=1/GPa)
#
#
# Indices 1 2 3 4 5 6 
#
# 1 0.010126 -0.001421 -0.001995 0.000000 -0.000387 0.000000
# 2 -0.001421 0.009133 -0.003586 0.000000 0.001501 0.000000
# 3 -0.001995 -0.003586 0.011119 0.000000 -0.002628 0.000000
# 4 0.000000 0.000000 0.000000 0.024220 0.000000 0.002514
# 5 -0.000387 0.001501 -0.002628 0.000000 0.025908 0.000000
# 6 0.000000 0.000000 0.000000 0.002514 0.000000 0.020546
#
#
# Mechanical properties :
#
#
# Convention : Reuss Voigt Hill
#
# Bulk Modulus (GPa) = 61.07276 62.47777 61.77526
# Shear Modulus (GPa) = 41.48976 42.80805 42.14891
#
# Velocity S-wave (km/s) = 3.97771 4.04041 4.00918
# Velocity P-wave (km/s) = 6.66232 6.75223 6.70742
#
# Compressibility (1/GPa) = 0.01637391
#
# Stress axis : x y z
#
# Youngs Moduli (GPa) = 98.75891 109.49489 89.93999
#
# Poissons Ratio (x) = 0.15560 0.17943
# Poissons Ratio (y) = 0.14034 0.32248
# Poissons Ratio (z) = 0.19702 0.39260
#
# Static dielectric constant tensor:
#      x y z
#    x 2.035590 0.000000 -0.070780 
#    y 0.000000 2.065640 0.000000 
#    z -0.070780 0.000000 2.079390 
# 
# From -- ./inp_files/4565.got.cif
#   From: 2010.05.17/outbox.cif.g08.bks.cpg/sg9_3_cif.got.tgz:4565.got - 2010.06.03 20:04:27.
