data_PCOD9141656
_publ_section_title
;
Structure prediction by ZEFSAII (Michael W. Deem and Ramdas Pophale) SiO2 
 PCOD9141656
Probable space group: P 2/M
;
_chemical_formula_sum "Si O2"
_cell_formula_units_Z 28
_cell_length_a 23.243445
_cell_length_b 8.620150
_cell_length_c 16.810488
_cell_angle_alpha 90.000000
_cell_angle_beta 148.680011
_cell_angle_gamma 90.000000
_cell_volume 1750.839229
_symmetry_space_group_name_H-M "P 2/M"
_symmetry_group_IT_number 10
_symmetry_cell_setting 'monoclinic'
loop_
_space_group_symop_operation_xyz
x,y,z
-x,y,-z
-x,-y,-z
x,-y,z
loop_
_atom_site_type_symbol
_atom_site_label
_atom_site_fract_x
_atom_site_fract_y
_atom_site_fract_z
Si Si1 0.339805 0.684494 0.347240
Si Si2 0.072540 0.814180 0.841881
Si Si3 0.832674 0.185342 0.278616
Si Si4 0.049347 0.685313 0.441782
Si Si5 0.901440 0.186468 0.942662
Si Si6 0.454351 0.185381 0.324185
Si Si7 0.711272 0.314746 0.993618
O O1 0.351433 0.500000 0.354138
O O2 0.214049 0.732246 0.213786
O O3 0.424508 0.748395 0.513283
O O4 0.379552 0.760731 0.311016
O O5 0.970459 0.746294 0.670578
O O6 0.076508 0.000000 0.835991
O O7 0.068221 0.778093 0.929970
O O8 0.185262 0.743874 0.938100
O O9 0.848268 0.249308 0.386230
O O10 0.940232 0.250292 0.358462
O O11 0.835870 0.000000 0.282454
O O12 0.731999 0.246776 0.106178
O O13 0.048725 0.500000 0.443623
O O14 0.885594 0.000000 0.918513
O O15 0.000000 0.230846 0.000000
O O16 0.397850 0.253125 0.178794
O O17 0.456141 0.000000 0.323895
O O18 0.713344 0.500000 0.998568
#
# Coordination Sequence:
#
# PCOD9141656 Si02
#       7
#     4   4   4   4   4   4   4
#     4  11  21  33  49  70  93 120 156 199 242 281
#     4  10  18  29  45  63  87 120 158 193 232 281
#     4  10  17  26  39  58  85 118 153 184 223 274
#     4  10  17  26  39  57  84 116 151 189 229 271
#     4  10  21  36  52  69  93 126 163 201 240 283
#     4  11  20  32  49  68  93 125 158 193 233 285
#     4  11  19  28  43  66  94 121 153 191 231 277
#
# _framework density 15.992330000000001
#
# number of rings (size 3 to 8) (size 9 to 14) (size 15 to 20)
#    0.000    1.571    1.429   10.286    0.000    0.857 
#    0.000    0.000    0.000    0.000    0.000    0.000 
#    0.000    1.143    0.000   12.286    0.000    5.429 
#
# Total GULP energy -156225.622183 kJ/mol
# GULP energy per Si atom -5579.486507 kJ/mol
# Density = 1.595593 g / cm^3
# Si number density = 15.992330 Si / 1000 Ang^3
#
#
#
# Elastic Constant Matrix: (Units=GPa)
#
#
# Indices 1 2 3 4 5 6 
#
# 1 43.8688 32.6189 49.0053 0.0000 -5.5209 0.0000
# 2 32.6189 140.2849 64.3284 0.0000 -13.0578 0.0000
# 3 49.0053 64.3284 150.8619 0.0000 -31.4225 0.0000
# 4 0.0000 0.0000 0.0000 26.9059 0.0000 -0.9288
# 5 -5.5209 -13.0578 -31.4225 0.0000 22.9826 0.0000
# 6 0.0000 0.0000 0.0000 -0.9288 0.0000 2.5637
#
#
#
# Elastic Compliance Matrix: (Units=1/GPa)
#
#
# Indices 1 2 3 4 5 6 
#
# 1 0.039345 -0.004053 -0.013371 0.000000 -0.011133 0.000000
# 2 -0.004053 0.009279 -0.002439 0.000000 0.000963 0.000000
# 3 -0.013371 -0.002439 0.015456 0.000000 0.016534 0.000000
# 4 0.000000 0.000000 0.000000 0.037637 0.000000 0.013636
# 5 -0.011133 0.000963 0.016534 0.000000 0.063990 0.000000
# 6 0.000000 0.000000 0.000000 0.013636 0.000000 0.395002
#
#
# Mechanical properties :
#
#
# Convention : Reuss Voigt Hill
#
# Bulk Modulus (GPa) = 41.06400 69.65787 55.36094
# Shear Modulus (GPa) = 8.21621 23.09464 15.65542
#
# Velocity S-wave (km/s) = 2.26908 3.80426 3.13219
# Velocity P-wave (km/s) = 5.70947 7.93399 6.91181
#
# Compressibility (1/GPa) = 0.02435223
#
# Stress axis : x y z
#
# Youngs Moduli (GPa) = 25.41641 107.76953 64.70015
#
# Poissons Ratio (x) = 0.43682 0.86511
# Poissons Ratio (y) = 0.10302 0.15783
# Poissons Ratio (z) = 0.33984 0.26289
#
# Static dielectric constant tensor:
#      x y z
#    x 1.515020 0.000000 -0.041940 
#    y 0.000000 1.531370 0.000000 
#    z -0.041940 0.000000 1.579920 
# 
# From -- ./inp_files/79868.got.cif
#   From: 2010.05.17/outbox.cif.g08.bks.cpg/sg10_40_cif.got.tgz:79868.got - 2010.06.03 11:33:40.
