data_PCOD9141274
_publ_section_title
;
Structure prediction by ZEFSAII (Michael W. Deem and Ramdas Pophale) SiO2 
 PCOD9141274
Probable space group: C C
;
_chemical_formula_sum "Si O2"
_cell_formula_units_Z 16
_cell_length_a 15.000000
_cell_length_b 21.000000
_cell_length_c 15.000000
_cell_angle_alpha 90.000000
_cell_angle_beta 160.000000
_cell_angle_gamma 90.000000
_cell_volume 1616.045177
_symmetry_space_group_name_H-M "C C"
_symmetry_group_IT_number 9
_symmetry_cell_setting 'monoclinic'
loop_
_space_group_symop_operation_xyz
x,y,z
x,-y,1/2+z
1/2+x,1/2+y,z
1/2+x,1/2-y,1/2+z
loop_
_atom_site_type_symbol
_atom_site_label
_atom_site_fract_x
_atom_site_fract_y
_atom_site_fract_z
Si Si1 0.191720 0.708629 0.429420
Si Si2 0.161193 0.004158 0.801408
Si Si3 0.444366 0.794032 0.071053
Si Si4 0.847909 0.924984 0.741936
Si Si5 0.585692 0.139373 0.516034
Si Si6 0.367670 0.095246 0.644878
Si Si7 0.085410 0.942646 0.536865
Si Si8 0.680802 0.087651 0.290012
O O1 0.479818 0.738136 0.704471
O O2 0.128492 0.682942 0.469614
O O3 0.169727 0.652163 0.336409
O O4 0.888103 0.043173 0.540216
O O5 0.124417 0.961276 0.677696
O O6 0.400406 0.053449 0.018420
O O7 0.254001 0.961181 0.972666
O O8 0.173035 0.755774 0.809828
O O9 0.486999 0.824210 0.012167
O O10 0.447648 0.849371 0.149945
O O11 0.606951 0.921410 0.441340
O O12 0.764931 0.904624 0.764718
O O13 0.976452 0.995335 0.881669
O O14 0.102349 0.885923 0.948259
O O15 0.858566 0.108097 0.803684
O O16 0.368688 0.086987 0.281386
#
# Coordination Sequence:
#
# PCOD9141274 Si02
#       8
#     4   4   4   4   4   4   4   4
#     4  12  27  48  68  98 133 182 240 281 326 402
#     4  11  23  42  68 104 135 177 217 279 340 420
#     4  12  26  45  67  96 139 185 228 277 331 405
#     4  11  25  42  67 102 145 172 218 288 338 409
#     4  12  24  42  70 101 137 180 220 278 343 413
#     4  12  25  42  69 102 139 178 228 275 340 400
#     4  11  23  41  66 105 140 176 212 269 353 421
#     4  11  25  46  69  98 138 178 231 281 343 388
#
# _framework density 9.9007129999999997
#
# number of rings (size 3 to 8) (size 9 to 14) (size 15 to 20)
#    0.000    0.500    1.250    8.250    7.000    0.000 
#    0.000    3.750    0.000    0.000    0.000    0.000 
#    0.000    0.000    0.000    0.000    0.000    0.000 
#
# Total GULP energy -89385.724115 kJ/mol
# GULP energy per Si atom -5586.607757 kJ/mol
# Density = 0.987818 g / cm^3
# Si number density = 9.900713 Si / 1000 Ang^3
#
#
#
# Elastic Constant Matrix: (Units=GPa)
#
#
# Indices 1 2 3 4 5 6 
#
# 1 95.0012 41.2637 22.1428 0.0023 -34.8443 -0.0007
# 2 41.2637 58.8254 21.2477 0.0012 -17.4971 -0.0019
# 3 22.1428 21.2477 169.2955 0.0069 -26.4121 0.0000
# 4 0.0023 0.0012 0.0069 53.4957 0.0031 1.1332
# 5 -34.8443 -17.4971 -26.4121 0.0031 37.7344 0.0002
# 6 -0.0007 -0.0019 0.0000 1.1332 0.0002 43.5874
#
#
#
# Elastic Compliance Matrix: (Units=1/GPa)
#
#
# Indices 1 2 3 4 5 6 
#
# 1 0.019962 -0.010042 0.000897 -0.000002 0.014404 0.000000
# 2 -0.010042 0.024982 -0.001641 0.000000 0.001163 0.000001
# 3 0.000897 -0.001641 0.006742 -0.000001 0.004786 0.000000
# 4 -0.000002 0.000000 -0.000001 0.018703 -0.000004 -0.000486
# 5 0.014404 0.001163 0.004786 -0.000004 0.043692 0.000000
# 6 0.000000 0.000001 0.000000 -0.000486 0.000000 0.022955
#
#
# Mechanical properties :
#
#
# Convention : Reuss Voigt Hill
#
# Bulk Modulus (GPa) = 33.20667 54.71451 43.96059
# Shear Modulus (GPa) = 29.64781 42.86135 36.25458
#
# Velocity S-wave (km/s) = 3.87364 4.65753 4.28355
# Velocity P-wave (km/s) = 6.06737 7.52430 6.83476
#
# Compressibility (1/GPa) = 0.03011443
#
# Stress axis : x y z
#
# Youngs Moduli (GPa) = 50.09475 40.02891 148.31941
#
# Poissons Ratio (x) = 0.40197 -0.13300
# Poissons Ratio (y) = 0.50305 0.24333
# Poissons Ratio (z) = -0.04492 0.06567
#
# Static dielectric constant tensor:
#      x y z
#    x 1.739390 0.000000 0.044640 
#    y 0.000000 1.723920 0.000000 
#    z 0.044640 0.000000 1.663730 
# 
# From -- ./inp_files/26136.got.cif
#   From: 2010.05.17/outbox.ucp.g08.bks.cvg/sg9_14_cif.got.tgz:26136.got - 2010.06.11 13:03:20.
