data_PCOD9141779
_publ_section_title
;
Structure prediction by ZEFSAII (Michael W. Deem and Ramdas Pophale) SiO2 
 PCOD9141779
Probable space group: P 2/M
;
_chemical_formula_sum "Si O2"
_cell_formula_units_Z 28
_cell_length_a 20.363803
_cell_length_b 7.613426
_cell_length_c 17.386607
_cell_angle_alpha 90.000000
_cell_angle_beta 148.552328
_cell_angle_gamma 90.000000
_cell_volume 1406.342290
_symmetry_space_group_name_H-M "P 2/M"
_symmetry_group_IT_number 10
_symmetry_cell_setting 'monoclinic'
loop_
_space_group_symop_operation_xyz
x,y,z
-x,y,-z
-x,-y,-z
x,-y,z
loop_
_atom_site_type_symbol
_atom_site_label
_atom_site_fract_x
_atom_site_fract_y
_atom_site_fract_z
Si Si1 0.015711 0.715486 0.104872
Si Si2 0.233454 0.714616 0.056032
Si Si3 0.730021 0.295640 0.561892
Si Si4 0.660600 0.204045 0.326358
Si Si5 0.480041 0.285359 0.392554
Si Si6 0.634392 0.293593 0.965327
Si Si7 0.646018 0.212077 0.145197
O O1 0.015408 0.500000 0.104838
O O2 0.146063 0.777461 0.273404
O O3 0.000000 0.768112 0.000000
O O4 0.898294 0.772989 0.039972
O O5 0.229123 0.500000 0.050794
O O6 0.347607 0.770289 0.225342
O O7 0.275514 0.771804 0.012726
O O8 0.728385 0.500000 0.582733
O O9 0.724921 0.286863 0.464764
O O10 0.598205 0.221098 0.460876
O O11 0.507492 0.216460 0.178978
O O12 0.698523 0.274675 0.279694
O O13 0.693602 0.000000 0.361623
O O14 0.500000 0.232610 0.500000
O O15 0.477721 0.500000 0.387729
O O16 0.614371 0.500000 0.932420
O O17 0.693214 0.267412 0.108714
O O18 0.647842 0.000000 0.148657
O O19 0.500000 0.269618 0.000000
#
# Coordination Sequence:
#
# PCOD9141779 Si02
#       7
#     4   4   4   4   4   4   4
#     4   9  17  29  46  71 100 129 160 196 241 289
#     4   9  16  26  41  67 101 126 151 194 242 283
#     4  10  18  29  48  74  97 122 163 203 235 283
#     4  10  19  31  47  68  98 131 160 195 243 288
#     4   9  15  24  41  67  96 121 148 192 242 279
#     4  10  17  27  46  73 101 126 157 198 242 284
#     4   8  16  29  44  66  96 128 159 193 237 290
#
# _framework density 19.909804000000001
#
# number of rings (size 3 to 8) (size 9 to 14) (size 15 to 20)
#    0.000    2.714    1.429    2.571    0.000    6.571 
#    0.000    0.000    0.000    3.429    0.000    6.000 
#    0.000    0.000    0.000    0.000    0.000    0.000 
#
# Total GULP energy -156090.802045 kJ/mol
# GULP energy per Si atom -5574.671502 kJ/mol
# Density = 1.986449 g / cm^3
# Si number density = 19.909804 Si / 1000 Ang^3
#
#
#
# Elastic Constant Matrix: (Units=GPa)
#
#
# Indices 1 2 3 4 5 6 
#
# 1 80.8939 -9.6929 21.4170 0.0000 -19.6368 0.0000
# 2 -9.6929 34.7593 -5.9500 0.0000 4.4019 0.0000
# 3 21.4170 -5.9500 83.2128 0.0000 -7.1971 0.0000
# 4 0.0000 0.0000 0.0000 0.7962 0.0000 -21.9354
# 5 -19.6368 4.4019 -7.1971 0.0000 32.0638 0.0000
# 6 0.0000 0.0000 0.0000 -21.9354 0.0000 51.2853
#
#
#
# Elastic Compliance Matrix: (Units=1/GPa)
#
#
# Indices 1 2 3 4 5 6 
#
# 1 0.015559 0.002740 -0.003077 0.000000 0.008462 0.000000
# 2 0.002740 0.030022 0.001254 0.000000 -0.002162 0.000000
# 3 -0.003077 0.001254 0.012973 0.000000 0.000855 0.000000
# 4 0.000000 0.000000 0.000000 -0.116471 0.000000 -0.049816
# 5 0.008462 -0.002162 0.000855 0.000000 0.036859 0.000000
# 6 0.000000 0.000000 0.000000 -0.049816 0.000000 -0.001808
#
#
# Mechanical properties :
#
#
# Convention : Reuss Voigt Hill
#
# Bulk Modulus (GPa) = 16.55902 23.37936 19.96919
# Shear Modulus (GPa) = -1093.29136 29.70185 -531.79475
#
# Velocity S-wave (km/s) = -23.45878 3.86660 -16.36098
# Velocity P-wave (km/s) = 26.93357 5.63047 18.62411
#
# Compressibility (1/GPa) = 0.06039004
#
# Stress axis : x y z
#
# Youngs Moduli (GPa) = 64.27194 33.30899 77.08359
#
# Poissons Ratio (x) = -0.09128 0.23716
# Poissons Ratio (y) = -0.17613 -0.09669
# Poissons Ratio (z) = 0.19774 -0.04178
#
# Static dielectric constant tensor:
#      x y z
#    x 1.728120 0.000000 -0.021430 
#    y 0.000000 1.747710 0.000000 
#    z -0.021430 0.000000 1.674870 
# 
# From -- ./inp_files/37235.got.cif
#   From: 2010.05.17/outbox.cif.g08.bks.cpg/sg10_19_cif.got.tgz:37235.got - 2010.06.03 11:33:40.
