data_PCOD9141584
_publ_section_title
;
Structure prediction by ZEFSAII (Michael W. Deem and Ramdas Pophale) SiO2 
 PCOD9141584
Probable space group: P 2/M
;
_chemical_formula_sum "Si O2"
_cell_formula_units_Z 32
_cell_length_a 15.836951
_cell_length_b 8.657097
_cell_length_c 18.674412
_cell_angle_alpha 90.000000
_cell_angle_beta 146.771311
_cell_angle_gamma 90.000000
_cell_volume 1402.998461
_symmetry_space_group_name_H-M "P 2/M"
_symmetry_group_IT_number 10
_symmetry_cell_setting 'monoclinic'
loop_
_space_group_symop_operation_xyz
x,y,z
-x,y,-z
-x,-y,-z
x,-y,z
loop_
_atom_site_type_symbol
_atom_site_label
_atom_site_fract_x
_atom_site_fract_y
_atom_site_fract_z
Si Si1 0.679324 0.323341 0.331943
Si Si2 0.489525 0.182049 0.909050
Si Si3 0.979269 0.825253 0.563463
Si Si4 0.662065 0.318411 0.909176
Si Si5 0.949496 0.681637 0.686592
Si Si6 0.391645 0.316958 0.513485
Si Si7 0.702242 0.183082 0.709031
Si Si8 0.984559 0.685775 0.102258
O O1 0.735393 0.500000 0.382093
O O2 0.639809 0.287544 0.220576
O O3 0.794902 0.190965 0.436722
O O4 0.509185 0.310066 0.245148
O O5 0.456581 0.000000 0.876207
O O6 0.500000 0.214404 0.000000
O O7 0.639422 0.225121 0.967383
O O8 0.031124 0.755709 0.675732
O O9 0.000000 0.746973 0.500000
O O10 0.036242 0.000000 0.599219
O O11 0.686277 0.500000 0.943962
O O12 0.806342 0.270187 0.963465
O O13 0.979135 0.500000 0.704840
O O14 0.763387 0.703161 0.550353
O O15 0.994823 0.732031 0.798910
O O16 0.414406 0.500000 0.521545
O O17 0.555913 0.244178 0.649604
O O18 0.340149 0.245609 0.400631
O O19 0.875908 0.243501 0.843787
O O20 0.702672 0.000000 0.710386
O O21 0.001345 0.500000 0.108371
#
# Coordination Sequence:
#
# PCOD9141584 Si02
#       8
#     4   4   4   4   4   4   4   4
#     4   9  19  35  54  72  91 121 166 207 241 291
#     4   9  17  29  46  69  96 122 150 192 247 299
#     4  11  24  39  53  71  99 132 167 209 258 304
#     4   8  17  31  49  71  94 125 164 203 241 290
#     4   9  19  33  52  74  97 131 173 211 246 294
#     4   9  16  29  46  66  95 133 169 203 247 294
#     4  10  17  24  41  71 103 134 166 199 241 297
#     4   9  17  32  49  72 106 136 166 203 249 298
#
# _framework density 22.808292999999999
#
# number of rings (size 3 to 8) (size 9 to 14) (size 15 to 20)
#    0.750    2.000    0.000    3.750    0.000    6.000 
#    0.000    2.500    0.000    0.000    0.000    0.875 
#    0.000    7.000    0.000    0.000    0.000    0.000 
#
# Total GULP energy -178246.822563 kJ/mol
# GULP energy per Si atom -5570.213205 kJ/mol
# Density = 2.275638 g / cm^3
# Si number density = 22.808293 Si / 1000 Ang^3
#
#
#
# Elastic Constant Matrix: (Units=GPa)
#
#
# Indices 1 2 3 4 5 6 
#
# 1 77.0599 23.7795 -6.3143 0.0000 -12.4431 0.0000
# 2 23.7795 47.6967 1.5647 0.0000 6.5927 0.0000
# 3 -6.3143 1.5647 49.7291 0.0000 17.4454 0.0000
# 4 0.0000 0.0000 0.0000 10.0000 0.0000 8.3149
# 5 -12.4431 6.5927 17.4454 0.0000 32.0212 0.0000
# 6 0.0000 0.0000 0.0000 8.3149 0.0000 3.9229
#
#
#
# Elastic Compliance Matrix: (Units=1/GPa)
#
#
# Indices 1 2 3 4 5 6 
#
# 1 0.017487 -0.009971 -0.000705 0.000000 0.009232 0.000000
# 2 -0.009971 0.027313 0.001492 0.000000 -0.010311 0.000000
# 3 -0.000705 0.001492 0.024944 0.000000 -0.014170 0.000000
# 4 0.000000 0.000000 0.000000 -0.131160 0.000000 0.278007
# 5 0.009232 -0.010311 -0.014170 0.000000 0.044660 0.000000
# 6 0.000000 0.000000 0.000000 0.278007 0.000000 -0.334348
#
#
# Mechanical properties :
#
#
# Convention : Reuss Voigt Hill
#
# Bulk Modulus (GPa) = 19.46449 23.61618 21.54034
# Shear Modulus (GPa) = -15.84224 19.55253 1.85515
#
# Velocity S-wave (km/s) = -2.63835 2.93107 0.90285
# Velocity P-wave (km/s) = 0.85365 4.67243 3.24830
#
# Compressibility (1/GPa) = 0.05137560
#
# Stress axis : x y z
#
# Youngs Moduli (GPa) = 57.18585 36.61235 40.09034
#
# Poissons Ratio (x) = 0.36507 0.02825
# Poissons Ratio (y) = 0.57021 -0.05980
# Poissons Ratio (z) = 0.04029 -0.05461
#
# Static dielectric constant tensor:
#      x y z
#    x 1.925120 0.000000 0.006930 
#    y 0.000000 1.790170 0.000000 
#    z 0.006930 0.000000 1.951890 
# 
# From -- ./inp_files/84754.got.cif
#   From: 2010.05.17/outbox.cif.g08.bks.cpg/sg10_43_cif.got.tgz:84754.got - 2010.06.03 11:33:40.
