data_PCOD9141181
_publ_section_title
;
Structure prediction by ZEFSAII (Michael W. Deem and Ramdas Pophale) SiO2 
 PCOD9141181
Probable space group: C C
;
_chemical_formula_sum "Si O2"
_cell_formula_units_Z 20
_cell_length_a 7.605227
_cell_length_b 20.784579
_cell_length_c 5.009868
_cell_angle_alpha 90.000000
_cell_angle_beta 59.437318
_cell_angle_gamma 90.000000
_cell_volume 681.898707
_symmetry_space_group_name_H-M "C C"
_symmetry_group_IT_number 9
_symmetry_cell_setting 'monoclinic'
loop_
_space_group_symop_operation_xyz
x,y,z
x,-y,1/2+z
1/2+x,1/2+y,z
1/2+x,1/2-y,1/2+z
loop_
_atom_site_type_symbol
_atom_site_label
_atom_site_fract_x
_atom_site_fract_y
_atom_site_fract_z
Si Si1 0.796910 0.395120 0.648110
Si Si2 0.561562 0.791747 0.194141
Si Si3 0.358787 0.397104 0.736987
Si Si4 0.482565 0.985373 0.001894
Si Si5 0.568846 0.696017 0.691222
O O1 0.568984 0.416581 0.718470
O O2 0.867879 0.336123 0.399280
O O3 0.893687 0.452793 0.788642
O O4 0.749700 0.349130 0.948013
O O5 0.556771 0.744619 0.450016
O O6 0.740159 0.844707 0.010212
O O7 0.565436 0.747022 0.934044
O O8 0.216950 0.459640 0.789932
O O9 0.407944 0.357984 0.427523
O O10 0.441712 0.050837 0.824231
#
# Coordination Sequence:
#
# PCOD9141181 Si02
#       5
#     4   4   4   4   4
#     4  12  30  54  88 131 171 234 286 351 437 510
#     4  12  28  52  85 133 182 214 276 362 432 530
#     4  12  30  54  88 131 171 234 286 351 437 510
#     4  12  32  58  82 116 178 228 292 358 408 508
#     4  12  28  50  91 131 176 218 282 354 442 518
#
# _framework density 29.32987
#
# number of rings (size 3 to 8) (size 9 to 14) (size 15 to 20)
#    0.000    0.000    4.000    2.400   14.000    1.600 
#    0.000    0.000    0.000    0.000    0.000    0.000 
#    0.000    0.000    0.000    0.000    0.000    0.000 
#
# Total GULP energy -55743.193494 kJ/mol
# GULP energy per Si atom -5574.319349 kJ/mol
# Density = 2.926311 g / cm^3
# Si number density = 29.329870 Si / 1000 Ang^3
#
#
#
# Elastic Constant Matrix: (Units=GPa)
#
#
# Indices 1 2 3 4 5 6 
#
# 1 380.3354 45.7179 215.3476 0.0000 18.5076 0.0000
# 2 45.7179 307.2696 78.0705 0.0000 0.8291 0.0000
# 3 215.3476 78.0705 328.8178 0.0000 70.9735 0.0000
# 4 0.0000 0.0000 0.0000 79.0617 0.0000 -20.3331
# 5 18.5076 0.8291 70.9735 0.0000 99.5056 0.0000
# 6 0.0000 0.0000 0.0000 -20.3331 0.0000 57.6539
#
#
#
# Elastic Compliance Matrix: (Units=1/GPa)
#
#
# Indices 1 2 3 4 5 6 
#
# 1 0.004355 0.000164 -0.003210 0.000000 0.001478 0.000000
# 2 0.000164 0.003507 -0.001096 0.000000 0.000722 0.000000
# 3 -0.003210 -0.001096 0.006232 0.000000 -0.003839 0.000000
# 4 0.000000 0.000000 0.000000 0.013910 0.000000 0.004906
# 5 0.001478 0.000722 -0.003839 0.000000 0.012507 0.000000
# 6 0.000000 0.000000 0.000000 0.004906 0.000000 0.019075
#
#
# Mechanical properties :
#
#
# Convention : Reuss Voigt Hill
#
# Bulk Modulus (GPa) = 172.11847 188.29942 180.20895
# Shear Modulus (GPa) = 71.62565 92.39669 82.01117
#
# Velocity S-wave (km/s) = 4.94709 5.61881 5.29361
# Velocity P-wave (km/s) = 9.56257 10.31671 9.94679
#
# Compressibility (1/GPa) = 0.00580995
#
# Stress axis : x y z
#
# Youngs Moduli (GPa) = 229.60214 285.18315 160.45009
#
# Poissons Ratio (x) = -0.04668 0.51510
# Poissons Ratio (y) = -0.03758 0.17578
# Poissons Ratio (z) = 0.73710 0.31242
#
# Static dielectric constant tensor:
#      x y z
#    x 2.404630 0.000000 -0.187940 
#    y 0.000000 2.169110 0.000000 
#    z -0.187940 0.000000 1.857850 
# 
# From -- ./inp_files/641.got.cif
#   From: 2010.05.17/outbox.cif.g08.bks.cpg/sg9_1_cif.got.tgz:641.got - 2010.06.03 20:04:27.
