data_PCOD9141775
_publ_section_title
;
Structure prediction by ZEFSAII (Michael W. Deem and Ramdas Pophale) SiO2 
 PCOD9141775
Probable space group: P 2/M
;
_chemical_formula_sum "Si O2"
_cell_formula_units_Z 32
_cell_length_a 15.505607
_cell_length_b 8.845525
_cell_length_c 14.430044
_cell_angle_alpha 90.000000
_cell_angle_beta 91.173876
_cell_angle_gamma 90.000000
_cell_volume 1978.740698
_symmetry_space_group_name_H-M "P 2/M"
_symmetry_group_IT_number 10
_symmetry_cell_setting 'monoclinic'
loop_
_space_group_symop_operation_xyz
x,y,z
-x,y,-z
-x,-y,-z
x,-y,z
loop_
_atom_site_type_symbol
_atom_site_label
_atom_site_fract_x
_atom_site_fract_y
_atom_site_fract_z
Si Si1 0.100064 0.183810 0.015520
Si Si2 0.402352 0.317039 0.518434
Si Si3 0.132452 0.326859 0.531221
Si Si4 0.175433 0.819109 0.824045
Si Si5 0.254299 0.820995 0.391119
Si Si6 0.291165 0.326766 0.682501
Si Si7 0.024303 0.318510 0.695195
Si Si8 0.853641 0.817306 0.777295
O O1 0.138798 0.230115 0.115417
O O2 0.097451 0.000000 0.015201
O O3 0.158468 0.229980 0.929445
O O4 0.000000 0.233808 0.000000
O O5 0.500000 0.270681 0.500000
O O6 0.398066 0.500000 0.519611
O O7 0.335880 0.260040 0.439142
O O8 0.367350 0.265215 0.618578
O O9 0.120011 0.500000 0.497715
O O10 0.171126 0.225347 0.451296
O O11 0.209399 0.329796 0.610013
O O12 0.050830 0.277281 0.590555
O O13 0.260147 0.761748 0.772281
O O14 0.094756 0.754080 0.764786
O O15 0.173146 0.000000 0.820269
O O16 0.231009 0.779687 0.284778
O O17 0.266928 0.000000 0.397709
O O18 0.309849 0.500000 0.708663
O O19 0.029290 0.500000 0.700975
O O20 0.933381 0.258187 0.726403
O O21 0.863351 0.000000 0.774205
#
# Coordination Sequence:
#
# PCOD9141775 Si02
#       8
#     4   4   4   4   4   4   4   4
#     4   9  16  29  47  63  83 121 166 199 229 268
#     4   9  18  34  55  74  94 123 150 171 212 282
#     4   8  16  30  44  58  86 125 157 183 219 273
#     4  10  17  27  46  66  88 121 158 195 232 270
#     4  10  20  31  46  69  94 117 145 190 233 264
#     4   8  15  28  45  68  95 117 143 183 225 265
#     4  10  19  29  42  62  86 118 158 197 232 261
#     4  10  20  33  45  61  88 121 158 194 232 273
#
# _framework density 16.171903
#
# number of rings (size 3 to 8) (size 9 to 14) (size 15 to 20)
#    0.000    2.750    1.250    2.625    0.000    6.750 
#    0.000    4.375    0.000    0.000    0.000    0.875 
#    0.000    7.000    0.000    0.000    0.000    0.000 
#
# Total GULP energy -178260.374145 kJ/mol
# GULP energy per Si atom -5570.636692 kJ/mol
# Density = 1.613509 g / cm^3
# Si number density = 16.171903 Si / 1000 Ang^3
#
#
#
# Elastic Constant Matrix: (Units=GPa)
#
#
# Indices 1 2 3 4 5 6 
#
# 1 85.1617 22.1370 67.0130 0.0000 -16.7626 0.0000
# 2 22.1370 18.6876 27.9837 0.0000 -1.9505 0.0000
# 3 67.0130 27.9837 129.6172 0.0000 -9.3901 0.0000
# 4 0.0000 0.0000 0.0000 -15.4276 0.0000 -22.5630
# 5 -16.7626 -1.9505 -9.3901 0.0000 18.4739 0.0000
# 6 0.0000 0.0000 0.0000 -22.5630 0.0000 5.7081
#
#
#
# Elastic Compliance Matrix: (Units=1/GPa)
#
#
# Indices 1 2 3 4 5 6 
#
# 1 0.026432 -0.016138 -0.008895 0.000000 0.017759 0.000000
# 2 -0.016138 0.088931 -0.011667 0.000000 -0.011183 0.000000
# 3 -0.008895 -0.011667 0.014700 0.000000 -0.001831 0.000000
# 4 0.000000 0.000000 0.000000 -0.009559 0.000000 -0.037784
# 5 0.017759 -0.011183 -0.001831 0.000000 0.068133 0.000000
# 6 0.000000 0.000000 0.000000 -0.037784 0.000000 0.025835
#
#
# Mechanical properties :
#
#
# Convention : Reuss Voigt Hill
#
# Bulk Modulus (GPa) = 17.64781 51.97041 34.80911
# Shear Modulus (GPa) = 16.29949 9.50639 12.90294
#
# Velocity S-wave (km/s) = 3.17817 2.42716 2.82771
# Velocity P-wave (km/s) = 4.94004 6.32936 5.67736
#
# Compressibility (1/GPa) = 0.05666424
#
# Stress axis : x y z
#
# Youngs Moduli (GPa) = 37.83285 11.24472 68.02759
#
# Poissons Ratio (x) = 0.18146 0.60511
# Poissons Ratio (y) = 0.61053 0.79365
# Poissons Ratio (z) = 0.33652 0.13119
#
# Static dielectric constant tensor:
#      x y z
#    x 1.549660 0.000000 -0.006720 
#    y 0.000000 1.544840 0.000000 
#    z -0.006720 0.000000 1.572990 
# 
# From -- ./inp_files/66118.got.cif
#   From: 2010.05.17/outbox.cif.g08.bks.cpg/sg10_34_cif.got.tgz:66118.got - 2010.06.03 11:33:40.
