data_PCOD9141840
_publ_section_title
;
Structure prediction by ZEFSAII (Michael W. Deem and Ramdas Pophale) SiO2 
 PCOD9141840
Probable space group: P 2/M
;
_chemical_formula_sum "Si O2"
_cell_formula_units_Z 32
_cell_length_a 16.770404
_cell_length_b 19.732629
_cell_length_c 8.340549
_cell_angle_alpha 90.000000
_cell_angle_beta 33.342303
_cell_angle_gamma 90.000000
_cell_volume 1517.054771
_symmetry_space_group_name_H-M "P 2/M"
_symmetry_group_IT_number 10
_symmetry_cell_setting 'monoclinic'
loop_
_space_group_symop_operation_xyz
x,y,z
-x,y,-z
-x,-y,-z
x,-y,z
loop_
_atom_site_type_symbol
_atom_site_label
_atom_site_fract_x
_atom_site_fract_y
_atom_site_fract_z
Si Si1 0.583283 0.780067 0.205607
Si Si2 0.449313 0.424210 0.323962
Si Si3 0.263321 0.423724 0.967592
Si Si4 0.252844 0.923941 0.442510
Si Si5 0.092161 0.211746 0.680644
Si Si6 0.339392 0.286363 0.431092
Si Si7 0.491428 0.923666 0.760688
Si Si8 0.156676 0.716552 0.074426
O O1 0.500000 0.749996 0.500000
O O2 0.488103 0.754056 0.216971
O O3 0.569057 0.860792 0.235838
O O4 0.745499 0.755788 0.959852
O O5 0.438994 0.500000 0.274592
O O6 0.356013 0.424381 0.646103
O O7 0.614797 0.410275 0.100967
O O8 0.382635 0.364158 0.332248
O O9 0.204688 0.500000 0.088526
O O10 0.153015 0.361688 0.135344
O O11 0.140115 0.866297 0.584022
O O12 0.346201 0.907610 0.446382
O O13 0.191758 0.000000 0.560303
O O14 0.377981 0.926130 0.098240
O O15 0.239182 0.253502 0.465338
O O16 0.000000 0.214989 0.000000
O O17 0.992255 0.245690 0.714133
O O18 0.244555 0.282621 0.755901
O O19 0.494383 0.000000 0.688987
#
# Coordination Sequence:
#
# PCOD9141840 Si02
#       8
#     4   4   4   4   4   4   4   4
#     4  10  17  28  48  70  96 123 152 193 233 274
#     4   8  12  19  35  58  85 120 157 190 225 266
#     4   8  12  20  35  56  86 123 156 184 223 275
#     4   9  18  34  53  70  91 121 158 195 230 277
#     4  10  19  30  46  68  96 126 154 187 233 284
#     4   9  15  26  41  62  92 123 156 193 228 267
#     4   9  18  33  53  73  91 117 156 199 236 271
#     4   9  17  26  39  65  95 124 152 186 234 276
#
# _framework density 21.093503999999999
#
# number of rings (size 3 to 8) (size 9 to 14) (size 15 to 20)
#    0.000    3.000    2.500    1.500    0.000    0.500 
#    0.000    1.875    0.000    5.250    0.000    0.000 
#    0.000    6.000    0.000    0.000    0.000    0.000 
#
# Total GULP energy -178469.103161 kJ/mol
# GULP energy per Si atom -5577.159474 kJ/mol
# Density = 2.104549 g / cm^3
# Si number density = 21.093504 Si / 1000 Ang^3
#
#
#
# Elastic Constant Matrix: (Units=GPa)
#
#
# Indices 1 2 3 4 5 6 
#
# 1 72.4990 58.7558 44.7593 0.0000 -32.9854 0.0000
# 2 58.7558 192.8798 50.1252 0.0000 -53.4243 0.0000
# 3 44.7593 50.1252 84.1588 0.0000 -24.3157 0.0000
# 4 0.0000 0.0000 0.0000 53.2997 0.0000 5.5441
# 5 -32.9854 -53.4243 -24.3157 0.0000 39.6612 0.0000
# 6 0.0000 0.0000 0.0000 5.5441 0.0000 24.5574
#
#
#
# Elastic Compliance Matrix: (Units=1/GPa)
#
#
# Indices 1 2 3 4 5 6 
#
# 1 0.027933 -0.001958 -0.009406 0.000000 0.014828 0.000000
# 2 -0.001958 0.008717 -0.001493 0.000000 0.009198 0.000000
# 3 -0.009406 -0.001493 0.018147 0.000000 0.001292 0.000000
# 4 0.000000 0.000000 0.000000 0.019213 0.000000 -0.004338
# 5 0.014828 0.009198 0.001292 0.000000 0.050727 0.000000
# 6 0.000000 0.000000 0.000000 -0.004338 0.000000 0.041700
#
#
# Mechanical properties :
#
#
# Convention : Reuss Voigt Hill
#
# Bulk Modulus (GPa) = 34.38318 72.97979 53.68149
# Shear Modulus (GPa) = 24.77141 36.56347 30.66744
#
# Velocity S-wave (km/s) = 3.43061 4.16793 3.81712
# Velocity P-wave (km/s) = 5.65932 7.60497 6.70311
#
# Compressibility (1/GPa) = 0.02908398
#
# Stress axis : x y z
#
# Youngs Moduli (GPa) = 35.79962 114.72411 55.10458
#
# Poissons Ratio (x) = 0.22459 0.51831
# Poissons Ratio (y) = 0.07008 0.08227
# Poissons Ratio (z) = 0.33673 0.17127
#
# Static dielectric constant tensor:
#      x y z
#    x 1.807640 0.000000 0.051870 
#    y 0.000000 1.770770 0.000000 
#    z 0.051870 0.000000 1.776730 
# 
# From -- ./inp_files/47766.got.cif
#   From: 2010.05.17/outbox.cif.g08.bks.cpg/sg10_24_cif.got.tgz:47766.got - 2010.06.03 11:33:40.
