data_PCOD9141546
_publ_section_title
;
Structure prediction by ZEFSAII (Michael W. Deem and Ramdas Pophale) SiO2 
 PCOD9141546
Probable space group: P 2/M
;
_chemical_formula_sum "Si O2"
_cell_formula_units_Z 32
_cell_length_a 23.359296
_cell_length_b 7.303552
_cell_length_c 20.093679
_cell_angle_alpha 90.000000
_cell_angle_beta 19.198498
_cell_angle_gamma 90.000000
_cell_volume 1127.302503
_symmetry_space_group_name_H-M "P 2/M"
_symmetry_group_IT_number 10
_symmetry_cell_setting 'monoclinic'
loop_
_space_group_symop_operation_xyz
x,y,z
-x,y,-z
-x,-y,-z
x,-y,z
loop_
_atom_site_type_symbol
_atom_site_label
_atom_site_fract_x
_atom_site_fract_y
_atom_site_fract_z
Si Si1 0.635338 0.781036 0.407646
Si Si2 0.931662 0.787517 0.993271
Si Si3 0.660450 0.284532 0.172036
Si Si4 0.302576 0.219852 0.242963
Si Si5 0.554354 0.222519 0.778557
Si Si6 0.940289 0.789391 0.764983
Si Si7 0.196581 0.224458 0.600266
Si Si8 0.172408 0.775613 0.248676
O O1 0.500000 0.711383 0.500000
O O2 0.823444 0.713434 0.175160
O O3 0.535714 0.753372 0.586875
O O4 0.646184 0.000000 0.389109
O O5 0.786714 0.786090 0.092927
O O6 0.972502 0.000000 0.960840
O O7 0.104787 0.709379 0.768364
O O8 0.680126 0.500000 0.147364
O O9 0.745564 0.210203 0.010806
O O10 0.314849 0.281795 0.305657
O O11 0.278986 0.000000 0.270842
O O12 0.500000 0.251520 0.000000
O O13 0.176920 0.283673 0.321006
O O14 0.363923 0.275870 0.010962
O O15 0.623277 0.284041 0.631219
O O16 0.554816 0.000000 0.777805
O O17 0.943045 0.713559 0.687268
O O18 0.994074 0.000000 0.699165
O O19 0.060168 0.716732 0.692173
O O20 0.199658 0.000000 0.600921
O O21 0.160032 0.000000 0.263821
#
# Coordination Sequence:
#
# PCOD9141546 Si02
#       8
#     4   4   4   4   4   4   4   4
#     4   8  13  22  35  50  71 100 128 152 185 227
#     4   8  14  24  36  51  75 104 127 150 187 230
#     4  10  17  23  34  53  75  98 126 160 191 219
#     4   7  10  17  29  47  73 100 122 149 187 223
#     4   8  12  19  33  53  75  98 125 156 187 219
#     4   9  16  26  37  51  76 105 127 150 187 231
#     4   8  13  21  33  50  74 101 124 150 186 222
#     4   8  13  21  34  51  73 103 131 151 180 227
#
# _framework density 28.386348999999999
#
# number of rings (size 3 to 8) (size 9 to 14) (size 15 to 20)
#    0.000    3.750    0.000    4.125    0.000    2.250 
#    0.000    0.625    0.000    3.750    0.000    4.375 
#    0.000   19.500    0.000    0.000    0.000    0.000 
#
# Total GULP energy -178825.838857 kJ/mol
# GULP energy per Si atom -5588.307464 kJ/mol
# Density = 2.832174 g / cm^3
# Si number density = 28.386349 Si / 1000 Ang^3
#
#
#
# Elastic Constant Matrix: (Units=GPa)
#
#
# Indices 1 2 3 4 5 6 
#
# 1 154.9708 -3.2770 33.6233 0.0000 46.2511 0.0000
# 2 -3.2770 126.3302 -13.5972 0.0000 0.9079 0.0000
# 3 33.6233 -13.5972 163.8204 0.0000 39.0013 0.0000
# 4 0.0000 0.0000 0.0000 -20.8499 0.0000 15.2712
# 5 46.2511 0.9079 39.0013 0.0000 81.6215 0.0000
# 6 0.0000 0.0000 0.0000 15.2712 0.0000 46.4709
#
#
#
# Elastic Compliance Matrix: (Units=1/GPa)
#
#
# Indices 1 2 3 4 5 6 
#
# 1 0.007825 0.000168 -0.000605 0.000000 -0.004147 0.000000
# 2 0.000168 0.008006 0.000760 0.000000 -0.000547 0.000000
# 3 -0.000605 0.000760 0.007009 0.000000 -0.003015 0.000000
# 4 0.000000 0.000000 0.000000 -0.038657 0.000000 0.012704
# 5 -0.004147 -0.000547 -0.003015 0.000000 0.016048 0.000000
# 6 0.000000 0.000000 0.000000 0.012704 0.000000 0.017344
#
#
# Mechanical properties :
#
#
# Convention : Reuss Voigt Hill
#
# Bulk Modulus (GPa) = 42.57689 53.17995 47.87842
# Shear Modulus (GPa) = 201.95351 50.00667 125.98009
#
# Velocity S-wave (km/s) = 8.44388 4.20175 6.66910
# Velocity P-wave (km/s) = 10.49271 6.50497 8.72959
#
# Compressibility (1/GPa) = 0.02348692
#
# Stress axis : x y z
#
# Youngs Moduli (GPa) = 127.79056 124.90798 142.66776
#
# Poissons Ratio (x) = -0.02095 0.08630
# Poissons Ratio (y) = -0.02143 -0.10849
# Poissons Ratio (z) = 0.07730 -0.09498
#
# Static dielectric constant tensor:
#      x y z
#    x 2.237770 0.000000 -0.058260 
#    y 0.000000 2.119280 0.000000 
#    z -0.058260 0.000000 2.276750 
# 
# From -- ./inp_files/88443.got.cif
#   From: 2010.05.17/outbox.cif.g08.bks.cpg/sg10_45_cif.got.tgz:88443.got - 2010.06.03 11:33:40.
