data_PCOD9141703
_publ_section_title
;
Structure prediction by ZEFSAII (Michael W. Deem and Ramdas Pophale) SiO2 
 PCOD9141703
Probable space group: P 2/M
;
_chemical_formula_sum "Si O2"
_cell_formula_units_Z 32
_cell_length_a 20.302257
_cell_length_b 7.590768
_cell_length_c 12.911779
_cell_angle_alpha 90.000000
_cell_angle_beta 119.038617
_cell_angle_gamma 90.000000
_cell_volume 1739.694539
_symmetry_space_group_name_H-M "P 2/M"
_symmetry_group_IT_number 10
_symmetry_cell_setting 'monoclinic'
loop_
_space_group_symop_operation_xyz
x,y,z
-x,y,-z
-x,-y,-z
x,-y,z
loop_
_atom_site_type_symbol
_atom_site_label
_atom_site_fract_x
_atom_site_fract_y
_atom_site_fract_z
Si Si1 0.916529 0.791225 0.411846
Si Si2 0.078656 0.713105 0.820958
Si Si3 0.165275 0.715489 0.088428
Si Si4 0.675039 0.293095 0.703650
Si Si5 0.514737 0.212909 0.629909
Si Si6 0.198856 0.788949 0.506229
Si Si7 0.913916 0.288062 0.765096
Si Si8 0.643744 0.795530 0.443302
O O1 0.900550 0.767318 0.278862
O O2 0.852124 0.718957 0.438587
O O3 0.000000 0.717597 0.500000
O O4 0.920247 0.000000 0.436776
O O5 0.077196 0.500000 0.821380
O O6 0.994286 0.776580 0.784957
O O7 0.135004 0.773106 0.954098
O O8 0.165310 0.500000 0.087379
O O9 0.249248 0.772445 0.183770
O O10 0.109248 0.771640 0.137990
O O11 0.684927 0.500000 0.690377
O O12 0.600116 0.269024 0.715664
O O13 0.661578 0.208658 0.580515
O O14 0.500000 0.270030 0.500000
O O15 0.440875 0.278421 0.634493
O O16 0.513655 0.000000 0.631194
O O17 0.151681 0.758030 0.365502
O O18 0.283365 0.716389 0.557224
O O19 0.206089 0.000000 0.523978
O O20 0.918634 0.500000 0.772951
O O21 0.639034 0.000000 0.408829
#
# Coordination Sequence:
#
# PCOD9141703 Si02
#       8
#     4   4   4   4   4   4   4   4
#     4  10  20  34  49  66  92 120 149 193 240 271
#     4  10  20  33  50  67  88 122 161 192 222 268
#     4   9  18  31  45  67  96 123 151 188 228 264
#     4  10  17  26  43  66  93 121 147 179 224 270
#     4   8  15  27  41  60  89 120 149 180 216 265
#     4  10  19  31  48  67  91 123 153 185 231 273
#     4  10  18  30  48  68  91 120 155 189 223 266
#     4   9  17  29  44  63  89 121 153 182 218 268
#
# _framework density 18.394034999999999
#
# number of rings (size 3 to 8) (size 9 to 14) (size 15 to 20)
#    0.000    2.500    2.500    1.500    0.000    4.500 
#    0.000    1.875    0.000    1.500    0.000    0.875 
#    0.000    7.000    0.000    0.000    0.000    0.000 
#
# Total GULP energy -178402.383209 kJ/mol
# GULP energy per Si atom -5575.074475 kJ/mol
# Density = 1.835217 g / cm^3
# Si number density = 18.394035 Si / 1000 Ang^3
#
#
#
# Elastic Constant Matrix: (Units=GPa)
#
#
# Indices 1 2 3 4 5 6 
#
# 1 139.4067 -0.2891 40.1220 0.0000 -5.0986 0.0000
# 2 -0.2891 38.8591 -11.6314 0.0000 0.4930 0.0000
# 3 40.1220 -11.6314 52.4591 0.0000 -18.2066 0.0000
# 4 0.0000 0.0000 0.0000 22.5543 0.0000 15.8197
# 5 -5.0986 0.4930 -18.2066 0.0000 21.9372 0.0000
# 6 0.0000 0.0000 0.0000 15.8197 0.0000 65.3377
#
#
#
# Elastic Compliance Matrix: (Units=1/GPa)
#
#
# Indices 1 2 3 4 5 6 
#
# 1 0.009944 -0.002974 -0.010450 0.000000 -0.006295 0.000000
# 2 -0.002974 0.029077 0.011595 0.000000 0.008278 0.000000
# 3 -0.010450 0.011595 0.040300 0.000000 0.030758 0.000000
# 4 0.000000 0.000000 0.000000 0.053407 0.000000 -0.012931
# 5 -0.006295 0.008278 0.030758 0.000000 0.069463 0.000000
# 6 0.000000 0.000000 0.000000 -0.012931 0.000000 0.018436
#
#
# Mechanical properties :
#
#
# Convention : Reuss Voigt Hill
#
# Bulk Modulus (GPa) = 13.21626 31.90310 22.55968
# Shear Modulus (GPa) = 20.03949 35.46741 27.75345
#
# Velocity S-wave (km/s) = 3.30427 4.39589 3.88858
# Velocity P-wave (km/s) = 4.66458 6.56864 5.69673
#
# Compressibility (1/GPa) = 0.07566436
#
# Stress axis : x y z
#
# Youngs Moduli (GPa) = 100.55966 34.39093 24.81369
#
# Poissons Ratio (x) = 0.10228 0.25930
# Poissons Ratio (y) = 0.29906 -0.28771
# Poissons Ratio (z) = 1.05082 -0.39876
#
# Static dielectric constant tensor:
#      x y z
#    x 1.692130 0.000000 0.021550 
#    y 0.000000 1.688730 0.000000 
#    z 0.021550 0.000000 1.588520 
# 
# From -- ./inp_files/52741.got.cif
#   From: 2010.05.17/outbox.cif.g08.bks.cpg/sg10_27_cif.got.tgz:52741.got - 2010.06.03 11:33:40.
