data_PCOD9141207
_publ_section_title
;
Structure prediction by ZEFSAII (Michael W. Deem and Ramdas Pophale) SiO2 
 PCOD9141207
Probable space group: C C
;
_chemical_formula_sum "Si O2"
_cell_formula_units_Z 16
_cell_length_a 9.000000
_cell_length_b 24.000000
_cell_length_c 15.000000
_cell_angle_alpha 90.000000
_cell_angle_beta 150.000000
_cell_angle_gamma 90.000000
_cell_volume 1620.000000
_symmetry_space_group_name_H-M "C C"
_symmetry_group_IT_number 9
_symmetry_cell_setting 'monoclinic'
loop_
_space_group_symop_operation_xyz
x,y,z
x,-y,1/2+z
1/2+x,1/2+y,z
1/2+x,1/2-y,1/2+z
loop_
_atom_site_type_symbol
_atom_site_label
_atom_site_fract_x
_atom_site_fract_y
_atom_site_fract_z
Si Si1 0.324820 0.310369 0.018630
Si Si2 0.533630 0.356289 0.872656
Si Si3 0.186056 0.646447 0.779253
Si Si4 0.010183 0.545110 0.808937
Si Si5 0.487169 0.224959 0.818038
Si Si6 0.630097 0.870183 0.520190
Si Si7 0.315413 0.573700 0.423528
Si Si8 0.598361 0.688533 0.848281
O O1 0.656064 0.301417 0.148796
O O2 0.367770 0.309835 0.146749
O O3 0.231602 0.372941 0.942394
O O4 0.163466 0.253613 0.904047
O O5 0.472027 0.289175 0.838512
O O6 0.437805 0.379168 0.728271
O O7 0.340375 0.392665 0.842228
O O8 0.879985 0.362832 0.068034
O O9 0.464919 0.655939 0.862077
O O10 0.190701 0.591795 0.844497
O O11 0.131457 0.705784 0.800854
O O12 0.656786 0.552501 0.610716
O O13 0.047428 0.573355 0.926122
O O14 0.120078 0.482203 0.842331
O O15 0.663398 0.185204 0.977300
O O16 0.379345 0.846912 0.458040
#
# Coordination Sequence:
#
# PCOD9141207 Si02
#       8
#     4   4   4   4   4   4   4   4
#     4  11  21  41  65  91 128 168 204 257 321 389
#     4  11  20  37  67  97 119 169 207 259 319 383
#     4  10  23  40  62  94 136 159 210 264 313 377
#     4  10  23  47  64  88 124 179 215 267 311 373
#     4  10  18  38  66  91 127 163 202 251 323 387
#     4  10  20  39  65  90 120 165 216 251 318 376
#     4  11  22  45  67  88 125 171 223 260 317 373
#     4  11  23  39  64  99 131 160 205 265 324 380
#
# _framework density 9.8765429999999999
#
# number of rings (size 3 to 8) (size 9 to 14) (size 15 to 20)
#    0.000    1.500    6.250    2.250    1.750    1.000 
#    4.500    1.250    0.000    0.000    0.000    0.000 
#    0.000    0.000    0.000    0.000    0.000    0.000 
#
# Total GULP energy -89069.785542 kJ/mol
# GULP energy per Si atom -5566.861596 kJ/mol
# Density = 0.985406 g / cm^3
# Si number density = 9.876543 Si / 1000 Ang^3
#
#
#
# Elastic Constant Matrix: (Units=GPa)
#
#
# Indices 1 2 3 4 5 6 
#
# 1 62.0752 21.6756 19.3871 0.0000 5.9246 -0.0001
# 2 21.6756 149.4257 29.4904 0.0000 4.3373 -0.0001
# 3 19.3871 29.4904 54.8912 -0.0001 -16.9555 -0.0003
# 4 0.0000 0.0000 -0.0001 27.7254 0.0000 7.3150
# 5 5.9246 4.3373 -16.9555 0.0000 10.7368 0.0000
# 6 -0.0001 -0.0001 -0.0003 7.3150 0.0000 27.2368
#
#
#
# Elastic Compliance Matrix: (Units=1/GPa)
#
#
# Indices 1 2 3 4 5 6 
#
# 1 0.038095 0.006760 -0.047684 0.000000 -0.099053 0.000000
# 2 0.006760 0.011130 -0.021297 0.000000 -0.041858 0.000000
# 3 -0.047684 -0.021297 0.111843 0.000000 0.211537 0.000001
# 4 0.000000 0.000000 0.000000 0.038819 0.000000 -0.010426
# 5 -0.099053 -0.041858 0.211537 0.000000 0.498764 0.000002
# 6 0.000000 0.000000 0.000001 -0.010426 0.000002 0.039515
#
#
# Mechanical properties :
#
#
# Convention : Reuss Voigt Hill
#
# Bulk Modulus (GPa) = 27.30163 45.27761 36.28962
# Shear Modulus (GPa) = 5.71549 26.19572 15.95561
#
# Velocity S-wave (km/s) = 1.70287 3.64560 2.84518
# Velocity P-wave (km/s) = 4.20925 6.37903 5.40416
#
# Compressibility (1/GPa) = 0.03662786
#
# Stress axis : x y z
#
# Youngs Moduli (GPa) = 26.25003 89.84934 8.94109
#
# Poissons Ratio (x) = -0.60737 0.42634
# Poissons Ratio (y) = -0.17745 0.19041
# Poissons Ratio (z) = 1.25169 1.91348
#
# Static dielectric constant tensor:
#      x y z
#    x 1.775310 0.000000 -0.061430 
#    y 0.000000 1.662370 0.000000 
#    z -0.061430 0.000000 1.784100 
# 
# From -- ./inp_files/6040.got.cif
#   From: 2010.05.17/outbox.ucp.g08.bks.cvg/sg9_4_cif.got.tgz:6040.got - 2010.06.11 13:03:20.
