data_PCOD9141554
_publ_section_title
;
Structure prediction by ZEFSAII (Michael W. Deem and Ramdas Pophale) SiO2 
 PCOD9141554
Probable space group: P 2/M
;
_chemical_formula_sum "Si O2"
_cell_formula_units_Z 28
_cell_length_a 19.709372
_cell_length_b 8.652736
_cell_length_c 25.496065
_cell_angle_alpha 90.000000
_cell_angle_beta 157.381823
_cell_angle_gamma 90.000000
_cell_volume 1672.227425
_symmetry_space_group_name_H-M "P 2/M"
_symmetry_group_IT_number 10
_symmetry_cell_setting 'monoclinic'
loop_
_space_group_symop_operation_xyz
x,y,z
-x,y,-z
-x,-y,-z
x,-y,z
loop_
_atom_site_type_symbol
_atom_site_label
_atom_site_fract_x
_atom_site_fract_y
_atom_site_fract_z
Si Si1 0.400562 0.685788 0.092801
Si Si2 0.027982 0.313488 0.581199
Si Si3 0.323929 0.183681 0.624968
Si Si4 0.860810 0.816695 0.018432
Si Si5 0.574094 0.311668 0.108489
Si Si6 0.138035 0.683479 0.146731
Si Si7 0.413713 0.314429 0.263468
O O1 0.394638 0.500000 0.091445
O O2 0.554110 0.743266 0.241936
O O3 0.455854 0.734424 0.073903
O O4 0.215855 0.753821 0.981671
O O5 0.014082 0.500000 0.575662
O O6 0.873872 0.237999 0.505205
O O7 0.000000 0.274205 0.500000
O O8 0.223665 0.265158 0.737784
O O9 0.404782 0.243089 0.627636
O O10 0.339709 0.000000 0.638778
O O11 0.054516 0.767607 0.137095
O O12 0.842690 0.000000 0.003394
O O13 0.727576 0.740277 0.881061
O O14 0.573337 0.500000 0.107631
O O15 0.500000 0.257877 0.000000
O O16 0.141351 0.500000 0.159217
O O17 0.326544 0.731708 0.256904
O O18 0.000000 0.708203 0.000000
O O19 0.423303 0.500000 0.269080
#
# Coordination Sequence:
#
# PCOD9141554 Si02
#       7
#     4   4   4   4   4   4   4
#     4  10  17  29  46  63  87 118 154 191 233 275
#     4  10  18  32  51  70  90 119 155 190 233 278
#     4  11  20  28  42  66  93 119 153 191 229 270
#     4  10  17  23  35  57  84 115 150 186 225 270
#     4   9  18  32  51  72  91 115 154 199 235 271
#     4   8  14  24  36  52  77 113 151 184 222 270
#     4   9  16  26  39  55  81 116 152 187 227 271
#
# _framework density 16.744135
#
# number of rings (size 3 to 8) (size 9 to 14) (size 15 to 20)
#    0.000    2.429    1.429    6.000    0.000    3.429 
#    0.000    0.000    0.000    3.857    0.000    0.000 
#    0.000    1.143    0.000   13.143    0.000    5.714 
#
# Total GULP energy -155962.216554 kJ/mol
# GULP energy per Si atom -5570.079163 kJ/mol
# Density = 1.670602 g / cm^3
# Si number density = 16.744135 Si / 1000 Ang^3
#
#
#
# Elastic Constant Matrix: (Units=GPa)
#
#
# Indices 1 2 3 4 5 6 
#
# 1 157.9453 32.4972 64.5766 0.0000 44.1161 0.0000
# 2 32.4972 17.8970 15.9171 0.0000 11.8455 0.0000
# 3 64.5766 15.9171 57.0121 0.0000 13.2725 0.0000
# 4 0.0000 0.0000 0.0000 -17.6406 0.0000 32.2715
# 5 44.1161 11.8455 13.2725 0.0000 30.1229 0.0000
# 6 0.0000 0.0000 0.0000 32.2715 0.0000 -40.2984
#
#
#
# Elastic Compliance Matrix: (Units=1/GPa)
#
#
# Indices 1 2 3 4 5 6 
#
# 1 0.019783 -0.010269 -0.015306 0.000000 -0.018191 0.000000
# 2 -0.010269 0.096223 -0.011059 0.000000 -0.017926 0.000000
# 3 -0.015306 -0.011059 0.035361 0.000000 0.011185 0.000000
# 4 0.000000 0.000000 0.000000 0.121909 0.000000 0.097626
# 5 -0.018191 -0.017926 0.011185 0.000000 0.061960 0.000000
# 6 0.000000 0.000000 0.000000 0.097626 0.000000 0.053365
#
#
# Mechanical properties :
#
#
# Convention : Reuss Voigt Hill
#
# Bulk Modulus (GPa) = 12.80452 50.98180 31.89316
# Shear Modulus (GPa) = 10.24797 2.42768 6.33782
#
# Velocity S-wave (km/s) = 2.47661 1.20541 1.94764
# Velocity P-wave (km/s) = 3.98019 5.69658 4.91391
#
# Compressibility (1/GPa) = 0.07809742
#
# Stress axis : x y z
#
# Youngs Moduli (GPa) = 50.54856 10.39256 28.27993
#
# Poissons Ratio (x) = 0.10672 0.43285
# Poissons Ratio (y) = 0.51908 0.31276
# Poissons Ratio (z) = 0.77369 0.11494
#
# Static dielectric constant tensor:
#      x y z
#    x 1.614140 0.000000 0.042370 
#    y 0.000000 1.554240 0.000000 
#    z 0.042370 0.000000 1.555960 
# 
# From -- ./inp_files/93548.got.cif
#   From: 2010.05.17/outbox.cif.g08.bks.cpg/sg10_47_cif.got.tgz:93548.got - 2010.06.03 11:33:40.
