data_PCOD9141972
_publ_section_title
;
Structure prediction by ZEFSAII (Michael W. Deem and Ramdas Pophale) SiO2 
 PCOD9141972
Probable space group: P 2/M
;
_chemical_formula_sum "Si O2"
_cell_formula_units_Z 28
_cell_length_a 19.805864
_cell_length_b 8.142476
_cell_length_c 25.321198
_cell_angle_alpha 90.000000
_cell_angle_beta 21.594544
_cell_angle_gamma 90.000000
_cell_volume 1502.881873
_symmetry_space_group_name_H-M "P 2/M"
_symmetry_group_IT_number 10
_symmetry_cell_setting 'monoclinic'
loop_
_space_group_symop_operation_xyz
x,y,z
-x,y,-z
-x,-y,-z
x,-y,z
loop_
_atom_site_type_symbol
_atom_site_label
_atom_site_fract_x
_atom_site_fract_y
_atom_site_fract_z
Si Si1 0.372580 0.696023 0.545374
Si Si2 0.955568 0.197965 0.838384
Si Si3 0.607155 0.801340 0.154320
Si Si4 0.875903 0.808017 0.666377
Si Si5 0.015298 0.799493 0.301039
Si Si6 0.593133 0.198176 0.596834
Si Si7 0.257235 0.691133 0.344066
O O1 0.500000 0.760207 0.500000
O O2 0.370539 0.500000 0.549455
O O3 0.444367 0.746328 0.435343
O O4 0.162823 0.755382 0.701894
O O5 0.917975 0.253562 0.805324
O O6 0.947472 0.000000 0.843457
O O7 0.801366 0.258691 0.990833
O O8 0.546195 0.743641 0.256792
O O9 0.446394 0.750489 0.231236
O O10 0.612539 0.000000 0.152020
O O11 0.874676 0.744390 0.727333
O O12 0.757214 0.718646 0.708254
O O13 0.087437 0.789427 0.493350
O O14 0.826471 0.000000 0.701660
O O15 0.801091 0.749049 0.460271
O O16 0.017555 0.000000 0.300799
O O17 0.594085 0.000000 0.596302
O O18 0.227863 0.500000 0.377079
#
# Coordination Sequence:
#
# PCOD9141972 Si02
#       7
#     4   4   4   4   4   4   4
#     4  10  21  37  56  80 109 139 169 202 250 311
#     4   9  19  35  57  81 104 133 172 216 259 306
#     4  10  19  35  55  77 105 137 173 215 263 311
#     4  10  17  30  50  70  98 136 179 224 267 304
#     4   8  14  28  50  75  98 125 170 220 258 299
#     4   9  17  32  55  80 102 131 175 217 251 300
#     4  11  21  30  44  72 106 136 174 220 266 313
#
# _framework density 18.630873999999999
#
# number of rings (size 3 to 8) (size 9 to 14) (size 15 to 20)
#    0.000    2.429    1.429    3.857    0.000    2.286 
#    0.000    2.143    0.000    8.571    0.000    0.000 
#    0.000    0.000    0.000    0.000    0.000    0.000 
#
# Total GULP energy -156156.372683 kJ/mol
# GULP energy per Si atom -5577.013310 kJ/mol
# Density = 1.858847 g / cm^3
# Si number density = 18.630874 Si / 1000 Ang^3
#
#
#
# Elastic Constant Matrix: (Units=GPa)
#
#
# Indices 1 2 3 4 5 6 
#
# 1 150.6858 -2.0558 71.0090 0.0000 11.3934 0.0000
# 2 -2.0558 11.6840 7.1807 0.0000 6.5265 0.0000
# 3 71.0090 7.1807 110.9785 0.0000 23.0146 0.0000
# 4 0.0000 0.0000 0.0000 2.2592 0.0000 -7.2431
# 5 11.3934 6.5265 23.0146 0.0000 22.2914 0.0000
# 6 0.0000 0.0000 0.0000 -7.2431 0.0000 35.8366
#
#
#
# Elastic Compliance Matrix: (Units=1/GPa)
#
#
# Indices 1 2 3 4 5 6 
#
# 1 0.009872 0.005751 -0.006735 0.000000 0.000224 0.000000
# 2 0.005751 0.105695 -0.004443 0.000000 -0.029298 0.000000
# 3 -0.006735 -0.004443 0.016063 0.000000 -0.011841 0.000000
# 4 0.000000 0.000000 0.000000 1.257388 0.000000 0.254137
# 5 0.000224 -0.029298 -0.011841 0.000000 0.065549 0.000000
# 6 0.000000 0.000000 0.000000 0.254137 0.000000 0.079269
#
#
# Mechanical properties :
#
#
# Convention : Reuss Voigt Hill
#
# Bulk Modulus (GPa) = 8.27977 47.29069 27.78523
# Shear Modulus (GPa) = 3.15468 25.22508 14.18988
#
# Velocity S-wave (km/s) = 1.30266 3.68358 2.76276
# Velocity P-wave (km/s) = 2.59159 6.59771 5.01229
#
# Compressibility (1/GPa) = 0.12077624
#
# Stress axis : x y z
#
# Youngs Moduli (GPa) = 101.30109 9.46118 62.25447
#
# Poissons Ratio (x) = -0.05441 0.41927
# Poissons Ratio (y) = -0.58257 0.27658
# Poissons Ratio (z) = 0.68225 0.04203
#
# Static dielectric constant tensor:
#      x y z
#    x 1.658550 0.000000 0.028730 
#    y 0.000000 1.643730 0.000000 
#    z 0.028730 0.000000 1.636160 
# 
# From -- ./inp_files/93518.got.cif
#   From: 2010.05.17/outbox.cif.g08.bks.cpg/sg10_47_cif.got.tgz:93518.got - 2010.06.03 11:33:40.
