data_PCOD9141111
_publ_section_title
;
Structure prediction by ZEFSAII (Michael W. Deem and Ramdas Pophale) SiO2 
 PCOD9141111
Probable space group: C C
;
_chemical_formula_sum "Si O2"
_cell_formula_units_Z 20
_cell_length_a 7.094581
_cell_length_b 12.624986
_cell_length_c 11.652304
_cell_angle_alpha 90.000000
_cell_angle_beta 41.559910
_cell_angle_gamma 90.000000
_cell_volume 692.383600
_symmetry_space_group_name_H-M "C C"
_symmetry_group_IT_number 9
_symmetry_cell_setting 'monoclinic'
loop_
_space_group_symop_operation_xyz
x,y,z
x,-y,1/2+z
1/2+x,1/2+y,z
1/2+x,1/2-y,1/2+z
loop_
_atom_site_type_symbol
_atom_site_label
_atom_site_fract_x
_atom_site_fract_y
_atom_site_fract_z
Si Si1 0.519790 0.516915 0.867210
Si Si2 0.673251 0.104456 0.204268
Si Si3 0.733490 0.691316 0.591397
Si Si4 0.228817 0.801492 0.680677
Si Si5 0.965029 0.596177 0.845336
O O1 0.640373 0.596892 0.716738
O O2 0.540224 0.394566 0.822470
O O3 0.725125 0.532614 0.884800
O O4 0.214182 0.553334 0.056180
O O5 0.868992 0.208622 0.097752
O O6 0.428978 0.154213 0.397887
O O7 0.708830 0.992418 0.254509
O O8 0.458354 0.751936 0.664428
O O9 0.372632 0.856067 0.507351
O O10 0.059385 0.695750 0.728173
#
# Coordination Sequence:
#
# PCOD9141111 Si02
#       5
#     4   4   4   4   4
#     4  12  29  54  81 119 163 217 272 335 411 492
#     4  12  26  48  84 119 162 214 274 335 408 486
#     4  12  26  53  82 117 164 221 267 337 415 487
#     4  12  28  54  82 120 168 211 274 344 407 488
#     4  12  29  49  83 121 161 213 275 339 405 489
#
# _framework density 28.885721
#
# number of rings (size 3 to 8) (size 9 to 14) (size 15 to 20)
#    0.000    0.000    6.000    2.400    5.600    0.000 
#    7.200    0.000    0.000    0.000    0.000    0.000 
#    0.000    0.000    0.000    0.000    0.000    0.000 
#
# Total GULP energy -55968.589240 kJ/mol
# GULP energy per Si atom -5596.858924 kJ/mol
# Density = 2.881998 g / cm^3
# Si number density = 28.885721 Si / 1000 Ang^3
#
#
#
# Elastic Constant Matrix: (Units=GPa)
#
#
# Indices 1 2 3 4 5 6 
#
# 1 90.6446 24.5303 15.9677 -0.0052 8.0633 0.0046
# 2 24.5303 304.7956 114.8752 -0.0004 7.1031 0.0001
# 3 15.9677 114.8752 263.9655 -0.0056 18.6028 0.0052
# 4 -0.0052 -0.0004 -0.0056 83.9237 0.0047 2.3422
# 5 8.0633 7.1031 18.6028 0.0047 29.6599 -0.0043
# 6 0.0046 0.0001 0.0052 2.3422 -0.0043 47.4628
#
#
#
# Elastic Compliance Matrix: (Units=1/GPa)
#
#
# Indices 1 2 3 4 5 6 
#
# 1 0.011530 -0.000807 -0.000146 0.000001 -0.002850 -0.000001
# 2 -0.000807 0.003982 -0.001708 0.000000 0.000337 0.000000
# 3 -0.000146 -0.001708 0.004717 0.000000 -0.002510 -0.000001
# 4 0.000001 0.000000 0.000000 0.011932 -0.000002 -0.000589
# 5 -0.002850 0.000337 -0.002510 -0.000002 0.035984 0.000004
# 6 -0.000001 0.000000 -0.000001 -0.000589 0.000004 0.021098
#
#
# Mechanical properties :
#
#
# Convention : Reuss Voigt Hill
#
# Bulk Modulus (GPa) = 67.07533 107.79471 87.43502
# Shear Modulus (GPa) = 50.23515 65.81145 58.02330
#
# Velocity S-wave (km/s) = 4.17478 4.77837 4.48674
# Velocity P-wave (km/s) = 6.81980 8.23665 7.56149
#
# Compressibility (1/GPa) = 0.01490861
#
# Stress axis : x y z
#
# Youngs Moduli (GPa) = 86.73366 251.15720 211.98810
#
# Poissons Ratio (x) = 0.20259 0.03086
# Poissons Ratio (y) = 0.06996 0.36201
# Poissons Ratio (z) = 0.01262 0.42890
#
# Static dielectric constant tensor:
#      x y z
#    x 2.914350 0.000000 -0.267680 
#    y 0.000000 2.276560 0.000000 
#    z -0.267680 0.000000 2.296430 
# 
# From -- ./inp_files/4704.got.cif
#   From: 2010.05.17/outbox.cif.g08.bks.cpg/sg9_3_cif.got.tgz:4704.got - 2010.06.03 20:04:27.
