data_PCOD9141782
_publ_section_title
;
Structure prediction by ZEFSAII (Michael W. Deem and Ramdas Pophale) SiO2 
 PCOD9141782
Probable space group: P 2/M
;
_chemical_formula_sum "Si O2"
_cell_formula_units_Z 32
_cell_length_a 27.347799
_cell_length_b 8.364686
_cell_length_c 21.578425
_cell_angle_alpha 90.000000
_cell_angle_beta 19.001253
_cell_angle_gamma 90.000000
_cell_volume 1607.167954
_symmetry_space_group_name_H-M "P 2/M"
_symmetry_group_IT_number 10
_symmetry_cell_setting 'monoclinic'
loop_
_space_group_symop_operation_xyz
x,y,z
-x,y,-z
-x,-y,-z
x,-y,z
loop_
_atom_site_type_symbol
_atom_site_label
_atom_site_fract_x
_atom_site_fract_y
_atom_site_fract_z
Si Si1 0.977303 0.810350 0.857981
Si Si2 0.144133 0.805101 0.865629
Si Si3 0.524488 0.807305 0.543648
Si Si4 0.331943 0.813788 0.257908
Si Si5 0.737376 0.310049 0.053527
Si Si6 0.333869 0.687197 0.127636
Si Si7 0.618109 0.304753 0.064657
Si Si8 0.275375 0.689949 0.453115
O O1 0.141872 0.734697 0.658949
O O2 0.994978 0.000000 0.841114
O O3 0.882011 0.756400 0.031954
O O4 0.882463 0.766886 0.911103
O O5 0.305024 0.754661 0.646878
O O6 0.147095 0.000000 0.861045
O O7 0.000000 0.751586 0.000000
O O8 0.500000 0.773790 0.500000
O O9 0.403327 0.727981 0.733225
O O10 0.510555 0.000000 0.567589
O O11 0.266644 0.771979 0.268711
O O12 0.239259 0.769453 0.429822
O O13 0.371317 0.000000 0.211926
O O14 0.485856 0.713154 0.081705
O O15 0.760152 0.500000 0.023683
O O16 0.698073 0.251490 0.031521
O O17 0.299191 0.500000 0.172946
O O18 0.304869 0.746325 0.092435
O O19 0.618192 0.500000 0.063996
O O20 0.442003 0.255603 0.274343
O O21 0.280675 0.500000 0.438544
#
# Coordination Sequence:
#
# PCOD9141782 Si02
#       8
#     4   4   4   4   4   4   4   4
#     4  11  22  38  56  79 108 141 179 221 268 323
#     4   9  19  35  55  78 106 138 173 216 270 322
#     4  10  19  36  57  77 103 137 178 222 264 315
#     4  10  17  27  46  77 110 140 175 219 265 316
#     4  11  22  37  56  79 108 144 181 220 265 317
#     4   9  15  28  49  73 105 143 178 219 266 313
#     4   8  18  34  53  78 109 141 179 221 264 315
#     4  10  20  36  55  78 108 143 180 221 269 320
#
# _framework density 19.910799999999998
#
# number of rings (size 3 to 8) (size 9 to 14) (size 15 to 20)
#    0.000    2.250    1.250    4.125    1.750    0.250 
#    0.000    6.875    0.000    2.625    0.000    5.250 
#    0.000    0.000    0.000    0.000    0.000    0.000 
#
# Total GULP energy -178498.363516 kJ/mol
# GULP energy per Si atom -5578.073860 kJ/mol
# Density = 1.986548 g / cm^3
# Si number density = 19.910800 Si / 1000 Ang^3
#
#
#
# Elastic Constant Matrix: (Units=GPa)
#
#
# Indices 1 2 3 4 5 6 
#
# 1 92.8111 3.7708 -9.6877 0.0000 -2.8739 0.0000
# 2 3.7708 25.1249 -0.7408 0.0000 0.2357 0.0000
# 3 -9.6877 -0.7408 14.9204 0.0000 -9.2443 0.0000
# 4 0.0000 0.0000 0.0000 30.9735 0.0000 -1.4253
# 5 -2.8739 0.2357 -9.2443 0.0000 24.5845 0.0000
# 6 0.0000 0.0000 0.0000 -1.4253 0.0000 11.2959
#
#
#
# Elastic Compliance Matrix: (Units=1/GPa)
#
#
# Indices 1 2 3 4 5 6 
#
# 1 0.012204 -0.001549 0.011395 0.000000 0.005726 0.000000
# 2 -0.001549 0.040060 0.000825 0.000000 -0.000255 0.000000
# 3 0.011395 0.000825 0.098149 0.000000 0.038230 0.000000
# 4 0.000000 0.000000 0.000000 0.032474 0.000000 0.004097
# 5 0.005726 -0.000255 0.038230 0.000000 0.055723 0.000000
# 6 0.000000 0.000000 0.000000 0.004097 0.000000 0.089045
#
#
# Mechanical properties :
#
#
# Convention : Reuss Voigt Hill
#
# Bulk Modulus (GPa) = 5.82223 13.28231 9.55227
# Shear Modulus (GPa) = 13.75269 22.67173 18.21221
#
# Velocity S-wave (km/s) = 2.63100 3.37807 3.02767
# Velocity P-wave (km/s) = 3.48712 4.67980 4.12678
#
# Compressibility (1/GPa) = 0.17175541
#
# Stress axis : x y z
#
# Youngs Moduli (GPa) = 81.93845 24.96231 10.18862
#
# Poissons Ratio (x) = 0.03868 -0.11610
# Poissons Ratio (y) = 0.12695 -0.00841
# Poissons Ratio (z) = -0.93370 -0.02060
#
# Static dielectric constant tensor:
#      x y z
#    x 1.747740 0.000000 0.023470 
#    y 0.000000 1.685260 0.000000 
#    z 0.023470 0.000000 1.686900 
# 
# From -- ./inp_files/86783.got.cif
#   From: 2010.05.17/outbox.cif.g08.bks.cpg/sg10_44_cif.got.tgz:86783.got - 2010.06.03 11:33:40.
