data_PCOD9141322
_publ_section_title
;
Structure prediction by ZEFSAII (Michael W. Deem and Ramdas Pophale) SiO2 
 PCOD9141322
Probable space group: P 2/M
;
_chemical_formula_sum "Si O2"
_cell_formula_units_Z 24
_cell_length_a 11.362615
_cell_length_b 14.025881
_cell_length_c 14.495550
_cell_angle_alpha 90.000000
_cell_angle_beta 28.059707
_cell_angle_gamma 90.000000
_cell_volume 1086.682129
_symmetry_space_group_name_H-M "P 2/M"
_symmetry_group_IT_number 10
_symmetry_cell_setting 'monoclinic'
loop_
_space_group_symop_operation_xyz
x,y,z
-x,y,-z
-x,-y,-z
x,-y,z
loop_
_atom_site_type_symbol
_atom_site_label
_atom_site_fract_x
_atom_site_fract_y
_atom_site_fract_z
Si Si1 0.780095 0.388556 0.260649
Si Si2 0.796902 0.889539 0.403684
Si Si3 0.249180 0.111812 0.785842
Si Si4 0.732594 0.612117 0.739264
Si Si5 0.989108 0.302458 0.726727
Si Si6 0.505037 0.615938 0.715631
O O1 0.500000 0.381944 0.500000
O O2 0.854058 0.500000 0.212009
O O3 0.968776 0.331374 0.195641
O O4 0.722490 0.358873 0.195218
O O5 0.775218 0.886510 0.307569
O O6 0.522530 0.853154 0.625896
O O7 0.996562 0.811446 0.293816
O O8 0.838664 0.000000 0.401105
O O9 0.256484 0.000000 0.807896
O O10 0.000000 0.154947 0.000000
O O11 0.691509 0.500000 0.781306
O O12 0.530420 0.648468 0.804166
O O13 0.000000 0.622313 0.500000
O O14 0.772124 0.657715 0.811856
O O15 0.240542 0.348655 0.508536
O O16 0.511159 0.500000 0.712063
#
# Coordination Sequence:
#
# PCOD9141322 Si02
#       6
#     4   4   4   4   4   4
#     4   8  13  19  29  50  79 106 139 179 217 262
#     4   9  18  27  40  66  90 115 151 180 214 269
#     4   8  15  29  44  57  83 119 150 183 219 257
#     4   8  13  22  34  51  80 116 149 184 218 257
#     4  10  15  20  36  56  86 115 139 178 228 254
#     4   8  14  22  33  51  82 116 146 184 221 257
#
# _framework density 22.085574999999999
#
# number of rings (size 3 to 8) (size 9 to 14) (size 15 to 20)
#    0.000    3.500    0.000    4.500    7.000    0.000 
#    0.000    0.000    0.000    4.500    0.000    0.000 
#    0.000   36.000    0.000  108.000    0.000    0.000 
#
# Total GULP energy -133869.732936 kJ/mol
# GULP energy per Si atom -5577.905539 kJ/mol
# Density = 2.203531 g / cm^3
# Si number density = 22.085575 Si / 1000 Ang^3
#
#
#
# Elastic Constant Matrix: (Units=GPa)
#
#
# Indices 1 2 3 4 5 6 
#
# 1 194.2328 72.9347 37.8286 0.0000 -0.5195 0.0000
# 2 72.9347 80.9358 13.1671 0.0000 -10.9180 0.0000
# 3 37.8286 13.1671 73.6346 0.0000 1.4031 0.0000
# 4 0.0000 0.0000 0.0000 -7.8665 0.0000 12.8255
# 5 -0.5195 -10.9180 1.4031 0.0000 32.5290 0.0000
# 6 0.0000 0.0000 0.0000 12.8255 0.0000 -6.8596
#
#
#
# Elastic Compliance Matrix: (Units=1/GPa)
#
#
# Indices 1 2 3 4 5 6 
#
# 1 0.008553 -0.007523 -0.003006 0.000000 -0.002259 0.000000
# 2 -0.007523 0.019996 0.000164 0.000000 0.006584 0.000000
# 3 -0.003006 0.000164 0.015108 0.000000 -0.000645 0.000000
# 4 0.000000 0.000000 0.000000 0.062061 0.000000 0.116035
# 5 -0.002259 0.006584 -0.000645 0.000000 0.032943 0.000000
# 6 0.000000 0.000000 0.000000 0.116035 0.000000 0.071170
#
#
# Mechanical properties :
#
#
# Convention : Reuss Voigt Hill
#
# Bulk Modulus (GPa) = 43.61678 66.29602 54.95640
# Shear Modulus (GPa) = 20.99057 18.55210 19.77134
#
# Velocity S-wave (km/s) = 3.08623 2.90144 2.99526
# Velocity P-wave (km/s) = 5.70014 6.42708 6.07450
#
# Compressibility (1/GPa) = 0.02292696
#
# Stress axis : x y z
#
# Youngs Moduli (GPa) = 116.92321 50.00937 66.19177
#
# Poissons Ratio (x) = 0.37621 0.19894
# Poissons Ratio (y) = 0.87960 -0.01083
# Poissons Ratio (z) = 0.35141 -0.00818
#
# Static dielectric constant tensor:
#      x y z
#    x 1.828760 0.000000 0.015760 
#    y 0.000000 1.799700 0.000000 
#    z 0.015760 0.000000 1.905820 
# 
# From -- ./inp_files/65023.got.cif
#   From: 2010.05.17/outbox.cif.g08.bks.cpg/sg10_33_cif.got.tgz:65023.got - 2010.06.03 11:33:40.
