data_PCOD9141004
_publ_section_title
;
Structure prediction by ZEFSAII (Michael W. Deem and Ramdas Pophale) SiO2 
 PCOD9141004
Probable space group: C C
;
_chemical_formula_sum "Si O2"
_cell_formula_units_Z 28
_cell_length_a 24.876743
_cell_length_b 8.189263
_cell_length_c 9.780896
_cell_angle_alpha 90.000000
_cell_angle_beta 30.285729
_cell_angle_gamma 90.000000
_cell_volume 1004.885921
_symmetry_space_group_name_H-M "C C"
_symmetry_group_IT_number 9
_symmetry_cell_setting 'monoclinic'
loop_
_space_group_symop_operation_xyz
x,y,z
x,-y,1/2+z
1/2+x,1/2+y,z
1/2+x,1/2-y,1/2+z
loop_
_atom_site_type_symbol
_atom_site_label
_atom_site_fract_x
_atom_site_fract_y
_atom_site_fract_z
Si Si1 0.183810 0.292124 0.491830
Si Si2 0.141992 0.980232 0.283723
Si Si3 0.610861 0.712376 0.120395
Si Si4 0.335991 0.504832 0.813970
Si Si5 0.345818 0.151370 0.930572
Si Si6 0.512624 0.017701 0.216497
Si Si7 0.858051 0.190142 0.029956
O O1 0.221664 0.427777 0.516835
O O2 0.284571 0.194334 0.207693
O O3 0.119410 0.375943 0.509619
O O4 0.122067 0.162493 0.718777
O O5 0.101190 0.137695 0.292012
O O6 0.266971 0.021698 0.032465
O O7 0.100156 0.920324 0.521400
O O8 0.373972 0.636569 0.839283
O O9 0.532476 0.862851 0.269981
O O10 0.732683 0.774512 0.828544
O O11 0.389150 0.467422 0.552030
O O12 0.342401 0.326716 0.866453
O O13 0.462189 0.073963 0.695265
O O14 0.422021 0.152863 0.438243
#
# Coordination Sequence:
#
# PCOD9141004 Si02
#       7
#     4   4   4   4   4   4   4
#     4  12  25  49  79 113 158 208 258 333 382 475
#     4  12  24  49  79 114 167 205 262 329 402 456
#     4  12  25  51  81 118 159 211 263 334 388 479
#     4  12  24  49  79 114 167 205 262 329 402 456
#     4  12  25  49  79 113 158 208 258 333 382 475
#     4  12  28  52  80 114 154 216 268 316 402 468
#     4  12  25  51  81 118 159 211 263 334 388 479
#
# _framework density 27.863856999999999
#
# number of rings (size 3 to 8) (size 9 to 14) (size 15 to 20)
#    0.000    0.000    8.571    0.000    0.000    2.286 
#   10.286    0.000    0.000    0.000    0.000    0.000 
#    0.000    0.000    0.000    0.000    0.000    0.000 
#
# Total GULP energy -78402.006179 kJ/mol
# GULP energy per Si atom -5600.143298 kJ/mol
# Density = 2.780044 g / cm^3
# Si number density = 27.863857 Si / 1000 Ang^3
#
#
#
# Elastic Constant Matrix: (Units=GPa)
#
#
# Indices 1 2 3 4 5 6 
#
# 1 182.8537 90.4170 65.0739 0.0000 -9.3729 0.0000
# 2 90.4170 166.9658 45.8518 0.0000 -19.7162 0.0000
# 3 65.0739 45.8518 101.1406 0.0000 -35.0252 0.0000
# 4 0.0000 0.0000 0.0000 42.8943 0.0000 -11.7711
# 5 -9.3729 -19.7162 -35.0252 0.0000 28.5716 0.0000
# 6 0.0000 0.0000 0.0000 -11.7711 0.0000 88.1929
#
#
#
# Elastic Compliance Matrix: (Units=1/GPa)
#
#
# Indices 1 2 3 4 5 6 
#
# 1 0.009778 -0.004307 -0.007398 0.000000 -0.008833 0.000000
# 2 -0.004307 0.008780 0.000694 0.000000 0.005497 0.000000
# 3 -0.007398 0.000694 0.023733 0.000000 0.027146 0.000000
# 4 0.000000 0.000000 0.000000 0.024199 0.000000 0.003230
# 5 -0.008833 0.005497 0.027146 0.000000 0.069173 0.000000
# 6 0.000000 0.000000 0.000000 0.003230 0.000000 0.011770
#
#
# Mechanical properties :
#
#
# Convention : Reuss Voigt Hill
#
# Bulk Modulus (GPa) = 49.33284 94.84949 72.09117
# Shear Modulus (GPa) = 28.37505 48.57292 38.47398
#
# Velocity S-wave (km/s) = 3.19462 4.17972 3.71992
# Velocity P-wave (km/s) = 5.59918 7.57678 6.66177
#
# Compressibility (1/GPa) = 0.02027047
#
# Stress axis : x y z
#
# Youngs Moduli (GPa) = 102.26569 113.89560 42.13546
#
# Poissons Ratio (x) = 0.49052 0.31171
# Poissons Ratio (y) = 0.44044 -0.02925
# Poissons Ratio (z) = 0.75655 -0.07907
#
# Static dielectric constant tensor:
#      x y z
#    x 2.183170 0.000000 -0.014340 
#    y 0.000000 2.136560 0.000000 
#    z -0.014340 0.000000 2.194660 
# 
# From -- ./inp_files/21143.got.cif
#   From: 2010.05.17/outbox.cif.g08.bks.cpg/sg9_11_cif.got.tgz:21143.got - 2010.06.03 20:04:27.
