data_PCOD9141967
_publ_section_title
;
Structure prediction by ZEFSAII (Michael W. Deem and Ramdas Pophale) SiO2 
 PCOD9141967
Probable space group: P 2/M
;
_chemical_formula_sum "Si O2"
_cell_formula_units_Z 32
_cell_length_a 9.863962
_cell_length_b 19.309096
_cell_length_c 8.374817
_cell_angle_alpha 90.000000
_cell_angle_beta 116.946689
_cell_angle_gamma 90.000000
_cell_volume 1421.920121
_symmetry_space_group_name_H-M "P 2/M"
_symmetry_group_IT_number 10
_symmetry_cell_setting 'monoclinic'
loop_
_space_group_symop_operation_xyz
x,y,z
-x,y,-z
-x,-y,-z
x,-y,z
loop_
_atom_site_type_symbol
_atom_site_label
_atom_site_fract_x
_atom_site_fract_y
_atom_site_fract_z
Si Si1 0.809452 0.349698 0.546887
Si Si2 0.783898 0.077431 0.036816
Si Si3 0.348449 0.218231 0.058410
Si Si4 0.434039 0.662343 0.799238
Si Si5 0.098692 0.673721 0.895665
Si Si6 0.868527 0.077344 0.703137
Si Si7 0.691053 0.579576 0.788199
Si Si8 0.678936 0.204500 0.590421
O O1 0.732989 0.363656 0.335477
O O2 0.757725 0.406315 0.648644
O O3 0.725576 0.276332 0.536500
O O4 0.983128 0.337826 0.688737
O O5 0.670818 0.140497 0.013811
O O6 0.950625 0.090648 0.201587
O O7 0.732862 0.000000 0.055280
O O8 0.817034 0.075456 0.862795
O O9 0.228397 0.271223 0.916391
O O10 0.512183 0.256290 0.162261
O O11 0.283961 0.214686 0.203819
O O12 0.545474 0.628956 0.727524
O O13 0.500000 0.632941 0.000000
O O14 0.186664 0.607839 0.017270
O O15 0.000000 0.698022 0.000000
O O16 0.773665 0.139482 0.575742
O O17 0.840181 0.000000 0.622735
O O18 0.654224 0.500000 0.793008
O O19 0.500000 0.189693 0.500000
#
# Coordination Sequence:
#
# PCOD9141967 Si02
#       8
#     4   4   4   4   4   4   4   4
#     4  11  19  34  55  83 104 136 172 212 264 305
#     4   8  14  24  41  65  96 135 173 209 258 316
#     4  10  17  30  49  73 102 137 173 217 261 306
#     4  11  23  38  54  75 107 143 179 214 254 307
#     4   9  17  29  53  81 105 130 167 216 260 303
#     4   8  15  23  36  66 105 136 164 209 266 317
#     4  10  21  38  59  83 109 134 168 209 255 311
#     4  11  16  25  46  70 104 137 171 210 256 313
#
# _framework density 22.504778999999999
#
# number of rings (size 3 to 8) (size 9 to 14) (size 15 to 20)
#    0.000    2.250    5.000    1.875    1.750    3.750 
#    0.000    2.500    0.000    1.125    0.000    0.000 
#    0.000    3.000    0.000    0.000    0.000    0.000 
#
# Total GULP energy -178422.282741 kJ/mol
# GULP energy per Si atom -5575.696336 kJ/mol
# Density = 2.245356 g / cm^3
# Si number density = 22.504779 Si / 1000 Ang^3
#
#
#
# Elastic Constant Matrix: (Units=GPa)
#
#
# Indices 1 2 3 4 5 6 
#
# 1 69.7450 18.9126 14.2472 0.0000 23.2821 0.0000
# 2 18.9126 126.8462 15.7274 0.0000 18.7342 0.0000
# 3 14.2472 15.7274 119.5931 0.0000 30.3527 0.0000
# 4 0.0000 0.0000 0.0000 6.0040 0.0000 0.9671
# 5 23.2821 18.7342 30.3527 0.0000 29.2792 0.0000
# 6 0.0000 0.0000 0.0000 0.9671 0.0000 2.9365
#
#
#
# Elastic Compliance Matrix: (Units=1/GPa)
#
#
# Indices 1 2 3 4 5 6 
#
# 1 0.019996 -0.000628 0.002217 0.000000 -0.017798 0.000000
# 2 -0.000628 0.008738 0.000296 0.000000 -0.005398 0.000000
# 3 0.002217 0.000296 0.011608 0.000000 -0.013987 0.000000
# 4 0.000000 0.000000 0.000000 0.175886 0.000000 -0.057928
# 5 -0.017798 -0.005398 -0.013987 0.000000 0.066260 0.000000
# 6 0.000000 0.000000 0.000000 -0.057928 0.000000 0.359626
#
#
# Mechanical properties :
#
#
# Convention : Reuss Voigt Hill
#
# Bulk Modulus (GPa) = 22.66885 45.99541 34.33213
# Shear Modulus (GPa) = 7.65642 25.46374 16.56008
#
# Velocity S-wave (km/s) = 1.84649 3.36740 2.71559
# Velocity P-wave (km/s) = 3.82633 5.96671 5.01211
#
# Compressibility (1/GPa) = 0.04411339
#
# Stress axis : x y z
#
# Youngs Moduli (GPa) = 50.00902 114.44566 86.14447
#
# Poissons Ratio (x) = 0.07185 -0.19102
# Poissons Ratio (y) = 0.03140 -0.02548
# Poissons Ratio (z) = -0.11089 -0.03385
#
# Static dielectric constant tensor:
#      x y z
#    x 1.909920 0.000000 -0.025210 
#    y 0.000000 1.829050 0.000000 
#    z -0.025210 0.000000 1.931270 
# 
# From -- ./inp_files/26071.got.cif
#   From: 2010.05.17/outbox.cif.g08.bks.cpg/sg10_14_cif.got.tgz:26071.got - 2010.06.03 11:33:40.
