data_PCOD9141679
_publ_section_title
;
Structure prediction by ZEFSAII (Michael W. Deem and Ramdas Pophale) SiO2 
 PCOD9141679
Probable space group: P 2/M
;
_chemical_formula_sum "Si O2"
_cell_formula_units_Z 28
_cell_length_a 17.919877
_cell_length_b 9.216849
_cell_length_c 14.534248
_cell_angle_alpha 90.000000
_cell_angle_beta 128.933335
_cell_angle_gamma 90.000000
_cell_volume 1867.331248
_symmetry_space_group_name_H-M "P 2/M"
_symmetry_group_IT_number 10
_symmetry_cell_setting 'monoclinic'
loop_
_space_group_symop_operation_xyz
x,y,z
-x,y,-z
-x,-y,-z
x,-y,z
loop_
_atom_site_type_symbol
_atom_site_label
_atom_site_fract_x
_atom_site_fract_y
_atom_site_fract_z
Si Si1 0.573426 0.173413 0.139374
Si Si2 0.776336 0.328570 0.295526
Si Si3 0.597271 0.333014 0.637174
Si Si4 0.293326 0.828112 0.432407
Si Si5 0.043846 0.167318 0.637594
Si Si6 0.513647 0.171368 0.297627
Si Si7 0.137098 0.671757 0.431958
O O1 0.672459 0.258116 0.204048
O O2 0.527062 0.212281 0.201922
O O3 0.593417 0.000000 0.157608
O O4 0.500000 0.201898 0.000000
O O5 0.775184 0.500000 0.276014
O O6 0.855186 0.248760 0.293795
O O7 0.810407 0.309178 0.428153
O O8 0.500000 0.330698 0.500000
O O9 0.626646 0.500000 0.670282
O O10 0.673989 0.241407 0.638683
O O11 0.565526 0.261163 0.708198
O O12 0.383991 0.807316 0.571897
O O13 0.203092 0.747981 0.407253
O O14 0.277021 0.000000 0.411594
O O15 0.000000 0.167169 0.500000
O O16 0.966244 0.252598 0.638202
O O17 0.054575 0.000000 0.674410
O O18 0.491368 0.000000 0.286702
O O19 0.128059 0.500000 0.408717
#
# Coordination Sequence:
#
# PCOD9141679 Si02
#       7
#     4   4   4   4   4   4   4
#     4  10  20  33  48  65  86 116 155 193 225 260
#     4  10  19  30  44  61  86 116 147 185 226 263
#     4   9  17  27  40  59  83 111 143 178 218 264
#     4  10  17  26  42  62  86 116 148 179 214 261
#     4   9  17  28  43  61  83 113 148 180 215 263
#     4   9  17  29  43  59  82 113 148 184 221 260
#     4  10  18  27  41  63  90 117 146 179 218 263
#
# _framework density 14.994661000000001
#
# number of rings (size 3 to 8) (size 9 to 14) (size 15 to 20)
#    0.000    2.429    1.429    2.143    0.000    6.000 
#    0.000    0.000    0.000    0.000    0.000    0.000 
#    0.000    1.143    0.000   12.286    0.000    5.429 
#
# Total GULP energy -156095.846858 kJ/mol
# GULP energy per Si atom -5574.851673 kJ/mol
# Density = 1.496053 g / cm^3
# Si number density = 14.994661 Si / 1000 Ang^3
#
#
#
# Elastic Constant Matrix: (Units=GPa)
#
#
# Indices 1 2 3 4 5 6 
#
# 1 166.5529 103.1138 43.8867 0.0000 10.4487 0.0000
# 2 103.1138 115.3022 40.4395 0.0000 10.8711 0.0000
# 3 43.8867 40.4395 42.8139 0.0000 0.5967 0.0000
# 4 0.0000 0.0000 0.0000 12.7001 0.0000 5.0962
# 5 10.4487 10.8711 0.5967 0.0000 12.4806 0.0000
# 6 0.0000 0.0000 0.0000 5.0962 0.0000 26.4364
#
#
#
# Elastic Compliance Matrix: (Units=1/GPa)
#
#
# Indices 1 2 3 4 5 6 
#
# 1 0.013884 -0.010836 -0.003969 0.000000 -0.001995 0.000000
# 2 -0.010836 0.023037 -0.010506 0.000000 -0.010492 0.000000
# 3 -0.003969 -0.010506 0.037199 0.000000 0.010695 0.000000
# 4 0.000000 0.000000 0.000000 0.085341 0.000000 -0.016451
# 5 -0.001995 -0.010492 0.010695 0.000000 0.090423 0.000000
# 6 0.000000 0.000000 0.000000 -0.016451 0.000000 0.040998
#
#
# Mechanical properties :
#
#
# Convention : Reuss Voigt Hill
#
# Bulk Modulus (GPa) = 42.55507 77.72767 60.14137
# Shear Modulus (GPa) = 14.31285 19.47202 16.89243
#
# Velocity S-wave (km/s) = 3.09290 3.60751 3.36007
# Velocity P-wave (km/s) = 6.41845 8.32476 7.43297
#
# Compressibility (1/GPa) = 0.02349896
#
# Stress axis : x y z
#
# Youngs Moduli (GPa) = 72.02725 43.40759 26.88222
#
# Poissons Ratio (x) = 0.47037 0.10669
# Poissons Ratio (y) = 0.78049 0.28243
# Poissons Ratio (z) = 0.28585 0.45604
#
# Static dielectric constant tensor:
#      x y z
#    x 1.487540 0.000000 -0.003550 
#    y 0.000000 1.499620 0.000000 
#    z -0.003550 0.000000 1.459830 
# 
# From -- ./inp_files/49364.got.cif
#   From: 2010.05.17/outbox.cif.g08.bks.cpg/sg10_25_cif.got.tgz:49364.got - 2010.06.03 11:33:40.
