data_PCOD9141067
_publ_section_title
;
Structure prediction by ZEFSAII (Michael W. Deem and Ramdas Pophale) SiO2 
 PCOD9141067
Probable space group: C C
;
_chemical_formula_sum "Si O2"
_cell_formula_units_Z 24
_cell_length_a 5.864796
_cell_length_b 13.851893
_cell_length_c 11.857032
_cell_angle_alpha 90.000000
_cell_angle_beta 87.839256
_cell_angle_gamma 90.000000
_cell_volume 962.562925
_symmetry_space_group_name_H-M "C C"
_symmetry_group_IT_number 9
_symmetry_cell_setting 'monoclinic'
loop_
_space_group_symop_operation_xyz
x,y,z
x,-y,1/2+z
1/2+x,1/2+y,z
1/2+x,1/2-y,1/2+z
loop_
_atom_site_type_symbol
_atom_site_label
_atom_site_fract_x
_atom_site_fract_y
_atom_site_fract_z
Si Si1 0.479930 0.871504 0.876280
Si Si2 0.338410 0.769442 0.488812
Si Si3 0.803448 0.003443 0.211468
Si Si4 0.127679 0.088087 0.559485
Si Si5 0.137618 0.160786 0.213712
Si Si6 0.442495 0.148782 0.751724
O O1 0.643715 0.803690 0.945967
O O2 0.602814 0.933945 0.775901
O O3 0.307953 0.806424 0.807443
O O4 0.324616 0.933479 0.965019
O O5 0.528707 0.693289 0.527417
O O6 0.263909 0.836949 0.593164
O O7 0.395942 0.838044 0.383552
O O8 0.016093 0.063794 0.257369
O O9 0.691179 0.899076 0.231424
O O10 0.915096 0.985832 0.083426
O O11 0.257507 0.096494 0.677155
O O12 0.946310 0.241956 0.205463
#
# Coordination Sequence:
#
# PCOD9141067 Si02
#       6
#     4   4   4   4   4   4
#     4  12  25  50  76 110 155 201 261 320 386 469
#     4  12  26  48  80 108 148 210 260 324 396 466
#     4  12  28  48  72 114 160 198 262 320 386 472
#     4  12  25  50  76 110 155 201 261 320 386 469
#     4  12  26  50  76 112 154 203 260 322 392 465
#     4  12  26  50  76 112 154 203 260 322 392 465
#
# _framework density 24.933434999999999
#
# number of rings (size 3 to 8) (size 9 to 14) (size 15 to 20)
#    0.000    0.000    6.667    2.000    2.333    0.000 
#    6.000    0.000    0.000    0.000    0.000    0.000 
#    0.000    0.000    0.000    0.000    0.000    0.000 
#
# Total GULP energy -66889.075840 kJ/mol
# GULP energy per Si atom -5574.089653 kJ/mol
# Density = 2.487669 g / cm^3
# Si number density = 24.933435 Si / 1000 Ang^3
#
#
#
# Elastic Constant Matrix: (Units=GPa)
#
#
# Indices 1 2 3 4 5 6 
#
# 1 108.5307 50.1812 67.9321 0.0000 -16.7151 0.0000
# 2 50.1812 73.1366 24.3624 0.0000 1.8965 0.0000
# 3 67.9321 24.3624 126.0800 0.0000 -21.4481 0.0000
# 4 0.0000 0.0000 0.0000 27.9052 0.0000 -16.4140
# 5 -16.7151 1.8965 -21.4481 0.0000 54.8357 0.0000
# 6 0.0000 0.0000 0.0000 -16.4140 0.0000 43.3230
#
#
#
# Elastic Compliance Matrix: (Units=1/GPa)
#
#
# Indices 1 2 3 4 5 6 
#
# 1 0.019818 -0.011022 -0.007987 0.000000 0.003298 0.000000
# 2 -0.011022 0.020898 0.001292 0.000000 -0.003577 0.000000
# 3 -0.007987 0.001292 0.012388 0.000000 0.002366 0.000000
# 4 0.000000 0.000000 0.000000 0.046112 0.000000 0.017471
# 5 0.003298 -0.003577 0.002366 0.000000 0.020291 0.000000
# 6 0.000000 0.000000 0.000000 0.017471 0.000000 0.029702
#
#
# Mechanical properties :
#
#
# Convention : Reuss Voigt Hill
#
# Bulk Modulus (GPa) = 56.59554 65.85543 61.22548
# Shear Modulus (GPa) = 26.24240 36.23089 31.23664
#
# Velocity S-wave (km/s) = 3.24774 3.81610 3.54333
# Velocity P-wave (km/s) = 6.06726 6.77397 6.43033
#
# Compressibility (1/GPa) = 0.01766924
#
# Stress axis : x y z
#
# Youngs Moduli (GPa) = 50.46042 47.85105 80.72617
#
# Poissons Ratio (x) = 0.52744 0.64474
# Poissons Ratio (y) = 0.55620 -0.10432
# Poissons Ratio (z) = 0.40302 -0.06183
#
# Static dielectric constant tensor:
#      x y z
#    x 1.993140 0.000000 -0.090060 
#    y 0.000000 1.998370 0.000000 
#    z -0.090060 0.000000 1.962650 
# 
# From -- ./inp_files/12916.got.cif
#   From: 2010.05.17/outbox.cif.g08.bks.cpg/sg9_7_cif.got.tgz:12916.got - 2010.06.03 20:04:27.
