data_PCOD9141684
_publ_section_title
;
Structure prediction by ZEFSAII (Michael W. Deem and Ramdas Pophale) SiO2 
 PCOD9141684
Probable space group: P 2/M
;
_chemical_formula_sum "Si O2"
_cell_formula_units_Z 28
_cell_length_a 23.265890
_cell_length_b 8.786468
_cell_length_c 12.473514
_cell_angle_alpha 90.000000
_cell_angle_beta 134.993629
_cell_angle_gamma 90.000000
_cell_volume 1803.250698
_symmetry_space_group_name_H-M "P 2/M"
_symmetry_group_IT_number 10
_symmetry_cell_setting 'monoclinic'
loop_
_space_group_symop_operation_xyz
x,y,z
-x,y,-z
-x,-y,-z
x,-y,z
loop_
_atom_site_type_symbol
_atom_site_label
_atom_site_fract_x
_atom_site_fract_y
_atom_site_fract_z
Si Si1 0.384025 0.319763 0.934131
Si Si2 0.992238 0.183048 0.164742
Si Si3 0.949708 0.681747 0.539608
Si Si4 0.775153 0.819113 0.351809
Si Si5 0.448321 0.320238 0.773396
Si Si6 0.277798 0.316872 0.488700
Si Si7 0.866654 0.182577 0.821347
O O1 0.371166 0.500000 0.937580
O O2 0.299032 0.233066 0.822215
O O3 0.416267 0.308195 0.853765
O O4 0.459500 0.259384 0.105045
O O5 0.003631 0.264004 0.292331
O O6 0.069117 0.218944 0.189127
O O7 0.992203 0.000000 0.179121
O O8 0.911999 0.224992 0.991268
O O9 0.939467 0.500000 0.528895
O O10 0.861393 0.758827 0.425362
O O11 0.000000 0.723089 0.500000
O O12 0.757446 0.747661 0.445769
O O13 0.776590 0.000000 0.364294
O O14 0.456683 0.500000 0.761730
O O15 0.371798 0.262268 0.604088
O O16 0.278155 0.500000 0.495942
O O17 0.217837 0.261866 0.316943
O O18 0.856300 0.000000 0.806998
#
# Coordination Sequence:
#
# PCOD9141684 Si02
#       7
#     4   4   4   4   4   4   4
#     4   8  13  25  41  55  78 113 148 179 212 254
#     4   9  18  32  48  65  89 117 147 181 223 269
#     4  11  23  36  49  66  87 112 150 194 227 260
#     4  11  20  29  42  61  86 115 148 183 222 267
#     4   7  12  22  37  57  82 113 145 176 212 253
#     4  10  17  26  42  64  89 118 151 182 214 258
#     4   9  17  29  45  67  92 118 146 181 220 263
#
# _framework density 15.527514999999999
#
# number of rings (size 3 to 8) (size 9 to 14) (size 15 to 20)
#    0.000    2.714    1.429    4.714    0.000    1.714 
#    0.000    7.857    0.000    0.000    0.000    0.000 
#    0.000    1.143    0.000   12.857    0.000    6.714 
#
# Total GULP energy -155885.087113 kJ/mol
# GULP energy per Si atom -5567.324540 kJ/mol
# Density = 1.549217 g / cm^3
# Si number density = 15.527515 Si / 1000 Ang^3
#
#
#
# Elastic Constant Matrix: (Units=GPa)
#
#
# Indices 1 2 3 4 5 6 
#
# 1 47.8794 26.4791 54.2342 0.0000 7.3033 0.0000
# 2 26.4791 43.0180 45.0685 0.0000 6.2794 0.0000
# 3 54.2342 45.0685 153.1456 0.0000 33.0360 0.0000
# 4 0.0000 0.0000 0.0000 18.6782 0.0000 -8.6297
# 5 7.3033 6.2794 33.0360 0.0000 22.5003 0.0000
# 6 0.0000 0.0000 0.0000 -8.6297 0.0000 -5.7625
#
#
#
# Elastic Compliance Matrix: (Units=1/GPa)
#
#
# Indices 1 2 3 4 5 6 
#
# 1 0.041186 -0.013548 -0.012484 0.000000 0.008743 0.000000
# 2 -0.013548 0.038958 -0.007713 0.000000 0.004850 0.000000
# 3 -0.012484 -0.007713 0.017390 0.000000 -0.019328 0.000000
# 4 0.000000 0.000000 0.000000 0.031644 0.000000 -0.047388
# 5 0.008743 0.004850 -0.019328 0.000000 0.068631 0.000000
# 6 0.000000 0.000000 0.000000 -0.047388 0.000000 -0.102569
#
#
# Mechanical properties :
#
#
# Convention : Reuss Voigt Hill
#
# Bulk Modulus (GPa) = 33.28546 55.06740 44.17643
# Shear Modulus (GPa) = 28.94402 14.96729 21.95566
#
# Velocity S-wave (km/s) = 4.32215 3.10808 3.76438
# Velocity P-wave (km/s) = 6.81109 6.95856 6.88522
#
# Compressibility (1/GPa) = 0.03004315
#
# Stress axis : x y z
#
# Youngs Moduli (GPa) = 24.27993 25.66843 57.50386
#
# Poissons Ratio (x) = 0.34776 0.71790
# Poissons Ratio (y) = 0.32895 0.44353
# Poissons Ratio (z) = 0.30312 0.19798
#
# Static dielectric constant tensor:
#      x y z
#    x 1.487290 0.000000 0.034060 
#    y 0.000000 1.518880 0.000000 
#    z 0.034060 0.000000 1.568070 
# 
# From -- ./inp_files/54988.got.cif
#   From: 2010.05.17/outbox.cif.g08.bks.cpg/sg10_28_cif.got.tgz:54988.got - 2010.06.03 11:33:40.
