data_PCOD9141001
_publ_section_title
;
Structure prediction by ZEFSAII (Michael W. Deem and Ramdas Pophale) SiO2 
 PCOD9141001
Probable space group: C C
;
_chemical_formula_sum "Si O2"
_cell_formula_units_Z 24
_cell_length_a 11.770995
_cell_length_b 8.794195
_cell_length_c 8.972001
_cell_angle_alpha 90.000000
_cell_angle_beta 84.131561
_cell_angle_gamma 90.000000
_cell_volume 923.882164
_symmetry_space_group_name_H-M "C C"
_symmetry_group_IT_number 9
_symmetry_cell_setting 'monoclinic'
loop_
_space_group_symop_operation_xyz
x,y,z
x,-y,1/2+z
1/2+x,1/2+y,z
1/2+x,1/2-y,1/2+z
loop_
_atom_site_type_symbol
_atom_site_label
_atom_site_fract_x
_atom_site_fract_y
_atom_site_fract_z
Si Si1 0.991610 0.604967 0.782960
Si Si2 0.675722 0.285561 0.599821
Si Si3 0.340839 0.986928 0.027336
Si Si4 0.295519 0.659365 0.020947
Si Si5 0.591603 0.220563 0.278566
Si Si6 0.872674 0.079043 0.709719
O O1 0.929317 0.555878 0.641501
O O2 0.079164 0.735910 0.730594
O O3 0.052462 0.450203 0.824949
O O4 0.892936 0.619133 0.918010
O O5 0.725660 0.453064 0.617022
O O6 0.636469 0.280990 0.432211
O O7 0.780097 0.171541 0.624322
O O8 0.321473 0.826509 0.950633
O O9 0.183145 0.688357 0.134503
O O10 0.384851 0.582042 0.123860
O O11 0.306452 0.555425 0.874673
O O12 0.488693 0.327480 0.229081
#
# Coordination Sequence:
#
# PCOD9141001 Si02
#       6
#     4   4   4   4   4   4
#     4  12  24  48  78 114 158 209 271 331 406 478
#     4  12  26  47  85 116 157 219 270 340 411 481
#     4  12  26  51  80 115 160 212 269 336 407 486
#     4  12  27  49  79 119 164 211 277 333 408 489
#     4  12  26  48  79 119 159 214 280 331 409 488
#     4  12  27  49  79 121 160 219 273 339 405 486
#
# _framework density 25.977336000000001
#
# number of rings (size 3 to 8) (size 9 to 14) (size 15 to 20)
#    0.000    0.000    6.667    2.000    2.333    2.667 
#    0.000    1.667    0.000    0.000    0.000    0.000 
#    0.000    0.000    0.000    0.000    0.000    0.000 
#
# Total GULP energy -67132.255929 kJ/mol
# GULP energy per Si atom -5594.354661 kJ/mol
# Density = 2.591821 g / cm^3
# Si number density = 25.977336 Si / 1000 Ang^3
#
#
#
# Elastic Constant Matrix: (Units=GPa)
#
#
# Indices 1 2 3 4 5 6 
#
# 1 119.4287 41.0416 44.1151 0.0000 -2.1447 0.0000
# 2 41.0416 95.5609 27.9839 0.0000 -12.7230 0.0000
# 3 44.1151 27.9839 136.1319 0.0000 -21.9775 0.0000
# 4 0.0000 0.0000 0.0000 36.7203 0.0000 -8.7842
# 5 -2.1447 -12.7230 -21.9775 0.0000 47.4376 0.0000
# 6 0.0000 0.0000 0.0000 -8.7842 0.0000 46.8657
#
#
#
# Elastic Compliance Matrix: (Units=1/GPa)
#
#
# Indices 1 2 3 4 5 6 
#
# 1 0.010834 -0.004038 -0.003001 0.000000 -0.001984 0.000000
# 2 -0.004038 0.012834 -0.000868 0.000000 0.002857 0.000000
# 3 -0.003001 -0.000868 0.009119 0.000000 0.003856 0.000000
# 4 0.000000 0.000000 0.000000 0.028511 0.000000 0.005344
# 5 -0.001984 0.002857 0.003856 0.000000 0.023544 0.000000
# 6 0.000000 0.000000 0.000000 0.005344 0.000000 0.022339
#
#
# Mechanical properties :
#
#
# Convention : Reuss Voigt Hill
#
# Bulk Modulus (GPa) = 58.92073 64.15587 61.53830
# Shear Modulus (GPa) = 38.86429 42.07011 40.46720
#
# Velocity S-wave (km/s) = 3.87212 4.02866 3.95116
# Velocity P-wave (km/s) = 6.53620 6.81106 6.67505
#
# Compressibility (1/GPa) = 0.01697195
#
# Stress axis : x y z
#
# Youngs Moduli (GPa) = 92.30371 77.92093 109.65681
#
# Poissons Ratio (x) = 0.31466 0.32907
# Poissons Ratio (y) = 0.37274 0.09521
# Poissons Ratio (z) = 0.27700 0.06765
#
# Static dielectric constant tensor:
#      x y z
#    x 2.132120 0.000000 -0.033700 
#    y 0.000000 2.183130 0.000000 
#    z -0.033700 0.000000 2.037130 
# 
# From -- ./inp_files/6732.got.cif
#   From: 2010.05.17/outbox.cif.g08.bks.cpg/sg9_4_cif.got.tgz:6732.got - 2010.06.03 20:04:27.
