data_PCOD9141886
_publ_section_title
;
Structure prediction by ZEFSAII (Michael W. Deem and Ramdas Pophale) SiO2 
 PCOD9141886
Probable space group: P 2/M
;
_chemical_formula_sum "Si O2"
_cell_formula_units_Z 30
_cell_length_a 22.848945
_cell_length_b 7.962446
_cell_length_c 15.462784
_cell_angle_alpha 90.000000
_cell_angle_beta 32.803242
_cell_angle_gamma 90.000000
_cell_volume 1524.066399
_symmetry_space_group_name_H-M "P 2/M"
_symmetry_group_IT_number 10
_symmetry_cell_setting 'monoclinic'
loop_
_space_group_symop_operation_xyz
x,y,z
-x,y,-z
-x,-y,-z
x,-y,z
loop_
_atom_site_type_symbol
_atom_site_label
_atom_site_fract_x
_atom_site_fract_y
_atom_site_fract_z
Si Si1 0.889141 0.202628 0.093002
Si Si2 0.748784 0.809626 0.733657
Si Si3 0.892647 0.304679 0.400286
Si Si4 0.500000 0.249233 0.000000
Si Si5 0.127238 0.802549 0.081826
Si Si6 0.477840 0.800279 0.214793
Si Si7 0.716159 0.795535 0.965379
Si Si8 0.744093 0.701060 0.428081
O O1 0.790602 0.248718 0.277732
O O2 0.897248 0.000000 0.078898
O O3 0.875238 0.267550 0.012612
O O4 0.000000 0.265346 0.000000
O O5 0.814233 0.713187 0.579489
O O6 0.757162 0.737797 0.820058
O O7 0.790743 0.000000 0.680993
O O8 0.621008 0.818849 0.870149
O O9 0.916057 0.500000 0.356191
O O10 0.828660 0.236692 0.396116
O O11 0.006947 0.215459 0.268877
O O12 0.525224 0.307618 0.870078
O O13 0.213890 0.730853 0.041703
O O14 0.152688 0.000000 0.041840
O O15 0.372572 0.771608 0.402387
O O16 0.481089 0.000000 0.184932
O O17 0.588605 0.759438 0.126558
O O18 0.724873 0.000000 0.952244
O O19 0.738951 0.500000 0.440793
#
# Coordination Sequence:
#
# PCOD9141886 Si02
#       8
#     4   4   4   2   4   4   4   4
#     4  10  20  35  58  84 103 131 179 228 273 318
#     4  10  18  32  54  80 108 141 181 218 261 312
#     4  11  23  35  50  79 114 146 178 216 267 318
#     4  10  17  28  53  82 105 136 177 222 259 300
#     4  10  20  38  60  80 106 137 177 225 271 319
#     4  10  18  33  57  82 109 138 178 221 263 313
#     4   8  18  35  57  83 107 139 179 221 265 313
#     4  11  23  36  52  80 115 143 174 219 272 321
#
# _framework density 19.684182
#
# number of rings (size 3 to 8) (size 9 to 14) (size 15 to 20)
#    0.000    2.000    2.667    2.800    0.000    2.400 
#    0.000    8.000    0.000    4.000    0.000    0.000 
#    0.000    0.000    0.000    0.000    0.000    0.000 
#
# Total GULP energy -167182.505440 kJ/mol
# GULP energy per Si atom -5572.750181 kJ/mol
# Density = 1.963938 g / cm^3
# Si number density = 19.684182 Si / 1000 Ang^3
#
#
#
# Elastic Constant Matrix: (Units=GPa)
#
#
# Indices 1 2 3 4 5 6 
#
# 1 169.0667 13.8382 69.8690 0.0000 4.4271 0.0000
# 2 13.8382 25.5128 -1.4945 0.0000 1.7089 0.0000
# 3 69.8690 -1.4945 132.9541 0.0000 8.6753 0.0000
# 4 0.0000 0.0000 0.0000 569.5136 0.0000 11.6133
# 5 4.4271 1.7089 8.6753 0.0000 20.4358 0.0000
# 6 0.0000 0.0000 0.0000 11.6133 0.0000 3.4870
#
#
#
# Elastic Compliance Matrix: (Units=1/GPa)
#
#
# Indices 1 2 3 4 5 6 
#
# 1 0.008071 -0.004663 -0.004325 0.000000 0.000478 0.000000
# 2 -0.004663 0.042170 0.003177 0.000000 -0.003865 0.000000
# 3 -0.004325 0.003177 0.010065 0.000000 -0.003601 0.000000
# 4 0.000000 0.000000 0.000000 0.001884 0.000000 -0.006274
# 5 0.000478 -0.003865 -0.003601 0.000000 0.050682 0.000000
# 6 0.000000 0.000000 0.000000 -0.006274 0.000000 0.307677
#
#
# Mechanical properties :
#
#
# Convention : Reuss Voigt Hill
#
# Bulk Modulus (GPa) = 20.54087 54.66212 37.60149
# Shear Modulus (GPa) = 11.15073 135.04199 73.09636
#
# Velocity S-wave (km/s) = 2.38267 8.29176 6.10042
# Velocity P-wave (km/s) = 4.24586 10.93164 8.29241
#
# Compressibility (1/GPa) = 0.04868343
#
# Stress axis : x y z
#
# Youngs Moduli (GPa) = 123.89294 23.71334 99.35355
#
# Poissons Ratio (x) = 0.11058 0.42973
# Poissons Ratio (y) = 0.57776 -0.31563
# Poissons Ratio (z) = 0.53587 -0.07533
#
# Static dielectric constant tensor:
#      x y z
#    x 1.698480 0.000000 0.012840 
#    y 0.000000 1.730870 0.000000 
#    z 0.012840 0.000000 1.651850 
# 
# From -- ./inp_files/71291.got.cif
#   From: 2010.05.17/outbox.cif.g08.bks.cpg/sg10_36_cif.got.tgz:71291.got - 2010.06.03 11:33:40.
