data_PCOD9141156
_publ_section_title
;
Structure prediction by ZEFSAII (Michael W. Deem and Ramdas Pophale) SiO2 
 PCOD9141156
Probable space group: C C
;
_chemical_formula_sum "Si O2"
_cell_formula_units_Z 32
_cell_length_a 29.484358
_cell_length_b 8.292933
_cell_length_c 9.941306
_cell_angle_alpha 90.000000
_cell_angle_beta 145.801380
_cell_angle_gamma 90.000000
_cell_volume 1366.245122
_symmetry_space_group_name_H-M "C C"
_symmetry_group_IT_number 9
_symmetry_cell_setting 'monoclinic'
loop_
_space_group_symop_operation_xyz
x,y,z
x,-y,1/2+z
1/2+x,1/2+y,z
1/2+x,1/2-y,1/2+z
loop_
_atom_site_type_symbol
_atom_site_label
_atom_site_fract_x
_atom_site_fract_y
_atom_site_fract_z
Si Si1 0.742100 0.836028 0.101250
Si Si2 0.021903 0.145846 0.426314
Si Si3 0.666274 0.812321 0.401424
Si Si4 0.490150 0.700562 0.871587
Si Si5 0.448434 0.182871 0.978682
Si Si6 0.183538 0.867927 0.215772
Si Si7 0.914168 0.688837 0.440591
Si Si8 0.772820 0.322835 0.943625
O O1 0.833458 0.780283 0.290517
O O2 0.733330 0.792687 0.236007
O O3 0.696143 0.719773 0.887576
O O4 0.707835 0.013162 0.989855
O O5 0.018062 0.278367 0.538315
O O6 0.097559 0.055487 0.539005
O O7 0.982322 0.987172 0.392364
O O8 0.980518 0.231426 0.198954
O O9 0.670190 0.759377 0.565493
O O10 0.725217 0.694154 0.465148
O O11 0.576038 0.783952 0.122294
O O12 0.468591 0.719497 0.662644
O O13 0.425538 0.783416 0.810329
O O14 0.365319 0.221145 0.695630
O O15 0.428762 0.003034 0.985811
O O16 0.253305 0.994248 0.351685
#
# Coordination Sequence:
#
# PCOD9141156 Si02
#       8
#     4   4   4   4   4   4   4   4
#     4  12  29  48  78 111 154 203 261 318 388 462
#     4  12  27  50  76 111 155 208 259 318 383 461
#     4  12  29  49  76 116 152 199 257 321 391 458
#     4  12  29  48  78 113 156 202 260 321 387 456
#     4  12  29  48  80 111 156 204 258 319 384 460
#     4  12  27  49  78 106 157 203 257 316 386 459
#     4  12  27  50  74 113 154 206 261 316 385 462
#     4  12  27  50  76 111 154 203 253 319 392 456
#
# _framework density 23.421859999999999
#
# number of rings (size 3 to 8) (size 9 to 14) (size 15 to 20)
#    0.000    0.000    5.000    3.000   10.500    0.000 
#    0.000    0.000    0.000    0.000    0.000    0.000 
#    0.000    0.000    0.000    0.000    0.000    0.000 
#
# Total GULP energy -89319.238078 kJ/mol
# GULP energy per Si atom -5582.452380 kJ/mol
# Density = 2.336855 g / cm^3
# Si number density = 23.421860 Si / 1000 Ang^3
#
#
#
# Elastic Constant Matrix: (Units=GPa)
#
#
# Indices 1 2 3 4 5 6 
#
# 1 77.0654 -5.7725 17.6435 0.0000 4.6661 0.0000
# 2 -5.7725 120.3781 34.0832 0.0000 8.3949 0.0000
# 3 17.6435 34.0832 83.0069 0.0000 -15.9992 0.0000
# 4 0.0000 0.0000 0.0000 26.7791 0.0000 -8.9569
# 5 4.6661 8.3949 -15.9992 0.0000 29.3761 0.0000
# 6 0.0000 0.0000 0.0000 -8.9569 0.0000 35.5459
#
#
#
# Elastic Compliance Matrix: (Units=1/GPa)
#
#
# Indices 1 2 3 4 5 6 
#
# 1 0.014777 0.002659 -0.005398 0.000000 -0.006047 0.000000
# 2 0.002659 0.010696 -0.006288 0.000000 -0.006904 0.000000
# 3 -0.005398 -0.006288 0.018198 0.000000 0.012566 0.000000
# 4 0.000000 0.000000 0.000000 0.040779 0.000000 0.010276
# 5 -0.006047 -0.006904 0.012566 0.000000 0.043818 0.000000
# 6 0.000000 0.000000 0.000000 0.010276 0.000000 0.030722
#
#
# Mechanical properties :
#
#
# Convention : Reuss Voigt Hill
#
# Bulk Modulus (GPa) = 39.03584 41.37320 40.20452
# Shear Modulus (GPa) = 26.94179 33.97331 30.45755
#
# Velocity S-wave (km/s) = 3.39526 3.81267 3.61000
# Velocity P-wave (km/s) = 5.66330 6.08972 5.88038
#
# Compressibility (1/GPa) = 0.02561749
#
# Stress axis : x y z
#
# Youngs Moduli (GPa) = 67.67206 93.48963 54.94987
#
# Poissons Ratio (x) = -0.24856 0.29663
# Poissons Ratio (y) = -0.17992 0.34551
# Poissons Ratio (z) = 0.36531 0.58784
#
# Static dielectric constant tensor:
#      x y z
#    x 1.934020 0.000000 0.150300 
#    y 0.000000 1.871480 0.000000 
#    z 0.150300 0.000000 2.058220 
# 
# From -- ./inp_files/12440.got.cif
#   From: 2010.05.17/outbox.cif.g08.bks.cpg/sg9_7_cif.got.tgz:12440.got - 2010.06.03 20:04:27.
