data_PCOD9141019
_publ_section_title
;
Structure prediction by ZEFSAII (Michael W. Deem and Ramdas Pophale) SiO2 
 PCOD9141019
Probable space group: C C
;
_chemical_formula_sum "Si O2"
_cell_formula_units_Z 28
_cell_length_a 4.862610
_cell_length_b 24.313647
_cell_length_c 8.832303
_cell_angle_alpha 90.000000
_cell_angle_beta 88.782615
_cell_angle_gamma 90.000000
_cell_volume 1043.987904
_symmetry_space_group_name_H-M "C C"
_symmetry_group_IT_number 9
_symmetry_cell_setting 'monoclinic'
loop_
_space_group_symop_operation_xyz
x,y,z
x,-y,1/2+z
1/2+x,1/2+y,z
1/2+x,1/2-y,1/2+z
loop_
_atom_site_type_symbol
_atom_site_label
_atom_site_fract_x
_atom_site_fract_y
_atom_site_fract_z
Si Si1 0.201660 0.356386 0.022580
Si Si2 0.763243 0.021228 0.824596
Si Si3 0.903261 0.755401 0.219437
Si Si4 0.123962 0.600461 0.208379
Si Si5 0.915264 0.200516 0.070036
Si Si6 0.696734 0.418250 0.110638
Si Si7 0.759955 0.534436 0.009053
O O1 0.485820 0.390045 0.996847
O O2 0.304563 0.302902 0.105977
O O3 0.946152 0.376532 0.128646
O O4 0.081185 0.360824 0.855130
O O5 0.461192 0.044032 0.864300
O O6 0.959208 0.061468 0.727664
O O7 0.944435 0.024130 0.974996
O O8 0.743369 0.958695 0.766481
O O9 0.908309 0.777722 0.394188
O O10 0.207358 0.738973 0.166157
O O11 0.698890 0.707172 0.160627
O O12 0.297152 0.638393 0.089638
O O13 0.847014 0.578696 0.130412
O O14 0.850766 0.473087 0.054256
#
# Coordination Sequence:
#
# PCOD9141019 Si02
#       7
#     4   4   4   4   4   4   4
#     4  12  26  48  79 111 160 212 265 328 416 460
#     4  12  26  45  72 108 160 209 263 332 375 483
#     4  12  28  56  83 127 158 212 269 356 403 496
#     4  12  27  49  79 119 156 222 265 335 400 489
#     4  12  29  53  88 118 166 207 277 338 424 482
#     4  12  25  45  71 107 157 212 259 319 386 474
#     4  12  25  46  70 110 159 208 266 316 394 468
#
# _framework density 26.820235
#
# number of rings (size 3 to 8) (size 9 to 14) (size 15 to 20)
#    0.000    0.000    2.857    6.857    4.000    5.714 
#    0.000    0.000    0.000    0.000    0.000    0.000 
#    0.000    0.000    0.000    0.000    0.000    0.000 
#
# Total GULP energy -78230.507869 kJ/mol
# GULP energy per Si atom -5587.893419 kJ/mol
# Density = 2.675919 g / cm^3
# Si number density = 26.820235 Si / 1000 Ang^3
#
#
#
# Elastic Constant Matrix: (Units=GPa)
#
#
# Indices 1 2 3 4 5 6 
#
# 1 137.1349 24.5598 33.5738 0.0000 4.5759 0.0000
# 2 24.5598 94.6010 58.8656 0.0000 9.9296 0.0000
# 3 33.5738 58.8656 146.3100 0.0000 1.8966 0.0000
# 4 0.0000 0.0000 0.0000 53.9668 0.0000 3.0512
# 5 4.5759 9.9296 1.8966 0.0000 45.8894 0.0000
# 6 0.0000 0.0000 0.0000 3.0512 0.0000 46.8511
#
#
#
# Elastic Compliance Matrix: (Units=1/GPa)
#
#
# Indices 1 2 3 4 5 6 
#
# 1 0.007840 -0.001160 -0.001326 0.000000 -0.000476 0.000000
# 2 -0.001160 0.014647 -0.005590 0.000000 -0.002822 0.000000
# 3 -0.001326 -0.005590 0.009376 0.000000 0.000954 0.000000
# 4 0.000000 0.000000 0.000000 0.018598 0.000000 -0.001211
# 5 -0.000476 -0.002822 0.000954 0.000000 0.022410 0.000000
# 6 0.000000 0.000000 0.000000 -0.001211 0.000000 0.021423
#
#
# Mechanical properties :
#
#
# Convention : Reuss Voigt Hill
#
# Bulk Modulus (GPa) = 63.65416 68.00493 65.82954
# Shear Modulus (GPa) = 43.22112 46.74455 44.98283
#
# Velocity S-wave (km/s) = 4.01872 4.17932 4.09980
# Velocity P-wave (km/s) = 6.73191 6.97852 6.85633
#
# Compressibility (1/GPa) = 0.01570989
#
# Stress axis : x y z
#
# Youngs Moduli (GPa) = 127.54374 68.27526 106.65770
#
# Poissons Ratio (x) = 0.07922 0.14144
# Poissons Ratio (y) = 0.14800 0.59621
# Poissons Ratio (z) = 0.16914 0.38166
#
# Static dielectric constant tensor:
#      x y z
#    x 2.055630 0.000000 0.041000 
#    y 0.000000 2.163120 0.000000 
#    z 0.041000 0.000000 2.306310 
# 
# From -- ./inp_files/4164.got.cif
#   From: 2010.05.17/outbox.cif.g08.bks.cpg/sg9_3_cif.got.tgz:4164.got - 2010.06.03 20:04:27.
