data_PCOD9141205
_publ_section_title
;
Structure prediction by ZEFSAII (Michael W. Deem and Ramdas Pophale) SiO2 
 PCOD9141205
Probable space group: C C
;
_chemical_formula_sum "Si O2"
_cell_formula_units_Z 32
_cell_length_a 5.898825
_cell_length_b 20.892663
_cell_length_c 10.730486
_cell_angle_alpha 90.000000
_cell_angle_beta 95.424878
_cell_angle_gamma 90.000000
_cell_volume 1316.525068
_symmetry_space_group_name_H-M "C C"
_symmetry_group_IT_number 9
_symmetry_cell_setting 'monoclinic'
loop_
_space_group_symop_operation_xyz
x,y,z
x,-y,1/2+z
1/2+x,1/2+y,z
1/2+x,1/2-y,1/2+z
loop_
_atom_site_type_symbol
_atom_site_label
_atom_site_fract_x
_atom_site_fract_y
_atom_site_fract_z
Si Si1 0.425790 0.518242 0.018070
Si Si2 0.495428 0.652777 0.918351
Si Si3 0.760974 0.721753 0.456454
Si Si4 0.343783 0.772270 0.266515
Si Si5 0.116619 0.620186 0.691025
Si Si6 0.465180 0.387287 0.990481
Si Si7 0.630356 0.987202 0.754026
Si Si8 0.098485 0.350364 0.788773
O O1 0.585587 0.455822 0.008048
O O2 0.315001 0.517430 0.150119
O O3 0.531642 0.587574 0.996354
O O4 0.241561 0.502150 0.896644
O O5 0.398841 0.712871 0.992029
O O6 0.708360 0.680253 0.852722
O O7 0.303237 0.634055 0.807438
O O8 0.557998 0.745509 0.354004
O O9 0.609976 0.674066 0.532254
O O10 0.929943 0.677185 0.384191
O O11 0.468234 0.816463 0.172323
O O12 0.171874 0.714585 0.220216
O O13 0.255737 0.610012 0.573724
O O14 0.996197 0.553333 0.719420
O O15 0.343091 0.374762 0.853012
O O16 0.502657 0.918751 0.738100
#
# Coordination Sequence:
#
# PCOD9141205 Si02
#       8
#     4   4   4   4   4   4   4   4
#     4   9  18  35  58  85 117 153 196 247 296 353
#     4   9  18  34  53  77 111 149 189 242 295 340
#     4   9  18  34  52  76 113 148 193 239 292 356
#     4   9  18  34  52  76 113 148 193 239 292 356
#     4   9  18  33  54  78 108 147 190 235 290 356
#     4   9  18  33  54  78 108 147 190 235 290 356
#     4   9  18  35  58  85 117 153 196 247 296 353
#     4   9  18  34  53  77 111 149 189 242 295 340
#
# _framework density 24.306411000000001
#
# number of rings (size 3 to 8) (size 9 to 14) (size 15 to 20)
#    0.000    3.000    0.000    0.000    0.000    2.000 
#   13.500    0.000    0.000   15.000    0.000    0.000 
#    0.000    0.000    0.000    0.000    0.000    0.000 
#
# Total GULP energy -89093.285776 kJ/mol
# GULP energy per Si atom -5568.330361 kJ/mol
# Density = 2.425109 g / cm^3
# Si number density = 24.306411 Si / 1000 Ang^3
#
#
#
# Elastic Constant Matrix: (Units=GPa)
#
#
# Indices 1 2 3 4 5 6 
#
# 1 39.1181 25.8556 2.3663 0.0000 4.2411 0.0000
# 2 25.8556 244.2388 15.4541 0.0000 -24.0075 0.0000
# 3 2.3663 15.4541 69.3144 0.0000 -11.7264 0.0000
# 4 0.0000 0.0000 0.0000 26.2778 0.0000 -21.3357
# 5 4.2411 -24.0075 -11.7264 0.0000 37.8754 0.0000
# 6 0.0000 0.0000 0.0000 -21.3357 0.0000 16.4726
#
#
#
# Elastic Compliance Matrix: (Units=1/GPa)
#
#
# Indices 1 2 3 4 5 6 
#
# 1 0.028591 -0.003522 -0.001171 0.000000 -0.005797 0.000000
# 2 -0.003522 0.004819 -0.000391 0.000000 0.003328 0.000000
# 3 -0.001171 -0.000391 0.015338 0.000000 0.004632 0.000000
# 4 0.000000 0.000000 0.000000 -0.737129 0.000000 -0.954746
# 5 -0.005797 0.003328 0.004632 0.000000 0.030595 0.000000
# 6 0.000000 0.000000 0.000000 -0.954746 0.000000 -1.175901
#
#
# Mechanical properties :
#
#
# Convention : Reuss Voigt Hill
#
# Bulk Modulus (GPa) = 25.92146 48.89147 37.40647
# Shear Modulus (GPa) = -2.76143 36.72486 16.98172
#
# Velocity S-wave (km/s) = -1.06703 3.89126 2.64607
# Velocity P-wave (km/s) = 3.02812 6.35197 4.97580
#
# Compressibility (1/GPa) = 0.03857807
#
# Stress axis : x y z
#
# Youngs Moduli (GPa) = 34.97584 207.50705 65.19832
#
# Poissons Ratio (x) = 0.73092 0.07637
# Poissons Ratio (y) = 0.12320 0.02551
# Poissons Ratio (z) = 0.04097 0.08118
#
# Static dielectric constant tensor:
#      x y z
#    x 1.909740 0.000000 -0.005410 
#    y 0.000000 2.066050 0.000000 
#    z -0.005410 0.000000 2.031490 
# 
# From -- ./inp_files/13495.got.cif
#   From: 2010.05.17/outbox.cif.g08.bks.cpg/sg9_7_cif.got.tgz:13495.got - 2010.06.03 20:04:27.
