data_PCOD9141849
_publ_section_title
;
Structure prediction by ZEFSAII (Michael W. Deem and Ramdas Pophale) SiO2 
 PCOD9141849
Probable space group: P 2/M
;
_chemical_formula_sum "Si O2"
_cell_formula_units_Z 30
_cell_length_a 12.419715
_cell_length_b 8.412942
_cell_length_c 18.415764
_cell_angle_alpha 90.000000
_cell_angle_beta 58.078951
_cell_angle_gamma 90.000000
_cell_volume 1633.214105
_symmetry_space_group_name_H-M "P 2/M"
_symmetry_group_IT_number 10
_symmetry_cell_setting 'monoclinic'
loop_
_space_group_symop_operation_xyz
x,y,z
-x,y,-z
-x,-y,-z
x,-y,z
loop_
_atom_site_type_symbol
_atom_site_label
_atom_site_fract_x
_atom_site_fract_y
_atom_site_fract_z
Si Si1 0.224568 0.185427 0.876080
Si Si2 0.344327 0.312467 0.185837
Si Si3 0.839822 0.309883 0.254797
Si Si4 0.775190 0.676208 0.966472
Si Si5 0.560039 0.307144 0.404111
Si Si6 0.901775 0.817371 0.786464
Si Si7 0.500000 0.738485 0.000000
Si Si8 0.504567 0.310012 0.266458
O O1 0.151577 0.246193 0.830834
O O2 0.372084 0.216879 0.804591
O O3 0.200157 0.000000 0.896134
O O4 0.201971 0.278882 0.958639
O O5 0.371327 0.500000 0.157965
O O6 0.196797 0.279857 0.227495
O O7 0.421743 0.205412 0.099570
O O8 0.393329 0.282550 0.248980
O O9 0.839149 0.500000 0.251943
O O10 0.704685 0.256465 0.336376
O O11 0.957249 0.249575 0.259559
O O12 0.825809 0.500000 0.932876
O O13 0.843583 0.796705 0.888110
O O14 0.625078 0.673348 0.998886
O O15 0.500000 0.245793 0.500000
O O16 0.562746 0.500000 0.408160
O O17 0.482567 0.268430 0.358324
O O18 0.901352 0.000000 0.765110
O O19 0.535458 0.500000 0.252798
#
# Coordination Sequence:
#
# PCOD9141849 Si02
#       8
#     4   4   4   4   4   4   2   4
#     4  11  21  32  49  76 106 136 172 222 269 303
#     4  10  18  31  50  73 101 141 184 217 255 306
#     4  10  20  37  57  75 100 138 174 206 256 322
#     4  11  20  34  51  71  99 139 185 221 260 307
#     4   8  15  30  57  89 109 123 157 215 269 310
#     4  11  23  36  49  73 104 137 177 221 263 302
#     4  10  17  28  49  70  97 134 179 224 251 290
#     4   9  17  31  52  77 107 140 174 212 261 317
#
# _framework density 18.368689
#
# number of rings (size 3 to 8) (size 9 to 14) (size 15 to 20)
#    0.000    2.000    1.333    6.000    0.000    1.067 
#    0.000    4.333    0.000   10.800    0.000    5.600 
#    0.000    0.000    0.000    0.000    0.000    0.000 
#
# Total GULP energy -167115.131525 kJ/mol
# GULP energy per Si atom -5570.504384 kJ/mol
# Density = 1.832688 g / cm^3
# Si number density = 18.368689 Si / 1000 Ang^3
#
#
#
# Elastic Constant Matrix: (Units=GPa)
#
#
# Indices 1 2 3 4 5 6 
#
# 1 126.8138 13.5504 45.9809 0.0000 8.3562 0.0000
# 2 13.5504 41.6639 3.6461 0.0000 1.9651 0.0000
# 3 45.9809 3.6461 68.4333 0.0000 14.1629 0.0000
# 4 0.0000 0.0000 0.0000 -49.2207 0.0000 -27.6349
# 5 8.3562 1.9651 14.1629 0.0000 18.5214 0.0000
# 6 0.0000 0.0000 0.0000 -27.6349 0.0000 -10.8415
#
#
#
# Elastic Compliance Matrix: (Units=1/GPa)
#
#
# Indices 1 2 3 4 5 6 
#
# 1 0.010775 -0.002914 -0.007297 0.000000 0.001028 0.000000
# 2 -0.002914 0.024957 0.001074 0.000000 -0.002155 0.000000
# 3 -0.007297 0.001074 0.022336 0.000000 -0.013901 0.000000
# 4 0.000000 0.000000 0.000000 0.047123 0.000000 -0.120118
# 5 0.001028 -0.002155 -0.013901 0.000000 0.064387 0.000000
# 6 0.000000 0.000000 0.000000 -0.120118 0.000000 0.213942
#
#
# Mechanical properties :
#
#
# Convention : Reuss Voigt Hill
#
# Bulk Modulus (GPa) = 25.12992 40.36288 32.74640
# Shear Modulus (GPa) = 12.04648 3.27408 7.66028
#
# Velocity S-wave (km/s) = 2.56367 1.33652 2.04434
# Velocity P-wave (km/s) = 4.74065 4.93996 4.84133
#
# Compressibility (1/GPa) = 0.03979320
#
# Stress axis : x y z
#
# Youngs Moduli (GPa) = 92.80590 40.06891 44.77140
#
# Poissons Ratio (x) = 0.11677 0.32672
# Poissons Ratio (y) = 0.27047 -0.04810
# Poissons Ratio (z) = 0.67724 -0.04305
#
# Static dielectric constant tensor:
#      x y z
#    x 1.649720 0.000000 0.002420 
#    y 0.000000 1.642750 0.000000 
#    z 0.002420 0.000000 1.620140 
# 
# From -- ./inp_files/76211.got.cif
#   From: 2010.05.17/outbox.cif.g08.bks.cpg/sg10_39_cif.got.tgz:76211.got - 2010.06.03 11:33:40.
