data_PCOD9141201
_publ_section_title
;
Structure prediction by ZEFSAII (Michael W. Deem and Ramdas Pophale) SiO2 
 PCOD9141201
Probable space group: C C
;
_chemical_formula_sum "Si O2"
_cell_formula_units_Z 16
_cell_length_a 5.354834
_cell_length_b 13.617845
_cell_length_c 12.101932
_cell_angle_alpha 90.000000
_cell_angle_beta 41.433007
_cell_angle_gamma 90.000000
_cell_volume 583.981435
_symmetry_space_group_name_H-M "C C"
_symmetry_group_IT_number 9
_symmetry_cell_setting 'monoclinic'
loop_
_space_group_symop_operation_xyz
x,y,z
x,-y,1/2+z
1/2+x,1/2+y,z
1/2+x,1/2-y,1/2+z
loop_
_atom_site_type_symbol
_atom_site_label
_atom_site_fract_x
_atom_site_fract_y
_atom_site_fract_z
Si Si1 0.783430 0.823183 0.893300
Si Si2 0.014150 0.533665 0.925772
Si Si3 0.433438 0.377485 0.472926
Si Si4 0.710454 0.846593 0.157512
O O1 0.459516 0.736812 0.000017
O O2 0.115868 0.765373 0.721695
O O3 0.623127 0.920275 0.891727
O O4 0.922084 0.847069 0.971754
O O5 0.092578 0.575313 0.021541
O O6 0.265728 0.596545 0.754182
O O7 0.595253 0.558680 0.020297
O O8 0.787117 0.386521 0.269847
#
# Coordination Sequence:
#
# PCOD9141201 Si02
#       4
#     4   4   4   4
#     4   9  19  41  58  84 121 149 188 247 279 342
#     4   9  19  40  55  85 114 153 188 235 282 343
#     4   8  21  38  55  90 109 150 198 223 292 340
#     4   8  21  39  56  91 110 154 194 231 291 345
#
# _framework density 27.398132
#
# number of rings (size 3 to 8) (size 9 to 14) (size 15 to 20)
#    3.000    0.000    0.000    0.000    0.000    6.000 
#   22.500    0.000    0.000    0.000    0.000    0.000 
#    0.000    0.000    0.000    0.000    0.000    0.000 
#
# Total GULP energy -44612.927491 kJ/mol
# GULP energy per Si atom -5576.615936 kJ/mol
# Density = 2.733577 g / cm^3
# Si number density = 27.398132 Si / 1000 Ang^3
#
#
#
# Elastic Constant Matrix: (Units=GPa)
#
#
# Indices 1 2 3 4 5 6 
#
# 1 182.4302 93.4995 36.1361 -0.0038 57.6926 0.0030
# 2 93.4995 259.0689 28.5518 -0.0005 36.6985 0.0000
# 3 36.1361 28.5518 60.3018 -0.0055 24.2312 0.0048
# 4 -0.0038 -0.0005 -0.0055 39.1619 0.0035 16.5976
# 5 57.6926 36.6985 24.2312 0.0035 38.3619 -0.0027
# 6 0.0030 0.0000 0.0048 16.5976 -0.0027 37.9387
#
#
#
# Elastic Compliance Matrix: (Units=1/GPa)
#
#
# Indices 1 2 3 4 5 6 
#
# 1 0.011226 -0.001928 0.000306 0.000004 -0.015232 -0.000004
# 2 -0.001928 0.004809 -0.000587 0.000000 -0.001331 0.000000
# 3 0.000306 -0.000587 0.022296 0.000007 -0.013982 -0.000007
# 4 0.000004 0.000000 0.000007 0.031347 -0.000014 -0.013714
# 5 -0.015232 -0.001331 -0.013982 -0.000014 0.059080 0.000013
# 6 -0.000004 0.000000 -0.000007 -0.013714 0.000013 0.032358
#
#
# Mechanical properties :
#
#
# Convention : Reuss Voigt Hill
#
# Bulk Modulus (GPa) = 29.48619 90.90842 60.19730
# Shear Modulus (GPa) = 28.27454 46.00008 37.13731
#
# Velocity S-wave (km/s) = 3.21594 4.10194 3.68566
# Velocity P-wave (km/s) = 4.95734 7.46238 6.33492
#
# Compressibility (1/GPa) = 0.03391419
#
# Stress axis : x y z
#
# Youngs Moduli (GPa) = 89.08017 207.95070 44.85051
#
# Poissons Ratio (x) = 0.40083 -0.01374
# Poissons Ratio (y) = 0.17170 0.02633
# Poissons Ratio (z) = -0.02728 0.12209
#
# Static dielectric constant tensor:
#      x y z
#    x 2.244730 0.000000 -0.173170 
#    y 0.000000 2.148170 0.000000 
#    z -0.173170 0.000000 2.169530 
# 
# From -- ./inp_files/3538.got.cif
#   From: 2010.05.17/outbox.cif.g08.bks.cpg/sg9_2_cif.got.tgz:3538.got - 2010.06.03 20:04:27.
