data_PCOD9141182
_publ_section_title
;
Structure prediction by ZEFSAII (Michael W. Deem and Ramdas Pophale) SiO2 
 PCOD9141182
Probable space group: C C
;
_chemical_formula_sum "Si O2"
_cell_formula_units_Z 20
_cell_length_a 13.653986
_cell_length_b 6.783552
_cell_length_c 20.018571
_cell_angle_alpha 90.000000
_cell_angle_beta 156.850274
_cell_angle_gamma 90.000000
_cell_volume 728.939841
_symmetry_space_group_name_H-M "C C"
_symmetry_group_IT_number 9
_symmetry_cell_setting 'monoclinic'
loop_
_space_group_symop_operation_xyz
x,y,z
x,-y,1/2+z
1/2+x,1/2+y,z
1/2+x,1/2-y,1/2+z
loop_
_atom_site_type_symbol
_atom_site_label
_atom_site_fract_x
_atom_site_fract_y
_atom_site_fract_z
Si Si1 0.696540 0.083266 0.736850
Si Si2 0.524729 0.247767 0.234681
Si Si3 0.169510 0.976701 0.949530
Si Si4 0.610037 0.981658 0.408517
Si Si5 0.380097 0.976704 0.907424
O O1 0.474114 0.961636 0.639084
O O2 0.568947 0.089963 0.583973
O O3 0.715417 0.279788 0.792883
O O4 0.981725 0.024426 0.893841
O O5 0.547954 0.424907 0.308960
O O6 0.486136 0.072196 0.265385
O O7 0.798232 0.301616 0.376774
O O8 0.331680 0.370459 0.066285
O O9 0.176048 0.744922 0.941197
O O10 0.450711 0.991903 0.375082
#
# Coordination Sequence:
#
# PCOD9141182 Si02
#       5
#     4   4   4   4   4
#     4  12  29  50  90 121 183 227 305 358 457 521
#     4  12  28  53  89 127 176 231 303 361 457 528
#     4  12  29  54  86 131 171 238 291 378 437 541
#     4  12  28  52  87 123 181 232 295 374 444 538
#     4  12  28  53  84 130 175 240 288 379 441 544
#
# _framework density 27.437106
#
# number of rings (size 3 to 8) (size 9 to 14) (size 15 to 20)
#    0.000    0.000    4.000    3.600    8.400    0.000 
#    0.000    0.000    0.000    0.000    0.000    0.000 
#    0.000    0.000    0.000    0.000    0.000    0.000 
#
# Total GULP energy -55729.365472 kJ/mol
# GULP energy per Si atom -5572.936547 kJ/mol
# Density = 2.737466 g / cm^3
# Si number density = 27.437106 Si / 1000 Ang^3
#
#
#
# Elastic Constant Matrix: (Units=GPa)
#
#
# Indices 1 2 3 4 5 6 
#
# 1 184.0032 71.9516 63.5889 0.0001 -25.4411 0.0001
# 2 71.9516 215.1503 74.7386 -0.0025 13.0849 0.0006
# 3 63.5889 74.7386 174.2335 0.0031 -21.8055 0.0018
# 4 0.0001 -0.0025 0.0031 37.4574 0.0018 -0.4687
# 5 -25.4411 13.0849 -21.8055 0.0018 51.2732 -0.0004
# 6 0.0001 0.0006 0.0018 -0.4687 -0.0004 60.0315
#
#
#
# Elastic Compliance Matrix: (Units=1/GPa)
#
#
# Indices 1 2 3 4 5 6 
#
# 1 0.007226 -0.002207 -0.001237 0.000000 0.003623 0.000000
# 2 -0.002207 0.006464 -0.002441 0.000001 -0.003783 0.000000
# 3 -0.001237 -0.002441 0.007646 -0.000001 0.003261 0.000000
# 4 0.000000 0.000001 -0.000001 0.026700 -0.000002 0.000208
# 5 0.003623 -0.003783 0.003261 -0.000002 0.023653 0.000000
# 6 0.000000 0.000000 0.000000 0.000208 0.000000 0.016660
#
#
# Mechanical properties :
#
#
# Convention : Reuss Voigt Hill
#
# Bulk Modulus (GPa) = 104.53484 110.43836 107.48660
# Shear Modulus (GPa) = 48.39957 53.95963 51.17960
#
# Velocity S-wave (km/s) = 4.20458 4.43952 4.32365
# Velocity P-wave (km/s) = 7.85836 8.16198 8.01161
#
# Compressibility (1/GPa) = 0.00956619
#
# Stress axis : x y z
#
# Youngs Moduli (GPa) = 138.38530 154.70480 130.78871
#
# Poissons Ratio (x) = 0.34146 0.16180
# Poissons Ratio (y) = 0.30544 0.31920
# Poissons Ratio (z) = 0.17120 0.37757
#
# Static dielectric constant tensor:
#      x y z
#    x 2.307720 0.000000 0.241370 
#    y 0.000000 2.029100 0.000000 
#    z 0.241370 0.000000 2.346280 
# 
# From -- ./inp_files/33687.got.cif
#   From: 2010.05.17/outbox.cif.g08.bks.cpg/sg9_17_cif.got.tgz:33687.got - 2010.06.03 20:04:27.
