data_PCOD9141198
_publ_section_title
;
Structure prediction by ZEFSAII (Michael W. Deem and Ramdas Pophale) SiO2 
 PCOD9141198
Probable space group: C C
;
_chemical_formula_sum "Si O2"
_cell_formula_units_Z 24
_cell_length_a 7.009103
_cell_length_b 15.604815
_cell_length_c 9.703114
_cell_angle_alpha 90.000000
_cell_angle_beta 76.227813
_cell_angle_gamma 90.000000
_cell_volume 1030.773423
_symmetry_space_group_name_H-M "C C"
_symmetry_group_IT_number 9
_symmetry_cell_setting 'monoclinic'
loop_
_space_group_symop_operation_xyz
x,y,z
x,-y,1/2+z
1/2+x,1/2+y,z
1/2+x,1/2-y,1/2+z
loop_
_atom_site_type_symbol
_atom_site_label
_atom_site_fract_x
_atom_site_fract_y
_atom_site_fract_z
Si Si1 0.830300 0.535730 0.315590
Si Si2 0.799782 0.218933 0.079624
Si Si3 0.887870 0.101244 0.664206
Si Si4 0.870712 0.399053 0.096520
Si Si5 0.913976 0.959565 0.456924
Si Si6 0.356104 0.218800 0.255650
O O1 0.931638 0.469118 0.197197
O O2 0.936666 0.570287 0.433867
O O3 0.640880 0.483255 0.396860
O O4 0.771468 0.623902 0.246901
O O5 0.912036 0.300197 0.125321
O O6 0.591514 0.208439 0.192078
O O7 0.894258 0.125483 0.052691
O O8 0.790914 0.250839 0.920215
O O9 0.128694 0.101903 0.629009
O O10 0.817107 0.198733 0.667927
O O11 0.831140 0.042140 0.547616
O O12 0.827755 0.061673 0.821813
#
# Coordination Sequence:
#
# PCOD9141198 Si02
#       6
#     4   4   4   4   4   4
#     4   9  16  29  49  71  95 127 162 199 240 287
#     4   9  17  31  51  73  97 130 165 196 238 297
#     4   8  15  28  48  70  93 123 160 197 236 282
#     4   8  15  28  48  70  93 123 160 197 236 282
#     4   9  16  29  49  71  95 127 162 199 240 287
#     4   9  17  31  51  73  97 130 165 196 238 297
#
# _framework density 23.283487000000001
#
# number of rings (size 3 to 8) (size 9 to 14) (size 15 to 20)
#    0.000    3.333    0.000    2.000    0.000    0.000 
#    0.000    8.333    0.000    6.000    0.000    0.000 
#    0.000    0.000    0.000    0.000    0.000    0.000 
#
# Total GULP energy -66881.531708 kJ/mol
# GULP energy per Si atom -5573.460976 kJ/mol
# Density = 2.323049 g / cm^3
# Si number density = 23.283487 Si / 1000 Ang^3
#
#
#
# Elastic Constant Matrix: (Units=GPa)
#
#
# Indices 1 2 3 4 5 6 
#
# 1 67.1152 -3.8904 18.6753 0.0000 -10.8252 0.0000
# 2 -3.8904 153.7966 42.0688 0.0000 8.9943 0.0000
# 3 18.6753 42.0688 101.7216 0.0000 -11.4648 0.0000
# 4 0.0000 0.0000 0.0000 55.3478 0.0000 -5.1224
# 5 -10.8252 8.9943 -11.4648 0.0000 18.3339 0.0000
# 6 0.0000 0.0000 0.0000 -5.1224 0.0000 12.7960
#
#
#
# Elastic Compliance Matrix: (Units=1/GPa)
#
#
# Indices 1 2 3 4 5 6 
#
# 1 0.016933 0.000620 -0.002445 0.000000 0.008165 0.000000
# 2 0.000620 0.008002 -0.004114 0.000000 -0.006132 0.000000
# 3 -0.002445 -0.004114 0.012959 0.000000 0.008679 0.000000
# 4 0.000000 0.000000 0.000000 0.018763 0.000000 0.007511
# 5 0.008165 -0.006132 0.008679 0.000000 0.067800 0.000000
# 6 0.000000 0.000000 0.000000 0.007511 0.000000 0.081156
#
#
# Mechanical properties :
#
#
# Convention : Reuss Voigt Hill
#
# Bulk Modulus (GPa) = 38.43903 48.48232 43.46067
# Shear Modulus (GPa) = 22.10788 35.01419 28.56104
#
# Velocity S-wave (km/s) = 3.08475 3.88212 3.50618
# Velocity P-wave (km/s) = 5.40672 6.40018 5.92431
#
# Compressibility (1/GPa) = 0.02601523
#
# Stress axis : x y z
#
# Youngs Moduli (GPa) = 59.05658 124.97217 77.16509
#
# Poissons Ratio (x) = -0.07742 0.18864
# Poissons Ratio (y) = -0.03659 0.31747
# Poissons Ratio (z) = 0.14437 0.51416
#
# Static dielectric constant tensor:
#      x y z
#    x 1.950770 0.000000 -0.007870 
#    y 0.000000 1.910690 0.000000 
#    z -0.007870 0.000000 1.906180 
# 
# From -- ./inp_files/4909.got.cif
#   From: 2010.05.17/outbox.cif.g08.bks.cpg/sg9_3_cif.got.tgz:4909.got - 2010.06.03 20:04:27.
