data_PCOD9141625
_publ_section_title
;
Structure prediction by ZEFSAII (Michael W. Deem and Ramdas Pophale) SiO2 
 PCOD9141625
Probable space group: P 2/M
;
_chemical_formula_sum "Si O2"
_cell_formula_units_Z 32
_cell_length_a 9.574657
_cell_length_b 13.857136
_cell_length_c 21.655726
_cell_angle_alpha 90.000000
_cell_angle_beta 46.158162
_cell_angle_gamma 90.000000
_cell_volume 2072.325940
_symmetry_space_group_name_H-M "P 2/M"
_symmetry_group_IT_number 10
_symmetry_cell_setting 'monoclinic'
loop_
_space_group_symop_operation_xyz
x,y,z
-x,y,-z
-x,-y,-z
x,-y,z
loop_
_atom_site_type_symbol
_atom_site_label
_atom_site_fract_x
_atom_site_fract_y
_atom_site_fract_z
Si Si1 0.170138 0.384582 0.994919
Si Si2 0.723817 0.704968 0.911848
Si Si3 0.384285 0.387120 0.180651
Si Si4 0.821288 0.109576 0.809216
Si Si5 0.122344 0.885019 0.552759
Si Si6 0.434840 0.114629 0.354847
Si Si7 0.721786 0.204348 0.713899
Si Si8 0.727081 0.888658 0.366636
O O1 0.154972 0.500000 0.008720
O O2 0.386321 0.367134 0.901425
O O3 0.160214 0.334468 0.064881
O O4 0.000000 0.354845 0.000000
O O5 0.727731 0.639372 0.848824
O O6 0.781337 0.812069 0.873691
O O7 0.500000 0.704590 0.000000
O O8 0.361944 0.500000 0.201496
O O9 0.307493 0.314197 0.256173
O O10 0.710474 0.143083 0.780956
O O11 0.049096 0.113550 0.722599
O O12 0.771796 0.000000 0.840699
O O13 0.233561 0.876609 0.454459
O O14 0.267527 0.855637 0.564124
O O15 0.931783 0.822257 0.621421
O O16 0.073966 0.000000 0.576214
O O17 0.425332 0.169942 0.293478
O O18 0.595872 0.154161 0.352985
O O19 0.464019 0.000000 0.333871
O O20 0.660597 0.000000 0.390139
#
# Coordination Sequence:
#
# PCOD9141625 Si02
#       8
#     4   4   4   4   4   4   4   4
#     4   9  17  30  49  70  87 103 131 177 223 252
#     4   9  17  29  47  67  85 111 144 172 203 248
#     4   9  18  32  47  63  85 110 136 171 213 255
#     4   9  17  29  42  59  89 121 144 169 201 243
#     4   9  16  27  42  61  87 114 140 173 209 246
#     4  10  17  25  41  64  87 111 141 176 210 244
#     4  10  18  27  42  63  85 109 140 174 211 247
#     4   8  15  26  39  58  85 116 144 170 205 245
#
# _framework density 15.441587
#
# number of rings (size 3 to 8) (size 9 to 14) (size 15 to 20)
#    0.000    2.875    0.000    3.000    0.000    5.250 
#    0.000    0.000    0.000    1.875    0.000    0.000 
#    0.000   10.000    0.000    0.000    0.000    0.000 
#
# Total GULP energy -178135.780528 kJ/mol
# GULP energy per Si atom -5566.743142 kJ/mol
# Density = 1.540644 g / cm^3
# Si number density = 15.441587 Si / 1000 Ang^3
#
#
#
# Elastic Constant Matrix: (Units=GPa)
#
#
# Indices 1 2 3 4 5 6 
#
# 1 107.0368 40.2257 30.8963 0.0000 27.9576 0.0000
# 2 40.2257 84.0341 33.8884 0.0000 15.1964 0.0000
# 3 30.8963 33.8884 40.9454 0.0000 22.9982 0.0000
# 4 0.0000 0.0000 0.0000 6.4981 0.0000 8.0941
# 5 27.9576 15.1964 22.9982 0.0000 20.0123 0.0000
# 6 0.0000 0.0000 0.0000 8.0941 0.0000 15.5716
#
#
#
# Elastic Compliance Matrix: (Units=1/GPa)
#
#
# Indices 1 2 3 4 5 6 
#
# 1 0.016622 -0.006287 0.008525 0.000000 -0.028244 0.000000
# 2 -0.006287 0.020927 -0.024213 0.000000 0.020717 0.000000
# 3 0.008525 -0.024213 0.097011 0.000000 -0.105009 0.000000
# 4 0.000000 0.000000 0.000000 0.436543 0.000000 -0.226916
# 5 -0.028244 0.020717 -0.105009 0.000000 0.194372 0.000000
# 6 0.000000 0.000000 0.000000 -0.226916 0.000000 0.182171
#
#
# Mechanical properties :
#
#
# Convention : Reuss Voigt Hill
#
# Bulk Modulus (GPa) = 11.03622 49.11523 30.07573
# Shear Modulus (GPa) = 4.89332 16.88345 10.88839
#
# Velocity S-wave (km/s) = 1.78208 3.31021 2.65832
# Velocity P-wave (km/s) = 3.37594 6.81808 5.37974
#
# Compressibility (1/GPa) = 0.09061071
#
# Stress axis : x y z
#
# Youngs Moduli (GPa) = 60.16219 47.78458 10.30808
#
# Poissons Ratio (x) = 0.30042 -0.08788
# Poissons Ratio (y) = 0.37823 0.24959
# Poissons Ratio (z) = -0.51289 1.15701
#
# Static dielectric constant tensor:
#      x y z
#    x 1.568780 0.000000 0.004640 
#    y 0.000000 1.495220 0.000000 
#    z 0.004640 0.000000 1.517780 
# 
# From -- ./inp_files/29050.got.cif
#   From: 2010.05.17/outbox.cif.g08.bks.cpg/sg10_15_cif.got.tgz:29050.got - 2010.06.03 11:33:40.
