data_PCOD9141946
_publ_section_title
;
Structure prediction by ZEFSAII (Michael W. Deem and Ramdas Pophale) SiO2 
 PCOD9141946
Probable space group: P 2/M
;
_chemical_formula_sum "Si O2"
_cell_formula_units_Z 32
_cell_length_a 12.186151
_cell_length_b 8.958868
_cell_length_c 29.632304
_cell_angle_alpha 90.000000
_cell_angle_beta 147.509554
_cell_angle_gamma 90.000000
_cell_volume 1737.752584
_symmetry_space_group_name_H-M "P 2/M"
_symmetry_group_IT_number 10
_symmetry_cell_setting 'monoclinic'
loop_
_space_group_symop_operation_xyz
x,y,z
-x,y,-z
-x,-y,-z
x,-y,z
loop_
_atom_site_type_symbol
_atom_site_label
_atom_site_fract_x
_atom_site_fract_y
_atom_site_fract_z
Si Si1 0.434177 0.179055 0.311214
Si Si2 0.787383 0.321971 0.191304
Si Si3 0.069964 0.326989 0.954665
Si Si4 0.007637 0.677275 0.831646
Si Si5 0.561352 0.824023 0.874749
Si Si6 0.572596 0.180518 0.454478
Si Si7 0.420506 0.324467 0.211956
Si Si8 0.170084 0.180688 0.372941
O O1 0.566170 0.229226 0.400399
O O2 0.492037 0.252067 0.283661
O O3 0.201732 0.229786 0.241280
O O4 0.441648 0.000000 0.310113
O O5 0.769496 0.500000 0.189077
O O6 0.852979 0.286482 0.162741
O O7 0.581018 0.245794 0.136140
O O8 0.968904 0.260592 0.285818
O O9 0.117346 0.500000 0.982194
O O10 0.113302 0.299826 0.916701
O O11 0.826933 0.306868 0.874917
O O12 0.207841 0.223202 0.033166
O O13 0.954287 0.500000 0.811094
O O14 0.500020 0.754147 0.805392
O O15 0.539780 0.000000 0.865691
O O16 0.358587 0.219022 0.404821
O O17 0.754113 0.227078 0.550864
O O18 0.577969 0.000000 0.456042
O O19 0.464555 0.500000 0.226645
O O20 0.144316 0.000000 0.362897
#
# Coordination Sequence:
#
# PCOD9141946 Si02
#       8
#     4   4   4   4   4   4   4   4
#     4  10  17  29  53  83 110 138 173 217 261 304
#     4  11  22  36  53  75 108 146 180 216 260 314
#     4   9  19  37  58  78 103 135 170 215 267 316
#     4   9  19  34  52  76 107 143 176 209 261 317
#     4  12  25  38  54  77 102 136 180 223 265 312
#     4   8  15  27  50  80 111 142 172 209 259 309
#     4  10  21  38  58  79 105 138 173 216 267 315
#     4   9  16  31  51  76 109 145 178 210 252 308
#
# _framework density 18.41459
#
# number of rings (size 3 to 8) (size 9 to 14) (size 15 to 20)
#    0.000    2.250    1.250    4.125    0.000    5.000 
#    0.000    5.000    0.000    0.750    0.000    5.250 
#    0.000    0.000    0.000    0.000    0.000    0.000 
#
# Total GULP energy -178568.808238 kJ/mol
# GULP energy per Si atom -5580.275257 kJ/mol
# Density = 1.837268 g / cm^3
# Si number density = 18.414590 Si / 1000 Ang^3
#
#
#
# Elastic Constant Matrix: (Units=GPa)
#
#
# Indices 1 2 3 4 5 6 
#
# 1 72.2168 35.0269 9.5845 0.0000 -24.7691 0.0000
# 2 35.0269 58.7655 15.4472 0.0000 -13.6544 0.0000
# 3 9.5845 15.4472 31.7418 0.0000 -19.3326 0.0000
# 4 0.0000 0.0000 0.0000 30.0168 0.0000 -7.1323
# 5 -24.7691 -13.6544 -19.3326 0.0000 27.1466 0.0000
# 6 0.0000 0.0000 0.0000 -7.1323 0.0000 31.9259
#
#
#
# Elastic Compliance Matrix: (Units=1/GPa)
#
#
# Indices 1 2 3 4 5 6 
#
# 1 0.029947 -0.015030 0.018206 0.000000 0.032730 0.000000
# 2 -0.015030 0.027514 -0.015497 0.000000 -0.010911 0.000000
# 3 0.018206 -0.015497 0.068729 0.000000 0.057763 0.000000
# 4 0.000000 0.000000 0.000000 0.035182 0.000000 0.007860
# 5 0.032730 -0.010911 0.057763 0.000000 0.102349 0.000000
# 6 0.000000 0.000000 0.000000 0.007860 0.000000 0.033078
#
#
# Mechanical properties :
#
#
# Convention : Reuss Voigt Hill
#
# Bulk Modulus (GPa) = 9.84748 31.42680 20.63714
# Shear Modulus (GPa) = 14.07299 24.66222 19.36760
#
# Velocity S-wave (km/s) = 2.76747 3.66358 3.24659
# Velocity P-wave (km/s) = 3.94603 5.91600 5.02843
#
# Compressibility (1/GPa) = 0.10154883
#
# Stress axis : x y z
#
# Youngs Moduli (GPa) = 33.39261 36.34532 14.54981
#
# Poissons Ratio (x) = 0.54629 -0.26490
# Poissons Ratio (y) = 0.50191 0.22547
# Poissons Ratio (z) = -0.60796 0.56323
#
# Static dielectric constant tensor:
#      x y z
#    x 1.657180 0.000000 -0.018820 
#    y 0.000000 1.612720 0.000000 
#    z -0.018820 0.000000 1.634510 
# 
# From -- ./inp_files/58194.got.cif
#   From: 2010.05.17/outbox.cif.g08.bks.cpg/sg10_30_cif.got.tgz:58194.got - 2010.06.03 11:33:40.
