data_PCOD9141154
_publ_section_title
;
Structure prediction by ZEFSAII (Michael W. Deem and Ramdas Pophale) SiO2 
 PCOD9141154
Probable space group: C C
;
_chemical_formula_sum "Si O2"
_cell_formula_units_Z 32
_cell_length_a 23.692342
_cell_length_b 12.820242
_cell_length_c 9.390091
_cell_angle_alpha 90.000000
_cell_angle_beta 153.408038
_cell_angle_gamma 90.000000
_cell_volume 1276.723160
_symmetry_space_group_name_H-M "C C"
_symmetry_group_IT_number 9
_symmetry_cell_setting 'monoclinic'
loop_
_space_group_symop_operation_xyz
x,y,z
x,-y,1/2+z
1/2+x,1/2+y,z
1/2+x,1/2-y,1/2+z
loop_
_atom_site_type_symbol
_atom_site_label
_atom_site_fract_x
_atom_site_fract_y
_atom_site_fract_z
Si Si1 0.908440 0.674996 0.272780
Si Si2 0.675156 0.371143 0.139214
Si Si3 0.398738 0.284617 0.540845
Si Si4 0.603637 0.997745 0.626363
Si Si5 0.779731 0.989744 0.759387
Si Si6 0.962846 0.318407 0.459927
Si Si7 0.017293 0.162194 0.836973
Si Si8 0.729505 0.547865 0.466705
O O1 0.884695 0.698213 0.386159
O O2 0.004986 0.767659 0.449800
O O3 0.983846 0.572998 0.384792
O O4 0.792981 0.707013 0.904505
O O5 0.729508 0.433698 0.399066
O O6 0.544138 0.319882 0.873058
O O7 0.665326 0.439248 0.974929
O O8 0.320437 0.389407 0.338731
O O9 0.379191 0.240959 0.653978
O O10 0.660733 0.983138 0.598702
O O11 0.566837 0.885845 0.610246
O O12 0.721578 0.045035 0.978636
O O13 0.903994 0.922720 0.076146
O O14 0.014238 0.238039 0.692815
O O15 0.866827 0.405036 0.302744
O O16 0.148229 0.104842 0.161749
#
# Coordination Sequence:
#
# PCOD9141154 Si02
#       8
#     4   4   4   4   4   4   4   4
#     4  12  27  49  76 106 152 199 252 310 381 451
#     4  12  28  50  77 107 151 199 258 314 375 449
#     4  12  29  47  77 112 148 201 252 308 383 451
#     4  12  28  48  73 109 153 193 247 310 379 451
#     4  12  28  48  73 109 153 193 247 310 379 451
#     4  12  29  47  77 112 148 201 252 308 383 451
#     4  12  27  49  76 106 152 199 252 310 381 451
#     4  12  28  50  77 107 151 199 258 314 375 449
#
# _framework density 25.064166
#
# number of rings (size 3 to 8) (size 9 to 14) (size 15 to 20)
#    0.000    0.000    5.000    3.000   14.000    0.000 
#    0.000    0.000    0.000    0.000    0.000    0.000 
#    0.000    0.000    0.000    0.000    0.000    0.000 
#
# Total GULP energy -89477.302116 kJ/mol
# GULP energy per Si atom -5592.331382 kJ/mol
# Density = 2.500712 g / cm^3
# Si number density = 25.064166 Si / 1000 Ang^3
#
#
#
# Elastic Constant Matrix: (Units=GPa)
#
#
# Indices 1 2 3 4 5 6 
#
# 1 69.5317 27.8516 1.4458 0.0000 -17.1213 0.0000
# 2 27.8516 46.5345 4.7043 0.0000 -3.7207 0.0000
# 3 1.4458 4.7043 82.8767 0.0000 -2.6435 0.0000
# 4 0.0000 0.0000 0.0000 53.0233 0.0000 -10.4076
# 5 -17.1213 -3.7207 -2.6435 0.0000 45.2783 0.0000
# 6 0.0000 0.0000 0.0000 -10.4076 0.0000 20.8217
#
#
#
# Elastic Compliance Matrix: (Units=1/GPa)
#
#
# Indices 1 2 3 4 5 6 
#
# 1 0.020887 -0.012001 0.000538 0.000000 0.006944 0.000000
# 2 -0.012001 0.028641 -0.001489 0.000000 -0.002271 0.000000
# 3 0.000538 -0.001489 0.012166 0.000000 0.000792 0.000000
# 4 0.000000 0.000000 0.000000 0.020911 0.000000 0.010452
# 5 0.006944 -0.002271 0.000792 0.000000 0.024571 0.000000
# 6 0.000000 0.000000 0.000000 0.010452 0.000000 0.053251
#
#
# Mechanical properties :
#
#
# Convention : Reuss Voigt Hill
#
# Bulk Modulus (GPa) = 27.93890 29.66071 28.79980
# Shear Modulus (GPa) = 25.21918 34.82073 30.01996
#
# Velocity S-wave (km/s) = 3.17548 3.73133 3.46457
# Velocity P-wave (km/s) = 4.96146 5.51573 5.24592
#
# Compressibility (1/GPa) = 0.03579240
#
# Stress axis : x y z
#
# Youngs Moduli (GPa) = 47.87553 34.91507 82.19302
#
# Poissons Ratio (x) = 0.41901 -0.04424
# Poissons Ratio (y) = 0.57454 0.12237
# Poissons Ratio (z) = -0.02577 0.05198
#
# Static dielectric constant tensor:
#      x y z
#    x 1.988810 0.000000 0.053030 
#    y 0.000000 2.189820 0.000000 
#    z 0.053030 0.000000 2.052140 
# 
# From -- ./inp_files/11799.got.cif
#   From: 2010.05.17/outbox.cif.g08.bks.cpg/sg9_6_cif.got.tgz:11799.got - 2010.06.03 20:04:27.
