data_PCOD9141648
_publ_section_title
;
Structure prediction by ZEFSAII (Michael W. Deem and Ramdas Pophale) SiO2 
 PCOD9141648
Probable space group: P 2/M
;
_chemical_formula_sum "Si O2"
_cell_formula_units_Z 28
_cell_length_a 8.113246
_cell_length_b 8.729356
_cell_length_c 26.894916
_cell_angle_alpha 90.000000
_cell_angle_beta 38.728948
_cell_angle_gamma 90.000000
_cell_volume 1191.706705
_symmetry_space_group_name_H-M "P 2/M"
_symmetry_group_IT_number 10
_symmetry_cell_setting 'monoclinic'
loop_
_space_group_symop_operation_xyz
x,y,z
-x,y,-z
-x,-y,-z
x,-y,z
loop_
_atom_site_type_symbol
_atom_site_label
_atom_site_fract_x
_atom_site_fract_y
_atom_site_fract_z
Si Si1 0.713505 0.819779 0.018252
Si Si2 0.672245 0.317907 0.691493
Si Si3 0.166630 0.681031 0.107786
Si Si4 0.455930 0.680197 0.842352
Si Si5 0.211865 0.816105 0.547199
Si Si6 0.584336 0.820666 0.604513
Si Si7 0.064467 0.675475 0.735124
O O1 0.418394 0.776179 0.068306
O O2 0.710092 0.765589 0.076194
O O3 0.758667 0.000000 0.004590
O O4 0.887814 0.732412 0.935766
O O5 0.651873 0.500000 0.698612
O O6 0.481300 0.258336 0.780205
O O7 0.622635 0.261961 0.647594
O O8 0.973156 0.267241 0.630190
O O9 0.232313 0.500000 0.092398
O O10 0.951337 0.700593 0.201350
O O11 0.381797 0.500000 0.860236
O O12 0.764118 0.688424 0.787496
O O13 0.500000 0.780659 0.500000
O O14 0.231871 0.771395 0.484297
O O15 0.172982 0.000000 0.559297
O O16 0.279180 0.788866 0.662357
O O17 0.627581 0.000000 0.601698
O O18 0.149490 0.500000 0.706023
#
# Coordination Sequence:
#
# PCOD9141648 Si02
#       7
#     4   4   4   4   4   4   4
#     4  10  17  25  44  75 106 137 176 221 267 317
#     4  11  23  38  58  81 107 142 182 221 261 313
#     4   9  16  28  46  70 105 143 176 219 271 316
#     4   9  19  35  53  76 106 140 178 222 272 319
#     4  10  22  40  60  83 111 141 174 215 266 319
#     4  11  23  37  55  79 110 145 176 214 267 320
#     4   9  18  33  54  78 104 137 180 224 264 312
#
# _framework density 23.495712999999999
#
# number of rings (size 3 to 8) (size 9 to 14) (size 15 to 20)
#    0.000    2.143    0.000    5.571    0.000    7.143 
#    0.000    0.000    0.000    0.857    0.000    6.000 
#    0.000    0.000    0.000    0.000    0.000    0.000 
#
# Total GULP energy -156576.325118 kJ/mol
# GULP energy per Si atom -5592.011611 kJ/mol
# Density = 2.344224 g / cm^3
# Si number density = 23.495713 Si / 1000 Ang^3
#
#
#
# Elastic Constant Matrix: (Units=GPa)
#
#
# Indices 1 2 3 4 5 6 
#
# 1 79.1721 7.5366 19.7012 0.0000 22.9585 0.0000
# 2 7.5366 45.6045 30.9734 0.0000 8.9732 0.0000
# 3 19.7012 30.9734 143.9825 0.0000 18.0276 0.0000
# 4 0.0000 0.0000 0.0000 30.6844 0.0000 2.0529
# 5 22.9585 8.9732 18.0276 0.0000 43.7800 0.0000
# 6 0.0000 0.0000 0.0000 2.0529 0.0000 25.0012
#
#
#
# Elastic Compliance Matrix: (Units=1/GPa)
#
#
# Indices 1 2 3 4 5 6 
#
# 1 0.015072 -0.000308 -0.001069 0.000000 -0.007400 0.000000
# 2 -0.000308 0.026105 -0.005191 0.000000 -0.003051 0.000000
# 3 -0.001069 -0.005191 0.008440 0.000000 -0.001851 0.000000
# 4 0.000000 0.000000 0.000000 0.032770 0.000000 -0.002691
# 5 -0.007400 -0.003051 -0.001851 0.000000 0.028110 0.000000
# 6 0.000000 0.000000 0.000000 -0.002691 0.000000 0.040219
#
#
# Mechanical properties :
#
#
# Convention : Reuss Voigt Hill
#
# Bulk Modulus (GPa) = 27.41336 42.79793 35.10564
# Shear Modulus (GPa) = 28.40689 33.92965 31.16827
#
# Velocity S-wave (km/s) = 3.48088 3.80423 3.64614
# Velocity P-wave (km/s) = 5.27712 6.12788 5.71835
#
# Compressibility (1/GPa) = 0.03647857
#
# Stress axis : x y z
#
# Youngs Moduli (GPa) = 66.34751 38.30710 118.48203
#
# Poissons Ratio (x) = 0.01181 0.12671
# Poissons Ratio (y) = 0.02046 0.61509
# Poissons Ratio (z) = 0.07095 0.19887
#
# Static dielectric constant tensor:
#      x y z
#    x 2.026740 0.000000 0.003700 
#    y 0.000000 1.771170 0.000000 
#    z 0.003700 0.000000 1.895760 
# 
# From -- ./inp_files/91958.got.cif
#   From: 2010.05.17/outbox.cif.g08.bks.cpg/sg10_46_cif.got.tgz:91958.got - 2010.06.03 11:33:40.
