data_PCOD9141673
_publ_section_title
;
Structure prediction by ZEFSAII (Michael W. Deem and Ramdas Pophale) SiO2 
 PCOD9141673
Probable space group: P 2/M
;
_chemical_formula_sum "Si O2"
_cell_formula_units_Z 26
_cell_length_a 5.010648
_cell_length_b 24.442465
_cell_length_c 11.704728
_cell_angle_alpha 90.000000
_cell_angle_beta 104.788971
_cell_angle_gamma 90.000000
_cell_volume 1386.019847
_symmetry_space_group_name_H-M "P 2/M"
_symmetry_group_IT_number 10
_symmetry_cell_setting 'monoclinic'
loop_
_space_group_symop_operation_xyz
x,y,z
-x,y,-z
-x,-y,-z
x,-y,z
loop_
_atom_site_type_symbol
_atom_site_label
_atom_site_fract_x
_atom_site_fract_y
_atom_site_fract_z
Si Si1 0.738098 0.279367 0.611621
Si Si2 0.684220 0.243546 0.266034
Si Si3 0.246204 0.609102 0.270907
Si Si4 0.330113 0.647663 0.867082
Si Si5 0.570657 0.939261 0.642074
Si Si6 0.927171 0.130772 0.356409
Si Si7 0.201232 0.500000 0.411730
O O1 0.500000 0.260734 0.500000
O O2 0.619487 0.250282 0.712975
O O3 0.719632 0.343901 0.629922
O O4 0.059023 0.267222 0.629706
O O5 0.682584 0.287183 0.162723
O O6 0.780764 0.180974 0.275705
O O7 0.512909 0.616208 0.219366
O O8 0.186347 0.552814 0.328171
O O9 0.981455 0.626078 0.166542
O O10 0.500000 0.638293 0.000000
O O11 0.500000 0.942770 0.500000
O O12 0.288450 0.918923 0.666324
O O13 0.798767 0.891826 0.673344
O O14 0.656835 0.000000 0.689350
O O15 0.000000 0.144148 0.500000
O O16 0.500000 0.500000 0.500000
O O17 0.000000 0.500000 0.500000
#
# Coordination Sequence:
#
# PCOD9141673 Si02
#       7
#     4   4   4   4   4   4   2
#     4  10  18  30  47  69 101 132 160 196 249 313
#     4  10  20  30  47  73  97 127 168 209 257 313
#     4  10  22  37  56  82 105 139 180 209 255 317
#     4  10  21  40  59  76 105 139 176 224 268 306
#     4   9  17  27  39  57  88 132 170 197 235 290
#     4  10  17  26  41  63  94 125 160 206 247 293
#     4  12  24  40  61  86 119 144 170 214 258 304
#
# _framework density 18.758749000000002
#
# number of rings (size 3 to 8) (size 9 to 14) (size 15 to 20)
#    0.000    2.000    0.000    4.615    0.000    5.538 
#    0.000    2.308    0.000    0.000    0.000    0.000 
#    0.000    3.692    0.000    0.000    0.000    0.000 
#
# Total GULP energy -144783.191026 kJ/mol
# GULP energy per Si atom -5568.584270 kJ/mol
# Density = 1.871605 g / cm^3
# Si number density = 18.758749 Si / 1000 Ang^3
#
#
#
# Elastic Constant Matrix: (Units=GPa)
#
#
# Indices 1 2 3 4 5 6 
#
# 1 80.5457 1.9870 -4.1423 0.0000 9.6653 0.0000
# 2 1.9870 108.7069 6.7722 0.0000 -5.3896 0.0000
# 3 -4.1423 6.7722 36.8912 0.0000 10.1308 0.0000
# 4 0.0000 0.0000 0.0000 7.5275 0.0000 14.7652
# 5 9.6653 -5.3896 10.1308 0.0000 17.7309 0.0000
# 6 0.0000 0.0000 0.0000 14.7652 0.0000 -5.4674
#
#
#
# Elastic Compliance Matrix: (Units=1/GPa)
#
#
# Indices 1 2 3 4 5 6 
#
# 1 0.013955 -0.001072 0.004676 0.000000 -0.010604 0.000000
# 2 -0.001072 0.009703 -0.003406 0.000000 0.005480 0.000000
# 3 0.004676 -0.003406 0.034683 0.000000 -0.023401 0.000000
# 4 0.000000 0.000000 0.000000 0.021096 0.000000 0.056972
# 5 -0.010604 0.005480 -0.023401 0.000000 0.077216 0.000000
# 6 0.000000 0.000000 0.000000 0.056972 0.000000 -0.029045
#
#
# Mechanical properties :
#
#
# Convention : Reuss Voigt Hill
#
# Bulk Modulus (GPa) = 17.02555 26.15307 21.58931
# Shear Modulus (GPa) = 34.06195 18.72665 26.39430
#
# Velocity S-wave (km/s) = 4.26583 3.16300 3.75512
# Velocity P-wave (km/s) = 5.77571 5.22604 5.50774
#
# Compressibility (1/GPa) = 0.05873524
#
# Stress axis : x y z
#
# Youngs Moduli (GPa) = 71.66042 103.06574 28.83224
#
# Poissons Ratio (x) = 0.11050 -0.13481
# Poissons Ratio (y) = 0.07683 0.09821
# Poissons Ratio (z) = -0.33507 0.35108
#
# Static dielectric constant tensor:
#      x y z
#    x 1.657730 0.000000 -0.015500 
#    y 0.000000 1.684820 0.000000 
#    z -0.015500 0.000000 1.649030 
# 
# From -- ./inp_files/39801.got.cif
#   From: 2010.05.17/outbox.cif.g08.bks.cpg/sg10_20_cif.got.tgz:39801.got - 2010.06.03 11:33:40.
