data_PCOD9141754
_publ_section_title
;
Structure prediction by ZEFSAII (Michael W. Deem and Ramdas Pophale) SiO2 
 PCOD9141754
Probable space group: P 2/M
;
_chemical_formula_sum "Si O2"
_cell_formula_units_Z 32
_cell_length_a 12.481347
_cell_length_b 7.623465
_cell_length_c 21.798761
_cell_angle_alpha 90.000000
_cell_angle_beta 52.417420
_cell_angle_gamma 90.000000
_cell_volume 1643.733137
_symmetry_space_group_name_H-M "P 2/M"
_symmetry_group_IT_number 10
_symmetry_cell_setting 'monoclinic'
loop_
_space_group_symop_operation_xyz
x,y,z
-x,y,-z
-x,-y,-z
x,-y,z
loop_
_atom_site_type_symbol
_atom_site_label
_atom_site_fract_x
_atom_site_fract_y
_atom_site_fract_z
Si Si1 0.491598 0.286050 0.162216
Si Si2 0.930881 0.784328 0.811219
Si Si3 0.204358 0.701029 0.954158
Si Si4 0.127555 0.712118 0.497407
Si Si5 0.061510 0.200127 0.884739
Si Si6 0.693490 0.296742 0.669207
Si Si7 0.631909 0.205450 0.921389
Si Si8 0.054605 0.794168 0.333848
O O1 0.491607 0.500000 0.162446
O O2 0.644148 0.227646 0.094944
O O3 0.429796 0.222220 0.248178
O O4 0.395277 0.223410 0.141331
O O5 0.038547 0.727642 0.824609
O O6 0.780388 0.723050 0.882882
O O7 0.954580 0.730144 0.732776
O O8 0.930888 0.000000 0.812500
O O9 0.204010 0.500000 0.975577
O O10 0.156744 0.704009 0.899862
O O11 0.088282 0.798451 0.032326
O O12 0.131656 0.500000 0.496325
O O13 0.256434 0.777455 0.413561
O O14 0.000000 0.766961 0.500000
O O15 0.084803 0.770459 0.579885
O O16 0.109200 0.000000 0.864662
O O17 0.660507 0.500000 0.669476
O O18 0.824187 0.291663 0.669145
O O19 0.636257 0.000000 0.936805
O O20 0.500000 0.285236 0.000000
O O21 0.087536 0.000000 0.320447
#
# Coordination Sequence:
#
# PCOD9141754 Si02
#       8
#     4   4   4   4   4   4   4   4
#     4  10  20  32  47  67  93 123 152 186 229 273
#     4   9  18  30  44  67  94 119 149 189 228 264
#     4  10  20  34  49  69  94 115 148 199 241 264
#     4   8  15  27  42  60  87 120 153 183 216 264
#     4  10  19  34  53  68  86 119 160 191 227 276
#     4   9  17  30  44  62  90 124 154 181 218 269
#     4  10  19  31  46  64  91 124 154 184 222 270
#     4  10  17  27  43  65  93 120 148 185 226 265
#
# _framework density 19.467880000000001
#
# number of rings (size 3 to 8) (size 9 to 14) (size 15 to 20)
#    0.000    2.500    1.250    3.375    0.000    4.500 
#    0.000    3.750    0.000    0.000    0.000    0.875 
#    0.000    7.000    0.000    0.000    0.000    0.000 
#
# Total GULP energy -178404.703776 kJ/mol
# GULP energy per Si atom -5575.146993 kJ/mol
# Density = 1.942357 g / cm^3
# Si number density = 19.467880 Si / 1000 Ang^3
#
#
#
# Elastic Constant Matrix: (Units=GPa)
#
#
# Indices 1 2 3 4 5 6 
#
# 1 40.7587 -8.1764 -10.4522 0.0000 14.0445 0.0000
# 2 -8.1764 43.2561 -5.1780 0.0000 -1.5913 0.0000
# 3 -10.4522 -5.1780 68.3995 0.0000 14.6363 0.0000
# 4 0.0000 0.0000 0.0000 17.4752 0.0000 3.2754
# 5 14.0445 -1.5913 14.6363 0.0000 22.6477 0.0000
# 6 0.0000 0.0000 0.0000 3.2754 0.0000 6.7802
#
#
#
# Elastic Compliance Matrix: (Units=1/GPa)
#
#
# Indices 1 2 3 4 5 6 
#
# 1 0.041898 0.008374 0.014472 0.000000 -0.034746 0.000000
# 2 0.008374 0.025010 0.004535 0.000000 -0.006366 0.000000
# 3 0.014472 0.004535 0.022080 0.000000 -0.022925 0.000000
# 4 0.000000 0.000000 0.000000 0.062921 0.000000 -0.030395
# 5 -0.034746 -0.006366 -0.022925 0.000000 0.080070 0.000000
# 6 0.000000 0.000000 0.000000 -0.030395 0.000000 0.162171
#
#
# Mechanical properties :
#
#
# Convention : Reuss Voigt Hill
#
# Bulk Modulus (GPa) = 6.95654 11.64458 9.30056
# Shear Modulus (GPa) = 12.90969 21.12868 17.01918
#
# Velocity S-wave (km/s) = 2.57792 3.29798 2.95993
# Velocity P-wave (km/s) = 3.52732 4.52732 4.05824
#
# Compressibility (1/GPa) = 0.14374963
#
# Stress axis : x y z
#
# Youngs Moduli (GPa) = 23.86728 39.98460 45.28905
#
# Poissons Ratio (x) = -0.33482 -0.65541
# Poissons Ratio (y) = -0.19986 -0.20540
# Poissons Ratio (z) = -0.34540 -0.18134
#
# Static dielectric constant tensor:
#      x y z
#    x 1.654070 0.000000 0.006620 
#    y 0.000000 1.713590 0.000000 
#    z 0.006620 0.000000 1.750660 
# 
# From -- ./inp_files/83368.got.cif
#   From: 2010.05.17/outbox.cif.g08.bks.cpg/sg10_42_cif.got.tgz:83368.got - 2010.06.03 11:33:40.
