data_PCOD9141079
_publ_section_title
;
Structure prediction by ZEFSAII (Michael W. Deem and Ramdas Pophale) SiO2 
 PCOD9141079
Probable space group: C C
;
_chemical_formula_sum "Si O2"
_cell_formula_units_Z 32
_cell_length_a 9.238271
_cell_length_b 11.610494
_cell_length_c 14.237718
_cell_angle_alpha 90.000000
_cell_angle_beta 56.712706
_cell_angle_gamma 90.000000
_cell_volume 1276.589369
_symmetry_space_group_name_H-M "C C"
_symmetry_group_IT_number 9
_symmetry_cell_setting 'monoclinic'
loop_
_space_group_symop_operation_xyz
x,y,z
x,-y,1/2+z
1/2+x,1/2+y,z
1/2+x,1/2-y,1/2+z
loop_
_atom_site_type_symbol
_atom_site_label
_atom_site_fract_x
_atom_site_fract_y
_atom_site_fract_z
Si Si1 0.574470 0.986896 0.532780
Si Si2 0.686482 0.835961 0.152375
Si Si3 0.561361 0.433937 0.049024
Si Si4 0.234049 0.961524 0.337324
Si Si5 0.818182 0.232925 0.969639
Si Si6 0.580606 0.987388 0.816575
Si Si7 0.202200 0.744902 0.229886
Si Si8 0.672924 0.425267 0.681982
O O1 0.719184 0.887657 0.488007
O O2 0.381854 0.936756 0.614932
O O3 0.619256 0.085643 0.590934
O O4 0.559726 0.033725 0.432838
O O5 0.639045 0.703284 0.161073
O O6 0.887298 0.869179 0.086624
O O7 0.631239 0.882170 0.275225
O O8 0.702086 0.337483 0.974139
O O9 0.589038 0.479108 0.144713
O O10 0.607712 0.546964 0.971162
O O11 0.281343 0.841543 0.269966
O O12 0.410633 0.016982 0.312518
O O13 0.125726 0.040505 0.304195
O O14 0.786562 0.257311 0.095020
O O15 0.998827 0.238030 0.843763
O O16 0.719010 0.892440 0.736651
#
# Coordination Sequence:
#
# PCOD9141079 Si02
#       8
#     4   4   4   4   4   4   4   4
#     4  12  26  49  76 112 164 207 264 329 399 476
#     4  12  29  48  77 114 154 207 270 324 401 475
#     4  12  27  48  76 117 155 208 271 324 402 475
#     4  12  26  48  77 113 156 211 266 328 399 475
#     4  12  25  51  82 112 160 215 261 331 403 472
#     4  12  28  47  76 116 158 212 264 328 401 474
#     4  12  27  50  81 114 159 211 264 329 399 473
#     4  12  26  49  77 110 158 203 264 333 396 470
#
# _framework density 25.066790000000001
#
# number of rings (size 3 to 8) (size 9 to 14) (size 15 to 20)
#    0.000    0.000    7.500    0.750    5.250    2.000 
#    2.250    0.000    0.000    0.000    0.000    0.000 
#    0.000    0.000    0.000    0.000    0.000    0.000 
#
# Total GULP energy -89267.654849 kJ/mol
# GULP energy per Si atom -5579.228428 kJ/mol
# Density = 2.500974 g / cm^3
# Si number density = 25.066790 Si / 1000 Ang^3
#
#
#
# Elastic Constant Matrix: (Units=GPa)
#
#
# Indices 1 2 3 4 5 6 
#
# 1 84.6172 40.8618 44.3953 0.0000 13.6172 0.0000
# 2 40.8618 134.0708 -0.8634 0.0000 7.7238 0.0000
# 3 44.3953 -0.8634 114.1386 0.0000 10.7651 0.0000
# 4 0.0000 0.0000 0.0000 31.3875 0.0000 -8.1875
# 5 13.6172 7.7238 10.7651 0.0000 31.2911 0.0000
# 6 0.0000 0.0000 0.0000 -8.1875 0.0000 32.8802
#
#
#
# Elastic Compliance Matrix: (Units=1/GPa)
#
#
# Indices 1 2 3 4 5 6 
#
# 1 0.018857 -0.005536 -0.006957 0.000000 -0.004446 0.000000
# 2 -0.005536 0.009198 0.002284 0.000000 -0.000647 0.000000
# 3 -0.006957 0.002284 0.011630 0.000000 -0.001537 0.000000
# 4 0.000000 0.000000 0.000000 0.034073 0.000000 0.008485
# 5 -0.004446 -0.000647 -0.001537 0.000000 0.034581 0.000000
# 6 0.000000 0.000000 0.000000 0.008485 0.000000 0.032526
#
#
# Mechanical properties :
#
#
# Convention : Reuss Voigt Hill
#
# Bulk Modulus (GPa) = 51.90449 55.73488 53.81969
# Shear Modulus (GPa) = 29.81429 35.67395 32.74412
#
# Velocity S-wave (km/s) = 3.45250 3.77657 3.61816
# Velocity P-wave (km/s) = 6.05347 6.42646 6.24275
#
# Compressibility (1/GPa) = 0.01926615
#
# Stress axis : x y z
#
# Youngs Moduli (GPa) = 53.03143 108.72037 85.98799
#
# Poissons Ratio (x) = 0.60185 0.59822
# Poissons Ratio (y) = 0.29357 -0.19638
# Poissons Ratio (z) = 0.36894 -0.24829
#
# Static dielectric constant tensor:
#      x y z
#    x 2.041340 0.000000 -0.079100 
#    y 0.000000 1.975470 0.000000 
#    z -0.079100 0.000000 2.097100 
# 
# From -- ./inp_files/22851.got.cif
#   From: 2010.05.17/outbox.cif.g08.bks.cpg/sg9_12_cif.got.tgz:22851.got - 2010.06.03 20:04:27.
