data_PCOD9141278
_publ_section_title
;
Structure prediction by ZEFSAII (Michael W. Deem and Ramdas Pophale) SiO2 
 PCOD9141278
Probable space group: C C
;
_chemical_formula_sum "Si O2"
_cell_formula_units_Z 16
_cell_length_a 9.000000
_cell_length_b 12.000000
_cell_length_c 15.000000
_cell_angle_alpha 90.000000
_cell_angle_beta 90.000000
_cell_angle_gamma 90.000000
_cell_volume 1620.000000
_symmetry_space_group_name_H-M "C C"
_symmetry_group_IT_number 9
_symmetry_cell_setting 'monoclinic'
loop_
_space_group_symop_operation_xyz
x,y,z
x,-y,1/2+z
1/2+x,1/2+y,z
1/2+x,1/2-y,1/2+z
loop_
_atom_site_type_symbol
_atom_site_label
_atom_site_fract_x
_atom_site_fract_y
_atom_site_fract_z
Si Si1 0.125000 0.873346 0.932590
Si Si2 0.624997 0.126644 0.984024
Si Si3 0.118690 0.983880 0.615992
Si Si4 0.806414 0.780179 0.864532
Si Si5 0.291358 0.032492 0.789242
Si Si6 0.618691 0.016131 0.300622
Si Si7 0.306408 0.780187 0.552079
Si Si8 0.791354 0.967498 0.127375
O O1 0.190566 0.749994 0.958306
O O2 0.962836 0.840375 0.891102
O O3 0.206676 0.954643 0.861874
O O4 0.120138 0.944641 0.024253
O O5 0.620136 0.055343 0.892364
O O6 0.462831 0.159617 0.025510
O O7 0.706673 0.045350 0.054742
O O8 0.203444 0.867421 0.602456
O O9 0.200131 0.042020 0.698296
O O10 0.947622 0.971370 0.642264
O O11 0.825536 0.659578 0.819518
O O12 0.703454 0.867411 0.814150
O O13 0.730080 0.750000 0.958305
O O14 0.447623 0.971354 0.774352
O O15 0.700123 0.957978 0.218321
O O16 0.325528 0.659590 0.597100
#
# Coordination Sequence:
#
# PCOD9141278 Si02
#       8
#     4   4   4   4   4   4   4   4
#     4  11  23  48  72  99 142 186 232 292 354 418
#     4  11  23  48  72  99 142 186 232 292 354 418
#     4  12  25  44  72 102 139 186 233 291 354 418
#     4  11  23  48  73  97 143 183 233 294 350 417
#     4  12  27  45  69 106 142 184 239 291 353 424
#     4  12  25  44  72 102 139 186 233 291 354 418
#     4  11  23  48  73  97 143 183 233 294 350 417
#     4  12  27  45  69 106 142 184 239 291 353 424
#
# _framework density 9.8765429999999999
#
# number of rings (size 3 to 8) (size 9 to 14) (size 15 to 20)
#    0.000    0.500    7.500    1.500    3.500    3.000 
#    4.500    0.000    0.000    0.000    0.000    0.000 
#    0.000    0.000    0.000    0.000    0.000    0.000 
#
# Total GULP energy -89309.204622 kJ/mol
# GULP energy per Si atom -5581.825289 kJ/mol
# Density = 0.985406 g / cm^3
# Si number density = 9.876543 Si / 1000 Ang^3
#
#
#
# Elastic Constant Matrix: (Units=GPa)
#
#
# Indices 1 2 3 4 5 6 
#
# 1 122.1712 52.2768 67.2434 0.0000 0.0038 0.0000
# 2 52.2768 126.5679 30.0429 0.0000 0.0023 0.0000
# 3 67.2434 30.0429 111.1371 0.0000 0.0020 0.0000
# 4 0.0000 0.0000 0.0000 38.6203 0.0000 -0.0014
# 5 0.0038 0.0023 0.0020 0.0000 32.6719 0.0000
# 6 0.0000 0.0000 0.0000 -0.0014 0.0000 21.0255
#
#
#
# Elastic Compliance Matrix: (Units=1/GPa)
#
#
# Indices 1 2 3 4 5 6 
#
# 1 0.013953 -0.004017 -0.007356 0.000000 -0.000001 0.000000
# 2 -0.004017 0.009599 -0.000164 0.000000 0.000000 0.000000
# 3 -0.007356 -0.000164 0.013493 0.000000 0.000000 0.000000
# 4 0.000000 0.000000 0.000000 0.025893 0.000000 0.000002
# 5 -0.000001 0.000000 0.000000 0.000000 0.030607 0.000000
# 6 0.000000 0.000000 0.000000 0.000002 0.000000 0.047561
#
#
# Mechanical properties :
#
#
# Convention : Reuss Voigt Hill
#
# Bulk Modulus (GPa) = 71.58225 73.22248 72.40236
# Shear Modulus (GPa) = 29.61395 32.48441 31.04918
#
# Velocity S-wave (km/s) = 3.87616 4.05967 3.96898
# Velocity P-wave (km/s) = 7.50666 7.68921 7.59848
#
# Compressibility (1/GPa) = 0.01396994
#
# Stress axis : x y z
#
# Youngs Moduli (GPa) = 71.66887 104.17707 74.11070
#
# Poissons Ratio (x) = 0.41847 0.54519
# Poissons Ratio (y) = 0.28789 0.01218
# Poissons Ratio (z) = 0.52723 0.01713
#
# Static dielectric constant tensor:
#      x y z
#    x 1.710270 0.000000 0.000010 
#    y 0.000000 1.699900 0.000000 
#    z 0.000010 0.000000 1.717170 
# 
# From -- ./inp_files/22900.got.cif
#   From: 2010.05.17/outbox.ucp.g08.bks.cvg/sg9_12_cif.got.tgz:22900.got - 2010.06.11 13:03:20.
