data_PCOD9141421
_publ_section_title
;
Structure prediction by ZEFSAII (Michael W. Deem and Ramdas Pophale) SiO2 
 PCOD9141421
Probable space group: P 2/M
;
_chemical_formula_sum "Si O2"
_cell_formula_units_Z 20
_cell_length_a 6.832713
_cell_length_b 22.967402
_cell_length_c 5.460007
_cell_angle_alpha 90.000000
_cell_angle_beta 77.298923
_cell_angle_gamma 90.000000
_cell_volume 835.870625
_symmetry_space_group_name_H-M "P 2/M"
_symmetry_group_IT_number 10
_symmetry_cell_setting 'monoclinic'
loop_
_space_group_symop_operation_xyz
x,y,z
-x,y,-z
-x,-y,-z
x,-y,z
loop_
_atom_site_type_symbol
_atom_site_label
_atom_site_fract_x
_atom_site_fract_y
_atom_site_fract_z
Si Si1 0.208301 0.262284 0.191490
Si Si2 0.744109 0.933536 0.424457
Si Si3 0.255805 0.130000 0.076934
Si Si4 0.132227 0.564557 0.713398
Si Si5 0.244897 0.309816 0.682574
O O1 0.176792 0.193746 0.167714
O O2 0.311049 0.278298 0.417870
O O3 0.995496 0.295993 0.252351
O O4 0.313736 0.283655 0.917945
O O5 0.500000 0.933199 0.500000
O O6 0.800898 0.911620 0.680141
O O7 0.807193 0.000000 0.363035
O O8 0.801768 0.893440 0.176558
O O9 0.500000 0.134363 0.000000
O O10 0.226381 0.500000 0.692535
O O11 0.271640 0.621036 0.669077
O O12 0.000000 0.567510 0.500000
O O13 0.000000 0.569255 0.000000
#
# Coordination Sequence:
#
# PCOD9141421 Si02
#       5
#     4   4   4   4   4
#     4  10  18  28  44  62  90 119 143 177 206 257
#     4   9  17  30  47  66  88 110 137 179 226 264
#     4  10  19  30  45  69  92 112 141 175 218 263
#     4  10  16  25  41  63  91 112 138 184 226 258
#     4  10  17  30  43  65  88 117 152 172 212 260
#
# _framework density 23.927146
#
# number of rings (size 3 to 8) (size 9 to 14) (size 15 to 20)
#    0.000    2.200    4.000    1.800    0.000    2.400 
#    0.000    0.000    0.000    0.000    0.000   56.000 
#    0.000    8.800    0.000    0.000    0.000    0.000 
#
# Total GULP energy -111848.913323 kJ/mol
# GULP energy per Si atom -5592.445666 kJ/mol
# Density = 2.387269 g / cm^3
# Si number density = 23.927146 Si / 1000 Ang^3
#
#
#
# Elastic Constant Matrix: (Units=GPa)
#
#
# Indices 1 2 3 4 5 6 
#
# 1 71.5512 -2.0997 42.2425 0.0000 8.2689 0.0000
# 2 -2.0997 215.3870 77.0845 0.0000 18.4956 0.0000
# 3 42.2425 77.0845 228.6694 0.0000 33.9677 0.0000
# 4 0.0000 0.0000 0.0000 29.9828 0.0000 47.8340
# 5 8.2689 18.4956 33.9677 0.0000 56.7759 0.0000
# 6 0.0000 0.0000 0.0000 47.8340 0.0000 -78.2555
#
#
#
# Elastic Compliance Matrix: (Units=1/GPa)
#
#
# Indices 1 2 3 4 5 6 
#
# 1 0.016076 0.001417 -0.003327 0.000000 -0.000813 0.000000
# 2 0.001417 0.005432 -0.001975 0.000000 -0.000794 0.000000
# 3 -0.003327 -0.001975 0.006021 0.000000 -0.002474 0.000000
# 4 0.000000 0.000000 0.000000 0.016886 0.000000 0.010321
# 5 -0.000813 -0.000794 -0.002474 0.000000 0.019471 0.000000
# 6 0.000000 0.000000 0.000000 0.010321 0.000000 -0.006470
#
#
# Mechanical properties :
#
#
# Convention : Reuss Voigt Hill
#
# Bulk Modulus (GPa) = 50.60909 83.34025 66.97467
# Shear Modulus (GPa) = 69.66712 28.25931 48.96321
#
# Velocity S-wave (km/s) = 5.40181 3.44038 4.52856
# Velocity P-wave (km/s) = 7.75263 7.11955 7.44283
#
# Compressibility (1/GPa) = 0.01975930
#
# Stress axis : x y z
#
# Youngs Moduli (GPa) = 62.20646 184.10856 166.08777
#
# Poissons Ratio (x) = -0.26089 0.55251
# Poissons Ratio (y) = -0.08815 0.32798
# Poissons Ratio (z) = 0.20694 0.36357
#
# Static dielectric constant tensor:
#      x y z
#    x 2.257180 0.000000 -0.123000 
#    y 0.000000 1.836850 0.000000 
#    z -0.123000 0.000000 1.919980 
# 
# From -- ./inp_files/4691.got.cif
#   From: 2010.05.17/outbox.cif.g08.bks.cpg/sg10_3_cif.got.tgz:4691.got - 2010.06.03 11:33:40.
