data_PCOD9141783
_publ_section_title
;
Structure prediction by ZEFSAII (Michael W. Deem and Ramdas Pophale) SiO2 
 PCOD9141783
Probable space group: P 2/M
;
_chemical_formula_sum "Si O2"
_cell_formula_units_Z 32
_cell_length_a 25.093107
_cell_length_b 7.384527
_cell_length_c 18.748612
_cell_angle_alpha 90.000000
_cell_angle_beta 28.918489
_cell_angle_gamma 90.000000
_cell_volume 1679.967891
_symmetry_space_group_name_H-M "P 2/M"
_symmetry_group_IT_number 10
_symmetry_cell_setting 'monoclinic'
loop_
_space_group_symop_operation_xyz
x,y,z
-x,y,-z
-x,-y,-z
x,-y,z
loop_
_atom_site_type_symbol
_atom_site_label
_atom_site_fract_x
_atom_site_fract_y
_atom_site_fract_z
Si Si1 0.285805 0.207658 0.784348
Si Si2 0.325522 0.221299 0.340039
Si Si3 0.180498 0.781173 0.641305
Si Si4 0.422352 0.778539 0.922034
Si Si5 0.398221 0.779375 0.793033
Si Si6 0.360946 0.778959 0.545182
Si Si7 0.368993 0.787694 0.136093
Si Si8 0.956482 0.709280 0.975595
O O1 0.318642 0.283965 0.822743
O O2 0.343058 0.286761 0.646731
O O3 0.325345 0.000000 0.740391
O O4 0.155822 0.207435 0.921582
O O5 0.234809 0.278920 0.503444
O O6 0.448316 0.272144 0.222678
O O7 0.311826 0.285355 0.274467
O O8 0.325132 0.000000 0.339187
O O9 0.260948 0.721473 0.611309
O O10 0.057151 0.722101 0.802799
O O11 0.180814 0.000000 0.640928
O O12 0.377466 0.718482 0.898207
O O13 0.420876 0.000000 0.925871
O O14 0.359930 0.714293 0.066560
O O15 0.522016 0.728325 0.624800
O O16 0.394319 0.000000 0.801087
O O17 0.357887 0.000000 0.549739
O O18 0.339565 0.000000 0.166877
O O19 0.500000 0.778135 0.000000
O O20 0.929110 0.500000 0.021015
O O21 0.000000 0.787305 0.000000
#
# Coordination Sequence:
#
# PCOD9141783 Si02
#       8
#     4   4   4   4   4   4   4   4
#     4  10  19  30  46  65  85 112 148 182 210 248
#     4   8  12  19  33  58  88 115 141 168 201 246
#     4  10  17  27  47  68  86 111 144 179 212 248
#     4   8  11  17  30  54  90 122 139 158 200 253
#     4   9  15  23  38  64  92 115 141 173 208 249
#     4   9  15  24  40  64  90 112 136 172 213 249
#     4   7  10  15  26  48  85 124 142 153 191 252
#     4  11  23  36  47  59  81 112 146 184 223 257
#
# _framework density 19.047982999999999
#
# number of rings (size 3 to 8) (size 9 to 14) (size 15 to 20)
#    0.000    3.000    2.500    2.250    0.000    2.000 
#    0.000    0.000    0.000    2.250    0.000    0.875 
#    0.000   12.500    0.000    0.000    0.000    0.000 
#
# Total GULP energy -178397.400607 kJ/mol
# GULP energy per Si atom -5574.918769 kJ/mol
# Density = 1.900463 g / cm^3
# Si number density = 19.047983 Si / 1000 Ang^3
#
#
#
# Elastic Constant Matrix: (Units=GPa)
#
#
# Indices 1 2 3 4 5 6 
#
# 1 146.0826 3.9089 56.2202 0.0000 42.3921 0.0000
# 2 3.9089 64.1912 -4.2688 0.0000 4.6342 0.0000
# 3 56.2202 -4.2688 65.3793 0.0000 35.3789 0.0000
# 4 0.0000 0.0000 0.0000 44.1513 0.0000 -20.4221
# 5 42.3921 4.6342 35.3789 0.0000 38.3345 0.0000
# 6 0.0000 0.0000 0.0000 -20.4221 0.0000 -4.3255
#
#
#
# Elastic Compliance Matrix: (Units=1/GPa)
#
#
# Indices 1 2 3 4 5 6 
#
# 1 0.011099 -0.000587 -0.005951 0.000000 -0.006710 0.000000
# 2 -0.000587 0.016318 0.004568 0.000000 -0.005539 0.000000
# 3 -0.005951 0.004568 0.034856 0.000000 -0.026140 0.000000
# 4 0.000000 0.000000 0.000000 0.007114 0.000000 -0.033587
# 5 -0.006710 -0.005539 -0.026140 0.000000 0.058301 0.000000
# 6 0.000000 0.000000 0.000000 -0.033587 0.000000 -0.072613
#
#
# Mechanical properties :
#
#
# Convention : Reuss Voigt Hill
#
# Bulk Modulus (GPa) = 17.14349 43.04149 30.09249
# Shear Modulus (GPa) = 63.72725 30.28493 47.00609
#
# Velocity S-wave (km/s) = 5.79041 3.99172 4.97306
# Velocity P-wave (km/s) = 7.32972 6.62499 6.98624
#
# Compressibility (1/GPa) = 0.05833118
#
# Stress axis : x y z
#
# Youngs Moduli (GPa) = 90.10071 61.28273 28.68937
#
# Poissons Ratio (x) = 0.03598 0.17073
# Poissons Ratio (y) = 0.05290 -0.13104
# Poissons Ratio (z) = 0.53619 -0.27991
#
# Static dielectric constant tensor:
#      x y z
#    x 1.682430 0.000000 0.049060 
#    y 0.000000 1.734290 0.000000 
#    z 0.049060 0.000000 1.636620 
# 
# From -- ./inp_files/52755.got.cif
#   From: 2010.05.17/outbox.cif.g08.bks.cpg/sg10_27_cif.got.tgz:52755.got - 2010.06.03 11:33:40.
