data_PCOD9141409
_publ_section_title
;
Structure prediction by ZEFSAII (Michael W. Deem and Ramdas Pophale) SiO2 
 PCOD9141409
Probable space group: P 2/M
;
_chemical_formula_sum "Si O2"
_cell_formula_units_Z 26
_cell_length_a 11.470549
_cell_length_b 24.524228
_cell_length_c 5.552799
_cell_angle_alpha 90.000000
_cell_angle_beta 126.491297
_cell_angle_gamma 90.000000
_cell_volume 1255.795814
_symmetry_space_group_name_H-M "P 2/M"
_symmetry_group_IT_number 10
_symmetry_cell_setting 'monoclinic'
loop_
_space_group_symop_operation_xyz
x,y,z
-x,y,-z
-x,-y,-z
x,-y,z
loop_
_atom_site_type_symbol
_atom_site_label
_atom_site_fract_x
_atom_site_fract_y
_atom_site_fract_z
Si Si1 0.906644 0.879386 0.134759
Si Si2 0.908594 0.000000 0.137998
Si Si3 0.335265 0.393984 0.771155
Si Si4 0.990680 0.309193 0.238425
Si Si5 0.718874 0.227816 0.895003
Si Si6 0.693286 0.266784 0.361298
Si Si7 0.327988 0.564081 0.263795
O O1 0.791337 0.831184 0.982721
O O2 0.000000 0.873620 0.500000
O O3 0.836874 0.940198 0.051770
O O4 0.000000 0.875368 0.000000
O O5 0.000000 0.000000 0.500000
O O6 0.000000 0.000000 0.000000
O O7 0.343353 0.330441 0.711914
O O8 0.266101 0.422130 0.452037
O O9 0.500000 0.416046 0.000000
O O10 0.272077 0.403671 0.960516
O O11 0.128689 0.267708 0.410954
O O12 0.000000 0.340387 0.500000
O O13 0.845922 0.273812 0.057856
O O14 0.000000 0.340557 0.000000
O O15 0.644383 0.237088 0.059527
O O16 0.643450 0.240832 0.549711
O O17 0.500000 0.578251 0.500000
O O18 0.315421 0.500000 0.199995
#
# Coordination Sequence:
#
# PCOD9141409 Si02
#       7
#     4   2   4   4   4   4   4
#     4  10  16  25  38  55  79 111 142 173 206 240
#     4   8  16  24  34  52  76 106 143 170 199 246
#     4  10  19  30  44  63  88 112 130 158 199 240
#     4   8  14  23  35  52  74  97 126 161 188 218
#     4  10  17  26  40  57  80 108 139 172 200 232
#     4  10  18  27  39  59  83 107 135 163 198 241
#     4   9  17  30  47  64  82 106 134 161 193 237
#
# _framework density 20.704001999999999
#
# number of rings (size 3 to 8) (size 9 to 14) (size 15 to 20)
#    0.000    2.615    0.000    5.077    0.000    1.846 
#    0.000    0.000    0.000    0.000    0.000    0.000 
#    0.000  110.769    0.000    4.154    0.000    1.385 
#
# Total GULP energy -144825.808988 kJ/mol
# GULP energy per Si atom -5570.223423 kJ/mol
# Density = 2.065688 g / cm^3
# Si number density = 20.704002 Si / 1000 Ang^3
#
#
#
# Elastic Constant Matrix: (Units=GPa)
#
#
# Indices 1 2 3 4 5 6 
#
# 1 54.7705 9.2437 55.1867 0.0000 -22.1207 0.0000
# 2 9.2437 101.4014 58.0241 0.0000 -20.1504 0.0000
# 3 55.1867 58.0241 192.7400 0.0000 -63.5263 0.0000
# 4 0.0000 0.0000 0.0000 33.0877 0.0000 0.2049
# 5 -22.1207 -20.1504 -63.5263 0.0000 50.7600 0.0000
# 6 0.0000 0.0000 0.0000 0.2049 0.0000 35.4536
#
#
#
# Elastic Compliance Matrix: (Units=1/GPa)
#
#
# Indices 1 2 3 4 5 6 
#
# 1 0.026469 0.002368 -0.007115 0.000000 0.003571 0.000000
# 2 0.002368 0.012131 -0.004090 0.000000 0.000729 0.000000
# 3 -0.007115 -0.004090 0.011744 0.000000 0.009973 0.000000
# 4 0.000000 0.000000 0.000000 0.030224 0.000000 -0.000175
# 5 0.003571 0.000729 0.009973 0.000000 0.034028 0.000000
# 6 0.000000 0.000000 0.000000 -0.000175 0.000000 0.028207
#
#
# Mechanical properties :
#
#
# Convention : Reuss Voigt Hill
#
# Bulk Modulus (GPa) = 30.60779 65.98011 48.29395
# Shear Modulus (GPa) = 29.17719 38.95742 34.06730
#
# Velocity S-wave (km/s) = 3.75807 4.34249 4.06081
# Velocity P-wave (km/s) = 5.80056 7.55516 6.73524
#
# Compressibility (1/GPa) = 0.03267142
#
# Stress axis : x y z
#
# Youngs Moduli (GPa) = 37.77934 82.43302 85.15069
#
# Poissons Ratio (x) = -0.19520 0.60583
# Poissons Ratio (y) = -0.08946 0.34823
# Poissons Ratio (z) = 0.26879 0.33712
#
# Static dielectric constant tensor:
#      x y z
#    x 1.806760 0.000000 -0.008780 
#    y 0.000000 1.699270 0.000000 
#    z -0.008780 0.000000 1.831180 
# 
# From -- ./inp_files/9940.got.cif
#   From: 2010.05.17/outbox.cif.g08.bks.cpg/sg10_5_cif.got.tgz:9940.got - 2010.06.03 11:33:40.
