data_PCOD9141999
_publ_section_title
;
Structure prediction by ZEFSAII (Michael W. Deem and Ramdas Pophale) SiO2 
 PCOD9141999
Probable space group: P 2/M
;
_chemical_formula_sum "Si O2"
_cell_formula_units_Z 30
_cell_length_a 25.651409
_cell_length_b 8.764497
_cell_length_c 11.241363
_cell_angle_alpha 90.000000
_cell_angle_beta 40.870185
_cell_angle_gamma 90.000000
_cell_volume 1653.733699
_symmetry_space_group_name_H-M "P 2/M"
_symmetry_group_IT_number 10
_symmetry_cell_setting 'monoclinic'
loop_
_space_group_symop_operation_xyz
x,y,z
-x,y,-z
-x,-y,-z
x,-y,z
loop_
_atom_site_type_symbol
_atom_site_label
_atom_site_fract_x
_atom_site_fract_y
_atom_site_fract_z
Si Si1 0.177063 0.183242 0.597763
Si Si2 0.688966 0.819053 0.254563
Si Si3 0.659358 0.816897 0.820881
Si Si4 0.537703 0.829653 0.664019
Si Si5 0.994220 0.823776 0.154384
Si Si6 0.159191 0.680042 0.890511
Si Si7 0.620945 0.679136 0.131818
Si Si8 0.500000 0.768062 0.000000
O O1 0.257716 0.211623 0.387188
O O2 0.176724 0.264510 0.725513
O O3 0.096423 0.227518 0.666209
O O4 0.171124 0.000000 0.629295
O O5 0.626956 0.791535 0.470282
O O6 0.775752 0.759787 0.139021
O O7 0.653234 0.735689 0.201844
O O8 0.691404 0.000000 0.229696
O O9 0.639716 0.000000 0.840023
O O10 0.661617 0.775329 0.955448
O O11 0.587792 0.713280 0.890191
O O12 0.473000 0.716393 0.720498
O O13 0.519561 0.000000 0.648878
O O14 0.526205 0.834952 0.826070
O O15 0.003779 0.000000 0.174281
O O16 0.068301 0.728738 0.074438
O O17 0.000000 0.819072 0.000000
O O18 0.167596 0.500000 0.883764
O O19 0.634780 0.500000 0.092462
#
# Coordination Sequence:
#
# PCOD9141999 Si02
#       8
#     4   4   4   4   4   4   4   2
#     4   9  18  33  54  78 105 140 180 216 252 305
#     4  11  22  37  56  75  99 137 184 222 253 302
#     4  10  19  34  55  77 103 139 181 218 255 303
#     4  10  20  35  56  78 101 136 178 215 254 304
#     4   8  15  30  50  73 103 138 175 212 252 305
#     4  11  21  31  49  80 113 139 165 209 269 318
#     4  11  23  37  52  74 105 138 173 218 269 311
#     4  10  17  30  53  80 107 132 165 210 253 298
#
# _framework density 18.140768000000001
#
# number of rings (size 3 to 8) (size 9 to 14) (size 15 to 20)
#    0.000    2.000    0.000    6.800    0.000    7.733 
#    0.000    5.333    0.000    0.800    0.000    5.600 
#    0.000    0.000    0.000    0.000    0.000    0.000 
#
# Total GULP energy -167137.612043 kJ/mol
# GULP energy per Si atom -5571.253735 kJ/mol
# Density = 1.809948 g / cm^3
# Si number density = 18.140768 Si / 1000 Ang^3
#
#
#
# Elastic Constant Matrix: (Units=GPa)
#
#
# Indices 1 2 3 4 5 6 
#
# 1 90.5165 28.7106 35.9556 0.0000 -11.7038 0.0000
# 2 28.7106 53.3269 18.1372 0.0000 -7.8320 0.0000
# 3 35.9556 18.1372 90.6581 0.0000 -20.5419 0.0000
# 4 0.0000 0.0000 0.0000 21.2325 0.0000 -28.6187
# 5 -11.7038 -7.8320 -20.5419 0.0000 21.0398 0.0000
# 6 0.0000 0.0000 0.0000 -28.6187 0.0000 83.9091
#
#
#
# Elastic Compliance Matrix: (Units=1/GPa)
#
#
# Indices 1 2 3 4 5 6 
#
# 1 0.014991 -0.006355 -0.004264 0.000000 0.001810 0.000000
# 2 -0.006355 0.023164 -0.001234 0.000000 0.003883 0.000000
# 3 -0.004264 -0.001234 0.015829 0.000000 0.012623 0.000000
# 4 0.000000 0.000000 0.000000 0.087172 0.000000 0.029732
# 5 0.001810 0.003883 0.012623 0.000000 0.062305 0.000000
# 6 0.000000 0.000000 0.000000 0.029732 0.000000 0.022058
#
#
# Mechanical properties :
#
#
# Convention : Reuss Voigt Hill
#
# Bulk Modulus (GPa) = 33.02769 44.45647 38.74208
# Shear Modulus (GPa) = 19.28134 35.34949 27.31542
#
# Velocity S-wave (km/s) = 3.26371 4.41911 3.88461
# Velocity P-wave (km/s) = 5.69634 7.11320 6.44383
#
# Compressibility (1/GPa) = 0.03027762
#
# Stress axis : x y z
#
# Youngs Moduli (GPa) = 66.70530 43.17108 63.17677
#
# Poissons Ratio (x) = 0.27435 0.26939
# Poissons Ratio (y) = 0.42391 0.07796
# Poissons Ratio (z) = 0.28443 0.05327
#
# Static dielectric constant tensor:
#      x y z
#    x 1.610880 0.000000 -0.022490 
#    y 0.000000 1.618950 0.000000 
#    z -0.022490 0.000000 1.637010 
# 
# From -- ./inp_files/56633.got.cif
#   From: 2010.05.17/outbox.cif.g08.bks.cpg/sg10_29_cif.got.tgz:56633.got - 2010.06.03 11:33:40.
