data_PCOD9141515
_publ_section_title
;
Structure prediction by ZEFSAII (Michael W. Deem and Ramdas Pophale) SiO2 
 PCOD9141515
Probable space group: P 2/M
;
_chemical_formula_sum "Si O2"
_cell_formula_units_Z 30
_cell_length_a 33.163368
_cell_length_b 8.943228
_cell_length_c 12.949076
_cell_angle_alpha 90.000000
_cell_angle_beta 25.643347
_cell_angle_gamma 90.000000
_cell_volume 1662.060229
_symmetry_space_group_name_H-M "P 2/M"
_symmetry_group_IT_number 10
_symmetry_cell_setting 'monoclinic'
loop_
_space_group_symop_operation_xyz
x,y,z
-x,y,-z
-x,-y,-z
x,-y,z
loop_
_atom_site_type_symbol
_atom_site_label
_atom_site_fract_x
_atom_site_fract_y
_atom_site_fract_z
Si Si1 0.672191 0.181123 0.421279
Si Si2 0.482578 0.321573 0.917851
Si Si3 0.714565 0.180442 0.689266
Si Si4 0.000552 0.668632 0.262572
Si Si5 0.192471 0.179750 0.312381
Si Si6 0.788874 0.828685 0.956419
Si Si7 0.802403 0.680020 0.293214
Si Si8 0.000000 0.748037 0.500000
O O1 0.567636 0.242485 0.662428
O O2 0.723577 0.250406 0.401697
O O3 0.673805 0.000000 0.423968
O O4 0.730976 0.234918 0.185572
O O5 0.481861 0.500000 0.901771
O O6 0.500000 0.297440 0.000000
O O7 0.385113 0.249327 0.109814
O O8 0.745739 0.223558 0.732824
O O9 0.787899 0.248033 0.438454
O O10 0.712085 0.000000 0.686884
O O11 0.981567 0.500000 0.271612
O O12 0.007180 0.668288 0.372281
O O13 0.914267 0.770110 0.429412
O O14 0.098154 0.716705 0.987751
O O15 0.224239 0.240809 0.126794
O O16 0.193848 0.000000 0.303525
O O17 0.899849 0.828866 0.722810
O O18 0.757554 0.000000 0.021723
O O19 0.792463 0.500000 0.320372
#
# Coordination Sequence:
#
# PCOD9141515 Si02
#       8
#     4   4   4   4   4   4   4   2
#     4  11  21  35  58  89 116 145 186 233 282 335
#     4  11  23  39  60  86 114 148 182 229 290 342
#     4  11  23  40  62  85 109 147 193 238 280 334
#     4  10  21  34  53  82 116 155 194 230 277 332
#     4   9  21  40  59  81 114 152 193 234 278 330
#     4   9  18  33  56  85 116 149 186 232 283 329
#     4  11  22  36  54  83 120 153 184 231 286 335
#     4  10  16  32  52  82 115 152 193 230 277 324
#
# _framework density 18.049886999999998
#
# number of rings (size 3 to 8) (size 9 to 14) (size 15 to 20)
#    0.000    1.733    2.667    2.000    0.000    3.733 
#    0.000    4.000    0.000    4.000    0.000    0.000 
#    0.000    0.000    0.000    0.000    0.000    0.000 
#
# Total GULP energy -167297.307693 kJ/mol
# GULP energy per Si atom -5576.576923 kJ/mol
# Density = 1.800880 g / cm^3
# Si number density = 18.049887 Si / 1000 Ang^3
#
#
#
# Elastic Constant Matrix: (Units=GPa)
#
#
# Indices 1 2 3 4 5 6 
#
# 1 121.6341 34.0385 40.9613 0.0000 2.1139 0.0000
# 2 34.0385 47.8085 25.7828 0.0000 -0.2931 0.0000
# 3 40.9613 25.7828 104.1871 0.0000 10.9086 0.0000
# 4 0.0000 0.0000 0.0000 17.1891 0.0000 5.0418
# 5 2.1139 -0.2931 10.9086 0.0000 23.0981 0.0000
# 6 0.0000 0.0000 0.0000 5.0418 0.0000 -9.0716
#
#
#
# Elastic Compliance Matrix: (Units=1/GPa)
#
#
# Indices 1 2 3 4 5 6 
#
# 1 0.010901 -0.006273 -0.002757 0.000000 0.000225 0.000000
# 2 -0.006273 0.027988 -0.004794 0.000000 0.003193 0.000000
# 3 -0.002757 -0.004794 0.012465 0.000000 -0.005695 0.000000
# 4 0.000000 0.000000 0.000000 0.050022 0.000000 0.027801
# 5 0.000225 0.003193 -0.005695 0.000000 0.046003 0.000000
# 6 0.000000 0.000000 0.000000 0.027801 0.000000 -0.094783
#
#
# Mechanical properties :
#
#
# Convention : Reuss Voigt Hill
#
# Bulk Modulus (GPa) = 42.18438 52.79946 47.49192
# Shear Modulus (GPa) = 56.72280 17.76625 37.24453
#
# Velocity S-wave (km/s) = 5.61193 3.14074 4.54742
# Velocity P-wave (km/s) = 8.08786 6.51673 7.34443
#
# Compressibility (1/GPa) = 0.02370546
#
# Stress axis : x y z
#
# Youngs Moduli (GPa) = 91.73062 35.72920 80.22639
#
# Poissons Ratio (x) = 0.22414 0.22119
# Poissons Ratio (y) = 0.57546 0.38462
# Poissons Ratio (z) = 0.25290 0.17129
#
# Static dielectric constant tensor:
#      x y z
#    x 1.616630 0.000000 0.027220 
#    y 0.000000 1.617940 0.000000 
#    z 0.027220 0.000000 1.623460 
# 
# From -- ./inp_files/58005.got.cif
#   From: 2010.05.17/outbox.cif.g08.bks.cpg/sg10_30_cif.got.tgz:58005.got - 2010.06.03 11:33:40.
