data_PCOD9141049
_publ_section_title
;
Structure prediction by ZEFSAII (Michael W. Deem and Ramdas Pophale) SiO2 
 PCOD9141049
Probable space group: C C
;
_chemical_formula_sum "Si O2"
_cell_formula_units_Z 32
_cell_length_a 8.168454
_cell_length_b 14.776418
_cell_length_c 11.669460
_cell_angle_alpha 90.000000
_cell_angle_beta 94.481812
_cell_angle_gamma 90.000000
_cell_volume 1404.202593
_symmetry_space_group_name_H-M "C C"
_symmetry_group_IT_number 9
_symmetry_cell_setting 'monoclinic'
loop_
_space_group_symop_operation_xyz
x,y,z
x,-y,1/2+z
1/2+x,1/2+y,z
1/2+x,1/2-y,1/2+z
loop_
_atom_site_type_symbol
_atom_site_label
_atom_site_fract_x
_atom_site_fract_y
_atom_site_fract_z
Si Si1 0.544360 0.566641 0.492610
Si Si2 0.196112 0.846394 0.790967
Si Si3 0.690554 0.711940 0.670763
Si Si4 0.184479 0.883313 0.546973
Si Si5 0.047876 0.362461 0.507092
Si Si6 0.537882 0.226421 0.405014
Si Si7 0.684072 0.944106 0.046332
Si Si8 0.063934 0.337715 0.239504
O O1 0.562678 0.623898 0.376857
O O2 0.594425 0.633497 0.598089
O O3 0.659207 0.479311 0.482995
O O4 0.365275 0.531350 0.515107
O O5 0.196651 0.912351 0.682055
O O6 0.362365 0.819351 0.865654
O O7 0.150858 0.756442 0.719458
O O8 0.666696 0.801380 0.591277
O O9 0.617700 0.738558 0.790588
O O10 0.875451 0.675279 0.692887
O O11 0.359997 0.839148 0.526926
O O12 0.048113 0.813461 0.489830
O O13 0.071995 0.468576 0.526892
O O14 0.075999 0.347022 0.375450
O O15 0.633703 0.143661 0.469649
O O16 0.659613 0.914075 0.176073
#
# Coordination Sequence:
#
# PCOD9141049 Si02
#       8
#     4   4   4   4   4   4   4   4
#     4  12  29  47  70 109 149 192 249 295 356 434
#     4  12  26  47  77 104 148 193 242 298 367 431
#     4  12  25  48  76 106 148 189 240 307 364 433
#     4  12  27  48  76 109 146 191 241 302 370 430
#     4  12  27  48  76 109 146 191 241 302 370 430
#     4  12  25  48  76 106 148 189 240 307 364 433
#     4  12  29  47  70 109 149 192 249 295 356 434
#     4  12  26  47  77 104 148 193 242 298 367 431
#
# _framework density 22.788734999999999
#
# number of rings (size 3 to 8) (size 9 to 14) (size 15 to 20)
#    0.000    0.000    5.000    4.500    7.000    3.000 
#    0.000    0.000    0.000    0.000    0.000    0.000 
#    0.000    0.000    0.000    0.000    0.000    0.000 
#
# Total GULP energy -89489.646979 kJ/mol
# GULP energy per Si atom -5593.102936 kJ/mol
# Density = 2.273687 g / cm^3
# Si number density = 22.788735 Si / 1000 Ang^3
#
#
#
# Elastic Constant Matrix: (Units=GPa)
#
#
# Indices 1 2 3 4 5 6 
#
# 1 58.4138 -18.6088 16.1195 0.0000 -14.1206 0.0000
# 2 -18.6088 87.5776 12.3382 0.0000 9.9512 0.0000
# 3 16.1195 12.3382 145.2160 0.0000 -8.7045 0.0000
# 4 0.0000 0.0000 0.0000 15.5123 0.0000 0.8059
# 5 -14.1206 9.9512 -8.7045 0.0000 27.2725 0.0000
# 6 0.0000 0.0000 0.0000 0.8059 0.0000 24.5799
#
#
#
# Elastic Compliance Matrix: (Units=1/GPa)
#
#
# Indices 1 2 3 4 5 6 
#
# 1 0.021043 0.003766 -0.002126 0.000000 0.008843 0.000000
# 2 0.003766 0.012831 -0.001705 0.000000 -0.003276 0.000000
# 3 -0.002126 -0.001705 0.007380 0.000000 0.001877 0.000000
# 4 0.000000 0.000000 0.000000 0.064575 0.000000 -0.002117
# 5 0.008843 -0.003276 0.001877 0.000000 0.043040 0.000000
# 6 0.000000 0.000000 0.000000 -0.002117 0.000000 0.040753
#
#
# Mechanical properties :
#
#
# Convention : Reuss Voigt Hill
#
# Bulk Modulus (GPa) = 24.31605 34.54502 29.43054
# Shear Modulus (GPa) = 24.57502 32.23018 28.40260
#
# Velocity S-wave (km/s) = 3.28744 3.76480 3.53419
# Velocity P-wave (km/s) = 5.01029 5.83867 5.44027
#
# Compressibility (1/GPa) = 0.04112510
#
# Stress axis : x y z
#
# Youngs Moduli (GPa) = 47.52137 77.93593 135.50906
#
# Poissons Ratio (x) = -0.29351 0.28806
# Poissons Ratio (y) = -0.17897 0.23099
# Poissons Ratio (z) = 0.10102 0.13285
#
# Static dielectric constant tensor:
#      x y z
#    x 1.849940 0.000000 0.002190 
#    y 0.000000 1.879850 0.000000 
#    z 0.002190 0.000000 1.855100 
# 
# From -- ./inp_files/14643.got.cif
#   From: 2010.05.17/outbox.cif.g08.bks.cpg/sg9_8_cif.got.tgz:14643.got - 2010.06.03 20:04:27.
