data_PCOD9141434
_publ_section_title
;
Structure prediction by ZEFSAII (Michael W. Deem and Ramdas Pophale) SiO2 
 PCOD9141434
Probable space group: P 2/M
;
_chemical_formula_sum "Si O2"
_cell_formula_units_Z 26
_cell_length_a 11.825437
_cell_length_b 24.480092
_cell_length_c 5.078002
_cell_angle_alpha 90.000000
_cell_angle_beta 106.568257
_cell_angle_gamma 90.000000
_cell_volume 1408.985378
_symmetry_space_group_name_H-M "P 2/M"
_symmetry_group_IT_number 10
_symmetry_cell_setting 'monoclinic'
loop_
_space_group_symop_operation_xyz
x,y,z
-x,y,-z
-x,-y,-z
x,-y,z
loop_
_atom_site_type_symbol
_atom_site_label
_atom_site_fract_x
_atom_site_fract_y
_atom_site_fract_z
Si Si1 0.269299 0.706331 0.777727
Si Si2 0.412116 0.000000 0.197454
Si Si3 0.127696 0.323371 0.193273
Si Si4 0.357655 0.113235 0.365820
Si Si5 0.641640 0.173416 0.126053
Si Si6 0.228394 0.560487 0.213189
Si Si7 0.372547 0.409808 0.801234
O O1 0.162018 0.699001 0.501456
O O2 0.325902 0.765335 0.777097
O O3 0.357271 0.655965 0.776929
O O4 0.222882 0.697838 0.043290
O O5 0.500000 0.000000 0.500000
O O6 0.339456 0.944620 0.204739
O O7 0.500000 0.000000 0.000000
O O8 0.142169 0.389148 0.215282
O O9 0.000000 0.308775 0.000000
O O10 0.500000 0.116798 0.500000
O O11 0.315116 0.129392 0.628334
O O12 0.312340 0.158199 0.131781
O O13 0.500000 0.169222 0.000000
O O14 0.177870 0.500000 0.208798
O O15 0.336150 0.567323 0.492994
O O16 0.278225 0.569005 0.952736
O O17 0.500000 0.424132 0.000000
#
# Coordination Sequence:
#
# PCOD9141434 Si02
#       7
#     4   2   4   4   4   4   4
#     4  10  20  34  51  71  94 122 156 196 236 285
#     4  10  16  26  40  58  92 136 179 208 223 254
#     4  10  21  37  54  70  90 119 153 193 247 295
#     4   9  17  26  40  63  92 132 171 198 224 259
#     4  10  18  29  45  68  97 128 162 195 230 271
#     4  10  21  34  50  73  95 119 156 193 229 281
#     4  10  20  33  49  70  98 129 156 184 228 279
#
# _framework density 18.452995999999999
#
# number of rings (size 3 to 8) (size 9 to 14) (size 15 to 20)
#    0.000    2.154    0.000    5.077    0.000    2.154 
#    0.000    4.615    0.000    5.538    0.000    0.000 
#    0.000    0.000    0.000   48.462    0.000    5.385 
#
# Total GULP energy -144856.842365 kJ/mol
# GULP energy per Si atom -5571.417014 kJ/mol
# Density = 1.841100 g / cm^3
# Si number density = 18.452996 Si / 1000 Ang^3
#
#
#
# Elastic Constant Matrix: (Units=GPa)
#
#
# Indices 1 2 3 4 5 6 
#
# 1 5.8315 -2.0197 2.4336 0.0000 -0.3046 0.0000
# 2 -2.0197 102.7824 31.4708 0.0000 -11.5838 0.0000
# 3 2.4336 31.4708 93.9941 0.0000 -10.2878 0.0000
# 4 0.0000 0.0000 0.0000 14.7978 0.0000 -6.5014
# 5 -0.3046 -11.5838 -10.2878 0.0000 20.4377 0.0000
# 6 0.0000 0.0000 0.0000 -6.5014 0.0000 -1.0459
#
#
#
# Elastic Compliance Matrix: (Units=1/GPa)
#
#
# Indices 1 2 3 4 5 6 
#
# 1 0.176152 0.005654 -0.006155 0.000000 0.002732 0.000000
# 2 0.005654 0.011441 -0.003448 0.000000 0.004833 0.000000
# 3 -0.006155 -0.003448 0.012413 0.000000 0.004202 0.000000
# 4 0.000000 0.000000 0.000000 0.018112 0.000000 -0.112588
# 5 0.002732 0.004833 0.004202 0.000000 0.053825 0.000000
# 6 0.000000 0.000000 0.000000 -0.112588 0.000000 -0.256262
#
#
# Mechanical properties :
#
#
# Convention : Reuss Voigt Hill
#
# Bulk Modulus (GPa) = 5.20540 29.59747 17.40144
# Shear Modulus (GPa) = 57.06823 18.21947 37.64385
#
# Velocity S-wave (km/s) = 5.56717 3.14561 4.52152
# Velocity P-wave (km/s) = 6.64466 5.40993 6.05883
#
# Compressibility (1/GPa) = 0.19210818
#
# Stress axis : x y z
#
# Youngs Moduli (GPa) = 5.67690 87.40624 80.56269
#
# Poissons Ratio (x) = -0.49418 0.49584
# Poissons Ratio (y) = -0.03210 0.27778
# Poissons Ratio (z) = 0.03494 0.30137
#
# Static dielectric constant tensor:
#      x y z
#    x 1.611450 0.000000 -0.017100 
#    y 0.000000 1.706470 0.000000 
#    z -0.017100 0.000000 1.634840 
# 
# From -- ./inp_files/7594.got.cif
#   From: 2010.05.17/outbox.cif.g08.bks.cpg/sg10_4_cif.got.tgz:7594.got - 2010.06.03 11:33:40.
