data_PCOD9141320
_publ_section_title
;
Structure prediction by ZEFSAII (Michael W. Deem and Ramdas Pophale) SiO2 
 PCOD9141320
Probable space group: P 2/M
;
_chemical_formula_sum "Si O2"
_cell_formula_units_Z 22
_cell_length_a 5.367738
_cell_length_b 22.128405
_cell_length_c 10.927605
_cell_angle_alpha 90.000000
_cell_angle_beta 101.466051
_cell_angle_gamma 90.000000
_cell_volume 1272.071114
_symmetry_space_group_name_H-M "P 2/M"
_symmetry_group_IT_number 10
_symmetry_cell_setting 'monoclinic'
loop_
_space_group_symop_operation_xyz
x,y,z
-x,y,-z
-x,-y,-z
x,-y,z
loop_
_atom_site_type_symbol
_atom_site_label
_atom_site_fract_x
_atom_site_fract_y
_atom_site_fract_z
Si Si1 0.802595 0.197629 0.653588
Si Si2 0.289635 0.751966 0.628977
Si Si3 0.216347 0.932925 0.415827
Si Si4 0.169146 0.572828 0.282705
Si Si5 0.609454 0.426480 0.140728
Si Si6 0.000000 0.359414 0.500000
O O1 0.751293 0.210636 0.502755
O O2 0.576342 0.234579 0.694453
O O3 0.798274 0.125957 0.670429
O O4 0.080927 0.223861 0.702666
O O5 0.204483 0.684935 0.584154
O O6 0.500000 0.931570 0.500000
O O7 0.000000 0.926422 0.500000
O O8 0.819683 0.000000 0.642525
O O9 0.175709 0.500000 0.293151
O O10 0.415072 0.592053 0.229162
O O11 0.902896 0.590034 0.190762
O O12 0.145098 0.601276 0.414070
O O13 0.604755 0.500000 0.139179
O O14 0.500000 0.405777 0.000000
#
# Coordination Sequence:
#
# PCOD9141320 Si02
#       6
#     4   4   4   4   4   2
#     4   9  13  25  32  45  61  93 130 160 204 229
#     4   9  17  24  37  45  69 103 132 164 187 234
#     4  10  15  19  30  46  63  82 114 169 222 242
#     4  10  20  32  49  67  90 113 133 175 219 265
#     4   9  18  33  51  69  85 108 139 167 207 260
#     4  10  21  32  42  66  89 114 146 170 220 264
#
# _framework density 17.294630999999999
#
# number of rings (size 3 to 8) (size 9 to 14) (size 15 to 20)
#    0.000    2.727    3.636    0.818    0.000    8.727 
#    0.000    2.727    0.000    0.000    0.000    0.000 
#    0.000    0.000    0.000    0.000    0.000    0.000 
#
# Total GULP energy -122482.683561 kJ/mol
# GULP energy per Si atom -5567.394707 kJ/mol
# Density = 1.725527 g / cm^3
# Si number density = 17.294631 Si / 1000 Ang^3
#
#
#
# Elastic Constant Matrix: (Units=GPa)
#
#
# Indices 1 2 3 4 5 6 
#
# 1 137.6787 22.7455 3.4794 0.0000 -13.8160 0.0000
# 2 22.7455 55.8114 17.1048 0.0000 0.5976 0.0000
# 3 3.4794 17.1048 19.7000 0.0000 -7.0063 0.0000
# 4 0.0000 0.0000 0.0000 -1.3254 0.0000 -8.1035
# 5 -13.8160 0.5976 -7.0063 0.0000 13.1806 0.0000
# 6 0.0000 0.0000 0.0000 -8.1035 0.0000 280.5370
#
#
#
# Elastic Compliance Matrix: (Units=1/GPa)
#
#
# Indices 1 2 3 4 5 6 
#
# 1 0.009845 -0.007383 0.010434 0.000000 0.016201 0.000000
# 2 -0.007383 0.032723 -0.037473 0.000000 -0.029142 0.000000
# 3 0.010434 -0.037473 0.105985 0.000000 0.068973 0.000000
# 4 0.000000 0.000000 0.000000 -0.641258 0.000000 -0.018523
# 5 0.016201 -0.029142 0.068973 0.000000 0.130836 0.000000
# 6 0.000000 0.000000 0.000000 -0.018523 0.000000 0.003030
#
#
# Mechanical properties :
#
#
# Convention : Reuss Voigt Hill
#
# Bulk Modulus (GPa) = 12.54572 33.31664 22.93118
# Shear Modulus (GPa) = -18.98068 69.80246 25.41089
#
# Velocity S-wave (km/s) = -3.31643 6.35990 3.83729
# Velocity P-wave (km/s) = 2.71939 8.55787 5.73768
#
# Compressibility (1/GPa) = 0.07970845
#
# Stress axis : x y z
#
# Youngs Moduli (GPa) = 101.57297 30.55954 9.43531
#
# Poissons Ratio (x) = 0.22564 -0.09845
# Poissons Ratio (y) = 0.74996 0.35356
# Poissons Ratio (z) = -1.05978 1.14514
#
# Static dielectric constant tensor:
#      x y z
#    x 1.669900 0.000000 -0.005410 
#    y 0.000000 1.622960 0.000000 
#    z -0.005410 0.000000 1.575540 
# 
# From -- ./inp_files/39493.got.cif
#   From: 2010.05.17/outbox.cif.g08.bks.cpg/sg10_20_cif.got.tgz:39493.got - 2010.06.03 11:33:40.
