data_PCOD9141239
_publ_section_title
;
Structure prediction by ZEFSAII (Michael W. Deem and Ramdas Pophale) SiO2 
 PCOD9141239
Probable space group: C C
;
_chemical_formula_sum "Si O2"
_cell_formula_units_Z 14
_cell_length_a 9.000000
_cell_length_b 12.000000
_cell_length_c 24.000000
_cell_angle_alpha 90.000000
_cell_angle_beta 30.000000
_cell_angle_gamma 90.000000
_cell_volume 1296.000000
_symmetry_space_group_name_H-M "C C"
_symmetry_group_IT_number 9
_symmetry_cell_setting 'monoclinic'
loop_
_space_group_symop_operation_xyz
x,y,z
x,-y,1/2+z
1/2+x,1/2+y,z
1/2+x,1/2-y,1/2+z
loop_
_atom_site_type_symbol
_atom_site_label
_atom_site_fract_x
_atom_site_fract_y
_atom_site_fract_z
Si Si1 0.311400 0.523813 0.020170
Si Si2 0.118651 0.228717 0.729781
Si Si3 0.709910 0.359714 0.074373
Si Si4 0.045532 0.080878 0.064960
Si Si5 0.724532 0.679013 0.210590
Si Si6 0.458028 0.295818 0.913782
Si Si7 0.156149 0.782901 0.347679
O O1 0.986414 0.585584 0.117181
O O2 0.405980 0.526609 0.054458
O O3 0.324798 0.397295 0.993391
O O4 0.563440 0.600163 0.907651
O O5 0.236544 0.163638 0.633990
O O6 0.284231 0.347482 0.677163
O O7 0.132538 0.187136 0.789277
O O8 0.774613 0.255712 0.833091
O O9 0.407789 0.292451 0.161180
O O10 0.677497 0.487282 0.063843
O O11 0.940852 0.299913 0.955578
O O12 0.269091 0.181199 0.974412
O O13 0.532480 0.655130 0.328527
O O14 0.473450 0.718416 0.248646
#
# Coordination Sequence:
#
# PCOD9141239 Si02
#       7
#     4   4   4   4   4   4   4
#     4  11  24  46  77 110 152 196 255 312 373 459
#     4  11  25  47  72 111 147 198 255 307 390 445
#     4  10  24  47  76 110 144 197 263 303 375 464
#     4  12  24  48  77 106 151 195 252 317 372 455
#     4  10  22  47  75 108 151 197 252 306 378 452
#     4  11  24  46  75 109 146 201 247 309 383 445
#     4  11  23  47  74 108 153 202 246 314 381 444
#
# _framework density 10.802469
#
# number of rings (size 3 to 8) (size 9 to 14) (size 15 to 20)
#    0.000    1.143    5.714    0.857    2.000    6.857 
#   15.429    0.000    0.000    0.000    0.000    0.000 
#    0.000    0.000    0.000    0.000    0.000    0.000 
#
# Total GULP energy -78019.181395 kJ/mol
# GULP energy per Si atom -5572.798671 kJ/mol
# Density = 1.077788 g / cm^3
# Si number density = 10.802469 Si / 1000 Ang^3
#
#
#
# Elastic Constant Matrix: (Units=GPa)
#
#
# Indices 1 2 3 4 5 6 
#
# 1 123.5711 31.3975 35.6083 0.0024 19.6767 -0.0056
# 2 31.3975 124.9869 34.6545 -0.0021 6.3533 -0.0011
# 3 35.6083 34.6545 91.0694 0.0081 5.2603 0.0009
# 4 0.0024 -0.0021 0.0081 32.9757 -0.0108 8.8810
# 5 19.6767 6.3533 5.2603 -0.0108 47.1593 0.0047
# 6 -0.0056 -0.0011 0.0009 8.8810 0.0047 34.4823
#
#
#
# Elastic Compliance Matrix: (Units=1/GPa)
#
#
# Indices 1 2 3 4 5 6 
#
# 1 0.009934 -0.001446 -0.003126 -0.000002 -0.003601 0.000003
# 2 -0.001446 0.009187 -0.002913 0.000001 -0.000310 0.000000
# 3 -0.003126 -0.002913 0.013299 -0.000003 0.000213 0.000000
# 4 -0.000002 0.000001 -0.000003 0.032586 0.000009 -0.008393
# 5 -0.003601 -0.000310 0.000213 0.000009 0.022725 -0.000006
# 6 0.000003 0.000000 0.000000 -0.008393 -0.000006 0.031162
#
#
# Mechanical properties :
#
#
# Convention : Reuss Voigt Hill
#
# Bulk Modulus (GPa) = 57.30275 60.32754 58.81515
# Shear Modulus (GPa) = 35.79610 38.78792 37.29201
#
# Velocity S-wave (km/s) = 4.07486 4.24173 4.15913
# Velocity P-wave (km/s) = 6.97996 7.20925 7.09553
#
# Compressibility (1/GPa) = 0.01745117
#
# Stress axis : x y z
#
# Youngs Moduli (GPa) = 100.66311 108.84478 75.19318
#
# Poissons Ratio (x) = 0.15736 0.23506
# Poissons Ratio (y) = 0.14553 0.21903
# Poissons Ratio (z) = 0.31468 0.31706
#
# Static dielectric constant tensor:
#      x y z
#    x 1.870150 0.000000 -0.020950 
#    y 0.000000 1.761240 0.000000 
#    z -0.020950 0.000000 1.814070 
# 
# From -- ./inp_files/34995.got.cif
#   From: 2010.05.17/outbox.ucp.g08.bks.cvg/sg9_18_cif.got.tgz:34995.got - 2010.06.11 13:03:20.
