data_PCOD9141287
_publ_section_title
;
Structure prediction by ZEFSAII (Michael W. Deem and Ramdas Pophale) SiO2 
 PCOD9141287
Probable space group: C C
;
_chemical_formula_sum "Si O2"
_cell_formula_units_Z 12
_cell_length_a 24.000000
_cell_length_b 6.000000
_cell_length_c 15.000000
_cell_angle_alpha 90.000000
_cell_angle_beta 150.000000
_cell_angle_gamma 90.000000
_cell_volume 1080.000000
_symmetry_space_group_name_H-M "C C"
_symmetry_group_IT_number 9
_symmetry_cell_setting 'monoclinic'
loop_
_space_group_symop_operation_xyz
x,y,z
x,-y,1/2+z
1/2+x,1/2+y,z
1/2+x,1/2-y,1/2+z
loop_
_atom_site_type_symbol
_atom_site_label
_atom_site_fract_x
_atom_site_fract_y
_atom_site_fract_z
Si Si1 0.141490 0.924011 0.579130
Si Si2 0.727308 0.106420 0.437842
Si Si3 0.439203 0.075989 0.293295
Si Si4 0.853385 0.893580 0.434583
Si Si5 0.007044 0.222491 0.535104
Si Si6 0.073649 0.277509 0.337321
O O1 0.258936 0.786329 0.764275
O O2 0.040347 0.750000 0.436213
O O3 0.091922 0.086117 0.587412
O O4 0.130473 0.075075 0.473512
O O5 0.821757 0.286329 0.608150
O O6 0.603887 0.202686 0.239634
O O7 0.790347 0.000000 0.436213
O O8 0.678628 0.917046 0.439789
O O9 0.450220 0.924925 0.398913
O O10 0.488771 0.913883 0.285013
O O11 0.976807 0.797314 0.632791
O O12 0.902065 0.082954 0.432636
#
# Coordination Sequence:
#
# PCOD9141287 Si02
#       6
#     4   4   4   4   4   4
#     4  11  25  53  77 115 155 207 269 323 398 470
#     4  12  25  52  81 116 161 205 264 337 393 475
#     4  11  25  53  77 115 155 207 269 323 398 470
#     4  12  25  52  81 116 161 205 264 337 393 475
#     4  11  27  51  77 117 156 210 267 324 402 471
#     4  11  27  51  77 117 156 210 267 324 402 471
#
# _framework density 11.111110999999999
#
# number of rings (size 3 to 8) (size 9 to 14) (size 15 to 20)
#    0.000    0.667    3.333    3.000    0.000    1.333 
#   12.000    0.000    0.000    0.000    0.000    0.000 
#    0.000    0.000    0.000    0.000    0.000    0.000 
#
# Total GULP energy -66911.007221 kJ/mol
# GULP energy per Si atom -5575.917268 kJ/mol
# Density = 1.108582 g / cm^3
# Si number density = 11.111111 Si / 1000 Ang^3
#
#
#
# Elastic Constant Matrix: (Units=GPa)
#
#
# Indices 1 2 3 4 5 6 
#
# 1 139.8861 66.2683 55.8083 0.0000 19.6388 0.0000
# 2 66.2683 149.8049 89.9073 0.0000 -7.8187 0.0000
# 3 55.8083 89.9073 195.7745 0.0000 13.1241 0.0000
# 4 0.0000 0.0000 0.0000 73.8920 0.0000 5.0842
# 5 19.6388 -7.8187 13.1241 0.0000 47.3737 0.0000
# 6 0.0000 0.0000 0.0000 5.0842 0.0000 78.2823
#
#
#
# Elastic Compliance Matrix: (Units=1/GPa)
#
#
# Indices 1 2 3 4 5 6 
#
# 1 0.010119 -0.004398 -0.000545 0.000000 -0.004770 0.000000
# 2 -0.004398 0.011491 -0.004353 0.000000 0.004926 0.000000
# 3 -0.000545 -0.004353 0.007434 0.000000 -0.002552 0.000000
# 4 0.000000 0.000000 0.000000 0.013594 0.000000 -0.000883
# 5 -0.004770 0.004926 -0.002552 0.000000 0.024606 0.000000
# 6 0.000000 0.000000 0.000000 -0.000883 0.000000 0.012832
#
#
# Mechanical properties :
#
#
# Convention : Reuss Voigt Hill
#
# Bulk Modulus (GPa) = 95.69118 101.04815 98.36967
# Shear Modulus (GPa) = 48.94632 58.14170 53.54401
#
# Velocity S-wave (km/s) = 4.69826 5.12060 4.91397
# Velocity P-wave (km/s) = 8.51975 8.97391 8.74978
#
# Compressibility (1/GPa) = 0.01045028
#
# Stress axis : x y z
#
# Youngs Moduli (GPa) = 98.82024 87.02551 134.52332
#
# Poissons Ratio (x) = 0.38276 0.07332
# Poissons Ratio (y) = 0.43464 0.58565
# Poissons Ratio (z) = 0.05386 0.37886
#
# Static dielectric constant tensor:
#      x y z
#    x 1.923420 0.000000 -0.143970 
#    y 0.000000 2.056790 0.000000 
#    z -0.143970 0.000000 1.864350 
# 
# From -- ./inp_files/20648.got.cif
#   From: 2010.05.17/outbox.ucp.g08.bks.cvg/sg9_11_cif.got.tgz:20648.got - 2010.06.11 13:03:20.
