data_PCOD9141328
_publ_section_title
;
Structure prediction by ZEFSAII (Michael W. Deem and Ramdas Pophale) SiO2 
 PCOD9141328
Probable space group: P 2/M
;
_chemical_formula_sum "Si O2"
_cell_formula_units_Z 32
_cell_length_a 22.665825
_cell_length_b 22.547726
_cell_length_c 5.327726
_cell_angle_alpha 90.000000
_cell_angle_beta 96.687644
_cell_angle_gamma 90.000000
_cell_volume 2704.276100
_symmetry_space_group_name_H-M "P 2/M"
_symmetry_group_IT_number 10
_symmetry_cell_setting 'monoclinic'
loop_
_space_group_symop_operation_xyz
x,y,z
-x,y,-z
-x,-y,-z
x,-y,z
loop_
_atom_site_type_symbol
_atom_site_label
_atom_site_fract_x
_atom_site_fract_y
_atom_site_fract_z
Si Si1 0.124535 0.070516 0.146980
Si Si2 0.068211 0.879428 0.623912
Si Si3 0.071242 0.379196 0.800520
Si Si4 0.671883 0.927668 0.364139
Si Si5 0.259834 0.072081 0.100826
Si Si6 0.063924 0.429836 0.295974
Si Si7 0.039397 0.752095 0.768801
Si Si8 0.534724 0.927735 0.266808
O O1 0.105320 0.102477 0.395599
O O2 0.191338 0.088889 0.103958
O O3 0.123589 0.000000 0.196041
O O4 0.084002 0.083897 0.882627
O O5 0.075157 0.811056 0.714345
O O6 0.000000 0.886752 0.500000
O O7 0.096078 0.402797 0.552055
O O8 0.074211 0.308805 0.832575
O O9 0.001204 0.398754 0.751571
O O10 0.095373 0.412878 0.053761
O O11 0.701323 0.908994 0.640597
O O12 0.603424 0.909064 0.304933
O O13 0.672094 0.000000 0.363739
O O14 0.710983 0.908177 0.145602
O O15 0.260703 0.000000 0.097297
O O16 0.055167 0.500000 0.314669
O O17 0.000000 0.740077 0.500000
O O18 0.000000 0.763771 0.000000
O O19 0.500000 0.909232 0.500000
O O20 0.534888 0.000000 0.265467
O O21 0.500000 0.908672 0.000000
#
# Coordination Sequence:
#
# PCOD9141328 Si02
#       8
#     4   4   4   4   4   4   4   4
#     4  11  22  36  48  59  71  81  98 130 178 222
#     4  11  23  34  47  61  69  83 100 129 166 222
#     4  10  15  24  35  49  66  93 107 125 143 165
#     4   9  15  24  37  53  69  88 112 128 143 172
#     4   9  17  28  42  54  65  82 103 129 156 192
#     4  10  16  22  33  53  74  90 108 126 144 162
#     4  11  18  31  43  53  69  84 109 125 147 187
#     4   9  15  21  30  47  72  96 112 127 143 159
#
# _framework density 11.833112
#
# number of rings (size 3 to 8) (size 9 to 14) (size 15 to 20)
#    0.000    2.000    2.500    5.625    0.000    6.500 
#    0.000    0.000    0.000    0.000    0.000    0.000 
#    0.000    0.000    0.000    0.000    0.000    0.000 
#
# Total GULP energy -178173.614274 kJ/mol
# GULP energy per Si atom -5567.925446 kJ/mol
# Density = 1.180618 g / cm^3
# Si number density = 11.833112 Si / 1000 Ang^3
#
#
#
# Elastic Constant Matrix: (Units=GPa)
#
#
# Indices 1 2 3 4 5 6 
#
# 1 37.8838 16.4880 16.0468 0.0000 -6.6789 0.0000
# 2 16.4880 45.5776 16.2147 0.0000 -6.1748 0.0000
# 3 16.0468 16.2147 93.7626 0.0000 -14.9566 0.0000
# 4 0.0000 0.0000 0.0000 16.5456 0.0000 -3.8993
# 5 -6.6789 -6.1748 -14.9566 0.0000 19.4617 0.0000
# 6 0.0000 0.0000 0.0000 -3.8993 0.0000 0.3513
#
#
#
# Elastic Compliance Matrix: (Units=1/GPa)
#
#
# Indices 1 2 3 4 5 6 
#
# 1 0.033095 -0.010119 -0.002980 0.000000 0.005857 0.000000
# 2 -0.010119 0.026892 -0.002407 0.000000 0.003210 0.000000
# 3 -0.002980 -0.002407 0.012886 0.000000 0.008117 0.000000
# 4 0.000000 0.000000 0.000000 -0.037406 0.000000 -0.415182
# 5 0.005857 0.003210 0.008117 0.000000 0.060650 0.000000
# 6 0.000000 0.000000 0.000000 -0.415182 0.000000 -1.761730
#
#
# Mechanical properties :
#
#
# Convention : Reuss Voigt Hill
#
# Bulk Modulus (GPa) = 23.88746 30.52479 27.20613
# Shear Modulus (GPa) = -3.08519 15.83668 6.37575
#
# Velocity S-wave (km/s) = -1.61645 3.66230 2.32374
# Velocity P-wave (km/s) = 4.09230 6.61327 5.49919
#
# Compressibility (1/GPa) = 0.04186296
#
# Stress axis : x y z
#
# Youngs Moduli (GPa) = 30.21581 37.18534 77.60243
#
# Poissons Ratio (x) = 0.37627 0.23124
# Poissons Ratio (y) = 0.30575 0.18677
# Poissons Ratio (z) = 0.09004 0.08950
#
# Static dielectric constant tensor:
#      x y z
#    x 1.373020 0.000000 -0.016130 
#    y 0.000000 1.374060 0.000000 
#    z -0.016130 0.000000 1.465220 
# 
# From -- ./inp_files/12876.got.cif
#   From: 2010.05.17/outbox.cif.g08.bks.cpg/sg10_7_cif.got.tgz:12876.got - 2010.06.03 11:33:40.
