data_PCOD9141211
_publ_section_title
;
Structure prediction by ZEFSAII (Michael W. Deem and Ramdas Pophale) SiO2 
 PCOD9141211
Probable space group: C C
;
_chemical_formula_sum "Si O2"
_cell_formula_units_Z 16
_cell_length_a 15.000000
_cell_length_b 18.000000
_cell_length_c 9.000000
_cell_angle_alpha 90.000000
_cell_angle_beta 140.000000
_cell_angle_gamma 90.000000
_cell_volume 1561.973892
_symmetry_space_group_name_H-M "C C"
_symmetry_group_IT_number 9
_symmetry_cell_setting 'monoclinic'
loop_
_space_group_symop_operation_xyz
x,y,z
x,-y,1/2+z
1/2+x,1/2+y,z
1/2+x,1/2-y,1/2+z
loop_
_atom_site_type_symbol
_atom_site_label
_atom_site_fract_x
_atom_site_fract_y
_atom_site_fract_z
Si Si1 0.143620 0.543074 0.657680
Si Si2 0.107679 0.293845 0.095312
Si Si3 0.292098 0.382558 0.855275
Si Si4 0.086084 0.155321 0.592778
Si Si5 0.944609 0.509620 0.131759
Si Si6 0.296088 0.761543 0.581516
Si Si7 0.545538 0.197196 0.860705
Si Si8 0.813938 0.410811 0.187414
O O1 0.193171 0.627530 0.708173
O O2 0.237203 0.468958 0.809683
O O3 0.060014 0.532978 0.397571
O O4 0.026470 0.549909 0.636300
O O5 0.210206 0.243608 0.126485
O O6 0.073536 0.279381 0.225564
O O7 0.955003 0.289071 0.817001
O O8 0.177993 0.349541 0.593498
O O9 0.449844 0.382073 0.992595
O O10 0.293824 0.320046 0.992411
O O11 0.034484 0.230219 0.448610
O O12 0.165058 0.110045 0.563098
O O13 0.205925 0.182341 0.862269
O O14 0.821067 0.477583 0.075954
O O15 0.898458 0.566659 0.945484
O O16 0.404550 0.151959 0.719462
#
# Coordination Sequence:
#
# PCOD9141211 Si02
#       8
#     4   4   4   4   4   4   4   4
#     4  11  20  38  68  95 135 173 243 286 345 417
#     4  12  25  41  69 109 138 185 244 304 353 423
#     4  11  22  44  68 104 136 194 235 290 367 429
#     4  11  25  42  67  99 143 186 228 291 362 433
#     4  10  20  38  66  95 118 184 229 281 333 424
#     4  11  25  44  69 105 145 186 244 299 358 436
#     4  11  23  40  70  97 137 190 238 284 352 436
#     4  11  22  43  67  98 132 180 235 285 348 428
#
# _framework density 10.243449
#
# number of rings (size 3 to 8) (size 9 to 14) (size 15 to 20)
#    0.000    1.000    5.000    3.000    7.000    0.000 
#    0.000    3.750    2.750    0.000    0.000    0.000 
#    0.000    0.000    0.000    0.000    0.000    0.000 
#
# Total GULP energy -89204.374565 kJ/mol
# GULP energy per Si atom -5575.273410 kJ/mol
# Density = 1.022013 g / cm^3
# Si number density = 10.243449 Si / 1000 Ang^3
#
#
#
# Elastic Constant Matrix: (Units=GPa)
#
#
# Indices 1 2 3 4 5 6 
#
# 1 152.7014 24.8255 20.4593 0.0000 3.9483 0.0000
# 2 24.8255 69.0483 6.8543 0.0000 2.9441 0.0000
# 3 20.4593 6.8543 56.6019 0.0000 -1.2951 0.0000
# 4 0.0000 0.0000 0.0000 18.7500 0.0000 1.6364
# 5 3.9483 2.9441 -1.2951 0.0000 50.0095 0.0000
# 6 0.0000 0.0000 0.0000 1.6364 0.0000 36.8642
#
#
#
# Elastic Compliance Matrix: (Units=1/GPa)
#
#
# Indices 1 2 3 4 5 6 
#
# 1 0.007259 -0.002356 -0.002350 0.000000 -0.000495 0.000000
# 2 -0.002356 0.015465 -0.001038 0.000000 -0.000751 0.000000
# 3 -0.002350 -0.001038 0.018659 0.000000 0.000730 0.000000
# 4 0.000000 0.000000 0.000000 0.053541 0.000000 -0.002377
# 5 -0.000495 -0.000751 0.000730 0.000000 0.020098 0.000000
# 6 0.000000 0.000000 0.000000 -0.002377 0.000000 0.027232
#
#
# Mechanical properties :
#
#
# Convention : Reuss Voigt Hill
#
# Bulk Modulus (GPa) = 33.45043 42.51440 37.98241
# Shear Modulus (GPa) = 30.54222 36.20557 33.37389
#
# Velocity S-wave (km/s) = 3.86530 4.20843 4.04051
# Velocity P-wave (km/s) = 6.02361 6.66420 6.35199
#
# Compressibility (1/GPa) = 0.02989499
#
# Stress axis : x y z
#
# Youngs Moduli (GPa) = 137.75310 64.66353 53.59301
#
# Poissons Ratio (x) = 0.15232 0.12595
# Poissons Ratio (y) = 0.32449 0.05565
# Poissons Ratio (z) = 0.32373 0.06715
#
# Static dielectric constant tensor:
#      x y z
#    x 1.744410 0.000000 -0.018340 
#    y 0.000000 1.814930 0.000000 
#    z -0.018340 0.000000 1.734960 
# 
# From -- ./inp_files/9933.got.cif
#   From: 2010.05.17/outbox.ucp.g08.bks.cvg/sg9_5_cif.got.tgz:9933.got - 2010.06.11 13:03:20.
