data_PCOD9141532
_publ_section_title
;
Structure prediction by ZEFSAII (Michael W. Deem and Ramdas Pophale) SiO2 
 PCOD9141532
Probable space group: P 2/M
;
_chemical_formula_sum "Si O2"
_cell_formula_units_Z 30
_cell_length_a 16.417084
_cell_length_b 19.674131
_cell_length_c 5.052338
_cell_angle_alpha 90.000000
_cell_angle_beta 72.392876
_cell_angle_gamma 90.000000
_cell_volume 1555.416224
_symmetry_space_group_name_H-M "P 2/M"
_symmetry_group_IT_number 10
_symmetry_cell_setting 'monoclinic'
loop_
_space_group_symop_operation_xyz
x,y,z
-x,y,-z
-x,-y,-z
x,-y,z
loop_
_atom_site_type_symbol
_atom_site_label
_atom_site_fract_x
_atom_site_fract_y
_atom_site_fract_z
Si Si1 0.747602 0.578445 0.225315
Si Si2 0.946413 0.726631 0.297898
Si Si3 0.500000 0.759229 0.000000
Si Si4 0.209663 0.343988 0.302126
Si Si5 0.173163 0.151621 0.779206
Si Si6 0.898252 0.920884 0.638271
Si Si7 0.671325 0.233180 0.600477
Si Si8 0.413520 0.653295 0.687882
O O1 0.769636 0.500000 0.180480
O O2 0.802013 0.627137 0.979532
O O3 0.751109 0.602050 0.527268
O O4 0.654549 0.595319 0.191155
O O5 0.880482 0.673957 0.484163
O O6 0.891943 0.787891 0.228026
O O7 0.000000 0.750516 0.500000
O O8 0.000000 0.698814 0.000000
O O9 0.581535 0.798398 0.794929
O O10 0.449692 0.706642 0.862519
O O11 0.267275 0.274547 0.252964
O O12 0.149564 0.093698 0.590151
O O13 0.267354 0.182490 0.623840
O O14 0.148553 0.124830 0.093503
O O15 0.000000 0.906777 0.500000
O O16 0.891688 0.000000 0.720337
O O17 0.635544 0.295472 0.460744
O O18 0.500000 0.619969 0.500000
#
# Coordination Sequence:
#
# PCOD9141532 Si02
#       8
#     4   4   2   4   4   4   4   4
#     4  11  21  36  55  75 103 146 188 222 271 337
#     4  11  21  35  58  85 110 140 176 232 288 329
#     4  10  16  34  55  78 117 144 176 222 294 340
#     4  10  21  37  54  78 109 139 181 228 284 332
#     4  11  22  35  58  89 118 146 192 229 265 330
#     4  11  23  39  58  83 122 163 189 220 267 320
#     4   9  20  32  56  81 114 147 180 231 282 328
#     4   9  19  33  51  78 112 143 175 227 283 336
#
# _framework density 19.287441999999999
#
# number of rings (size 3 to 8) (size 9 to 14) (size 15 to 20)
#    0.000    1.733    1.333    4.000    1.867    3.467 
#    0.000    0.333    0.000    8.000    0.000    2.800 
#    0.000    0.000    0.000    0.000    0.000    0.000 
#
# Total GULP energy -167145.673258 kJ/mol
# GULP energy per Si atom -5571.522442 kJ/mol
# Density = 1.924354 g / cm^3
# Si number density = 19.287442 Si / 1000 Ang^3
#
#
#
# Elastic Constant Matrix: (Units=GPa)
#
#
# Indices 1 2 3 4 5 6 
#
# 1 53.1033 4.5366 21.6445 0.0000 -19.5804 0.0000
# 2 4.5366 45.5566 11.1491 0.0000 -13.9633 0.0000
# 3 21.6445 11.1491 98.1878 0.0000 -22.5764 0.0000
# 4 0.0000 0.0000 0.0000 27.1568 0.0000 1.3031
# 5 -19.5804 -13.9633 -22.5764 0.0000 41.9036 0.0000
# 6 0.0000 0.0000 0.0000 1.3031 0.0000 10.2293
#
#
#
# Elastic Compliance Matrix: (Units=1/GPa)
#
#
# Indices 1 2 3 4 5 6 
#
# 1 0.023599 0.001422 -0.003104 0.000000 0.009829 0.000000
# 2 0.001422 0.024625 -0.001221 0.000000 0.008212 0.000000
# 3 -0.003104 -0.001221 0.012076 0.000000 0.004649 0.000000
# 4 0.000000 0.000000 0.000000 0.037050 0.000000 -0.004720
# 5 0.009829 0.008212 0.004649 0.000000 0.033698 0.000000
# 6 0.000000 0.000000 0.000000 -0.004720 0.000000 0.098360
#
#
# Mechanical properties :
#
#
# Convention : Reuss Voigt Hill
#
# Bulk Modulus (GPa) = 18.35050 30.16758 24.25904
# Shear Modulus (GPa) = 19.73327 26.49241 23.11284
#
# Velocity S-wave (km/s) = 3.20209 3.71017 3.46545
# Velocity P-wave (km/s) = 4.81726 5.83343 5.34953
#
# Compressibility (1/GPa) = 0.05449442
#
# Stress axis : x y z
#
# Youngs Moduli (GPa) = 42.37491 40.60904 82.80606
#
# Poissons Ratio (x) = -0.05775 0.25700
# Poissons Ratio (y) = -0.06026 0.10114
# Poissons Ratio (z) = 0.13152 0.04960
#
# Static dielectric constant tensor:
#      x y z
#    x 1.784830 0.000000 -0.016910 
#    y 0.000000 1.661540 0.000000 
#    z -0.016910 0.000000 1.817920 
# 
# From -- ./inp_files/11626.got.cif
#   From: 2010.05.17/outbox.cif.g08.bks.cpg/sg10_6_cif.got.tgz:11626.got - 2010.06.03 11:33:40.
