data_PCOD9141564
_publ_section_title
;
Structure prediction by ZEFSAII (Michael W. Deem and Ramdas Pophale) SiO2 
 PCOD9141564
Probable space group: P 2/M
;
_chemical_formula_sum "Si O2"
_cell_formula_units_Z 28
_cell_length_a 17.228460
_cell_length_b 7.668397
_cell_length_c 22.283818
_cell_angle_alpha 90.000000
_cell_angle_beta 148.378442
_cell_angle_gamma 90.000000
_cell_volume 1543.567969
_symmetry_space_group_name_H-M "P 2/M"
_symmetry_group_IT_number 10
_symmetry_cell_setting 'monoclinic'
loop_
_space_group_symop_operation_xyz
x,y,z
-x,y,-z
-x,-y,-z
x,-y,z
loop_
_atom_site_type_symbol
_atom_site_label
_atom_site_fract_x
_atom_site_fract_y
_atom_site_fract_z
Si Si1 0.504985 0.695612 0.602118
Si Si2 0.835032 0.713429 0.409894
Si Si3 0.247031 0.286138 0.510253
Si Si4 0.621362 0.712738 0.162985
Si Si5 0.703474 0.287073 0.083036
Si Si6 0.713595 0.196633 0.642263
Si Si7 0.976180 0.289799 0.742497
O O1 0.547120 0.500000 0.646567
O O2 0.407717 0.773960 0.591913
O O3 0.383358 0.690683 0.467991
O O4 0.648025 0.779543 0.665368
O O5 0.834477 0.500000 0.409760
O O6 0.792626 0.769277 0.448978
O O7 0.717478 0.771345 0.282539
O O8 0.000000 0.767657 0.500000
O O9 0.250348 0.500000 0.511379
O O10 0.121710 0.233051 0.379620
O O11 0.621777 0.500000 0.163911
O O12 0.692372 0.763930 0.145801
O O13 0.449806 0.768275 0.048859
O O14 0.704466 0.500000 0.082865
O O15 0.856083 0.227058 0.153954
O O16 0.883890 0.234333 0.740328
O O17 0.681198 0.000000 0.602342
O O18 0.978752 0.500000 0.743420
#
# Coordination Sequence:
#
# PCOD9141564 Si02
#       7
#     4   4   4   4   4   4   4
#     4   9  15  25  38  52  76 107 133 154 186 235
#     4   9  14  19  29  48  77 107 128 151 187 226
#     4   8  14  21  31  49  72 101 130 152 181 225
#     4   8  13  20  31  50  76 103 131 161 191 223
#     4   8  13  21  33  50  74 104 132 158 190 228
#     4  10  17  24  36  56  79  99 126 163 198 230
#     4   9  15  24  37  53  77 106 132 156 189 233
#
# _framework density 18.139790000000001
#
# number of rings (size 3 to 8) (size 9 to 14) (size 15 to 20)
#    0.000    3.286    0.000    5.143    0.000    3.429 
#    0.000    0.000    0.000    0.000    0.000    3.000 
#    0.000   61.143    0.000    0.000    0.000    0.000 
#
# Total GULP energy -155914.963838 kJ/mol
# GULP energy per Si atom -5568.391566 kJ/mol
# Density = 1.809850 g / cm^3
# Si number density = 18.139790 Si / 1000 Ang^3
#
#
#
# Elastic Constant Matrix: (Units=GPa)
#
#
# Indices 1 2 3 4 5 6 
#
# 1 180.0706 8.4101 82.2732 0.0000 37.4454 0.0000
# 2 8.4101 37.9659 6.2591 0.0000 2.3994 0.0000
# 3 82.2732 6.2591 93.1393 0.0000 22.9519 0.0000
# 4 0.0000 0.0000 0.0000 -18.5408 0.0000 -1.8595
# 5 37.4454 2.3994 22.9519 0.0000 33.7121 0.0000
# 6 0.0000 0.0000 0.0000 -1.8595 0.0000 -27.2083
#
#
#
# Elastic Compliance Matrix: (Units=1/GPa)
#
#
# Indices 1 2 3 4 5 6 
#
# 1 0.010337 -0.000649 -0.007533 0.000000 -0.006307 0.000000
# 2 -0.000649 0.026694 -0.001117 0.000000 -0.000418 0.000000
# 3 -0.007533 -0.001117 0.018486 0.000000 -0.004139 0.000000
# 4 0.000000 0.000000 0.000000 -0.054307 0.000000 0.003711
# 5 -0.006307 -0.000418 -0.004139 0.000000 0.039515 0.000000
# 6 0.000000 0.000000 0.000000 0.003711 0.000000 -0.037007
#
#
# Mechanical properties :
#
#
# Convention : Reuss Voigt Hill
#
# Bulk Modulus (GPa) = 27.08776 56.11784 41.60280
# Shear Modulus (GPa) = 144.40978 11.87483 78.14231
#
# Velocity S-wave (km/s) = 8.93209 2.56135 6.57049
# Velocity P-wave (km/s) = 11.01551 6.30482 8.97475
#
# Compressibility (1/GPa) = 0.03691704
#
# Stress axis : x y z
#
# Youngs Moduli (GPa) = 96.73848 37.46181 54.09494
#
# Poissons Ratio (x) = 0.02433 0.40752
# Poissons Ratio (y) = 0.06282 0.06044
# Poissons Ratio (z) = 0.72877 0.04186
#
# Static dielectric constant tensor:
#      x y z
#    x 1.651610 0.000000 0.034540 
#    y 0.000000 1.648230 0.000000 
#    z 0.034540 0.000000 1.596190 
# 
# From -- ./inp_files/89889.got.cif
#   From: 2010.05.17/outbox.cif.g08.bks.cpg/sg10_45_cif.got.tgz:89889.got - 2010.06.03 11:33:40.
