data_PCOD9141429
_publ_section_title
;
Structure prediction by ZEFSAII (Michael W. Deem and Ramdas Pophale) SiO2 
 PCOD9141429
Probable space group: P 2/M
;
_chemical_formula_sum "Si O2"
_cell_formula_units_Z 28
_cell_length_a 10.286408
_cell_length_b 14.889479
_cell_length_c 12.770980
_cell_angle_alpha 90.000000
_cell_angle_beta 74.449282
_cell_angle_gamma 90.000000
_cell_volume 1884.391741
_symmetry_space_group_name_H-M "P 2/M"
_symmetry_group_IT_number 10
_symmetry_cell_setting 'monoclinic'
loop_
_space_group_symop_operation_xyz
x,y,z
-x,y,-z
-x,-y,-z
x,-y,z
loop_
_atom_site_type_symbol
_atom_site_label
_atom_site_fract_x
_atom_site_fract_y
_atom_site_fract_z
Si Si1 0.792933 0.211731 0.728847
Si Si2 0.141064 0.105725 0.909562
Si Si3 0.865208 0.399990 0.387051
Si Si4 0.657731 0.895110 0.944499
Si Si5 0.883963 0.788474 0.297381
Si Si6 0.838547 0.103113 0.513180
Si Si7 0.811855 0.599960 0.638988
O O1 0.711032 0.166828 0.839891
O O2 0.776677 0.155729 0.624891
O O3 0.755359 0.314895 0.712720
O O4 0.952755 0.208450 0.723537
O O5 0.150688 0.166138 0.804768
O O6 0.143092 0.000000 0.879221
O O7 0.258539 0.122594 0.967888
O O8 0.000000 0.122110 0.000000
O O9 0.828682 0.500000 0.356664
O O10 0.838398 0.314815 0.320079
O O11 0.800680 0.386617 0.516129
O O12 0.026919 0.400066 0.372815
O O13 0.683252 0.000000 0.910904
O O14 0.500000 0.883673 0.000000
O O15 0.822555 0.844346 0.407810
O O16 0.000000 0.102141 0.500000
O O17 0.792782 0.000000 0.517042
O O18 0.760903 0.500000 0.676442
#
# Coordination Sequence:
#
# PCOD9141429 Si02
#       7
#     4   4   4   4   4   4   4
#     4  10  16  26  44  66  93 120 154 193 227 273
#     4  10  19  31  47  67  91 123 159 193 227 268
#     4   8  13  22  37  62  97 126 146 176 229 287
#     4  10  21  35  49  65  89 126 165 194 223 267
#     4  10  16  25  43  68  96 119 148 190 235 274
#     4   9  16  22  34  63  95 118 139 182 240 278
#     4   8  13  22  38  63  94 123 150 182 227 280
#
# _framework density 14.858905999999999
#
# number of rings (size 3 to 8) (size 9 to 14) (size 15 to 20)
#    0.000    2.714    2.857    1.714    0.000    1.143 
#    0.000    0.000    0.000    2.571    0.000    4.000 
#    0.000    2.286    0.000    0.000    0.000    0.000 
#
# Total GULP energy -155901.435712 kJ/mol
# GULP energy per Si atom -5567.908418 kJ/mol
# Density = 1.482509 g / cm^3
# Si number density = 14.858906 Si / 1000 Ang^3
#
#
#
# Elastic Constant Matrix: (Units=GPa)
#
#
# Indices 1 2 3 4 5 6 
#
# 1 38.9365 30.1033 26.7594 0.0000 7.9407 0.0000
# 2 30.1033 159.2778 96.5188 0.0000 10.9617 0.0000
# 3 26.7594 96.5188 110.7705 0.0000 15.0056 0.0000
# 4 0.0000 0.0000 0.0000 28.6961 0.0000 1.2536
# 5 7.9407 10.9617 15.0056 0.0000 9.3564 0.0000
# 6 0.0000 0.0000 0.0000 1.2536 0.0000 8.2854
#
#
#
# Elastic Compliance Matrix: (Units=1/GPa)
#
#
# Indices 1 2 3 4 5 6 
#
# 1 0.034407 -0.003706 -0.002191 0.000000 -0.021345 0.000000
# 2 -0.003706 0.013810 -0.011973 0.000000 0.006169 0.000000
# 3 -0.002191 -0.011973 0.022789 0.000000 -0.020661 0.000000
# 4 0.000000 0.000000 0.000000 0.035080 0.000000 -0.005307
# 5 -0.021345 0.006169 -0.020661 0.000000 0.150902 0.000000
# 6 0.000000 0.000000 0.000000 -0.005307 0.000000 0.121497
#
#
# Mechanical properties :
#
#
# Convention : Reuss Voigt Hill
#
# Bulk Modulus (GPa) = 28.35716 68.41639 48.38678
# Shear Modulus (GPa) = 11.73761 19.64113 15.68937
#
# Velocity S-wave (km/s) = 2.81363 3.63966 3.25297
# Velocity P-wave (km/s) = 5.44804 7.98792 6.83695
#
# Compressibility (1/GPa) = 0.03526446
#
# Stress axis : x y z
#
# Youngs Moduli (GPa) = 29.06368 72.41169 43.88129
#
# Poissons Ratio (x) = 0.26837 0.09615
# Poissons Ratio (y) = 0.10772 0.52541
# Poissons Ratio (z) = 0.06368 0.86702
#
# Static dielectric constant tensor:
#      x y z
#    x 1.471760 0.000000 0.002910 
#    y 0.000000 1.516180 0.000000 
#    z 0.002910 0.000000 1.467000 
# 
# From -- ./inp_files/24930.got.cif
#   From: 2010.05.17/outbox.cif.g08.bks.cpg/sg10_13_cif.got.tgz:24930.got - 2010.06.03 11:33:40.
