data_PCOD9141722
_publ_section_title
;
Structure prediction by ZEFSAII (Michael W. Deem and Ramdas Pophale) SiO2 
 PCOD9141722
Probable space group: P 2/M
;
_chemical_formula_sum "Si O2"
_cell_formula_units_Z 18
_cell_length_a 8.882915
_cell_length_b 20.900625
_cell_length_c 7.842553
_cell_angle_alpha 90.000000
_cell_angle_beta 147.222185
_cell_angle_gamma 90.000000
_cell_volume 788.272937
_symmetry_space_group_name_H-M "P 2/M"
_symmetry_group_IT_number 10
_symmetry_cell_setting 'monoclinic'
loop_
_space_group_symop_operation_xyz
x,y,z
-x,y,-z
-x,-y,-z
x,-y,z
loop_
_atom_site_type_symbol
_atom_site_label
_atom_site_fract_x
_atom_site_fract_y
_atom_site_fract_z
Si Si1 0.232403 0.728932 0.857269
Si Si2 0.645291 0.925200 0.319580
Si Si3 0.075427 0.590843 0.774232
Si Si4 0.847738 0.855720 0.032064
Si Si5 0.410312 0.500000 0.640763
O O1 0.118275 0.665887 0.842593
O O2 0.000000 0.748331 0.500000
O O3 0.280912 0.789529 0.022373
O O4 0.500000 0.710547 0.000000
O O5 0.916248 0.884222 0.618555
O O6 0.716460 0.000000 0.391594
O O7 0.500000 0.910397 0.000000
O O8 0.399948 0.906651 0.215342
O O9 0.000000 0.581050 0.500000
O O10 0.822350 0.555794 0.626956
O O11 0.360915 0.554763 0.085537
O O12 0.000000 0.844628 0.000000
#
# Coordination Sequence:
#
# PCOD9141722 Si02
#       5
#     4   4   4   4   2
#     4  11  22  37  57  82 115 156 200 241 291 354
#     4  11  24  43  67  93 122 158 198 242 297 360
#     4  10  17  27  45  74 108 145 182 233 295 348
#     4  12  25  41  63  91 123 160 201 249 299 346
#     4  10  17  26  44  74 113 140 175 238 303 346
#
# _framework density 22.834731000000001
#
# number of rings (size 3 to 8) (size 9 to 14) (size 15 to 20)
#    0.000    1.111    0.000   10.667    0.000    4.444 
#    0.000    0.000    0.000    0.000    0.000    4.667 
#    0.000    0.000    0.000    5.111    0.000    0.000 
#
# Total GULP energy -100214.535106 kJ/mol
# GULP energy per Si atom -5567.474173 kJ/mol
# Density = 2.278276 g / cm^3
# Si number density = 22.834731 Si / 1000 Ang^3
#
#
#
# Elastic Constant Matrix: (Units=GPa)
#
#
# Indices 1 2 3 4 5 6 
#
# 1 37.6377 24.8313 14.1750 0.0000 1.3267 0.0000
# 2 24.8313 149.3191 43.7846 0.0000 -6.3075 0.0000
# 3 14.1750 43.7846 127.7760 0.0000 26.2504 0.0000
# 4 0.0000 0.0000 0.0000 16.0820 0.0000 16.0289
# 5 1.3267 -6.3075 26.2504 0.0000 27.1906 0.0000
# 6 0.0000 0.0000 0.0000 16.0289 0.0000 -10.2838
#
#
#
# Elastic Compliance Matrix: (Units=1/GPa)
#
#
# Indices 1 2 3 4 5 6 
#
# 1 0.030238 -0.004615 -0.001559 0.000000 -0.001041 0.000000
# 2 -0.004615 0.008797 -0.003702 0.000000 0.005840 0.000000
# 3 -0.001559 -0.003702 0.011761 0.000000 -0.012137 0.000000
# 4 0.000000 0.000000 0.000000 0.024351 0.000000 0.037955
# 5 -0.001041 0.005840 -0.012137 0.000000 0.049900 0.000000
# 6 0.000000 0.000000 0.000000 0.037955 0.000000 -0.038081
#
#
# Mechanical properties :
#
#
# Convention : Reuss Voigt Hill
#
# Bulk Modulus (GPa) = 32.21353 53.36829 42.79091
# Shear Modulus (GPa) = 42.71052 22.06057 32.38554
#
# Velocity S-wave (km/s) = 4.32953 3.11158 3.77006
# Velocity P-wave (km/s) = 6.25547 6.02757 6.14258
#
# Compressibility (1/GPa) = 0.03104286
#
# Stress axis : x y z
#
# Youngs Moduli (GPa) = 33.07110 113.67741 85.02494
#
# Poissons Ratio (x) = 0.52465 0.13257
# Poissons Ratio (y) = 0.15263 0.31477
# Poissons Ratio (z) = 0.05156 0.42085
#
# Static dielectric constant tensor:
#      x y z
#    x 1.941480 0.000000 -0.001910 
#    y 0.000000 1.809020 0.000000 
#    z -0.001910 0.000000 1.802490 
# 
# From -- ./inp_files/20360.got.cif
#   From: 2010.05.17/outbox.cif.g08.bks.cpg/sg10_11_cif.got.tgz:20360.got - 2010.06.03 11:33:40.
