data_PCOD9141035
_publ_section_title
;
Structure prediction by ZEFSAII (Michael W. Deem and Ramdas Pophale) SiO2 
 PCOD9141035
Probable space group: C C
;
_chemical_formula_sum "Si O2"
_cell_formula_units_Z 16
_cell_length_a 23.099455
_cell_length_b 4.931098
_cell_length_c 8.573510
_cell_angle_alpha 90.000000
_cell_angle_beta 31.596467
_cell_angle_gamma 90.000000
_cell_volume 511.658389
_symmetry_space_group_name_H-M "C C"
_symmetry_group_IT_number 9
_symmetry_cell_setting 'monoclinic'
loop_
_space_group_symop_operation_xyz
x,y,z
x,-y,1/2+z
1/2+x,1/2+y,z
1/2+x,1/2-y,1/2+z
loop_
_atom_site_type_symbol
_atom_site_label
_atom_site_fract_x
_atom_site_fract_y
_atom_site_fract_z
Si Si1 0.470730 0.371517 0.158650
Si Si2 0.222432 0.331371 0.209299
Si Si3 0.415470 0.168631 0.627543
Si Si4 0.667172 0.628483 0.678190
O O1 0.359623 0.575215 0.372558
O O2 0.420397 0.252970 0.435984
O O3 0.463278 0.133702 0.047023
O O4 0.606972 0.343339 0.903008
O O5 0.174624 0.633703 0.289819
O O6 0.278279 0.075216 0.964283
O O7 0.530930 0.343341 0.433832
O O8 0.217505 0.752969 0.900857
#
# Coordination Sequence:
#
# PCOD9141035 Si02
#       4
#     4   4   4   4
#     4  12  26  45  71 106 143 186 239 300 359 424
#     4  12  25  47  73 104 142 192 242 294 357 434
#     4  12  25  47  73 104 142 192 242 294 357 434
#     4  12  26  45  71 106 143 186 239 300 359 424
#
# _framework density 31.270864
#
# number of rings (size 3 to 8) (size 9 to 14) (size 15 to 20)
#    0.000    0.000    0.000   10.500    0.000    4.000 
#    0.000    0.000    0.000    0.000    0.000    0.000 
#    0.000    0.000    0.000    0.000    0.000    0.000 
#
# Total GULP energy -44929.012374 kJ/mol
# GULP energy per Si atom -5616.126547 kJ/mol
# Density = 3.119969 g / cm^3
# Si number density = 31.270864 Si / 1000 Ang^3
#
#
#
# Elastic Constant Matrix: (Units=GPa)
#
#
# Indices 1 2 3 4 5 6 
#
# 1 173.5379 153.0449 16.7299 0.0000 -15.5020 0.0000
# 2 153.0449 376.3580 123.0374 0.0000 7.5991 0.0000
# 3 16.7299 123.0374 240.1675 0.0000 -33.2256 0.0000
# 4 0.0000 0.0000 0.0000 87.9315 0.0000 -32.1014
# 5 -15.5020 7.5991 -33.2256 0.0000 54.2211 0.0000
# 6 0.0000 0.0000 0.0000 -32.1014 0.0000 48.1752
#
#
#
# Elastic Compliance Matrix: (Units=1/GPa)
#
#
# Indices 1 2 3 4 5 6 
#
# 1 0.010738 -0.005385 0.002775 0.000000 0.005525 0.000000
# 2 -0.005385 0.006022 -0.003321 0.000000 -0.004419 0.000000
# 3 0.002775 -0.003321 0.006388 0.000000 0.005173 0.000000
# 4 0.000000 0.000000 0.000000 0.015028 0.000000 0.010014
# 5 0.005525 -0.004419 0.005173 0.000000 0.023812 0.000000
# 6 0.000000 0.000000 0.000000 0.010014 0.000000 0.027430
#
#
# Mechanical properties :
#
#
# Convention : Reuss Voigt Hill
#
# Bulk Modulus (GPa) = 88.61424 152.85421 120.73422
# Shear Modulus (GPa) = 47.59977 71.21564 59.40770
#
# Velocity S-wave (km/s) = 3.90574 4.77737 4.36337
# Velocity P-wave (km/s) = 6.98133 8.91167 8.00490
#
# Compressibility (1/GPa) = 0.01128487
#
# Stress axis : x y z
#
# Youngs Moduli (GPa) = 93.12809 166.05814 156.55432
#
# Poissons Ratio (x) = 0.89429 -0.43449
# Poissons Ratio (y) = 0.50153 0.51995
# Poissons Ratio (z) = -0.25846 0.55152
#
# Static dielectric constant tensor:
#      x y z
#    x 2.166760 0.000000 -0.238530 
#    y 0.000000 2.273630 0.000000 
#    z -0.238530 0.000000 2.409700 
# 
# From -- ./inp_files/21024.got.cif
#   From: 2010.05.17/outbox.cif.g08.bks.cpg/sg9_11_cif.got.tgz:21024.got - 2010.06.03 20:04:27.
