data_PCOD9141000
_publ_section_title
;
Structure prediction by ZEFSAII (Michael W. Deem and Ramdas Pophale) SiO2 
 PCOD9141000
Probable space group: C C
;
_chemical_formula_sum "Si O2"
_cell_formula_units_Z 32
_cell_length_a 16.341218
_cell_length_b 16.345955
_cell_length_c 5.269128
_cell_angle_alpha 90.000000
_cell_angle_beta 116.855870
_cell_angle_gamma 90.000000
_cell_volume 1255.651951
_symmetry_space_group_name_H-M "C C"
_symmetry_group_IT_number 9
_symmetry_cell_setting 'monoclinic'
loop_
_space_group_symop_operation_xyz
x,y,z
x,-y,1/2+z
1/2+x,1/2+y,z
1/2+x,1/2-y,1/2+z
loop_
_atom_site_type_symbol
_atom_site_label
_atom_site_fract_x
_atom_site_fract_y
_atom_site_fract_z
Si Si1 0.607140 0.617624 0.007800
Si Si2 0.099660 0.551125 0.382958
Si Si3 0.923393 0.354463 0.717219
Si Si4 0.829109 0.216296 0.276593
Si Si5 0.141769 0.278297 0.741897
Si Si6 0.990426 0.226688 0.166204
Si Si7 0.299711 0.045905 0.404622
Si Si8 0.920583 0.948036 0.072194
O O1 0.548575 0.648514 0.167089
O O2 0.693353 0.566464 0.217601
O O3 0.648120 0.696370 0.917392
O O4 0.529632 0.573271 0.731190
O O5 0.120084 0.510697 0.681804
O O6 0.150135 0.636807 0.403433
O O7 0.990985 0.574042 0.220590
O O8 0.860901 0.302287 0.442057
O O9 0.863395 0.385231 0.871271
O O10 0.990679 0.286587 0.930262
O O11 0.720175 0.218912 0.135443
O O12 0.867545 0.138533 0.488152
O O13 0.886758 0.207548 0.099624
O O14 0.043924 0.271873 0.465412
O O15 0.316474 0.026627 0.721937
O O16 0.898464 0.999948 0.291158
#
# Coordination Sequence:
#
# PCOD9141000 Si02
#       8
#     4   4   4   4   4   4   4   4
#     4  12  25  47  76 112 152 210 260 319 393 476
#     4  12  26  48  74 108 157 205 253 325 392 453
#     4  12  25  47  76 112 152 210 260 319 393 476
#     4  12  27  47  79 111 151 208 268 322 383 473
#     4  12  27  47  79 111 151 208 268 322 383 473
#     4  12  24  48  78 112 152 204 274 312 388 460
#     4  12  30  48  76 122 160 196 256 328 404 472
#     4  12  26  48  74 108 157 205 253 325 392 453
#
# _framework density 25.484769
#
# number of rings (size 3 to 8) (size 9 to 14) (size 15 to 20)
#    0.000    0.000    6.250    3.000    5.250    1.000 
#    0.000    0.000    0.000    0.000    0.000    0.000 
#    0.000    0.000    0.000    0.000    0.000    0.000 
#
# Total GULP energy -89694.768824 kJ/mol
# GULP energy per Si atom -5605.923051 kJ/mol
# Density = 2.542676 g / cm^3
# Si number density = 25.484769 Si / 1000 Ang^3
#
#
#
# Elastic Constant Matrix: (Units=GPa)
#
#
# Indices 1 2 3 4 5 6 
#
# 1 124.9075 12.9019 2.9225 0.0000 -16.1811 0.0000
# 2 12.9019 91.3514 20.4509 0.0000 -17.5275 0.0000
# 3 2.9225 20.4509 55.2541 0.0000 -22.6224 0.0000
# 4 0.0000 0.0000 0.0000 41.8998 0.0000 -9.0298
# 5 -16.1811 -17.5275 -22.6224 0.0000 40.0198 0.0000
# 6 0.0000 0.0000 0.0000 -9.0298 0.0000 31.6781
#
#
#
# Elastic Compliance Matrix: (Units=1/GPa)
#
#
# Indices 1 2 3 4 5 6 
#
# 1 0.008563 -0.000778 0.001448 0.000000 0.003940 0.000000
# 2 -0.000778 0.012408 -0.003194 0.000000 0.003314 0.000000
# 3 0.001448 -0.003194 0.024554 0.000000 0.013066 0.000000
# 4 0.000000 0.000000 0.000000 0.025429 0.000000 0.007248
# 5 0.003940 0.003314 0.013066 0.000000 0.035418 0.000000
# 6 0.000000 0.000000 0.000000 0.007248 0.000000 0.033634
#
#
# Mechanical properties :
#
#
# Convention : Reuss Voigt Hill
#
# Bulk Modulus (GPa) = 24.70583 38.22928 31.46756
# Shear Modulus (GPa) = 31.53698 38.40204 34.96951
#
# Velocity S-wave (km/s) = 3.52160 3.88604 3.70830
# Velocity P-wave (km/s) = 5.12357 5.93031 5.54164
#
# Compressibility (1/GPa) = 0.04047628
#
# Stress axis : x y z
#
# Youngs Moduli (GPa) = 116.78436 80.59615 40.72732
#
# Poissons Ratio (x) = 0.06267 -0.05898
# Poissons Ratio (y) = 0.09080 0.13010
# Poissons Ratio (z) = -0.16912 0.25745
#
# Static dielectric constant tensor:
#      x y z
#    x 2.010520 0.000000 -0.030090 
#    y 0.000000 2.028560 0.000000 
#    z -0.030090 0.000000 1.968040 
# 
# From -- ./inp_files/2958.got.cif
#   From: 2010.05.17/outbox.cif.g08.bks.cpg/sg9_2_cif.got.tgz:2958.got - 2010.06.03 20:04:27.
