data_PCOD9141847
_publ_section_title
;
Structure prediction by ZEFSAII (Michael W. Deem and Ramdas Pophale) SiO2 
 PCOD9141847
Probable space group: P 2/M
;
_chemical_formula_sum "Si O2"
_cell_formula_units_Z 28
_cell_length_a 14.658783
_cell_length_b 7.473183
_cell_length_c 15.016323
_cell_angle_alpha 90.000000
_cell_angle_beta 120.218033
_cell_angle_gamma 90.000000
_cell_volume 1421.475578
_symmetry_space_group_name_H-M "P 2/M"
_symmetry_group_IT_number 10
_symmetry_cell_setting 'monoclinic'
loop_
_space_group_symop_operation_xyz
x,y,z
-x,y,-z
-x,-y,-z
x,-y,z
loop_
_atom_site_type_symbol
_atom_site_label
_atom_site_fract_x
_atom_site_fract_y
_atom_site_fract_z
Si Si1 0.974613 0.790702 0.888418
Si Si2 0.588464 0.293704 0.475987
Si Si3 0.799284 0.716319 0.055153
Si Si4 0.330348 0.285311 0.175785
Si Si5 0.570543 0.284064 0.268430
Si Si6 0.614177 0.280872 0.096457
Si Si7 0.767215 0.202953 0.691802
O O1 0.874373 0.714718 0.785534
O O2 0.080146 0.775801 0.881698
O O3 0.948608 0.000000 0.889811
O O4 0.000000 0.714876 0.000000
O O5 0.500000 0.214818 0.500000
O O6 0.553769 0.500000 0.445279
O O7 0.597464 0.216673 0.380773
O O8 0.700728 0.290826 0.580490
O O9 0.798691 0.500000 0.055621
O O10 0.713809 0.775992 0.085923
O O11 0.755408 0.775629 0.937484
O O12 0.322355 0.500000 0.181841
O O13 0.446124 0.247727 0.196268
O O14 0.310672 0.203747 0.261777
O O15 0.585564 0.500000 0.276402
O O16 0.624263 0.220782 0.203920
O O17 0.613140 0.500000 0.094307
O O18 0.500000 0.226838 0.000000
O O19 0.789699 0.000000 0.674375
#
# Coordination Sequence:
#
# PCOD9141847 Si02
#       7
#     4   4   4   4   4   4   4
#     4  10  21  36  50  67  98 136 167 201 253 303
#     4  10  19  32  51  74 101 132 165 200 245 296
#     4  10  19  29  50  80 103 128 165 206 240 287
#     4  10  17  28  48  75 104 131 161 197 240 293
#     4   9  16  28  47  72 105 138 158 187 244 301
#     4   9  15  26  47  77 107 130 157 196 245 294
#     4  11  22  34  49  70  98 134 169 204 246 293
#
# _framework density 19.697842000000001
#
# number of rings (size 3 to 8) (size 9 to 14) (size 15 to 20)
#    0.000    2.143    4.286    0.429    0.000    1.714 
#    0.000    0.000    0.000    3.000    0.000    6.000 
#    0.000    0.000    0.000    0.000    0.000    0.000 
#
# Total GULP energy -156183.696616 kJ/mol
# GULP energy per Si atom -5577.989165 kJ/mol
# Density = 1.965301 g / cm^3
# Si number density = 19.697842 Si / 1000 Ang^3
#
#
#
# Elastic Constant Matrix: (Units=GPa)
#
#
# Indices 1 2 3 4 5 6 
#
# 1 101.2899 -1.5670 45.9534 0.0000 -6.5556 0.0000
# 2 -1.5670 51.0980 1.8361 0.0000 0.8225 0.0000
# 3 45.9534 1.8361 120.2954 0.0000 -6.7400 0.0000
# 4 0.0000 0.0000 0.0000 -4.4436 0.0000 8.4866
# 5 -6.5556 0.8225 -6.7400 0.0000 31.6183 0.0000
# 6 0.0000 0.0000 0.0000 8.4866 0.0000 20.6924
#
#
#
# Elastic Compliance Matrix: (Units=1/GPa)
#
#
# Indices 1 2 3 4 5 6 
#
# 1 0.012028 0.000507 -0.004518 0.000000 0.001518 0.000000
# 2 0.000507 0.019613 -0.000522 0.000000 -0.000516 0.000000
# 3 -0.004518 -0.000522 0.010116 0.000000 0.001233 0.000000
# 4 0.000000 0.000000 0.000000 -0.126195 0.000000 0.051756
# 5 0.001518 -0.000516 0.001233 0.000000 0.032218 0.000000
# 6 0.000000 0.000000 0.000000 0.051756 0.000000 0.027100
#
#
# Mechanical properties :
#
#
# Convention : Reuss Voigt Hill
#
# Bulk Modulus (GPa) = 30.58904 40.56980 35.57942
# Shear Modulus (GPa) = -969.41127 24.67081 -472.37023
#
# Velocity S-wave (km/s) = -22.20831 3.54285 -15.50254
# Velocity P-wave (km/s) = 25.33870 6.11364 17.38783
#
# Compressibility (1/GPa) = 0.03269145
#
# Stress axis : x y z
#
# Youngs Moduli (GPa) = 83.13767 50.98700 98.85668
#
# Poissons Ratio (x) = -0.02584 0.44659
# Poissons Ratio (y) = -0.04213 0.05159
# Poissons Ratio (z) = 0.37558 0.02661
#
# Static dielectric constant tensor:
#      x y z
#    x 1.674090 0.000000 -0.002210 
#    y 0.000000 1.760000 0.000000 
#    z -0.002210 0.000000 1.702140 
# 
# From -- ./inp_files/49190.got.cif
#   From: 2010.05.17/outbox.cif.g08.bks.cpg/sg10_25_cif.got.tgz:49190.got - 2010.06.03 11:33:40.
