data_PCOD9141862
_publ_section_title
;
Structure prediction by ZEFSAII (Michael W. Deem and Ramdas Pophale) SiO2 
 PCOD9141862
Probable space group: P 2/M
;
_chemical_formula_sum "Si O2"
_cell_formula_units_Z 26
_cell_length_a 14.244192
_cell_length_b 16.044408
_cell_length_c 8.444731
_cell_angle_alpha 90.000000
_cell_angle_beta 129.942691
_cell_angle_gamma 90.000000
_cell_volume 1479.671924
_symmetry_space_group_name_H-M "P 2/M"
_symmetry_group_IT_number 10
_symmetry_cell_setting 'monoclinic'
loop_
_space_group_symop_operation_xyz
x,y,z
-x,y,-z
-x,-y,-z
x,-y,z
loop_
_atom_site_type_symbol
_atom_site_label
_atom_site_fract_x
_atom_site_fract_y
_atom_site_fract_z
Si Si1 0.317903 0.743556 0.553806
Si Si2 0.313648 0.906700 0.910186
Si Si3 0.856406 0.757466 0.349204
Si Si4 0.735534 0.406811 0.087810
Si Si5 0.577252 0.907502 0.331431
Si Si6 0.500000 0.336394 0.000000
Si Si7 0.645805 0.406380 0.633912
O O1 0.198500 0.755578 0.532336
O O2 0.359384 0.829347 0.516422
O O3 0.305966 0.665822 0.425869
O O4 0.428416 0.719994 0.795270
O O5 0.218603 0.831469 0.818364
O O6 0.365428 0.906596 0.785080
O O7 0.263269 0.000000 0.883429
O O8 0.432296 0.895397 0.149545
O O9 0.821572 0.668244 0.236352
O O10 0.000000 0.772155 0.500000
O O11 0.779162 0.500000 0.175297
O O12 0.604224 0.390518 0.028892
O O13 0.710048 0.402513 0.873428
O O14 0.598774 0.000000 0.421585
O O15 0.500000 0.394379 0.500000
O O16 0.662424 0.500000 0.585240
#
# Coordination Sequence:
#
# PCOD9141862 Si02
#       7
#     4   4   4   4   4   2   4
#     4  10  18  30  50  73 101 134 161 200 248 289
#     4   8  14  26  46  72 101 127 156 200 248 293
#     4  10  21  34  49  72  99 132 176 210 236 277
#     4  10  20  33  50  72 101 129 158 201 250 298
#     4   8  13  24  45  74 102 127 155 192 249 305
#     4  10  17  28  49  78  98 122 155 198 255 300
#     4  10  20  33  50  76 102 127 159 197 250 312
#
# _framework density 17.571463000000001
#
# number of rings (size 3 to 8) (size 9 to 14) (size 15 to 20)
#    0.000    2.615    1.538    3.923    0.000    3.077 
#    0.000    0.769    0.000    3.231    0.000    0.000 
#    0.000    6.154    0.000    0.000    0.000    0.000 
#
# Total GULP energy -144957.924885 kJ/mol
# GULP energy per Si atom -5575.304803 kJ/mol
# Density = 1.753147 g / cm^3
# Si number density = 17.571463 Si / 1000 Ang^3
#
#
#
# Elastic Constant Matrix: (Units=GPa)
#
#
# Indices 1 2 3 4 5 6 
#
# 1 48.8946 55.9605 23.0591 0.0000 16.7514 0.0000
# 2 55.9605 176.1981 37.2408 0.0000 11.8628 0.0000
# 3 23.0591 37.2408 25.8695 0.0000 10.7270 0.0000
# 4 0.0000 0.0000 0.0000-1396.3337 0.0000 88.8361
# 5 16.7514 11.8628 10.7270 0.0000 22.0105 0.0000
# 6 0.0000 0.0000 0.0000 88.8361 0.0000 -11.3674
#
#
#
# Elastic Compliance Matrix: (Units=1/GPa)
#
#
# Indices 1 2 3 4 5 6 
#
# 1 0.048593 -0.009662 -0.020339 0.000000 -0.021862 0.000000
# 2 -0.009662 0.010128 -0.008463 0.000000 0.006020 0.000000
# 3 -0.020339 -0.008463 0.076020 0.000000 -0.017009 0.000000
# 4 0.000000 0.000000 0.000000 -0.001424 0.000000 -0.011131
# 5 -0.021862 0.006020 -0.017009 0.000000 0.067116 0.000000
# 6 0.000000 0.000000 0.000000 -0.011131 0.000000 -0.174961
#
#
# Mechanical properties :
#
#
# Convention : Reuss Voigt Hill
#
# Bulk Modulus (GPa) = 17.29717 53.72032 35.50874
# Shear Modulus (GPa) = 41.09443 -268.15800 -113.53178
#
# Velocity S-wave (km/s) = 4.84126 -12.36694 -8.04685
# Velocity P-wave (km/s) = 6.41215 13.16369 8.12918
#
# Compressibility (1/GPa) = 0.05781294
#
# Stress axis : x y z
#
# Youngs Moduli (GPa) = 20.57905 98.74013 13.15439
#
# Poissons Ratio (x) = 0.95407 0.26755
# Poissons Ratio (y) = 0.19884 0.11132
# Poissons Ratio (z) = 0.41855 0.83561
#
# Static dielectric constant tensor:
#      x y z
#    x 1.589130 0.000000 -0.029830 
#    y 0.000000 1.658930 0.000000 
#    z -0.029830 0.000000 1.577750 
# 
# From -- ./inp_files/25129.got.cif
#   From: 2010.05.17/outbox.cif.g08.bks.cpg/sg10_13_cif.got.tgz:25129.got - 2010.06.03 11:33:40.
