data_PCOD9141031
_publ_section_title
;
Structure prediction by ZEFSAII (Michael W. Deem and Ramdas Pophale) SiO2 
 PCOD9141031
Probable space group: C C
;
_chemical_formula_sum "Si O2"
_cell_formula_units_Z 32
_cell_length_a 6.160187
_cell_length_b 13.143050
_cell_length_c 19.872586
_cell_angle_alpha 90.000000
_cell_angle_beta 48.049109
_cell_angle_gamma 90.000000
_cell_volume 1196.610410
_symmetry_space_group_name_H-M "C C"
_symmetry_group_IT_number 9
_symmetry_cell_setting 'monoclinic'
loop_
_space_group_symop_operation_xyz
x,y,z
x,-y,1/2+z
1/2+x,1/2+y,z
1/2+x,1/2-y,1/2+z
loop_
_atom_site_type_symbol
_atom_site_label
_atom_site_fract_x
_atom_site_fract_y
_atom_site_fract_z
Si Si1 0.409020 0.118919 0.023200
Si Si2 0.043379 0.352414 0.360588
Si Si3 0.655533 0.030340 0.713733
Si Si4 0.213107 0.677123 0.377242
Si Si5 0.162744 0.810367 0.256902
Si Si6 0.598605 0.318406 0.050912
Si Si7 0.186102 0.036226 0.206638
Si Si8 0.794771 0.835026 0.625799
O O1 0.491370 0.236677 0.018823
O O2 0.405746 0.067698 0.097769
O O3 0.095164 0.106588 0.051648
O O4 0.608161 0.090503 0.917762
O O5 0.957614 0.420419 0.314210
O O6 0.358550 0.304011 0.280211
O O7 0.829868 0.256166 0.408752
O O8 0.839770 0.108877 0.629183
O O9 0.566981 0.924882 0.692718
O O10 0.914182 0.992418 0.711399
O O11 0.130201 0.753811 0.333736
O O12 0.488635 0.610964 0.295162
O O13 0.903898 0.629633 0.464620
O O14 0.371366 0.733932 0.174087
O O15 0.262962 0.927269 0.227784
O O16 0.691365 0.243762 0.092466
#
# Coordination Sequence:
#
# PCOD9141031 Si02
#       8
#     4   4   4   4   4   4   4   4
#     4  12  25  46  77 114 158 210 270 340 410 483
#     4  12  25  46  77 114 158 210 270 340 410 483
#     4  12  26  49  82 114 159 217 269 333 410 496
#     4  12  26  50  77 118 159 209 275 342 408 484
#     4  12  25  48  77 107 158 211 269 334 409 482
#     4  12  26  50  77 118 159 209 275 342 408 484
#     4  12  26  49  82 114 159 217 269 333 410 496
#     4  12  25  48  77 107 158 211 269 334 409 482
#
# _framework density 26.742201999999999
#
# number of rings (size 3 to 8) (size 9 to 14) (size 15 to 20)
#    0.000    0.000    7.500    3.000    0.000    1.000 
#    0.000    1.250    0.000    0.000    0.000    0.000 
#    0.000    0.000    0.000    0.000    0.000    0.000 
#
# Total GULP energy -89223.948111 kJ/mol
# GULP energy per Si atom -5576.496757 kJ/mol
# Density = 2.668134 g / cm^3
# Si number density = 26.742202 Si / 1000 Ang^3
#
#
#
# Elastic Constant Matrix: (Units=GPa)
#
#
# Indices 1 2 3 4 5 6 
#
# 1 36.4188 21.6590 54.1057 -0.0022 16.0921 0.0031
# 2 21.6590 151.4510 64.1799 -0.0036 6.4824 0.0023
# 3 54.1057 64.1799 161.1686 -0.0051 18.0412 0.0023
# 4 -0.0022 -0.0036 -0.0051 41.3106 0.0019 -1.9422
# 5 16.0921 6.4824 18.0412 0.0019 59.3593 -0.0020
# 6 0.0031 0.0023 0.0023 -1.9422 -0.0020 59.7339
#
#
#
# Elastic Compliance Matrix: (Units=1/GPa)
#
#
# Indices 1 2 3 4 5 6 
#
# 1 0.060613 -0.000114 -0.019115 0.000001 -0.010610 -0.000003
# 2 -0.000114 0.007944 -0.003138 0.000000 0.000117 0.000000
# 3 -0.019115 -0.003138 0.013720 0.000000 0.001355 0.000001
# 4 0.000001 0.000000 0.000000 0.024244 -0.000001 0.000788
# 5 -0.010610 0.000117 0.001355 -0.000001 0.019298 0.000001
# 6 -0.000003 0.000000 0.000001 0.000788 0.000001 0.016767
#
#
# Mechanical properties :
#
#
# Convention : Reuss Voigt Hill
#
# Bulk Modulus (GPa) = 26.63686 69.88087 48.25886
# Shear Modulus (GPa) = 25.02074 46.02036 35.52055
#
# Velocity S-wave (km/s) = 3.06212 4.15286 3.64848
# Velocity P-wave (km/s) = 4.74177 7.01306 5.98612
#
# Compressibility (1/GPa) = 0.03754196
#
# Stress axis : x y z
#
# Youngs Moduli (GPa) = 16.49816 125.88152 72.88655
#
# Poissons Ratio (x) = 0.01431 1.39325
# Poissons Ratio (y) = 0.00188 0.22874
# Poissons Ratio (z) = 0.31537 0.39506
#
# Static dielectric constant tensor:
#      x y z
#    x 2.695500 -0.000010 -0.143320 
#    y -0.000010 2.188710 0.000010 
#    z -0.143320 0.000010 2.139770 
# 
# From -- ./inp_files/35013.got.cif
#   From: 2010.05.17/outbox.cif.g08.bks.cpg/sg9_18_cif.got.tgz:35013.got - 2010.06.03 20:04:27.
