data_PCOD9141671
_publ_section_title
;
Structure prediction by ZEFSAII (Michael W. Deem and Ramdas Pophale) SiO2 
 PCOD9141671
Probable space group: P 2/M
;
_chemical_formula_sum "Si O2"
_cell_formula_units_Z 28
_cell_length_a 14.692611
_cell_length_b 9.001876
_cell_length_c 14.629687
_cell_angle_alpha 90.000000
_cell_angle_beta 76.676486
_cell_angle_gamma 90.000000
_cell_volume 1882.857888
_symmetry_space_group_name_H-M "P 2/M"
_symmetry_group_IT_number 10
_symmetry_cell_setting 'monoclinic'
loop_
_space_group_symop_operation_xyz
x,y,z
-x,y,-z
-x,-y,-z
x,-y,z
loop_
_atom_site_type_symbol
_atom_site_label
_atom_site_fract_x
_atom_site_fract_y
_atom_site_fract_z
Si Si1 0.966976 0.177695 0.719447
Si Si2 0.361620 0.176719 0.205567
Si Si3 0.458850 0.671227 0.905963
Si Si4 0.203279 0.678747 0.354126
Si Si5 0.066960 0.819143 0.065644
Si Si6 0.088568 0.671215 0.549295
Si Si7 0.281345 0.177878 0.020784
O O1 0.876947 0.252477 0.692518
O O2 0.968600 0.222130 0.825185
O O3 0.057287 0.230027 0.641550
O O4 0.956565 0.000000 0.716001
O O5 0.466367 0.238757 0.171089
O O6 0.301050 0.257561 0.296695
O O7 0.310511 0.206909 0.119618
O O8 0.361660 0.000000 0.218940
O O9 0.454087 0.500000 0.878510
O O10 0.500000 0.675323 0.000000
O O11 0.357092 0.743929 0.938800
O O12 0.200216 0.500000 0.347926
O O13 0.174457 0.718421 0.464912
O O14 0.174941 0.772583 0.030174
O O15 0.067627 0.000000 0.063129
O O16 0.000000 0.766620 0.000000
O O17 0.100987 0.500000 0.575046
O O18 0.000000 0.674125 0.500000
O O19 0.287332 0.000000 0.006787
#
# Coordination Sequence:
#
# PCOD9141671 Si02
#       7
#     4   4   4   4   4   4   4
#     4  10  17  27  42  60  79 107 144 179 212 243
#     4  10  17  26  41  62  84 108 141 174 204 244
#     4   9  17  27  39  58  81 109 139 167 207 253
#     4  10  18  27  40  58  84 114 140 167 207 255
#     4   9  17  29  44  62  84 111 145 181 215 248
#     4   8  16  28  39  55  79 110 139 166 207 254
#     4   9  16  28  42  57  79 109 142 176 210 242
#
# _framework density 14.871012
#
# number of rings (size 3 to 8) (size 9 to 14) (size 15 to 20)
#    0.000    2.714    1.429    2.571    0.000    5.429 
#    0.000    0.000    0.000    3.857    0.000    0.000 
#    0.000    1.143    0.000   13.143    0.000    3.286 
#
# Total GULP energy -155938.360104 kJ/mol
# GULP energy per Si atom -5569.227147 kJ/mol
# Density = 1.483717 g / cm^3
# Si number density = 14.871012 Si / 1000 Ang^3
#
#
#
# Elastic Constant Matrix: (Units=GPa)
#
#
# Indices 1 2 3 4 5 6 
#
# 1 80.8677 35.3574 62.2240 0.0000 -24.8831 0.0000
# 2 35.3574 47.4910 42.1354 0.0000 -17.3775 0.0000
# 3 62.2240 42.1354 96.9497 0.0000 -31.0798 0.0000
# 4 0.0000 0.0000 0.0000 16.1998 0.0000 -13.3372
# 5 -24.8831 -17.3775 -31.0798 0.0000 29.7858 0.0000
# 6 0.0000 0.0000 0.0000 -13.3372 0.0000 16.0209
#
#
#
# Elastic Compliance Matrix: (Units=1/GPa)
#
#
# Indices 1 2 3 4 5 6 
#
# 1 0.026454 -0.006841 -0.012322 0.000000 0.005251 0.000000
# 2 -0.006841 0.036952 -0.009902 0.000000 0.005511 0.000000
# 3 -0.012322 -0.009902 0.026108 0.000000 0.011171 0.000000
# 4 0.000000 0.000000 0.000000 0.196205 0.000000 0.163339
# 5 0.005251 0.005511 0.011171 0.000000 0.052832 0.000000
# 6 0.000000 0.000000 0.000000 0.163339 0.000000 0.198397
#
#
# Mechanical properties :
#
#
# Convention : Reuss Voigt Hill
#
# Bulk Modulus (GPa) = 31.86448 56.08245 43.97346
# Shear Modulus (GPa) = 8.25709 18.10739 13.18224
#
# Velocity S-wave (km/s) = 2.35893 3.49324 2.98054
# Velocity P-wave (km/s) = 5.37523 7.35288 6.44042
#
# Compressibility (1/GPa) = 0.03138291
#
# Stress axis : x y z
#
# Youngs Moduli (GPa) = 37.80140 27.06211 38.30246
#
# Poissons Ratio (x) = 0.18514 0.47196
# Poissons Ratio (y) = 0.25861 0.37928
# Poissons Ratio (z) = 0.46579 0.26798
#
# Static dielectric constant tensor:
#      x y z
#    x 1.482940 0.000000 -0.027960 
#    y 0.000000 1.495600 0.000000 
#    z -0.027960 0.000000 1.495470 
# 
# From -- ./inp_files/54967.got.cif
#   From: 2010.05.17/outbox.cif.g08.bks.cpg/sg10_28_cif.got.tgz:54967.got - 2010.06.03 11:33:40.
