data_PCOD9141078
_publ_section_title
;
Structure prediction by ZEFSAII (Michael W. Deem and Ramdas Pophale) SiO2 
 PCOD9141078
Probable space group: C C
;
_chemical_formula_sum "Si O2"
_cell_formula_units_Z 32
_cell_length_a 11.497302
_cell_length_b 13.630103
_cell_length_c 10.950947
_cell_angle_alpha 90.000000
_cell_angle_beta 46.043193
_cell_angle_gamma 90.000000
_cell_volume 1235.369200
_symmetry_space_group_name_H-M "C C"
_symmetry_group_IT_number 9
_symmetry_cell_setting 'monoclinic'
loop_
_space_group_symop_operation_xyz
x,y,z
x,-y,1/2+z
1/2+x,1/2+y,z
1/2+x,1/2-y,1/2+z
loop_
_atom_site_type_symbol
_atom_site_label
_atom_site_fract_x
_atom_site_fract_y
_atom_site_fract_z
Si Si1 0.304970 0.314013 0.253620
Si Si2 0.081146 0.453390 0.024868
Si Si3 0.200846 0.912989 0.447322
Si Si4 0.436140 0.447171 0.839028
Si Si5 0.289166 0.359122 0.530368
Si Si6 0.527744 0.922551 0.327356
Si Si7 0.131899 0.121183 0.405025
Si Si8 0.564655 0.773820 0.903776
O O1 0.229831 0.358638 0.433656
O O2 0.185122 0.354831 0.234836
O O3 0.274578 0.199081 0.287784
O O4 0.492271 0.346704 0.105399
O O5 0.271819 0.427865 0.886474
O O6 0.020290 0.515433 0.955720
O O7 0.005302 0.346470 0.053951
O O8 0.056211 0.485510 0.182795
O O9 0.353759 0.880679 0.418639
O O10 0.145750 0.820162 0.408694
O O11 0.068599 0.953452 0.638426
O O12 0.211389 0.013267 0.359151
O O13 0.394030 0.540592 0.956794
O O14 0.517139 0.370467 0.870267
O O15 0.413445 0.268708 0.442152
O O16 0.172969 0.333761 0.727402
#
# Coordination Sequence:
#
# PCOD9141078 Si02
#       8
#     4   4   4   4   4   4   4   4
#     4  12  28  49  79 121 159 218 276 345 417 501
#     4  12  27  50  77 115 165 217 270 344 417 504
#     4  12  29  50  77 120 160 219 271 347 413 503
#     4  12  26  50  81 109 164 219 268 336 423 495
#     4  12  25  51  80 116 162 221 272 340 412 505
#     4  12  29  48  78 118 165 208 277 343 425 490
#     4  12  28  51  80 113 168 214 277 342 421 492
#     4  12  28  47  82 118 163 218 281 337 424 502
#
# _framework density 25.903188
#
# number of rings (size 3 to 8) (size 9 to 14) (size 15 to 20)
#    0.000    0.000    5.000    3.000    8.750    0.000 
#    0.000    0.000    0.000    0.000    0.000    0.000 
#    0.000    0.000    0.000    0.000    0.000    0.000 
#
# Total GULP energy -89404.570932 kJ/mol
# GULP energy per Si atom -5587.785683 kJ/mol
# Density = 2.584423 g / cm^3
# Si number density = 25.903188 Si / 1000 Ang^3
#
#
#
# Elastic Constant Matrix: (Units=GPa)
#
#
# Indices 1 2 3 4 5 6 
#
# 1 141.8846 18.0806 20.2249 0.0000 20.9996 0.0000
# 2 18.0806 108.3903 12.2930 0.0000 23.4251 0.0000
# 3 20.2249 12.2930 110.6500 0.0000 21.8374 0.0000
# 4 0.0000 0.0000 0.0000 35.7739 0.0000 1.7475
# 5 20.9996 23.4251 21.8374 0.0000 41.9274 0.0000
# 6 0.0000 0.0000 0.0000 1.7475 0.0000 37.9313
#
#
#
# Elastic Compliance Matrix: (Units=1/GPa)
#
#
# Indices 1 2 3 4 5 6 
#
# 1 0.007688 -0.000511 -0.000719 0.000000 -0.003190 0.000000
# 2 -0.000511 0.010527 0.000038 0.000000 -0.005645 0.000000
# 3 -0.000719 0.000038 0.010140 0.000000 -0.004943 0.000000
# 4 0.000000 0.000000 0.000000 0.028016 0.000000 -0.001291
# 5 -0.003190 -0.005645 -0.004943 0.000000 0.031177 0.000000
# 6 0.000000 0.000000 0.000000 -0.001291 0.000000 0.026423
#
#
# Mechanical properties :
#
#
# Convention : Reuss Voigt Hill
#
# Bulk Modulus (GPa) = 38.50492 51.34688 44.92590
# Shear Modulus (GPa) = 39.99611 43.81495 41.90553
#
# Velocity S-wave (km/s) = 3.93372 4.11723 4.02652
# Velocity P-wave (km/s) = 5.96065 6.51673 6.24488
#
# Compressibility (1/GPa) = 0.02597071
#
# Stress axis : x y z
#
# Youngs Moduli (GPa) = 130.07630 94.99451 98.61831
#
# Poissons Ratio (x) = 0.04858 0.07088
# Poissons Ratio (y) = 0.06652 -0.00375
# Poissons Ratio (z) = 0.09349 -0.00362
#
# Static dielectric constant tensor:
#      x y z
#    x 2.016760 0.000000 -0.040270 
#    y 0.000000 2.154820 0.000000 
#    z -0.040270 0.000000 2.172310 
# 
# From -- ./inp_files/16876.got.cif
#   From: 2010.05.17/outbox.cif.g08.bks.cpg/sg9_9_cif.got.tgz:16876.got - 2010.06.03 20:04:27.
