data_PCOD9141314
_publ_section_title
;
Structure prediction by ZEFSAII (Michael W. Deem and Ramdas Pophale) SiO2 
 PCOD9141314
Probable space group: P 2/M
;
_chemical_formula_sum "Si O2"
_cell_formula_units_Z 28
_cell_length_a 7.929048
_cell_length_b 17.814054
_cell_length_c 15.030668
_cell_angle_alpha 90.000000
_cell_angle_beta 143.195122
_cell_angle_gamma 90.000000
_cell_volume 1271.907259
_symmetry_space_group_name_H-M "P 2/M"
_symmetry_group_IT_number 10
_symmetry_cell_setting 'monoclinic'
loop_
_space_group_symop_operation_xyz
x,y,z
-x,y,-z
-x,-y,-z
x,-y,z
loop_
_atom_site_type_symbol
_atom_site_label
_atom_site_fract_x
_atom_site_fract_y
_atom_site_fract_z
Si Si1 0.343467 0.500000 0.838190
Si Si2 0.957153 0.081217 0.721068
Si Si3 0.839388 0.340139 0.801267
Si Si4 0.977360 0.242473 0.288930
Si Si5 0.252396 0.500000 0.323418
Si Si6 0.407235 0.918584 0.612512
Si Si7 0.527845 0.341903 0.903078
Si Si8 0.693483 0.756625 0.399057
O O1 0.022243 0.500000 0.730311
O O2 0.500000 0.500000 0.000000
O O3 0.426769 0.423023 0.826174
O O4 0.814160 0.078837 0.562672
O O5 0.707575 0.086362 0.688997
O O6 0.106465 0.161403 0.785651
O O7 0.100415 0.000000 0.794719
O O8 0.761928 0.425536 0.743427
O O9 0.572409 0.296413 0.728320
O O10 0.910964 0.297358 0.739633
O O11 0.142787 0.334882 0.977150
O O12 0.239445 0.236063 0.466849
O O13 0.697007 0.277817 0.214553
O O14 0.500000 0.500000 0.500000
O O15 0.357335 0.843877 0.649092
O O16 0.389567 0.000000 0.651734
O O17 0.500000 0.344388 0.000000
O O18 0.000000 0.728167 0.500000
#
# Coordination Sequence:
#
# PCOD9141314 Si02
#       8
#     2   4   4   4   2   4   4   4
#     4  10  14  30  46  79 108 115 157 210 251 284
#     4   8  13  23  44  73 100 124 156 201 252 299
#     4  11  20  34  52  75 102 129 164 208 251 293
#     4  10  17  31  53  75  96 131 166 203 252 296
#     4  12  20  28  51  83 106 128 158 204 259 297
#     4   8  14  26  45  69  97 129 162 201 247 293
#     4   9  17  29  51  75 101 124 159 208 247 291
#     4  11  22  33  47  73 105 133 167 209 247 293
#
# _framework density 22.014182999999999
#
# number of rings (size 3 to 8) (size 9 to 14) (size 15 to 20)
#    0.000    2.286    5.714    2.143    0.000    0.286 
#    0.000    1.071    0.000    4.714    0.000    2.000 
#    0.000    5.714    0.000    0.000    0.000    0.000 
#
# Total GULP energy -156127.698379 kJ/mol
# GULP energy per Si atom -5575.989228 kJ/mol
# Density = 2.196408 g / cm^3
# Si number density = 22.014183 Si / 1000 Ang^3
#
#
#
# Elastic Constant Matrix: (Units=GPa)
#
#
# Indices 1 2 3 4 5 6 
#
# 1 57.4718 18.1058 22.2307 0.0000 31.3502 0.0000
# 2 18.1058 182.4646 60.9010 0.0000 27.7911 0.0000
# 3 22.2307 60.9010 118.9920 0.0000 34.2045 0.0000
# 4 0.0000 0.0000 0.0000 36.6903 0.0000 21.8593
# 5 31.3502 27.7911 34.2045 0.0000 36.7707 0.0000
# 6 0.0000 0.0000 0.0000 21.8593 0.0000 23.6377
#
#
#
# Elastic Compliance Matrix: (Units=1/GPa)
#
#
# Indices 1 2 3 4 5 6 
#
# 1 0.033180 0.000631 0.002385 0.000000 -0.030984 0.000000
# 2 0.000631 0.006798 -0.002683 0.000000 -0.003180 0.000000
# 3 0.002385 -0.002683 0.012740 0.000000 -0.011856 0.000000
# 4 0.000000 0.000000 0.000000 0.060696 0.000000 -0.056129
# 5 -0.030984 -0.003180 -0.011856 0.000000 0.067044 0.000000
# 6 0.000000 0.000000 0.000000 -0.056129 0.000000 0.094212
#
#
# Mechanical properties :
#
#
# Convention : Reuss Voigt Hill
#
# Bulk Modulus (GPa) = 18.73278 62.37816 40.55547
# Shear Modulus (GPa) = 17.13518 36.59915 26.86716
#
# Velocity S-wave (km/s) = 2.79295 4.08183 3.49728
# Velocity P-wave (km/s) = 4.35071 7.11422 5.89664
#
# Compressibility (1/GPa) = 0.05338235
#
# Stress axis : x y z
#
# Youngs Moduli (GPa) = 30.13860 147.10832 78.49575
#
# Poissons Ratio (x) = -0.09279 -0.18719
# Poissons Ratio (y) = -0.01901 0.21060
# Poissons Ratio (z) = -0.07187 0.39468
#
# Static dielectric constant tensor:
#      x y z
#    x 1.905780 0.000000 -0.020040 
#    y 0.000000 1.858490 0.000000 
#    z -0.020040 0.000000 1.793960 
# 
# From -- ./inp_files/56121.got.cif
#   From: 2010.05.17/outbox.cif.g08.bks.cpg/sg10_29_cif.got.tgz:56121.got - 2010.06.03 11:33:40.
