data_PCOD9141566
_publ_section_title
;
Structure prediction by ZEFSAII (Michael W. Deem and Ramdas Pophale) SiO2 
 PCOD9141566
Probable space group: P 2/M
;
_chemical_formula_sum "Si O2"
_cell_formula_units_Z 32
_cell_length_a 14.554838
_cell_length_b 8.937458
_cell_length_c 16.912892
_cell_angle_alpha 90.000000
_cell_angle_beta 97.179918
_cell_angle_gamma 90.000000
_cell_volume 2182.832208
_symmetry_space_group_name_H-M "P 2/M"
_symmetry_group_IT_number 10
_symmetry_cell_setting 'monoclinic'
loop_
_space_group_symop_operation_xyz
x,y,z
-x,y,-z
-x,-y,-z
x,-y,z
loop_
_atom_site_type_symbol
_atom_site_label
_atom_site_fract_x
_atom_site_fract_y
_atom_site_fract_z
Si Si1 0.554345 0.327108 0.421726
Si Si2 0.134072 0.320320 0.036878
Si Si3 0.950988 0.679274 0.739117
Si Si4 0.615524 0.178206 0.672665
Si Si5 0.244935 0.678164 0.197522
Si Si6 0.078521 0.320004 0.445921
Si Si7 0.721265 0.178650 0.520966
Si Si8 0.957716 0.821052 0.109835
O O1 0.500000 0.320660 0.500000
O O2 0.570032 0.500000 0.403805
O O3 0.484598 0.250862 0.352683
O O4 0.650372 0.243590 0.448636
O O5 0.121763 0.500000 0.031306
O O6 0.221283 0.289806 0.103221
O O7 0.048050 0.248097 0.075556
O O8 0.127172 0.248110 0.949463
O O9 0.963217 0.500000 0.750370
O O10 0.848739 0.715673 0.763065
O O11 0.951400 0.717295 0.646900
O O12 0.027391 0.764370 0.799460
O O13 0.669652 0.236879 0.754795
O O14 0.678659 0.219265 0.602739
O O15 0.606849 0.000000 0.672905
O O16 0.258835 0.500000 0.207331
O O17 0.089904 0.500000 0.450378
O O18 0.176822 0.245627 0.474447
O O19 0.000000 0.276400 0.500000
O O20 0.723383 0.000000 0.516160
O O21 0.957908 0.000000 0.104740
#
# Coordination Sequence:
#
# PCOD9141566 Si02
#       8
#     4   4   4   4   4   4   4   4
#     4   9  17  28  43  59  77 104 137 170 202 243
#     4   9  16  26  37  52  75 104 134 165 200 237
#     4   9  17  29  42  55  75 104 136 172 211 248
#     4  10  18  26  39  60  84 108 135 169 206 246
#     4   9  16  25  39  56  77 108 139 167 200 242
#     4  10  20  33  48  63  79 105 144 183 216 252
#     4  10  19  30  43  60  82 106 133 171 216 255
#     4  10  17  24  37  55  74  98 132 169 202 242
#
# _framework density 14.659853
#
# number of rings (size 3 to 8) (size 9 to 14) (size 15 to 20)
#    0.000    2.500    1.250    4.125    0.000    5.750 
#    0.000    0.000    0.000    0.000    0.000    0.000 
#    0.000    0.000    0.000    1.125    0.000   22.500 
#
# Total GULP energy -178236.410777 kJ/mol
# GULP energy per Si atom -5569.887837 kJ/mol
# Density = 1.462649 g / cm^3
# Si number density = 14.659853 Si / 1000 Ang^3
#
#
#
# Elastic Constant Matrix: (Units=GPa)
#
#
# Indices 1 2 3 4 5 6 
#
# 1 83.8764 46.9383 59.4029 0.0000 29.7791 0.0000
# 2 46.9383 59.8771 41.8131 0.0000 21.4924 0.0000
# 3 59.4029 41.8131 77.8941 0.0000 31.8894 0.0000
# 4 0.0000 0.0000 0.0000 27.2785 0.0000 33.4487
# 5 29.7791 21.4924 31.8894 0.0000 29.8395 0.0000
# 6 0.0000 0.0000 0.0000 33.4487 0.0000 67.6645
#
#
#
# Elastic Compliance Matrix: (Units=1/GPa)
#
#
# Indices 1 2 3 4 5 6 
#
# 1 0.031564 -0.011853 -0.014770 0.000000 -0.007179 0.000000
# 2 -0.011853 0.032005 -0.006305 0.000000 -0.004486 0.000000
# 3 -0.014770 -0.006305 0.034832 0.000000 -0.017944 0.000000
# 4 0.000000 0.000000 0.000000 0.093078 0.000000 -0.046011
# 5 -0.007179 -0.004486 -0.017944 0.000000 0.063084 0.000000
# 6 0.000000 0.000000 0.000000 -0.046011 0.000000 0.037524
#
#
# Mechanical properties :
#
#
# Convention : Reuss Voigt Hill
#
# Bulk Modulus (GPa) = 30.72502 57.55069 44.13785
# Shear Modulus (GPa) = 13.55780 29.85604 21.70692
#
# Velocity S-wave (km/s) = 3.04439 4.51775 3.85217
# Velocity P-wave (km/s) = 5.77597 8.15819 7.06816
#
# Compressibility (1/GPa) = 0.03254676
#
# Stress axis : x y z
#
# Youngs Moduli (GPa) = 31.68136 31.24492 28.70911
#
# Poissons Ratio (x) = 0.37034 0.42403
# Poissons Ratio (y) = 0.37552 0.18100
# Poissons Ratio (z) = 0.46793 0.19699
#
# Static dielectric constant tensor:
#      x y z
#    x 1.465700 0.000000 0.035220 
#    y 0.000000 1.485610 0.000000 
#    z 0.035220 0.000000 1.505770 
# 
# From -- ./inp_files/65986.got.cif
#   From: 2010.05.17/outbox.cif.g08.bks.cpg/sg10_33_cif.got.tgz:65986.got - 2010.06.03 11:33:40.
