data_PCOD9141510
_publ_section_title
;
Structure prediction by ZEFSAII (Michael W. Deem and Ramdas Pophale) SiO2 
 PCOD9141510
Probable space group: P 2/M
;
_chemical_formula_sum "Si O2"
_cell_formula_units_Z 30
_cell_length_a 14.182936
_cell_length_b 21.310822
_cell_length_c 5.229355
_cell_angle_alpha 90.000000
_cell_angle_beta 72.657028
_cell_angle_gamma 90.000000
_cell_volume 1508.715890
_symmetry_space_group_name_H-M "P 2/M"
_symmetry_group_IT_number 10
_symmetry_cell_setting 'monoclinic'
loop_
_space_group_symop_operation_xyz
x,y,z
-x,y,-z
-x,-y,-z
x,-y,z
loop_
_atom_site_type_symbol
_atom_site_label
_atom_site_fract_x
_atom_site_fract_y
_atom_site_fract_z
Si Si1 0.097110 0.075316 0.750910
Si Si2 0.805908 0.074702 0.837722
Si Si3 0.775644 0.744854 0.633905
Si Si4 0.068847 0.500000 0.194555
Si Si5 0.110387 0.758673 0.961740
Si Si6 0.562165 0.794645 0.687632
Si Si7 0.403732 0.069262 0.258865
Si Si8 0.894547 0.637203 0.735482
O O1 0.119765 0.098513 0.446021
O O2 0.180255 0.097561 0.884370
O O3 0.100383 0.000000 0.716635
O O4 0.000000 0.086901 0.000000
O O5 0.825239 0.222363 0.842501
O O6 0.694926 0.079518 0.827306
O O7 0.826688 0.000000 0.842277
O O8 0.830503 0.768853 0.340908
O O9 0.661517 0.757910 0.681552
O O10 0.808935 0.672021 0.642922
O O11 0.125236 0.566075 0.167157
O O12 0.000000 0.500000 0.500000
O O13 0.000000 0.500000 0.000000
O O14 0.098806 0.684034 0.029664
O O15 0.000000 0.782655 0.000000
O O16 0.500000 0.767688 0.500000
O O17 0.588438 0.866734 0.589366
O O18 0.500000 0.796947 0.000000
O O19 0.394774 0.000000 0.394882
O O20 0.500000 0.066299 0.000000
O O21 0.000000 0.640960 0.500000
#
# Coordination Sequence:
#
# PCOD9141510 Si02
#       8
#     4   4   4   2   4   4   4   4
#     4   9  16  27  45  68  96 128 163 196 227 274
#     4   9  17  29  48  74  98 126 162 196 243 316
#     4  10  20  32  56  79 112 155 193 238 289 333
#     4  10  20  26  44  80 128 169 198 229 276 334
#     4  10  16  31  53  82 114 150 194 232 278 339
#     4  11  24  42  60  85 111 137 188 246 292 347
#     4   9  20  39  63  86 110 137 166 218 299 374
#     4   9  18  30  51  82 125 162 197 231 278 337
#
# _framework density 19.884460000000001
#
# number of rings (size 3 to 8) (size 9 to 14) (size 15 to 20)
#    0.800    1.600    1.333    2.000    1.867    4.000 
#    0.000    4.000    0.000    6.400    0.000    0.933 
#    0.000    0.000    0.000    0.000    0.000    0.000 
#
# Total GULP energy -167221.196838 kJ/mol
# GULP energy per Si atom -5574.039895 kJ/mol
# Density = 1.983920 g / cm^3
# Si number density = 19.884460 Si / 1000 Ang^3
#
#
#
# Elastic Constant Matrix: (Units=GPa)
#
#
# Indices 1 2 3 4 5 6 
#
# 1 143.5356 34.1642 43.4623 0.0000 9.1400 0.0000
# 2 34.1642 127.3151 11.6909 0.0000 5.9379 0.0000
# 3 43.4623 11.6909 78.8408 0.0000 13.0903 0.0000
# 4 0.0000 0.0000 0.0000 19.6887 0.0000 3.2613
# 5 9.1400 5.9379 13.0903 0.0000 35.2022 0.0000
# 6 0.0000 0.0000 0.0000 3.2613 0.0000 13.4518
#
#
#
# Elastic Compliance Matrix: (Units=1/GPa)
#
#
# Indices 1 2 3 4 5 6 
#
# 1 0.008816 -0.001937 -0.004527 0.000000 -0.000279 0.000000
# 2 -0.001937 0.008419 -0.000030 0.000000 -0.000906 0.000000
# 3 -0.004527 -0.000030 0.015974 0.000000 -0.004760 0.000000
# 4 0.000000 0.000000 0.000000 0.052916 0.000000 -0.012829
# 5 -0.000279 -0.000906 -0.004760 0.000000 0.030403 0.000000
# 6 0.000000 0.000000 0.000000 -0.012829 0.000000 0.077450
#
#
# Mechanical properties :
#
#
# Convention : Reuss Voigt Hill
#
# Bulk Modulus (GPa) = 49.45146 58.70294 54.07720
# Shear Modulus (GPa) = 23.39664 31.02681 27.21173
#
# Velocity S-wave (km/s) = 3.43392 3.95442 3.70333
# Velocity P-wave (km/s) = 6.37541 7.10183 6.74840
#
# Compressibility (1/GPa) = 0.02022185
#
# Stress axis : x y z
#
# Youngs Moduli (GPa) = 113.42486 118.77365 62.60216
#
# Poissons Ratio (x) = 0.23008 0.28338
# Poissons Ratio (y) = 0.21972 0.00189
# Poissons Ratio (z) = 0.51343 0.00358
#
# Static dielectric constant tensor:
#      x y z
#    x 1.813060 0.000000 0.009610 
#    y 0.000000 1.763820 0.000000 
#    z 0.009610 0.000000 1.719400 
# 
# From -- ./inp_files/9800.got.cif
#   From: 2010.05.17/outbox.cif.g08.bks.cpg/sg10_5_cif.got.tgz:9800.got - 2010.06.03 11:33:40.
