data_PCOD9141668
_publ_section_title
;
Structure prediction by ZEFSAII (Michael W. Deem and Ramdas Pophale) SiO2 
 PCOD9141668
Probable space group: P 2/M
;
_chemical_formula_sum "Si O2"
_cell_formula_units_Z 28
_cell_length_a 5.024895
_cell_length_b 26.700393
_cell_length_c 11.897259
_cell_angle_alpha 90.000000
_cell_angle_beta 81.925673
_cell_angle_gamma 90.000000
_cell_volume 1580.391862
_symmetry_space_group_name_H-M "P 2/M"
_symmetry_group_IT_number 10
_symmetry_cell_setting 'monoclinic'
loop_
_space_group_symop_operation_xyz
x,y,z
-x,y,-z
-x,-y,-z
x,-y,z
loop_
_atom_site_type_symbol
_atom_site_label
_atom_site_fract_x
_atom_site_fract_y
_atom_site_fract_z
Si Si1 0.614250 0.760357 0.613666
Si Si2 0.961185 0.180245 0.870369
Si Si3 0.938050 0.620159 0.637579
Si Si4 0.492239 0.141441 0.257143
Si Si5 0.919919 0.275605 0.272806
Si Si6 0.562057 0.444272 0.363542
Si Si7 0.733267 0.057581 0.578936
O O1 0.500000 0.746103 0.500000
O O2 0.567351 0.818601 0.640437
O O3 0.401417 0.730991 0.705146
O O4 0.917549 0.748565 0.630464
O O5 0.196839 0.149131 0.792711
O O6 0.985149 0.238783 0.832423
O O7 0.681199 0.159855 0.839008
O O8 0.000000 0.174820 0.000000
O O9 0.999695 0.667040 0.714050
O O10 0.136169 0.575332 0.659957
O O11 0.000000 0.632389 0.500000
O O12 0.639438 0.598640 0.666288
O O13 0.379498 0.089492 0.310542
O O14 0.500000 0.447722 0.500000
O O15 0.523532 0.500000 0.317832
O O16 0.500000 0.057422 0.500000
O O17 0.000000 0.077910 0.500000
O O18 0.791866 0.000000 0.608879
#
# Coordination Sequence:
#
# PCOD9141668 Si02
#       7
#     4   4   4   4   4   4   4
#     4  10  18  28  43  66  97 124 150 186 231 293
#     4  10  21  37  54  71  96 130 170 216 254 290
#     4  10  17  26  41  60  89 120 148 189 233 279
#     4  10  20  33  53  75  97 132 170 202 243 296
#     4  10  20  30  44  68  92 122 159 194 242 293
#     4   9  17  27  39  57  84 122 159 185 217 269
#     4  10  20  34  54  81 112 139 163 198 245 297
#
# _framework density 17.717123999999998
#
# number of rings (size 3 to 8) (size 9 to 14) (size 15 to 20)
#    0.000    2.143    0.000    4.286    0.000    5.143 
#    0.000    0.000    0.000    2.571    0.000    0.000 
#    0.000    3.429    0.000    0.000    0.000    0.000 
#
# Total GULP energy -155964.733835 kJ/mol
# GULP energy per Si atom -5570.169066 kJ/mol
# Density = 1.767680 g / cm^3
# Si number density = 17.717124 Si / 1000 Ang^3
#
#
#
# Elastic Constant Matrix: (Units=GPa)
#
#
# Indices 1 2 3 4 5 6 
#
# 1 69.2231 -4.7739 -7.9216 0.0000 4.3560 0.0000
# 2 -4.7739 78.2100 12.8062 0.0000 -5.4457 0.0000
# 3 -7.9216 12.8062 33.4856 0.0000 4.0999 0.0000
# 4 0.0000 0.0000 0.0000 -42.9110 0.0000 37.5179
# 5 4.3560 -5.4457 4.0999 0.0000 13.8511 0.0000
# 6 0.0000 0.0000 0.0000 37.5179 0.0000 -63.9679
#
#
#
# Elastic Compliance Matrix: (Units=1/GPa)
#
#
# Indices 1 2 3 4 5 6 
#
# 1 0.015335 -0.000232 0.004481 0.000000 -0.006240 0.000000
# 2 -0.000232 0.014366 -0.006484 0.000000 0.007640 0.000000
# 3 0.004481 -0.006484 0.035163 0.000000 -0.014367 0.000000
# 4 0.000000 0.000000 0.000000 -0.047832 0.000000 -0.028054
# 5 -0.006240 0.007640 -0.014367 0.000000 0.081416 0.000000
# 6 0.000000 0.000000 0.000000 -0.028054 0.000000 -0.032087
#
#
# Mechanical properties :
#
#
# Convention : Reuss Voigt Hill
#
# Bulk Modulus (GPa) = 16.55846 20.12667 18.34256
# Shear Modulus (GPa) = 54.96799 -6.55170 24.20815
#
# Velocity S-wave (km/s) = 5.57608 -1.92509 3.70045
# Velocity P-wave (km/s) = 7.12904 2.53838 5.35101
#
# Compressibility (1/GPa) = 0.06039210
#
# Stress axis : x y z
#
# Youngs Moduli (GPa) = 65.20828 69.61039 28.43937
#
# Poissons Ratio (x) = 0.01616 -0.12743
# Poissons Ratio (y) = 0.01514 0.18441
# Poissons Ratio (z) = -0.29218 0.45138
#
# Static dielectric constant tensor:
#      x y z
#    x 1.621890 0.000000 -0.009310 
#    y 0.000000 1.635990 0.000000 
#    z -0.009310 0.000000 1.593210 
# 
# From -- ./inp_files/39879.got.cif
#   From: 2010.05.17/outbox.cif.g08.bks.cpg/sg10_20_cif.got.tgz:39879.got - 2010.06.03 11:33:40.
