data_PCOD9141440
_publ_section_title
;
Structure prediction by ZEFSAII (Michael W. Deem and Ramdas Pophale) SiO2 
 PCOD9141440
Probable space group: P 2/M
;
_chemical_formula_sum "Si O2"
_cell_formula_units_Z 18
_cell_length_a 5.343243
_cell_length_b 19.119551
_cell_length_c 8.821436
_cell_angle_alpha 90.000000
_cell_angle_beta 126.395256
_cell_angle_gamma 90.000000
_cell_volume 725.415769
_symmetry_space_group_name_H-M "P 2/M"
_symmetry_group_IT_number 10
_symmetry_cell_setting 'monoclinic'
loop_
_space_group_symop_operation_xyz
x,y,z
-x,y,-z
-x,-y,-z
x,-y,z
loop_
_atom_site_type_symbol
_atom_site_label
_atom_site_fract_x
_atom_site_fract_y
_atom_site_fract_z
Si Si1 0.473509 0.418018 0.706766
Si Si2 0.986118 0.639975 0.719389
Si Si3 0.625934 0.000000 0.870501
Si Si4 0.725464 0.855147 0.775865
Si Si5 0.768777 0.796124 0.223370
O O1 0.511860 0.500000 0.691998
O O2 0.247925 0.384040 0.498568
O O3 0.795199 0.378560 0.799677
O O4 0.291871 0.404754 0.795908
O O5 0.084932 0.720078 0.744071
O O6 0.559057 0.071259 0.756138
O O7 0.500000 0.000000 0.000000
O O8 0.000000 0.000000 0.000000
O O9 0.442543 0.801352 0.701429
O O10 0.940272 0.848397 0.703876
O O11 0.000000 0.844193 0.000000
O O12 0.500000 0.808426 0.000000
#
# Coordination Sequence:
#
# PCOD9141440 Si02
#       5
#     4   4   2   4   4
#     4  10  19  33  53  71  88 111 150 206 244 263
#     4  10  18  30  49  70  92 118 150 185 237 282
#     4  10  16  26  44  64  88 124 166 198 220 252
#     4   9  17  28  42  63  92 126 158 186 220 262
#     4  10  19  30  44  66  99 129 149 177 225 286
#
# _framework density 24.813355999999999
#
# number of rings (size 3 to 8) (size 9 to 14) (size 15 to 20)
#    0.000    2.222    0.000    8.000    0.000    0.000 
#    0.000    0.000    0.000    7.333    0.000    0.000 
#    0.000   71.111    0.000    0.000    0.000    0.000 
#
# Total GULP energy -100426.302061 kJ/mol
# GULP energy per Si atom -5579.239003 kJ/mol
# Density = 2.475688 g / cm^3
# Si number density = 24.813356 Si / 1000 Ang^3
#
#
#
# Elastic Constant Matrix: (Units=GPa)
#
#
# Indices 1 2 3 4 5 6 
#
# 1 202.5959 87.2118 38.4151 0.0000 77.7758 0.0000
# 2 87.2118 120.9975 -4.7086 0.0000 32.2841 0.0000
# 3 38.4151 -4.7086 99.5346 0.0000 -9.6503 0.0000
# 4 0.0000 0.0000 0.0000 6.0143 0.0000 0.8199
# 5 77.7758 32.2841 -9.6503 0.0000 -6.6105 0.0000
# 6 0.0000 0.0000 0.0000 0.8199 0.0000 42.7110
#
#
#
# Elastic Compliance Matrix: (Units=1/GPa)
#
#
# Indices 1 2 3 4 5 6 
#
# 1 0.002998 -0.005088 -0.000339 0.000000 0.010921 0.000000
# 2 -0.005088 0.012556 0.002364 0.000000 -0.001994 0.000000
# 3 -0.000339 0.002364 0.009656 0.000000 -0.006537 0.000000
# 4 0.000000 0.000000 0.000000 0.166706 0.000000 -0.003200
# 5 0.010921 -0.001994 -0.006537 0.000000 -0.022982 0.000000
# 6 0.000000 0.000000 0.000000 -0.003200 0.000000 0.023475
#
#
# Mechanical properties :
#
#
# Convention : Reuss Voigt Hill
#
# Bulk Modulus (GPa) = 52.39891 73.88494 63.14193
# Shear Modulus (GPa) = 24.40279 28.57026 26.48652
#
# Velocity S-wave (km/s) = 3.13941 3.39692 3.27070
# Velocity P-wave (km/s) = 5.85698 6.72505 6.30597
#
# Compressibility (1/GPa) = 0.01908437
#
# Stress axis : x y z
#
# Youngs Moduli (GPa) = 333.54836 79.64460 103.56663
#
# Poissons Ratio (x) = 0.40522 0.03511
# Poissons Ratio (y) = 1.69706 -0.24487
# Poissons Ratio (z) = 0.11307 -0.18831
#
# Static dielectric constant tensor:
#      x y z
#    x 2.102830 0.000000 0.010380 
#    y 0.000000 1.990670 0.000000 
#    z 0.010380 0.000000 1.990700 
# 
# From -- ./inp_files/39446.got.cif
#   From: 2010.05.17/outbox.cif.g08.bks.cpg/sg10_20_cif.got.tgz:39446.got - 2010.06.03 11:33:40.
