data_PCOD9141569
_publ_section_title
;
Structure prediction by ZEFSAII (Michael W. Deem and Ramdas Pophale) SiO2 
 PCOD9141569
Probable space group: P 2/M
;
_chemical_formula_sum "Si O2"
_cell_formula_units_Z 32
_cell_length_a 12.706519
_cell_length_b 9.126687
_cell_length_c 18.348245
_cell_angle_alpha 90.000000
_cell_angle_beta 90.085823
_cell_angle_gamma 90.000000
_cell_volume 2127.814628
_symmetry_space_group_name_H-M "P 2/M"
_symmetry_group_IT_number 10
_symmetry_cell_setting 'monoclinic'
loop_
_space_group_symop_operation_xyz
x,y,z
-x,y,-z
-x,-y,-z
x,-y,z
loop_
_atom_site_type_symbol
_atom_site_label
_atom_site_fract_x
_atom_site_fract_y
_atom_site_fract_z
Si Si1 0.716239 0.174699 0.911973
Si Si2 0.871998 0.325383 0.800870
Si Si3 0.122940 0.671949 0.812134
Si Si4 0.715539 0.826275 0.084655
Si Si5 0.499857 0.331828 0.911542
Si Si6 0.107572 0.325509 0.650118
Si Si7 0.872007 0.668972 0.507640
Si Si8 0.881917 0.173593 0.651841
O O1 0.805697 0.252466 0.864970
O O2 0.602898 0.240904 0.889983
O O3 0.717835 0.000000 0.901263
O O4 0.731116 0.203883 0.998418
O O5 0.856619 0.500000 0.798604
O O6 0.839089 0.254003 0.723685
O O7 0.997324 0.299395 0.812255
O O8 0.138262 0.500000 0.829225
O O9 0.186894 0.768649 0.868616
O O10 0.160330 0.697000 0.728536
O O11 0.609458 0.744123 0.109654
O O12 0.702003 0.000000 0.092653
O O13 0.505603 0.500000 0.886616
O O14 0.500000 0.332779 0.000000
O O15 0.076291 0.500000 0.648243
O O16 0.167195 0.296982 0.574307
O O17 0.003881 0.225576 0.650072
O O18 0.847934 0.500000 0.525070
O O19 0.837646 0.769617 0.574465
O O20 0.000000 0.678801 0.500000
O O21 0.873376 0.000000 0.658417
#
# Coordination Sequence:
#
# PCOD9141569 Si02
#       8
#     4   4   4   4   4   4   4   4
#     4  10  20  33  48  67  90 114 144 184 228 268
#     4  10  20  33  46  61  86 121 156 185 218 262
#     4   9  18  31  45  62  87 120 156 188 216 256
#     4  10  20  32  47  67  91 117 144 181 228 269
#     4   9  17  31  51  70  86 108 142 182 222 264
#     4   8  15  27  40  55  79 113 148 180 215 255
#     4   8  13  23  38  54  76 108 144 178 213 255
#     4  10  17  24  37  58  83 110 142 180 220 259
#
# _framework density 15.038902999999999
#
# number of rings (size 3 to 8) (size 9 to 14) (size 15 to 20)
#    0.000    2.750    0.000    4.125    0.000    8.250 
#    0.000    2.500    0.000    0.000    0.000    0.000 
#    0.000    1.000    0.000   10.750    0.000    6.750 
#
# Total GULP energy -178158.487227 kJ/mol
# GULP energy per Si atom -5567.452726 kJ/mol
# Density = 1.500467 g / cm^3
# Si number density = 15.038903 Si / 1000 Ang^3
#
#
#
# Elastic Constant Matrix: (Units=GPa)
#
#
# Indices 1 2 3 4 5 6 
#
# 1 45.5892 41.4241 42.6822 0.0000 -1.1270 0.0000
# 2 41.4241 94.2715 67.2956 0.0000 -1.2485 0.0000
# 3 42.6822 67.2956 94.8770 0.0000 -1.8458 0.0000
# 4 0.0000 0.0000 0.0000 24.0096 0.0000 -1.4495
# 5 -1.1270 -1.2485 -1.8458 0.0000 -1.4635 0.0000
# 6 0.0000 0.0000 0.0000 -1.4495 0.0000 21.6933
#
#
#
# Elastic Compliance Matrix: (Units=1/GPa)
#
#
# Indices 1 2 3 4 5 6 
#
# 1 0.042050 -0.010063 -0.011949 0.000000 -0.008726 0.000000
# 2 -0.010063 0.023894 -0.012363 0.000000 0.002958 0.000000
# 3 -0.011949 -0.012363 0.024469 0.000000 -0.011112 0.000000
# 4 0.000000 0.000000 0.000000 0.041819 0.000000 0.002794
# 5 -0.008726 0.002958 -0.011112 0.000000 -0.665102 0.000000
# 6 0.000000 0.000000 0.000000 0.002794 0.000000 0.046284
#
#
# Mechanical properties :
#
#
# Convention : Reuss Voigt Hill
#
# Bulk Modulus (GPa) = 46.16423 59.72683 52.94553
# Shear Modulus (GPa) = -12.17687 14.40360 1.11337
#
# Velocity S-wave (km/s) = -2.84859 3.09812 0.86135
# Velocity P-wave (km/s) = 4.46585 7.25251 6.02257
#
# Compressibility (1/GPa) = 0.02166179
#
# Stress axis : x y z
#
# Youngs Moduli (GPa) = 23.78104 41.85092 40.86860
#
# Poissons Ratio (x) = 0.42115 0.48835
# Poissons Ratio (y) = 0.23931 0.50528
# Poissons Ratio (z) = 0.28416 0.51742
#
# Static dielectric constant tensor:
#      x y z
#    x 1.471190 0.000000 0.002760 
#    y 0.000000 1.498680 0.000000 
#    z 0.002760 0.000000 1.533420 
# 
# From -- ./inp_files/52807.got.cif
#   From: 2010.05.17/outbox.cif.g08.bks.cpg/sg10_27_cif.got.tgz:52807.got - 2010.06.03 11:33:40.
