data_PCOD9141157
_publ_section_title
;
Structure prediction by ZEFSAII (Michael W. Deem and Ramdas Pophale) SiO2 
 PCOD9141157
Probable space group: C C
;
_chemical_formula_sum "Si O2"
_cell_formula_units_Z 20
_cell_length_a 7.783505
_cell_length_b 12.113416
_cell_length_c 8.985603
_cell_angle_alpha 90.000000
_cell_angle_beta 57.517128
_cell_angle_gamma 90.000000
_cell_volume 714.662413
_symmetry_space_group_name_H-M "C C"
_symmetry_group_IT_number 9
_symmetry_cell_setting 'monoclinic'
loop_
_space_group_symop_operation_xyz
x,y,z
x,-y,1/2+z
1/2+x,1/2+y,z
1/2+x,1/2-y,1/2+z
loop_
_atom_site_type_symbol
_atom_site_label
_atom_site_fract_x
_atom_site_fract_y
_atom_site_fract_z
Si Si1 0.858250 0.230946 0.901220
Si Si2 0.409519 0.907501 0.420186
Si Si3 0.145834 0.046862 0.769238
Si Si4 0.507392 0.335360 0.877402
Si Si5 0.699647 0.107329 0.261799
O O1 0.727067 0.296184 0.841830
O O2 0.006163 0.320245 0.909489
O O3 0.736509 0.157382 0.079156
O O4 0.012562 0.141737 0.759046
O O5 0.264382 0.971767 0.599196
O O6 0.402738 0.779695 0.469479
O O7 0.311291 0.906750 0.303970
O O8 0.617193 0.980723 0.312739
O O9 0.005265 0.962648 0.931266
O O10 0.395395 0.360434 0.769558
#
# Coordination Sequence:
#
# PCOD9141157 Si02
#       5
#     4   4   4   4   4
#     4  12  27  51  76 111 155 198 257 315 376 457
#     4  12  27  49  78 113 153 199 256 313 380 454
#     4  12  27  49  78 113 153 199 256 313 380 454
#     4  12  28  46  80 106 154 202 246 308 392 436
#     4  12  27  51  76 111 155 198 257 315 376 457
#
# _framework density 27.985243000000001
#
# number of rings (size 3 to 8) (size 9 to 14) (size 15 to 20)
#    0.000    0.000    4.000    4.800    0.000    1.600 
#    0.000    0.000    0.000    0.000    0.000    0.000 
#    0.000    0.000    0.000    0.000    0.000    0.000 
#
# Total GULP energy -55855.661778 kJ/mol
# GULP energy per Si atom -5585.566178 kJ/mol
# Density = 2.792155 g / cm^3
# Si number density = 27.985243 Si / 1000 Ang^3
#
#
#
# Elastic Constant Matrix: (Units=GPa)
#
#
# Indices 1 2 3 4 5 6 
#
# 1 212.5703 50.3936 34.0709 0.0000 20.6629 0.0000
# 2 50.3936 182.9262 8.1609 0.0000 -4.9414 0.0000
# 3 34.0709 8.1609 95.3232 0.0000 2.0136 0.0000
# 4 0.0000 0.0000 0.0000 -260.3355 0.0000 -75.2496
# 5 20.6629 -4.9414 2.0136 0.0000 28.9832 0.0000
# 6 0.0000 0.0000 0.0000 -75.2496 0.0000 42.0307
#
#
#
# Elastic Compliance Matrix: (Units=1/GPa)
#
#
# Indices 1 2 3 4 5 6 
#
# 1 0.005804 -0.001632 -0.001844 0.000000 -0.004288 0.000000
# 2 -0.001632 0.005974 0.000026 0.000000 0.002181 0.000000
# 3 -0.001844 0.000026 0.011136 0.000000 0.000545 0.000000
# 4 0.000000 0.000000 0.000000 -0.002531 0.000000 -0.004532
# 5 -0.004288 0.002181 0.000545 0.000000 0.037894 0.000000
# 6 0.000000 0.000000 0.000000 -0.004532 0.000000 0.015679
#
#
# Mechanical properties :
#
#
# Convention : Reuss Voigt Hill
#
# Bulk Modulus (GPa) = 62.45008 75.11895 68.78452
# Shear Modulus (GPa) = 58.00923 -11.31803 23.34560
#
# Velocity S-wave (km/s) = 4.55780 -2.01322 2.89140
# Velocity P-wave (km/s) = 7.07544 4.63644 5.98157
#
# Compressibility (1/GPa) = 0.01601279
#
# Stress axis : x y z
#
# Youngs Moduli (GPa) = 172.30468 167.38835 89.79886
#
# Poissons Ratio (x) = 0.27324 0.16559
# Poissons Ratio (y) = 0.28127 -0.00233
# Poissons Ratio (z) = 0.31774 -0.00434
#
# Static dielectric constant tensor:
#      x y z
#    x 2.170600 0.000000 -0.157430 
#    y 0.000000 2.798720 0.000000 
#    z -0.157430 0.000000 2.362780 
# 
# From -- ./inp_files/4740.got.cif
#   From: 2010.05.17/outbox.cif.g08.bks.cpg/sg9_3_cif.got.tgz:4740.got - 2010.06.03 20:04:27.
