data_PCOD9141189
_publ_section_title
;
Structure prediction by ZEFSAII (Michael W. Deem and Ramdas Pophale) SiO2 
 PCOD9141189
Probable space group: C C
;
_chemical_formula_sum "Si O2"
_cell_formula_units_Z 24
_cell_length_a 13.306094
_cell_length_b 7.087078
_cell_length_c 16.838117
_cell_angle_alpha 90.000000
_cell_angle_beta 147.155215
_cell_angle_gamma 90.000000
_cell_volume 861.198044
_symmetry_space_group_name_H-M "C C"
_symmetry_group_IT_number 9
_symmetry_cell_setting 'monoclinic'
loop_
_space_group_symop_operation_xyz
x,y,z
x,-y,1/2+z
1/2+x,1/2+y,z
1/2+x,1/2-y,1/2+z
loop_
_atom_site_type_symbol
_atom_site_label
_atom_site_fract_x
_atom_site_fract_y
_atom_site_fract_z
Si Si1 0.717990 0.594269 0.535940
Si Si2 0.553220 0.362761 0.150025
Si Si3 0.782907 0.155065 0.602472
Si Si4 0.942034 0.618002 0.840118
Si Si5 0.304189 0.305903 0.428238
Si Si6 0.132836 0.433859 0.158795
O O1 0.870101 0.653469 0.702932
O O2 0.525545 0.691861 0.433983
O O3 0.748796 0.689828 0.470451
O O4 0.069395 0.352985 0.631750
O O5 0.483664 0.370680 0.194617
O O6 0.755346 0.441126 0.262018
O O7 0.392854 0.489575 0.004911
O O8 0.229891 0.870411 0.548342
O O9 0.616096 0.024373 0.457665
O O10 0.795532 0.099433 0.703422
O O11 0.162455 0.339372 0.263650
O O12 0.473850 0.182862 0.509683
#
# Coordination Sequence:
#
# PCOD9141189 Si02
#       6
#     4   4   4   4   4   4
#     4  12  28  60  93 130 189 248 316 393 481 567
#     4  12  30  56  93 137 188 251 316 395 485 565
#     4  12  30  58  92 137 190 249 314 395 487 569
#     4  12  30  58  90 138 180 245 322 399 473 577
#     4  12  29  58  87 133 190 245 319 389 478 571
#     4  12  31  56  91 139 187 250 315 395 474 575
#
# _framework density 27.868155999999999
#
# number of rings (size 3 to 8) (size 9 to 14) (size 15 to 20)
#    0.000    0.000    3.333    3.000   11.667    1.333 
#    6.000    0.000    0.000    0.000    0.000    0.000 
#    0.000    0.000    0.000    0.000    0.000    0.000 
#
# Total GULP energy -67320.319881 kJ/mol
# GULP energy per Si atom -5610.026657 kJ/mol
# Density = 2.780473 g / cm^3
# Si number density = 27.868156 Si / 1000 Ang^3
#
#
#
# Elastic Constant Matrix: (Units=GPa)
#
#
# Indices 1 2 3 4 5 6 
#
# 1 247.9730 55.2088 48.1594 0.0000 -1.6372 0.0000
# 2 55.2088 185.2870 54.7150 0.0000 -15.4958 0.0000
# 3 48.1594 54.7150 157.0217 0.0000 -19.9841 0.0000
# 4 0.0000 0.0000 0.0000 47.1219 0.0000 4.8181
# 5 -1.6372 -15.4958 -19.9841 0.0000 48.5948 0.0000
# 6 0.0000 0.0000 0.0000 4.8181 0.0000 35.6134
#
#
#
# Elastic Compliance Matrix: (Units=1/GPa)
#
#
# Indices 1 2 3 4 5 6 
#
# 1 0.004476 -0.001067 -0.001082 0.000000 -0.000634 0.000000
# 2 -0.001067 0.006328 -0.001715 0.000000 0.001277 0.000000
# 3 -0.001082 -0.001715 0.007623 0.000000 0.002551 0.000000
# 4 0.000000 0.000000 0.000000 0.021519 0.000000 -0.002911
# 5 -0.000634 0.001277 0.002551 0.000000 0.022013 0.000000
# 6 0.000000 0.000000 0.000000 -0.002911 0.000000 0.028473
#
#
# Mechanical properties :
#
#
# Convention : Reuss Voigt Hill
#
# Bulk Modulus (GPa) = 93.47050 100.71646 97.09348
# Shear Modulus (GPa) = 49.15069 55.07924 52.11497
#
# Velocity S-wave (km/s) = 4.20418 4.45052 4.32910
# Velocity P-wave (km/s) = 7.56174 7.91380 7.73978
#
# Compressibility (1/GPa) = 0.01069856
#
# Stress axis : x y z
#
# Youngs Moduli (GPa) = 223.40228 158.01868 131.18669
#
# Poissons Ratio (x) = 0.16867 0.14190
# Poissons Ratio (y) = 0.23846 0.22503
# Poissons Ratio (z) = 0.24165 0.27105
#
# Static dielectric constant tensor:
#      x y z
#    x 2.316330 0.000000 0.040640 
#    y 0.000000 2.160700 0.000000 
#    z 0.040640 0.000000 2.106630 
# 
# From -- ./inp_files/5029.got.cif
#   From: 2010.05.17/outbox.cif.g08.bks.cpg/sg9_3_cif.got.tgz:5029.got - 2010.06.03 20:04:27.
