data_PCOD9141367
_publ_section_title
;
Structure prediction by ZEFSAII (Michael W. Deem and Ramdas Pophale) SiO2 
 PCOD9141367
Probable space group: P 2/M
;
_chemical_formula_sum "Si O2"
_cell_formula_units_Z 24
_cell_length_a 20.596397
_cell_length_b 8.328242
_cell_length_c 7.508415
_cell_angle_alpha 90.000000
_cell_angle_beta 49.962599
_cell_angle_gamma 90.000000
_cell_volume 986.072365
_symmetry_space_group_name_H-M "P 2/M"
_symmetry_group_IT_number 10
_symmetry_cell_setting 'monoclinic'
loop_
_space_group_symop_operation_xyz
x,y,z
-x,y,-z
-x,-y,-z
x,-y,z
loop_
_atom_site_type_symbol
_atom_site_label
_atom_site_fract_x
_atom_site_fract_y
_atom_site_fract_z
Si Si1 0.240132 0.679016 0.588906
Si Si2 0.575433 0.326893 0.223343
Si Si3 0.813806 0.000000 0.916017
Si Si4 0.673859 0.000000 0.468638
Si Si5 0.060274 0.675277 0.717435
Si Si6 0.010206 0.000000 0.197849
Si Si7 0.769755 0.328110 0.978462
Si Si8 0.482023 0.000000 0.826021
O O1 0.278586 0.500000 0.488006
O O2 0.300951 0.835230 0.471798
O O3 0.156563 0.693791 0.617018
O O4 0.208409 0.676094 0.850561
O O5 0.500000 0.325686 0.500000
O O6 0.568564 0.500000 0.138126
O O7 0.667891 0.324907 0.148232
O O8 0.565660 0.162879 0.135548
O O9 0.732194 0.000000 0.190668
O O10 0.806152 0.832193 0.828149
O O11 0.894405 0.000000 0.902301
O O12 0.576777 0.000000 0.576619
O O13 0.048556 0.500000 0.652220
O O14 0.031633 0.834396 0.665505
O O15 0.000000 0.671235 0.000000
O O16 0.000000 0.000000 0.000000
O O17 0.797028 0.500000 0.855289
O O18 0.500000 0.000000 0.000000
#
# Coordination Sequence:
#
# PCOD9141367 Si02
#       8
#     4   4   2   2   4   2   4   2
#     4   9  16  26  42  65  91 122 162 204 246 293
#     4  10  20  36  59  81 100 128 171 221 266 314
#     4  10  17  24  40  63  91 127 164 205 243 290
#     4  10  18  30  45  59  83 120 162 201 235 288
#     4   9  15  22  33  52  85 127 161 189 230 291
#     4  10  16  21  31  52  86 129 166 187 226 292
#     4   9  16  26  42  64  87 112 150 201 247 284
#     4  12  26  39  53  76 108 142 171 211 271 330
#
# _framework density 24.338984
#
# number of rings (size 3 to 8) (size 9 to 14) (size 15 to 20)
#    0.000    2.333    0.000    7.250    0.000    4.333 
#    0.000    0.000    0.000    0.000    0.000    0.000 
#    0.000    0.000    0.000   75.000    0.000  290.000 
#
# Total GULP energy -134123.318758 kJ/mol
# GULP energy per Si atom -5588.471615 kJ/mol
# Density = 2.428359 g / cm^3
# Si number density = 24.338984 Si / 1000 Ang^3
#
#
#
# Elastic Constant Matrix: (Units=GPa)
#
#
# Indices 1 2 3 4 5 6 
#
# 1 70.6637 55.4740 16.8375 0.0000 -7.2408 0.0000
# 2 55.4740 300.1009 9.8427 0.0000 -7.9088 0.0000
# 3 16.8375 9.8427 78.2429 0.0000 -5.0566 0.0000
# 4 0.0000 0.0000 0.0000 -22.7346 0.0000 -26.9233
# 5 -7.2408 -7.9088 -5.0566 0.0000 20.3352 0.0000
# 6 0.0000 0.0000 0.0000 -26.9233 0.0000 27.3062
#
#
#
# Elastic Compliance Matrix: (Units=1/GPa)
#
#
# Indices 1 2 3 4 5 6 
#
# 1 0.017754 -0.003064 -0.003154 0.000000 0.004346 0.000000
# 2 -0.003064 0.003905 0.000199 0.000000 0.000477 0.000000
# 3 -0.003154 0.000199 0.013585 0.000000 0.002332 0.000000
# 4 0.000000 0.000000 0.000000 -0.020292 0.000000 -0.020008
# 5 0.004346 0.000477 0.002332 0.000000 0.051489 0.000000
# 6 0.000000 0.000000 0.000000 -0.020008 0.000000 0.016895
#
#
# Mechanical properties :
#
#
# Convention : Reuss Voigt Hill
#
# Bulk Modulus (GPa) = 43.09365 68.14622 55.61993
# Shear Modulus (GPa) = 48.49272 29.43822 38.96547
#
# Velocity S-wave (km/s) = 4.46846 3.48157 4.00553
# Velocity P-wave (km/s) = 6.66085 6.64992 6.65538
#
# Compressibility (1/GPa) = 0.02320527
#
# Stress axis : x y z
#
# Youngs Moduli (GPa) = 56.32651 256.10760 73.60955
#
# Poissons Ratio (x) = 0.78466 0.23218
# Poissons Ratio (y) = 0.17257 -0.01465
# Poissons Ratio (z) = 0.17767 -0.05096
#
# Static dielectric constant tensor:
#      x y z
#    x 1.411930 0.000000 0.902030 
#    y 0.000000 2.037790 0.000000 
#    z 0.902030 0.000000 -0.006720 
# 
# From -- ./inp_files/33861.got.cif
#   From: 2010.05.17/outbox.cif.g08.bks.cpg/sg10_17_cif.got.tgz:33861.got - 2010.06.03 11:33:40.
