data_PCOD9141296
_publ_section_title
;
Structure prediction by ZEFSAII (Michael W. Deem and Ramdas Pophale) SiO2 
 PCOD9141296
Probable space group: P 2/M
;
_chemical_formula_sum "Si O2"
_cell_formula_units_Z 26
_cell_length_a 12.877479
_cell_length_b 11.849167
_cell_length_c 13.766644
_cell_angle_alpha 90.000000
_cell_angle_beta 151.237987
_cell_angle_gamma 90.000000
_cell_volume 1010.759011
_symmetry_space_group_name_H-M "P 2/M"
_symmetry_group_IT_number 10
_symmetry_cell_setting 'monoclinic'
loop_
_space_group_symop_operation_xyz
x,y,z
-x,y,-z
-x,-y,-z
x,-y,z
loop_
_atom_site_type_symbol
_atom_site_label
_atom_site_fract_x
_atom_site_fract_y
_atom_site_fract_z
Si Si1 0.003129 0.127372 0.368114
Si Si2 0.297623 0.797361 0.204801
Si Si3 0.447229 0.834647 0.847039
Si Si4 0.774465 0.872205 0.659028
Si Si5 0.479479 0.371068 0.751915
Si Si6 0.733121 0.000000 0.947442
Si Si7 0.981717 0.623897 0.368307
O O1 0.206430 0.136662 0.609204
O O2 0.084674 0.125043 0.323399
O O3 0.887541 0.249563 0.278081
O O4 0.913431 0.000000 0.308003
O O5 0.535021 0.850029 0.419575
O O6 0.201054 0.782387 0.233605
O O7 0.359091 0.688131 0.192019
O O8 0.178217 0.897602 0.050381
O O9 0.481445 0.703413 0.850543
O O10 0.605029 0.903468 0.906748
O O11 0.500000 0.864606 0.000000
O O12 0.766698 0.000000 0.690897
O O13 0.534739 0.500000 0.810739
O O14 0.221373 0.367342 0.515393
O O15 0.891705 0.500000 0.264337
O O16 0.000000 0.616098 0.500000
#
# Coordination Sequence:
#
# PCOD9141296 Si02
#       7
#     4   4   4   4   4   2   4
#     4  10  17  28  41  62  87 108 135 173 198 228
#     4  10  14  22  38  55  77 105 129 154 184 233
#     4  10  17  25  39  54  75 108 139 168 193 226
#     4  10  14  22  38  58  79 105 133 152 187 240
#     4   9  18  30  39  55  80 105 138 169 197 234
#     4  10  13  23  34  56  75  96 131 162 178 216
#     4   9  17  30  44  54  72 107 143 171 203 242
#
# _framework density 25.723243
#
# number of rings (size 3 to 8) (size 9 to 14) (size 15 to 20)
#    0.000    2.308    6.923    0.692    0.000    0.615 
#    0.000    2.308    0.000    0.000    0.000    0.000 
#    0.000    0.000    0.000   55.385    2.462  284.615 
#
# Total GULP energy -144845.732548 kJ/mol
# GULP energy per Si atom -5570.989713 kJ/mol
# Density = 2.566470 g / cm^3
# Si number density = 25.723243 Si / 1000 Ang^3
#
#
#
# Elastic Constant Matrix: (Units=GPa)
#
#
# Indices 1 2 3 4 5 6 
#
# 1 128.8660 55.0631 25.5234 0.0000 -11.0728 0.0000
# 2 55.0631 260.1671 34.3194 0.0000 1.0556 0.0000
# 3 25.5234 34.3194 104.8084 0.0000 -7.4370 0.0000
# 4 0.0000 0.0000 0.0000 10.8568 0.0000 6.2336
# 5 -11.0728 1.0556 -7.4370 0.0000 38.9375 0.0000
# 6 0.0000 0.0000 0.0000 6.2336 0.0000 31.1010
#
#
#
# Elastic Compliance Matrix: (Units=1/GPa)
#
#
# Indices 1 2 3 4 5 6 
#
# 1 0.008983 -0.001718 -0.001460 0.000000 0.002322 0.000000
# 2 -0.001718 0.004351 -0.001064 0.000000 -0.000810 0.000000
# 3 -0.001460 -0.001064 0.010358 0.000000 0.001592 0.000000
# 4 0.000000 0.000000 0.000000 0.104087 0.000000 -0.020862
# 5 0.002322 -0.000810 0.001592 0.000000 0.026669 0.000000
# 6 0.000000 0.000000 0.000000 -0.020862 0.000000 0.036335
#
#
# Mechanical properties :
#
#
# Convention : Reuss Voigt Hill
#
# Bulk Modulus (GPa) = 65.75531 80.40592 73.08061
# Shear Modulus (GPa) = 24.46960 41.44142 32.95551
#
# Velocity S-wave (km/s) = 3.08760 4.01814 3.58321
# Velocity P-wave (km/s) = 6.19105 7.27002 6.75213
#
# Compressibility (1/GPa) = 0.01520790
#
# Stress axis : x y z
#
# Youngs Moduli (GPa) = 111.32371 229.83773 96.54264
#
# Poissons Ratio (x) = 0.39485 0.14097
# Poissons Ratio (y) = 0.19125 0.10270
# Poissons Ratio (z) = 0.16256 0.24450
#
# Static dielectric constant tensor:
#      x y z
#    x 2.065290 0.000000 0.072140 
#    y 0.000000 1.974840 0.000000 
#    z 0.072140 0.000000 2.267770 
# 
# From -- ./inp_files/64458.got.cif
#   From: 2010.05.17/outbox.cif.g08.bks.cpg/sg10_33_cif.got.tgz:64458.got - 2010.06.03 11:33:40.
