data_PCOD9141331
_publ_section_title
;
Structure prediction by ZEFSAII (Michael W. Deem and Ramdas Pophale) SiO2 
 PCOD9141331
Probable space group: P 2/M
;
_chemical_formula_sum "Si O2"
_cell_formula_units_Z 22
_cell_length_a 10.137868
_cell_length_b 11.204600
_cell_length_c 7.277909
_cell_angle_alpha 90.000000
_cell_angle_beta 82.249226
_cell_angle_gamma 90.000000
_cell_volume 819.150486
_symmetry_space_group_name_H-M "P 2/M"
_symmetry_group_IT_number 10
_symmetry_cell_setting 'monoclinic'
loop_
_space_group_symop_operation_xyz
x,y,z
-x,y,-z
-x,-y,-z
x,-y,z
loop_
_atom_site_type_symbol
_atom_site_label
_atom_site_fract_x
_atom_site_fract_y
_atom_site_fract_z
Si Si1 0.156028 0.246363 0.448199
Si Si2 0.429163 0.732683 0.814841
Si Si3 0.242080 0.000000 0.399947
Si Si4 0.145679 0.263562 0.011479
Si Si5 0.547570 0.000000 0.242195
Si Si6 0.835039 0.500000 0.534714
Si Si7 0.570984 0.500000 0.784829
Si Si8 0.813241 0.000000 0.991207
O O1 0.175849 0.258878 0.224168
O O2 0.197914 0.369547 0.536047
O O3 0.000000 0.236066 0.500000
O O4 0.213683 0.122538 0.504675
O O5 0.428976 0.858749 0.709524
O O6 0.513895 0.624028 0.715001
O O7 0.500000 0.761263 0.000000
O O8 0.280332 0.689752 0.894264
O O9 0.391665 0.000000 0.306151
O O10 0.154747 0.000000 0.231025
O O11 0.137270 0.125715 0.943765
O O12 0.000000 0.319416 0.000000
O O13 0.653756 0.000000 0.054558
O O14 0.731861 0.500000 0.730948
O O15 0.000000 0.500000 0.500000
O O16 0.500000 0.500000 0.000000
#
# Coordination Sequence:
#
# PCOD9141331 Si02
#       8
#     4   4   2   4   2   2   2   2
#     4  10  20  33  49  73 104 138 173 211 258 314
#     4  10  18  29  48  74 101 131 167 215 263 306
#     4  10  16  27  48  75 100 125 168 224 258 292
#     4  10  19  32  51  79 108 136 172 220 267 311
#     4  10  15  24  44  70  95 123 166 213 255 300
#     4  10  20  34  52  77 108 145 180 211 260 329
#     4  10  18  30  48  73 104 135 170 219 266 305
#     4   8  16  27  44  71 105 138 164 203 267 324
#
# _framework density 26.857092999999999
#
# number of rings (size 3 to 8) (size 9 to 14) (size 15 to 20)
#    0.000    2.182    0.000    7.636    0.000    0.000 
#    0.000    1.818    0.000    0.000    0.000   42.000 
#    0.000    0.000    0.000    0.000    0.000    0.000 
#
# Total GULP energy -122588.087033 kJ/mol
# GULP energy per Si atom -5572.185774 kJ/mol
# Density = 2.679596 g / cm^3
# Si number density = 26.857093 Si / 1000 Ang^3
#
#
#
# Elastic Constant Matrix: (Units=GPa)
#
#
# Indices 1 2 3 4 5 6 
#
# 1 116.4631 54.4282 51.3157 0.0000 -29.9670 0.0000
# 2 54.4282 222.8602 23.9908 0.0000 -17.4527 0.0000
# 3 51.3157 23.9908 110.9110 0.0000 -10.9544 0.0000
# 4 0.0000 0.0000 0.0000 12.8298 0.0000 -42.4468
# 5 -29.9670 -17.4527 -10.9544 0.0000 56.2136 0.0000
# 6 0.0000 0.0000 0.0000 -42.4468 0.0000 -3.0268
#
#
#
# Elastic Compliance Matrix: (Units=1/GPa)
#
#
# Indices 1 2 3 4 5 6 
#
# 1 0.013292 -0.002273 -0.005127 0.000000 0.005381 0.000000
# 2 -0.002273 0.005072 -0.000010 0.000000 0.000361 0.000000
# 3 -0.005127 -0.000010 0.011338 0.000000 -0.000527 0.000000
# 4 0.000000 0.000000 0.000000 0.001645 0.000000 -0.023062
# 5 0.005381 0.000361 -0.000527 0.000000 0.020667 0.000000
# 6 0.000000 0.000000 0.000000 -0.023062 0.000000 -0.006971
#
#
# Mechanical properties :
#
#
# Convention : Reuss Voigt Hill
#
# Bulk Modulus (GPa) = 67.19015 78.85599 73.02307
# Shear Modulus (GPa) = 77.13224 34.56997 55.85110
#
# Velocity S-wave (km/s) = 5.36487 3.59162 4.56517
# Velocity P-wave (km/s) = 7.96541 6.82823 7.41864
#
# Compressibility (1/GPa) = 0.01488313
#
# Stress axis : x y z
#
# Youngs Moduli (GPa) = 75.23153 197.17818 88.19592
#
# Poissons Ratio (x) = 0.44819 0.45217
# Poissons Ratio (y) = 0.17100 0.00086
# Poissons Ratio (z) = 0.38570 0.00191
#
# Static dielectric constant tensor:
#      x y z
#    x 2.137400 0.000000 0.013850 
#    y 0.000000 2.175660 0.000000 
#    z 0.013850 0.000000 2.265230 
# 
# From -- ./inp_files/41979.got.cif
#   From: 2010.05.17/outbox.cif.g08.bks.cpg/sg10_21_cif.got.tgz:41979.got - 2010.06.03 11:33:40.
