data_PCOD9141885
_publ_section_title
;
Structure prediction by ZEFSAII (Michael W. Deem and Ramdas Pophale) SiO2 
 PCOD9141885
Probable space group: P 2/M
;
_chemical_formula_sum "Si O2"
_cell_formula_units_Z 32
_cell_length_a 12.196891
_cell_length_b 8.046977
_cell_length_c 29.853783
_cell_angle_alpha 90.000000
_cell_angle_beta 28.947469
_cell_angle_gamma 90.000000
_cell_volume 1418.186653
_symmetry_space_group_name_H-M "P 2/M"
_symmetry_group_IT_number 10
_symmetry_cell_setting 'monoclinic'
loop_
_space_group_symop_operation_xyz
x,y,z
-x,y,-z
-x,-y,-z
x,-y,z
loop_
_atom_site_type_symbol
_atom_site_label
_atom_site_fract_x
_atom_site_fract_y
_atom_site_fract_z
Si Si1 0.258246 0.190493 0.626807
Si Si2 0.223272 0.251002 0.544059
Si Si3 0.951198 0.308458 0.913727
Si Si4 0.081019 0.193695 0.173950
Si Si5 0.448366 0.195493 0.749942
Si Si6 0.235787 0.200589 0.442409
Si Si7 0.544660 0.694935 0.894310
Si Si8 0.707146 0.811565 0.742808
O O1 0.221666 0.308848 0.597022
O O2 0.522474 0.176894 0.543943
O O3 0.113839 0.243421 0.721097
O O4 0.182784 0.000000 0.641428
O O5 0.232949 0.306999 0.488872
O O6 0.968693 0.179561 0.634769
O O7 0.974914 0.500000 0.918868
O O8 0.180842 0.218824 0.845586
O O9 0.928368 0.294361 0.868251
O O10 0.713008 0.242375 0.017645
O O11 0.314954 0.215525 0.117015
O O12 0.044628 0.000000 0.175733
O O13 0.564102 0.254749 0.662587
O O14 0.566258 0.266209 0.752231
O O15 0.505519 0.000000 0.730215
O O16 0.000000 0.214840 0.500000
O O17 0.260870 0.000000 0.445021
O O18 0.534362 0.500000 0.909592
O O19 0.671413 0.717929 0.802014
O O20 0.627541 0.000000 0.779616
#
# Coordination Sequence:
#
# PCOD9141885 Si02
#       8
#     4   4   4   4   4   4   4   4
#     4  10  19  29  52  89 125 156 188 236 294 355
#     4  11  18  30  52  86 127 160 193 237 293 355
#     4  11  25  44  63  85 120 163 204 249 306 373
#     4  11  22  39  66  98 125 152 196 253 306 357
#     4  10  22  38  61  95 124 156 206 259 305 348
#     4  10  17  28  52  86 122 156 191 240 297 353
#     4  11  25  43  63  87 118 162 207 246 305 377
#     4  11  21  37  62  90 123 159 204 259 303 346
#
# _framework density 22.564025999999998
#
# number of rings (size 3 to 8) (size 9 to 14) (size 15 to 20)
#    0.000    1.375    2.500    4.875    0.000    6.500 
#    0.000    2.500    0.000    4.875    0.000    0.000 
#    0.000    0.000    0.000    0.000    0.000    0.000 
#
# Total GULP energy -178381.597610 kJ/mol
# GULP energy per Si atom -5574.424925 kJ/mol
# Density = 2.251267 g / cm^3
# Si number density = 22.564026 Si / 1000 Ang^3
#
#
#
# Elastic Constant Matrix: (Units=GPa)
#
#
# Indices 1 2 3 4 5 6 
#
# 1 114.8710 1.1659 16.0849 0.0000 -11.0560 0.0000
# 2 1.1659 29.7807 -2.1038 0.0000 3.8366 0.0000
# 3 16.0849 -2.1038 96.4059 0.0000 -24.6585 0.0000
# 4 0.0000 0.0000 0.0000 52.3170 0.0000 60.4422
# 5 -11.0560 3.8366 -24.6585 0.0000 29.7727 0.0000
# 6 0.0000 0.0000 0.0000 60.4422 0.0000 -1.1074
#
#
#
# Elastic Compliance Matrix: (Units=1/GPa)
#
#
# Indices 1 2 3 4 5 6 
#
# 1 0.009097 -0.000775 -0.000819 0.000000 0.002800 0.000000
# 2 -0.000775 0.034229 -0.000413 0.000000 -0.005041 0.000000
# 3 -0.000819 -0.000413 0.013241 0.000000 0.010716 0.000000
# 4 0.000000 0.000000 0.000000 0.000298 0.000000 0.016286
# 5 0.002800 -0.005041 0.010716 0.000000 0.044152 0.000000
# 6 0.000000 0.000000 0.000000 0.016286 0.000000 -0.014097
#
#
# Mechanical properties :
#
#
# Convention : Reuss Voigt Hill
#
# Bulk Modulus (GPa) = 19.02754 30.15018 24.58886
# Shear Modulus (GPa) = 46.10291 31.25717 38.68004
#
# Velocity S-wave (km/s) = 4.52509 3.72595 4.14482
# Velocity P-wave (km/s) = 5.97937 5.64813 5.81611
#
# Compressibility (1/GPa) = 0.05255539
#
# Stress axis : x y z
#
# Youngs Moduli (GPa) = 109.92145 29.21468 75.52130
#
# Poissons Ratio (x) = 0.02263 0.06182
# Poissons Ratio (y) = 0.08516 0.03120
# Poissons Ratio (z) = 0.08998 0.01207
#
# Static dielectric constant tensor:
#      x y z
#    x 1.812520 0.000000 0.007670 
#    y 0.000000 1.835310 0.000000 
#    z 0.007670 0.000000 1.810770 
# 
# From -- ./inp_files/94969.got.cif
#   From: 2010.05.17/outbox.cif.g08.bks.cpg/sg10_48_cif.got.tgz:94969.got - 2010.06.03 11:33:40.
