data_PCOD9141410
_publ_section_title
;
Structure prediction by ZEFSAII (Michael W. Deem and Ramdas Pophale) SiO2 
 PCOD9141410
Probable space group: P 2/M
;
_chemical_formula_sum "Si O2"
_cell_formula_units_Z 28
_cell_length_a 12.116033
_cell_length_b 26.435863
_cell_length_c 11.659885
_cell_angle_alpha 90.000000
_cell_angle_beta 154.556021
_cell_angle_gamma 90.000000
_cell_volume 1604.505376
_symmetry_space_group_name_H-M "P 2/M"
_symmetry_group_IT_number 10
_symmetry_cell_setting 'monoclinic'
loop_
_space_group_symop_operation_xyz
x,y,z
-x,y,-z
-x,-y,-z
x,-y,z
loop_
_atom_site_type_symbol
_atom_site_label
_atom_site_fract_x
_atom_site_fract_y
_atom_site_fract_z
Si Si1 0.271322 0.283370 0.195356
Si Si2 0.489121 0.190581 0.255205
Si Si3 0.036278 0.164974 0.667119
Si Si4 0.009218 0.055390 0.276128
Si Si5 0.234894 0.559715 0.362425
Si Si6 0.266894 0.603513 0.131337
Si Si7 0.446697 0.081048 0.317432
O O1 0.500000 0.294300 0.500000
O O2 0.387803 0.239898 0.224948
O O3 0.221171 0.336850 0.086379
O O4 0.000000 0.268155 0.000000
O O5 0.443672 0.141517 0.293086
O O6 0.789520 0.188120 0.502900
O O7 0.304039 0.183706 0.971667
O O8 0.038204 0.104259 0.689759
O O9 0.000000 0.176069 0.500000
O O10 0.305810 0.059702 0.516985
O O11 0.961560 0.000000 0.282920
O O12 0.817109 0.061206 0.986482
O O13 0.276619 0.500000 0.393170
O O14 0.249896 0.583903 0.248275
O O15 0.450513 0.587079 0.638678
O O16 0.952508 0.573228 0.139420
O O17 0.500000 0.069788 0.500000
#
# Coordination Sequence:
#
# PCOD9141410 Si02
#       7
#     4   4   4   4   4   4   4
#     4  12  20  32  48  69 104 133 165 209 239 281
#     4  10  22  35  53  77  94 128 169 200 248 292
#     4  10  21  40  58  73  96 121 158 209 253 305
#     4  10  21  34  52  78 100 123 160 195 234 294
#     4  10  16  25  38  55  86 127 182 211 218 262
#     4  10  16  26  36  59  84 123 170 207 229 265
#     4  10  20  34  49  71 105 134 162 189 226 283
#
# _framework density 17.450859999999999
#
# number of rings (size 3 to 8) (size 9 to 14) (size 15 to 20)
#    0.000    1.714    2.857    4.714    0.000    4.286 
#    0.000    0.000    0.000    5.143    0.000    0.000 
#    0.000    0.000    0.000    0.000    0.000   82.857 
#
# Total GULP energy -156070.566689 kJ/mol
# GULP energy per Si atom -5573.948810 kJ/mol
# Density = 1.741114 g / cm^3
# Si number density = 17.450860 Si / 1000 Ang^3
#
#
#
# Elastic Constant Matrix: (Units=GPa)
#
#
# Indices 1 2 3 4 5 6 
#
# 1 14.5366 13.0455 4.6761 0.0000 2.8139 0.0000
# 2 13.0455 99.6966 -3.6000 0.0000 5.5957 0.0000
# 3 4.6761 -3.6000 98.3289 0.0000 17.4830 0.0000
# 4 0.0000 0.0000 0.0000 8.5138 0.0000 3.8368
# 5 2.8139 5.5957 17.4830 0.0000 19.1745 0.0000
# 6 0.0000 0.0000 0.0000 3.8368 0.0000 7.5905
#
#
#
# Elastic Compliance Matrix: (Units=1/GPa)
#
#
# Indices 1 2 3 4 5 6 
#
# 1 0.080162 -0.010271 -0.003138 0.000000 -0.005905 0.000000
# 2 -0.010271 0.011610 0.001489 0.000000 -0.003239 0.000000
# 3 -0.003138 0.001489 0.012375 0.000000 -0.011258 0.000000
# 4 0.000000 0.000000 0.000000 0.152104 0.000000 -0.076884
# 5 -0.005905 -0.003239 -0.011258 0.000000 0.064229 0.000000
# 6 0.000000 0.000000 0.000000 -0.076884 0.000000 0.170606
#
#
# Mechanical properties :
#
#
# Convention : Reuss Voigt Hill
#
# Bulk Modulus (GPa) = 12.45219 26.75613 19.60416
# Shear Modulus (GPa) = 9.23028 20.28514 14.75771
#
# Velocity S-wave (km/s) = 2.30234 3.41312 2.91120
# Velocity P-wave (km/s) = 3.77078 5.55860 4.74957
#
# Compressibility (1/GPa) = 0.08030717
#
# Stress axis : x y z
#
# Youngs Moduli (GPa) = 12.47475 86.13262 80.80566
#
# Poissons Ratio (x) = 0.88469 0.25359
# Poissons Ratio (y) = 0.12813 -0.12035
# Poissons Ratio (z) = 0.03915 -0.12828
#
# Static dielectric constant tensor:
#      x y z
#    x 1.758440 0.000000 0.123960 
#    y 0.000000 1.603700 0.000000 
#    z 0.123960 0.000000 1.711180 
# 
# From -- ./inp_files/48074.got.cif
#   From: 2010.05.17/outbox.cif.g08.bks.cpg/sg10_25_cif.got.tgz:48074.got - 2010.06.03 11:33:40.
