data_PCOD9141083
_publ_section_title
;
Structure prediction by ZEFSAII (Michael W. Deem and Ramdas Pophale) SiO2 
 PCOD9141083
Probable space group: C C
;
_chemical_formula_sum "Si O2"
_cell_formula_units_Z 24
_cell_length_a 7.630874
_cell_length_b 25.449250
_cell_length_c 5.008806
_cell_angle_alpha 90.000000
_cell_angle_beta 72.110943
_cell_angle_gamma 90.000000
_cell_volume 925.682691
_symmetry_space_group_name_H-M "C C"
_symmetry_group_IT_number 9
_symmetry_cell_setting 'monoclinic'
loop_
_space_group_symop_operation_xyz
x,y,z
x,-y,1/2+z
1/2+x,1/2+y,z
1/2+x,1/2-y,1/2+z
loop_
_atom_site_type_symbol
_atom_site_label
_atom_site_fract_x
_atom_site_fract_y
_atom_site_fract_z
Si Si1 0.928930 0.226857 0.169360
Si Si2 0.979181 0.302211 0.647265
Si Si3 0.051575 0.119688 0.911430
Si Si4 0.266616 0.465025 0.758148
Si Si5 0.936379 0.599942 0.516835
Si Si6 0.757313 0.155822 0.680048
O O1 0.690492 0.180021 0.993726
O O2 0.787899 0.197087 0.433628
O O3 0.068849 0.177478 0.042676
O O4 0.933624 0.258279 0.887003
O O5 0.955596 0.275572 0.368361
O O6 0.895642 0.354928 0.814562
O O7 0.948873 0.130217 0.677068
O O8 0.246645 0.092762 0.762574
O O9 0.907243 0.082394 0.132029
O O10 0.299610 0.510826 0.530935
O O11 0.053696 0.446362 0.826889
O O12 0.092085 0.619449 0.655553
#
# Coordination Sequence:
#
# PCOD9141083 Si02
#       6
#     4   4   4   4   4   4
#     4  12  27  46  78 120 168 228 275 323 407 500
#     4  12  27  46  78 120 168 228 275 323 407 500
#     4  12  29  53  83 123 166 217 281 349 417 509
#     4  12  29  58  90 116 160 216 280 365 434 486
#     4  12  29  53  83 123 166 217 281 349 417 509
#     4  12  25  54  78 112 184 224 272 341 410 482
#
# _framework density 25.926812999999999
#
# number of rings (size 3 to 8) (size 9 to 14) (size 15 to 20)
#    0.000    0.000    6.667    1.000    4.667    2.667 
#    0.000    0.000    0.000    0.000    0.000    0.000 
#    0.000    0.000    0.000    0.000    0.000    0.000 
#
# Total GULP energy -66999.660181 kJ/mol
# GULP energy per Si atom -5583.305015 kJ/mol
# Density = 2.586780 g / cm^3
# Si number density = 25.926813 Si / 1000 Ang^3
#
#
#
# Elastic Constant Matrix: (Units=GPa)
#
#
# Indices 1 2 3 4 5 6 
#
# 1 80.9471 -5.1932 40.8515 0.0000 -21.9640 0.0000
# 2 -5.1932 79.9040 19.6954 0.0000 -1.9103 0.0000
# 3 40.8515 19.6954 173.4386 0.0000 8.1911 0.0000
# 4 0.0000 0.0000 0.0000 52.3475 0.0000 -5.0866
# 5 -21.9640 -1.9103 8.1911 0.0000 57.9442 0.0000
# 6 0.0000 0.0000 0.0000 -5.0866 0.0000 18.8991
#
#
#
# Elastic Compliance Matrix: (Units=1/GPa)
#
#
# Indices 1 2 3 4 5 6 
#
# 1 0.016711 0.002373 -0.004539 0.000000 0.007054 0.000000
# 2 0.002373 0.013236 -0.002139 0.000000 0.001638 0.000000
# 3 -0.004539 -0.002139 0.007210 0.000000 -0.002810 0.000000
# 4 0.000000 0.000000 0.000000 0.019616 0.000000 0.005280
# 5 0.007054 0.001638 -0.002810 0.000000 0.020383 0.000000
# 6 0.000000 0.000000 0.000000 0.005280 0.000000 0.054334
#
#
# Mechanical properties :
#
#
# Convention : Reuss Voigt Hill
#
# Bulk Modulus (GPa) = 35.02937 49.44412 42.23674
# Shear Modulus (GPa) = 33.41915 44.43388 38.92652
#
# Velocity S-wave (km/s) = 3.59413 4.14432 3.87899
# Velocity P-wave (km/s) = 5.54652 6.48171 6.03227
#
# Compressibility (1/GPa) = 0.02854748
#
# Stress axis : x y z
#
# Youngs Moduli (GPa) = 59.84232 75.55264 138.68790
#
# Poissons Ratio (x) = -0.17932 0.62946
# Poissons Ratio (y) = -0.14203 0.29672
# Poissons Ratio (z) = 0.27160 0.16164
#
# Static dielectric constant tensor:
#      x y z
#    x 2.430620 0.000000 0.019720 
#    y 0.000000 2.166070 0.000000 
#    z 0.019720 0.000000 1.998580 
# 
# From -- ./inp_files/1014.got.cif
#   From: 2010.05.17/outbox.cif.g08.bks.cpg/sg9_1_cif.got.tgz:1014.got - 2010.06.03 20:04:27.
