data_PCOD9141023
_publ_section_title
;
Structure prediction by ZEFSAII (Michael W. Deem and Ramdas Pophale) SiO2 
 PCOD9141023
Probable space group: C C
;
_chemical_formula_sum "Si O2"
_cell_formula_units_Z 24
_cell_length_a 7.477077
_cell_length_b 17.798446
_cell_length_c 14.069582
_cell_angle_alpha 90.000000
_cell_angle_beta 37.245201
_cell_angle_gamma 90.000000
_cell_volume 1133.218493
_symmetry_space_group_name_H-M "C C"
_symmetry_group_IT_number 9
_symmetry_cell_setting 'monoclinic'
loop_
_space_group_symop_operation_xyz
x,y,z
x,-y,1/2+z
1/2+x,1/2+y,z
1/2+x,1/2-y,1/2+z
loop_
_atom_site_type_symbol
_atom_site_label
_atom_site_fract_x
_atom_site_fract_y
_atom_site_fract_z
Si Si1 0.244350 0.764814 0.656540
Si Si2 0.172461 0.352709 0.604127
Si Si3 0.931072 0.998465 0.408102
Si Si4 0.666356 0.378298 0.956929
Si Si5 0.115884 0.251384 0.007597
Si Si6 0.877530 0.583180 0.575321
O O1 0.476758 0.823672 0.599227
O O2 0.417110 0.685786 0.573854
O O3 0.101779 0.786013 0.616609
O O4 0.964278 0.759391 0.843220
O O5 0.274643 0.436443 0.540172
O O6 0.456553 0.300472 0.498226
O O7 0.966355 0.344757 0.784378
O O8 0.684762 0.038133 0.447343
O O9 0.066681 0.060489 0.421262
O O10 0.165956 0.956690 0.241534
O O11 0.735176 0.412639 0.031025
O O12 0.955878 0.331754 0.073100
#
# Coordination Sequence:
#
# PCOD9141023 Si02
#       6
#     4   4   4   4   4   4
#     4  12  25  46  73 107 151 187 245 309 361 444
#     4  12  27  47  74 110 145 194 251 305 369 437
#     4  12  28  49  73 109 150 195 248 307 365 448
#     4  12  27  50  74 107 153 195 247 306 374 438
#     4  12  26  45  77 107 145 193 248 301 373 436
#     4  12  27  49  75 106 148 198 247 300 374 439
#
# _framework density 21.178616999999999
#
# number of rings (size 3 to 8) (size 9 to 14) (size 15 to 20)
#    0.000    0.000    6.667    2.000    7.000    1.333 
#    0.000    0.000    0.000    0.000    0.000    0.000 
#    0.000    0.000    0.000    0.000    0.000    0.000 
#
# Total GULP energy -67166.666269 kJ/mol
# GULP energy per Si atom -5597.222189 kJ/mol
# Density = 2.113041 g / cm^3
# Si number density = 21.178617 Si / 1000 Ang^3
#
#
#
# Elastic Constant Matrix: (Units=GPa)
#
#
# Indices 1 2 3 4 5 6 
#
# 1 93.1432 -13.5319 22.1742 0.0025 -14.7233 -0.0001
# 2 -13.5319 -17.0148 2.7406 0.0066 -26.1776 -0.0009
# 3 22.1742 2.7406 61.3076 -0.0077 2.8554 -0.0054
# 4 0.0025 0.0066 -0.0077 30.4652 0.0026 0.2865
# 5 -14.7233 -26.1776 2.8554 0.0026 29.7539 0.0014
# 6 -0.0001 -0.0009 -0.0054 0.2865 0.0014 41.3800
#
#
#
# Elastic Compliance Matrix: (Units=1/GPa)
#
#
# Indices 1 2 3 4 5 6 
#
# 1 0.010328 -0.007272 -0.003366 0.000000 -0.000964 -0.000001
# 2 -0.007272 -0.019572 0.004495 0.000008 -0.021249 0.000001
# 3 -0.003366 0.004495 0.017298 0.000004 0.000629 0.000002
# 4 0.000000 0.000008 0.000004 0.032826 0.000004 -0.000227
# 5 -0.000964 -0.021249 0.000629 0.000004 0.014376 -0.000001
# 6 -0.000001 0.000001 0.000002 -0.000227 -0.000001 0.024168
#
#
# Mechanical properties :
#
#
# Convention : Reuss Voigt Hill
#
# Bulk Modulus (GPa) = -236.32286 17.80021 -109.26132
# Shear Modulus (GPa) = 55.37047 28.72337 42.04692
#
# Velocity S-wave (km/s) = 5.11872 3.68672 4.46056
# Velocity P-wave (km/s) = 8.76885 5.15224 5.01733
#
# Compressibility (1/GPa) = -0.00423150
#
# Stress axis : x y z
#
# Youngs Moduli (GPa) = 96.82037 -51.09361 57.80933
#
# Poissons Ratio (x) = -0.37158 0.19457
# Poissons Ratio (y) = 0.70412 -0.25985
# Poissons Ratio (z) = 0.32586 0.22966
#
# Static dielectric constant tensor:
#      x y z
#    x 1.732190 0.000000 0.011290 
#    y 0.000000 1.728060 0.000000 
#    z 0.011290 0.000000 1.797230 
# 
# From -- ./inp_files/23629.got.cif
#   From: 2010.05.17/outbox.cif.g08.bks.cpg/sg9_12_cif.got.tgz:23629.got - 2010.06.03 20:04:27.
