data_PCOD9141116
_publ_section_title
;
Structure prediction by ZEFSAII (Michael W. Deem and Ramdas Pophale) SiO2 
 PCOD9141116
Probable space group: C C
;
_chemical_formula_sum "Si O2"
_cell_formula_units_Z 32
_cell_length_a 23.733290
_cell_length_b 8.471662
_cell_length_c 8.822524
_cell_angle_alpha 90.000000
_cell_angle_beta 135.549594
_cell_angle_gamma 90.000000
_cell_volume 1242.219518
_symmetry_space_group_name_H-M "C C"
_symmetry_group_IT_number 9
_symmetry_cell_setting 'monoclinic'
loop_
_space_group_symop_operation_xyz
x,y,z
x,-y,1/2+z
1/2+x,1/2+y,z
1/2+x,1/2-y,1/2+z
loop_
_atom_site_type_symbol
_atom_site_label
_atom_site_fract_x
_atom_site_fract_y
_atom_site_fract_z
Si Si1 0.202340 0.934379 0.398010
Si Si2 0.245017 0.408965 0.549299
Si Si3 0.505187 0.708155 0.733490
Si Si4 0.190591 0.303532 0.113080
Si Si5 0.899357 0.289964 0.301047
Si Si6 0.878202 0.647036 0.205556
Si Si7 0.449171 0.654775 0.095030
Si Si8 0.628000 0.696615 0.460713
O O1 0.217657 0.863645 0.597086
O O2 0.287015 0.890823 0.482188
O O3 0.164674 0.097115 0.388216
O O4 0.139682 0.876862 0.149697
O O5 0.228538 0.591231 0.550120
O O6 0.329615 0.319644 0.741358
O O7 0.182318 0.348716 0.554687
O O8 0.222405 0.364394 0.333930
O O9 0.594425 0.769118 0.938614
O O10 0.486851 0.735398 0.522508
O O11 0.440619 0.819893 0.691191
O O12 0.477297 0.523887 0.695591
O O13 0.895181 0.476998 0.314878
O O14 0.897245 0.239326 0.123119
O O15 0.898781 0.801097 0.348229
O O16 0.536310 0.734480 0.245952
#
# Coordination Sequence:
#
# PCOD9141116 Si02
#       8
#     4   4   4   4   4   4   4   4
#     4  12  26  49  79 109 153 205 263 328 399 475
#     4  12  28  49  78 114 158 207 268 329 399 476
#     4  12  28  47  75 113 157 206 265 323 403 478
#     4  12  28  49  78 114 158 207 268 329 399 476
#     4  12  28  47  75 113 157 206 265 323 403 478
#     4  12  28  48  78 110 156 206 263 333 402 475
#     4  12  28  48  78 110 156 206 263 333 402 475
#     4  12  26  49  79 109 153 205 263 328 399 475
#
# _framework density 25.760341
#
# number of rings (size 3 to 8) (size 9 to 14) (size 15 to 20)
#    0.000    0.000    2.500    6.000   14.000    0.000 
#    0.000    0.000    0.000    0.000    0.000    0.000 
#    0.000    0.000    0.000    0.000    0.000    0.000 
#
# Total GULP energy -89210.700199 kJ/mol
# GULP energy per Si atom -5575.668762 kJ/mol
# Density = 2.570171 g / cm^3
# Si number density = 25.760341 Si / 1000 Ang^3
#
#
#
# Elastic Constant Matrix: (Units=GPa)
#
#
# Indices 1 2 3 4 5 6 
#
# 1 119.9303 35.8593 39.5094 0.0000 34.9436 0.0000
# 2 35.8593 90.2750 21.1449 0.0000 14.7541 0.0000
# 3 39.5094 21.1449 133.7038 0.0000 14.6565 0.0000
# 4 0.0000 0.0000 0.0000 35.8504 0.0000 -8.4964
# 5 34.9436 14.7541 14.6565 0.0000 53.9887 0.0000
# 6 0.0000 0.0000 0.0000 -8.4964 0.0000 9.5784
#
#
#
# Elastic Compliance Matrix: (Units=1/GPa)
#
#
# Indices 1 2 3 4 5 6 
#
# 1 0.011845 -0.003152 -0.002325 0.000000 -0.006174 0.000000
# 2 -0.003152 0.012746 -0.000955 0.000000 -0.001184 0.000000
# 3 -0.002325 -0.000955 0.008373 0.000000 -0.000507 0.000000
# 4 0.000000 0.000000 0.000000 0.035318 0.000000 0.031329
# 5 -0.006174 -0.001184 -0.000507 0.000000 0.022980 0.000000
# 6 0.000000 0.000000 0.000000 0.031329 0.000000 0.132191
#
#
# Mechanical properties :
#
#
# Convention : Reuss Voigt Hill
#
# Bulk Modulus (GPa) = 49.74641 59.65958 54.70300
# Shear Modulus (GPa) = 20.57464 36.37654 28.47559
#
# Velocity S-wave (km/s) = 2.82918 3.76189 3.32837
# Velocity P-wave (km/s) = 5.47956 6.48682 6.00435
#
# Compressibility (1/GPa) = 0.02010195
#
# Stress axis : x y z
#
# Youngs Moduli (GPa) = 84.42043 78.45404 119.43345
#
# Poissons Ratio (x) = 0.24725 0.27769
# Poissons Ratio (y) = 0.26606 0.11402
# Poissons Ratio (z) = 0.19628 0.07490
#
# Static dielectric constant tensor:
#      x y z
#    x 2.008690 0.000000 -0.010390 
#    y 0.000000 2.718700 0.000000 
#    z -0.010390 0.000000 2.023940 
# 
# From -- ./inp_files/12446.got.cif
#   From: 2010.05.17/outbox.cif.g08.bks.cpg/sg9_7_cif.got.tgz:12446.got - 2010.06.03 20:04:27.
