data_PCOD9141283
_publ_section_title
;
Structure prediction by ZEFSAII (Michael W. Deem and Ramdas Pophale) SiO2 
 PCOD9141283
Probable space group: C C
;
_chemical_formula_sum "Si O2"
_cell_formula_units_Z 16
_cell_length_a 15.000000
_cell_length_b 12.000000
_cell_length_c 9.000000
_cell_angle_alpha 90.000000
_cell_angle_beta 60.000000
_cell_angle_gamma 90.000000
_cell_volume 1402.961154
_symmetry_space_group_name_H-M "C C"
_symmetry_group_IT_number 9
_symmetry_cell_setting 'monoclinic'
loop_
_space_group_symop_operation_xyz
x,y,z
x,-y,1/2+z
1/2+x,1/2+y,z
1/2+x,1/2-y,1/2+z
loop_
_atom_site_type_symbol
_atom_site_label
_atom_site_fract_x
_atom_site_fract_y
_atom_site_fract_z
Si Si1 0.541080 0.690727 0.345340
Si Si2 0.572251 0.059829 0.824144
Si Si3 0.061584 0.112061 0.024433
Si Si4 0.405316 0.413728 0.169275
Si Si5 0.182231 0.441741 0.507344
Si Si6 0.039116 0.751393 0.264898
Si Si7 0.730416 0.458478 0.810124
Si Si8 0.875234 0.575856 0.447594
O O1 0.556269 0.814562 0.386063
O O2 0.546725 0.700099 0.164456
O O3 0.431755 0.637279 0.484755
O O4 0.639977 0.617780 0.315239
O O5 0.673276 0.034631 0.642068
O O6 0.465447 0.015780 0.847375
O O7 0.604531 0.004896 0.951749
O O8 0.084120 0.166384 0.848735
O O9 0.960666 0.033824 0.112816
O O10 0.162422 0.038724 0.971202
O O11 0.293232 0.417905 0.340012
O O12 0.481710 0.332176 0.197449
O O13 0.125795 0.332900 0.628253
O O14 0.946624 0.682257 0.419829
O O15 0.799320 0.527903 0.636013
O O16 0.810543 0.398267 0.852820
#
# Coordination Sequence:
#
# PCOD9141283 Si02
#       8
#     4   4   4   4   4   4   4   4
#     4  11  25  46  72 105 143 183 244 298 365 429
#     4  11  26  47  69 104 146 186 240 300 354 448
#     4  11  26  46  69 108 141 184 242 310 346 446
#     4  11  25  47  72 102 144 194 237 299 368 435
#     4  11  27  47  72 104 148 192 240 299 372 430
#     4  11  26  46  74 102 148 189 243 296 370 437
#     4  11  24  46  72 105 140 184 238 298 365 427
#     4  11  25  45  72 104 142 190 238 296 362 436
#
# _framework density 11.404450000000001
#
# number of rings (size 3 to 8) (size 9 to 14) (size 15 to 20)
#    0.000    1.000    2.500    3.000   14.000    0.000 
#    2.250    0.000    0.000    0.000    0.000    0.000 
#    0.000    0.000    0.000    0.000    0.000    0.000 
#
# Total GULP energy -89196.472560 kJ/mol
# GULP energy per Si atom -5574.779535 kJ/mol
# Density = 1.137849 g / cm^3
# Si number density = 11.404450 Si / 1000 Ang^3
#
#
#
# Elastic Constant Matrix: (Units=GPa)
#
#
# Indices 1 2 3 4 5 6 
#
# 1 70.8575 15.7701 44.0769 0.0000 -25.7344 0.0000
# 2 15.7701 25.6980 8.3376 0.0000 -10.5947 0.0000
# 3 44.0769 8.3376 107.8488 0.0000 -32.3692 0.0000
# 4 0.0000 0.0000 0.0000 -986.5606 0.0000 132.3477
# 5 -25.7344 -10.5947 -32.3692 0.0000 43.6914 0.0000
# 6 0.0000 0.0000 0.0000 132.3477 0.0000 2.9312
#
#
#
# Elastic Compliance Matrix: (Units=1/GPa)
#
#
# Indices 1 2 3 4 5 6 
#
# 1 0.022506 -0.009132 -0.006659 0.000000 0.006108 0.000000
# 2 -0.009132 0.046947 0.002450 0.000000 0.007820 0.000000
# 3 -0.006659 0.002450 0.013895 0.000000 0.006966 0.000000
# 4 0.000000 0.000000 0.000000 -0.000144 0.000000 0.006485
# 5 0.006108 0.007820 0.006966 0.000000 0.033543 0.000000
# 6 0.000000 0.000000 0.000000 0.006485 0.000000 0.048343
#
#
# Mechanical properties :
#
#
# Convention : Reuss Voigt Hill
#
# Bulk Modulus (GPa) = 17.64727 37.86373 27.75550
# Shear Modulus (GPa) = 23.73487 -178.90630 -77.58572
#
# Velocity S-wave (km/s) = 3.22933 -8.86608 -5.83861
# Velocity P-wave (km/s) = 4.65387 9.39007 5.76692
#
# Compressibility (1/GPa) = 0.05666600
#
# Stress axis : x y z
#
# Youngs Moduli (GPa) = 44.43299 21.30057 71.96833
#
# Poissons Ratio (x) = 0.19453 0.47920
# Poissons Ratio (y) = 0.40578 -0.17633
# Poissons Ratio (z) = 0.29586 -0.05219
#
# Static dielectric constant tensor:
#      x y z
#    x 1.817050 0.000000 0.056790 
#    y 0.000000 1.904960 0.000000 
#    z 0.056790 0.000000 1.872940 
# 
# From -- ./inp_files/9241.got.cif
#   From: 2010.05.17/outbox.ucp.g08.bks.cvg/sg9_5_cif.got.tgz:9241.got - 2010.06.11 13:03:20.
