data_PCOD9141026
_publ_section_title
;
Structure prediction by ZEFSAII (Michael W. Deem and Ramdas Pophale) SiO2 
 PCOD9141026
Probable space group: C C
;
_chemical_formula_sum "Si O2"
_cell_formula_units_Z 24
_cell_length_a 5.413856
_cell_length_b 7.882534
_cell_length_c 23.204266
_cell_angle_alpha 90.000000
_cell_angle_beta 69.514611
_cell_angle_gamma 90.000000
_cell_volume 927.618508
_symmetry_space_group_name_H-M "C C"
_symmetry_group_IT_number 9
_symmetry_cell_setting 'monoclinic'
loop_
_space_group_symop_operation_xyz
x,y,z
x,-y,1/2+z
1/2+x,1/2+y,z
1/2+x,1/2-y,1/2+z
loop_
_atom_site_type_symbol
_atom_site_label
_atom_site_fract_x
_atom_site_fract_y
_atom_site_fract_z
Si Si1 0.139100 0.643441 0.379020
Si Si2 0.173999 0.825405 0.217625
Si Si3 0.489063 0.641645 0.547858
Si Si4 0.112029 0.108355 0.132548
Si Si5 0.255551 0.893440 0.801386
Si Si6 0.306266 0.424595 0.462781
O O1 0.451106 0.643738 0.340611
O O2 0.111830 0.495517 0.429471
O O3 0.952329 0.606263 0.339795
O O4 0.038719 0.821622 0.412744
O O5 0.347238 0.664339 0.186241
O O6 0.879635 0.754483 0.250935
O O7 0.221434 0.959007 0.162935
O O8 0.256342 0.928379 0.267662
O O9 0.284381 0.724836 0.609030
O O10 0.590860 0.474835 0.571376
O O11 0.385350 0.585661 0.494165
O O12 0.689631 0.790992 0.517471
#
# Coordination Sequence:
#
# PCOD9141026 Si02
#       6
#     4   4   4   4   4   4
#     4  12  29  51  78 114 155 202 254 313 377 452
#     4  12  27  47  76 110 150 198 250 309 376 448
#     4  12  25  46  74 108 148 194 248 310 374 446
#     4  12  25  46  74 108 148 194 248 310 374 446
#     4  12  29  51  78 114 155 202 254 313 377 452
#     4  12  27  47  76 110 150 198 250 309 376 448
#
# _framework density 25.872706000000001
#
# number of rings (size 3 to 8) (size 9 to 14) (size 15 to 20)
#    0.000    0.000    0.000    9.000    0.000   16.000 
#    0.000    0.000    0.000    0.000    0.000    0.000 
#    0.000    0.000    0.000    0.000    0.000    0.000 
#
# Total GULP energy -67342.798999 kJ/mol
# GULP energy per Si atom -5611.899917 kJ/mol
# Density = 2.581382 g / cm^3
# Si number density = 25.872706 Si / 1000 Ang^3
#
#
#
# Elastic Constant Matrix: (Units=GPa)
#
#
# Indices 1 2 3 4 5 6 
#
# 1 103.0544 23.3367 38.0487 0.0000 -0.5120 0.0000
# 2 23.3367 108.6753 16.8677 0.0000 0.1098 0.0000
# 3 38.0487 16.8677 102.1720 0.0000 0.5273 0.0000
# 4 0.0000 0.0000 0.0000 45.9374 0.0000 0.0338
# 5 -0.5120 0.1098 0.5273 0.0000 47.5718 0.0000
# 6 0.0000 0.0000 0.0000 0.0338 0.0000 47.8807
#
#
#
# Elastic Compliance Matrix: (Units=1/GPa)
#
#
# Indices 1 2 3 4 5 6 
#
# 1 0.011611 -0.001870 -0.004016 0.000000 0.000174 0.000000
# 2 -0.001870 0.009745 -0.000912 0.000000 -0.000033 0.000000
# 3 -0.004016 -0.000912 0.011434 0.000000 -0.000168 0.000000
# 4 0.000000 0.000000 0.000000 0.021769 0.000000 -0.000015
# 5 0.000174 -0.000033 -0.000168 0.000000 0.021025 0.000000
# 6 0.000000 0.000000 0.000000 -0.000015 0.000000 0.020885
#
#
# Mechanical properties :
#
#
# Convention : Reuss Voigt Hill
#
# Bulk Modulus (GPa) = 52.10100 52.26752 52.18426
# Shear Modulus (GPa) = 42.93206 43.98789 43.45997
#
# Velocity S-wave (km/s) = 4.07794 4.12778 4.10294
# Velocity P-wave (km/s) = 6.50799 6.55467 6.53137
#
# Compressibility (1/GPa) = 0.01919349
#
# Stress axis : x y z
#
# Youngs Moduli (GPa) = 86.12749 102.61755 87.45531
#
# Poissons Ratio (x) = 0.19191 0.35122
# Poissons Ratio (y) = 0.16107 0.07978
# Poissons Ratio (z) = 0.34588 0.09361
#
# Static dielectric constant tensor:
#      x y z
#    x 2.010900 0.000000 -0.003010 
#    y 0.000000 1.936620 0.000000 
#    z -0.003010 0.000000 2.188510 
# 
# From -- ./inp_files/34709.got.cif
#   From: 2010.05.17/outbox.cif.g08.bks.cpg/sg9_18_cif.got.tgz:34709.got - 2010.06.03 20:04:27.
