data_PCOD9141492
_publ_section_title
;
Structure prediction by ZEFSAII (Michael W. Deem and Ramdas Pophale) SiO2 
 PCOD9141492
Probable space group: P 2/M
;
_chemical_formula_sum "Si O2"
_cell_formula_units_Z 28
_cell_length_a 9.320513
_cell_length_b 13.057180
_cell_length_c 14.928053
_cell_angle_alpha 90.000000
_cell_angle_beta 95.382318
_cell_angle_gamma 90.000000
_cell_volume 1808.728245
_symmetry_space_group_name_H-M "P 2/M"
_symmetry_group_IT_number 10
_symmetry_cell_setting 'monoclinic'
loop_
_space_group_symop_operation_xyz
x,y,z
-x,y,-z
-x,-y,-z
x,-y,z
loop_
_atom_site_type_symbol
_atom_site_label
_atom_site_fract_x
_atom_site_fract_y
_atom_site_fract_z
Si Si1 0.633340 0.878969 0.788998
Si Si2 0.144376 0.114800 0.948023
Si Si3 0.067578 0.878273 0.408804
Si Si4 0.366269 0.267663 0.050160
Si Si5 0.592767 0.877724 0.587471
Si Si6 0.094421 0.617760 0.096308
Si Si7 0.036148 0.190402 0.215621
O O1 0.582863 0.806549 0.866183
O O2 0.570431 0.844150 0.688993
O O3 0.807685 0.863058 0.792960
O O4 0.605713 0.000000 0.801376
O O5 0.087596 0.130566 0.844631
O O6 0.198503 0.000000 0.966388
O O7 0.262373 0.196021 0.983961
O O8 0.000000 0.128008 0.000000
O O9 0.239109 0.863590 0.423367
O O10 0.012637 0.815337 0.320099
O O11 0.000000 0.851412 0.500000
O O12 0.041228 0.000000 0.390528
O O13 0.259455 0.353770 0.082331
O O14 0.500000 0.305245 0.000000
O O15 0.500000 0.834431 0.500000
O O16 0.566038 0.000000 0.589033
O O17 0.079997 0.500000 0.123202
O O18 0.045720 0.698662 0.169035
O O19 0.000000 0.631808 0.000000
#
# Coordination Sequence:
#
# PCOD9141492 Si02
#       7
#     4   4   4   4   4   4   4
#     4   9  16  27  44  63  89 127 159 189 222 266
#     4  11  18  28  47  68  94 132 164 188 219 276
#     4   9  17  28  44  68  97 125 152 188 228 271
#     4  11  21  32  43  67 101 124 152 192 239 289
#     4   8  14  26  41  56  81 118 159 188 212 254
#     4  10  19  35  55  71  87 116 163 207 243 285
#     4  10  16  30  49  70  89 121 164 199 229 274
#
# _framework density 15.48049
#
# number of rings (size 3 to 8) (size 9 to 14) (size 15 to 20)
#    0.000    2.286    4.286    2.571    0.000    1.429 
#    2.571    0.000    0.000    0.429    0.000    0.000 
#    0.000   46.286    0.000    0.000    0.000    0.000 
#
# Total GULP energy -155992.927968 kJ/mol
# GULP energy per Si atom -5571.175999 kJ/mol
# Density = 1.544526 g / cm^3
# Si number density = 15.480490 Si / 1000 Ang^3
#
#
#
# Elastic Constant Matrix: (Units=GPa)
#
#
# Indices 1 2 3 4 5 6 
#
# 1 17.9551 7.1737 23.1270 0.0000 -4.4787 0.0000
# 2 7.1737 60.8442 22.3714 0.0000 -2.3746 0.0000
# 3 23.1270 22.3714 126.1340 0.0000 2.8122 0.0000
# 4 0.0000 0.0000 0.0000 13.9257 0.0000 1.4813
# 5 -4.4787 -2.3746 2.8122 0.0000 26.8195 0.0000
# 6 0.0000 0.0000 0.0000 1.4813 0.0000 6.7624
#
#
#
# Elastic Compliance Matrix: (Units=1/GPa)
#
#
# Indices 1 2 3 4 5 6 
#
# 1 0.078934 -0.003538 -0.014165 0.000000 0.014353 0.000000
# 2 -0.003538 0.017836 -0.002543 0.000000 0.001255 0.000000
# 3 -0.014165 -0.002543 0.011060 0.000000 -0.003750 0.000000
# 4 0.000000 0.000000 0.000000 0.073522 0.000000 -0.016105
# 5 0.014353 0.001255 -0.003750 0.000000 0.040188 0.000000
# 6 0.000000 0.000000 0.000000 -0.016105 0.000000 0.151404
#
#
# Mechanical properties :
#
#
# Convention : Reuss Voigt Hill
#
# Bulk Modulus (GPa) = 14.85041 34.47527 24.66284
# Shear Modulus (GPa) = 11.47099 19.65228 15.56163
#
# Velocity S-wave (km/s) = 2.72508 3.56685 3.17399
# Velocity P-wave (km/s) = 4.41760 6.26751 5.42204
#
# Compressibility (1/GPa) = 0.06733822
#
# Stress axis : x y z
#
# Youngs Moduli (GPa) = 12.66885 56.06481 90.41656
#
# Poissons Ratio (x) = 0.19835 1.28077
# Poissons Ratio (y) = 0.04482 0.22991
# Poissons Ratio (z) = 0.17946 0.14256
#
# Static dielectric constant tensor:
#      x y z
#    x 1.520640 0.000000 0.001100 
#    y 0.000000 1.500210 0.000000 
#    z 0.001100 0.000000 1.552660 
# 
# From -- ./inp_files/61415.got.cif
#   From: 2010.05.17/outbox.cif.g08.bks.cpg/sg10_31_cif.got.tgz:61415.got - 2010.06.03 11:33:40.
