data_PCOD9141081
_publ_section_title
;
Structure prediction by ZEFSAII (Michael W. Deem and Ramdas Pophale) SiO2 
 PCOD9141081
Probable space group: C C
;
_chemical_formula_sum "Si O2"
_cell_formula_units_Z 24
_cell_length_a 8.469759
_cell_length_b 13.102290
_cell_length_c 11.067939
_cell_angle_alpha 90.000000
_cell_angle_beta 55.976916
_cell_angle_gamma 90.000000
_cell_volume 1017.984484
_symmetry_space_group_name_H-M "C C"
_symmetry_group_IT_number 9
_symmetry_cell_setting 'monoclinic'
loop_
_space_group_symop_operation_xyz
x,y,z
x,-y,1/2+z
1/2+x,1/2+y,z
1/2+x,1/2-y,1/2+z
loop_
_atom_site_type_symbol
_atom_site_label
_atom_site_fract_x
_atom_site_fract_y
_atom_site_fract_z
Si Si1 0.348300 0.827947 0.774800
Si Si2 0.076918 0.990333 0.014254
Si Si3 0.925929 0.444680 0.518159
Si Si4 0.020462 0.348134 0.049896
Si Si5 0.101730 0.819121 0.337191
Si Si6 0.718418 0.135981 0.712715
O O1 0.447108 0.914517 0.649673
O O2 0.459779 0.748063 0.813653
O O3 0.281482 0.752534 0.697491
O O4 0.187943 0.890652 0.915014
O O5 0.043971 0.070491 0.917667
O O6 0.554172 0.126254 0.881660
O O7 0.213545 0.043879 0.055062
O O8 0.013310 0.557425 0.462448
O O9 0.387916 0.445147 0.155730
O O10 0.801767 0.328084 0.182519
O O11 0.134154 0.380331 0.118038
O O12 0.117102 0.251898 0.947769
#
# Coordination Sequence:
#
# PCOD9141081 Si02
#       6
#     4   4   4   4   4   4
#     4  12  27  49  80 115 159 208 266 325 401 473
#     4  12  27  52  79 117 163 210 266 330 396 478
#     4  12  25  53  75 116 159 202 269 324 398 477
#     4  12  28  49  78 112 155 203 265 326 397 472
#     4  12  28  51  80 114 155 208 263 330 398 470
#     4  12  29  46  80 116 153 213 261 329 396 476
#
# _framework density 23.575997000000001
#
# number of rings (size 3 to 8) (size 9 to 14) (size 15 to 20)
#    0.000    0.000    5.000    3.000    9.333    0.000 
#    0.000    0.000    0.000    0.000    0.000    0.000 
#    0.000    0.000    0.000    0.000    0.000    0.000 
#
# Total GULP energy -67102.040605 kJ/mol
# GULP energy per Si atom -5591.836717 kJ/mol
# Density = 2.352234 g / cm^3
# Si number density = 23.575997 Si / 1000 Ang^3
#
#
#
# Elastic Constant Matrix: (Units=GPa)
#
#
# Indices 1 2 3 4 5 6 
#
# 1 83.6069 34.1750 18.4228 0.0000 12.1911 0.0000
# 2 34.1750 115.4508 3.3001 0.0000 1.9252 0.0000
# 3 18.4228 3.3001 67.0189 0.0000 1.6758 0.0000
# 4 0.0000 0.0000 0.0000 -187.8026 0.0000 -18.3945
# 5 12.1911 1.9252 1.6758 0.0000 27.1499 0.0000
# 6 0.0000 0.0000 0.0000 -18.3945 0.0000 40.5288
#
#
#
# Elastic Compliance Matrix: (Units=1/GPa)
#
#
# Indices 1 2 3 4 5 6 
#
# 1 0.015549 -0.004384 -0.003898 0.000000 -0.006431 0.000000
# 2 -0.004384 0.009919 0.000686 0.000000 0.001223 0.000000
# 3 -0.003898 0.000686 0.015941 0.000000 0.000718 0.000000
# 4 0.000000 0.000000 0.000000 -0.005098 0.000000 -0.002314
# 5 -0.006431 0.001223 0.000718 0.000000 0.039589 0.000000
# 6 0.000000 0.000000 0.000000 -0.002314 0.000000 0.023624
#
#
# Mechanical properties :
#
#
# Convention : Reuss Voigt Hill
#
# Bulk Modulus (GPa) = 38.14134 41.98581 40.06358
# Shear Modulus (GPa) = 40.50057 -10.01286 15.24385
#
# Velocity S-wave (km/s) = 4.14922 -2.06307 2.54556
# Velocity P-wave (km/s) = 6.25842 3.48889 5.06657
#
# Compressibility (1/GPa) = 0.02621827
#
# Stress axis : x y z
#
# Youngs Moduli (GPa) = 64.31154 100.81191 62.73189
#
# Poissons Ratio (x) = 0.44197 0.24451
# Poissons Ratio (y) = 0.28195 -0.04304
# Poissons Ratio (z) = 0.25066 -0.06917
#
# Static dielectric constant tensor:
#      x y z
#    x 1.921100 0.000000 0.027240 
#    y 0.000000 1.829730 0.000000 
#    z 0.027240 0.000000 1.831030 
# 
# From -- ./inp_files/14173.got.cif
#   From: 2010.05.17/outbox.cif.g08.bks.cpg/sg9_8_cif.got.tgz:14173.got - 2010.06.03 20:04:27.
