data_PCOD9141037
_publ_section_title
;
Structure prediction by ZEFSAII (Michael W. Deem and Ramdas Pophale) SiO2 
 PCOD9141037
Probable space group: C C
;
_chemical_formula_sum "Si O2"
_cell_formula_units_Z 32
_cell_length_a 11.534808
_cell_length_b 15.039216
_cell_length_c 9.032652
_cell_angle_alpha 90.000000
_cell_angle_beta 118.892621
_cell_angle_gamma 90.000000
_cell_volume 1371.893095
_symmetry_space_group_name_H-M "C C"
_symmetry_group_IT_number 9
_symmetry_cell_setting 'monoclinic'
loop_
_space_group_symop_operation_xyz
x,y,z
x,-y,1/2+z
1/2+x,1/2+y,z
1/2+x,1/2-y,1/2+z
loop_
_atom_site_type_symbol
_atom_site_label
_atom_site_fract_x
_atom_site_fract_y
_atom_site_fract_z
Si Si1 0.122270 0.355088 0.547810
Si Si2 0.789095 0.484688 0.747682
Si Si3 0.017824 0.055900 0.509114
Si Si4 0.748838 0.287974 0.637354
Si Si5 0.459756 0.005956 0.595517
Si Si6 0.041226 0.781560 0.236315
Si Si7 0.913528 0.888753 0.620735
Si Si8 0.040817 0.300536 0.185543
O O1 0.122506 0.276809 0.667373
O O2 0.258773 0.381613 0.556787
O O3 0.035344 0.318887 0.357573
O O4 0.068892 0.440043 0.603282
O O5 0.675382 0.542477 0.606042
O O6 0.745306 0.383162 0.715336
O O7 0.927515 0.492635 0.746544
O O8 0.822583 0.519494 0.930419
O O9 0.996140 0.129101 0.623749
O O10 0.974317 0.084793 0.318956
O O11 0.951442 0.964161 0.524961
O O12 0.644019 0.292308 0.435804
O O13 0.687364 0.216149 0.711895
O O14 0.901282 0.266485 0.690156
O O15 0.486850 0.108992 0.581404
O O16 0.964101 0.790754 0.607293
#
# Coordination Sequence:
#
# PCOD9141037 Si02
#       8
#     4   4   4   4   4   4   4   4
#     4  12  29  49  76 107 154 198 246 314 383 447
#     4  12  25  47  76 104 147 190 256 302 375 440
#     4  12  27  47  75 110 149 197 247 308 375 453
#     4  12  27  48  75 111 150 198 252 312 374 452
#     4  12  27  48  74 109 148 197 247 311 374 451
#     4  12  27  49  78 109 154 199 250 313 379 451
#     4  12  29  49  75 112 151 199 248 311 380 450
#     4  12  29  49  75 112 151 198 254 311 374 454
#
# _framework density 23.325433
#
# number of rings (size 3 to 8) (size 9 to 14) (size 15 to 20)
#    0.000    0.000    5.000    3.750    8.750    0.000 
#    0.000    0.000    0.000    0.000    0.000    0.000 
#    0.000    0.000    0.000    0.000    0.000    0.000 
#
# Total GULP energy -89548.423978 kJ/mol
# GULP energy per Si atom -5596.776499 kJ/mol
# Density = 2.327234 g / cm^3
# Si number density = 23.325433 Si / 1000 Ang^3
#
#
#
# Elastic Constant Matrix: (Units=GPa)
#
#
# Indices 1 2 3 4 5 6 
#
# 1 68.6080 7.8962 -20.6009 0.0000 -8.7648 0.0000
# 2 7.8962 116.7238 -2.1359 0.0000 -4.5979 0.0000
# 3 -20.6009 -2.1359 61.9506 0.0000 -4.2143 0.0000
# 4 0.0000 0.0000 0.0000 29.6924 0.0000 -0.5457
# 5 -8.7648 -4.5979 -4.2143 0.0000 32.4200 0.0000
# 6 0.0000 0.0000 0.0000 -0.5457 0.0000 36.4284
#
#
#
# Elastic Compliance Matrix: (Units=1/GPa)
#
#
# Indices 1 2 3 4 5 6 
#
# 1 0.017164 -0.000842 0.006040 0.000000 0.005306 0.000000
# 2 -0.000842 0.008666 0.000088 0.000000 0.001013 0.000000
# 3 0.006040 0.000088 0.018428 0.000000 0.004041 0.000000
# 4 0.000000 0.000000 0.000000 0.033688 0.000000 0.000505
# 5 0.005306 0.001013 0.004041 0.000000 0.032949 0.000000
# 6 0.000000 0.000000 0.000000 0.000505 0.000000 0.027459
#
#
# Mechanical properties :
#
#
# Convention : Reuss Voigt Hill
#
# Bulk Modulus (GPa) = 18.23850 24.17791 21.20821
# Shear Modulus (GPa) = 34.23310 37.18304 35.70807
#
# Velocity S-wave (km/s) = 3.83512 3.99695 3.91687
# Velocity P-wave (km/s) = 5.23899 5.62928 5.43764
#
# Compressibility (1/GPa) = 0.05482907
#
# Stress axis : x y z
#
# Youngs Moduli (GPa) = 58.26240 115.39785 54.26477
#
# Poissons Ratio (x) = 0.09712 -0.32773
# Poissons Ratio (y) = 0.04903 -0.00477
# Poissons Ratio (z) = -0.35188 -0.01013
#
# Static dielectric constant tensor:
#      x y z
#    x 1.867250 0.000000 0.009030 
#    y 0.000000 1.857160 0.000000 
#    z 0.009030 0.000000 1.886140 
# 
# From -- ./inp_files/7353.got.cif
#   From: 2010.05.17/outbox.cif.g08.bks.cpg/sg9_4_cif.got.tgz:7353.got - 2010.06.03 20:04:27.
