data_PCOD9141728
_publ_section_title
;
Structure prediction by ZEFSAII (Michael W. Deem and Ramdas Pophale) SiO2 
 PCOD9141728
Probable space group: P 2/M
;
_chemical_formula_sum "Si O2"
_cell_formula_units_Z 20
_cell_length_a 7.898007
_cell_length_b 8.823841
_cell_length_c 23.606570
_cell_angle_alpha 90.000000
_cell_angle_beta 149.437926
_cell_angle_gamma 90.000000
_cell_volume 836.516932
_symmetry_space_group_name_H-M "P 2/M"
_symmetry_group_IT_number 10
_symmetry_cell_setting 'monoclinic'
loop_
_space_group_symop_operation_xyz
x,y,z
-x,y,-z
-x,-y,-z
x,-y,z
loop_
_atom_site_type_symbol
_atom_site_label
_atom_site_fract_x
_atom_site_fract_y
_atom_site_fract_z
Si Si1 0.531705 0.323989 0.941633
Si Si2 0.472211 0.679325 0.657006
Si Si3 0.182973 0.817391 0.470853
Si Si4 0.805952 0.174085 0.853844
Si Si5 0.129936 0.823550 0.733686
O O1 0.595060 0.500000 0.947819
O O2 0.854083 0.224808 0.019087
O O3 0.500000 0.304619 0.000000
O O4 0.215019 0.272093 0.813716
O O5 0.452423 0.500000 0.643382
O O6 0.142179 0.743381 0.593500
O O7 0.750482 0.722333 0.782666
O O8 0.473357 0.760384 0.596259
O O9 0.139438 0.777951 0.392041
O O10 0.166213 0.000000 0.469092
O O11 0.480999 0.185585 0.799714
O O12 0.830304 0.000000 0.842219
O O13 0.071667 0.000000 0.731342
#
# Coordination Sequence:
#
# PCOD9141728 Si02
#       5
#     4   4   4   4   4
#     4  11  24  38  52  74 104 136 171 213 261 310
#     4  10  17  26  45  75 107 136 167 204 253 304
#     4   9  16  28  46  72 106 137 168 207 250 298
#     4  10  20  35  55  78 104 135 173 214 255 302
#     4   9  19  34  54  79 104 134 173 213 252 300
#
# _framework density 23.908662
#
# number of rings (size 3 to 8) (size 9 to 14) (size 15 to 20)
#    0.000    2.200    0.000    6.600    0.000    8.800 
#    0.000    0.000    0.000    1.200    0.000    8.400 
#    0.000    0.000    0.000    0.000    0.000    0.000 
#
# Total GULP energy -111843.429348 kJ/mol
# GULP energy per Si atom -5592.171467 kJ/mol
# Density = 2.385424 g / cm^3
# Si number density = 23.908662 Si / 1000 Ang^3
#
#
#
# Elastic Constant Matrix: (Units=GPa)
#
#
# Indices 1 2 3 4 5 6 
#
# 1 49.4039 22.5172 6.7442 0.0000 -11.8376 0.0000
# 2 22.5172 93.8106 42.1676 0.0000 -27.0524 0.0000
# 3 6.7442 42.1676 172.0939 0.0000 -10.4371 0.0000
# 4 0.0000 0.0000 0.0000 33.9613 0.0000 -22.3775
# 5 -11.8376 -27.0524 -10.4371 0.0000 50.4152 0.0000
# 6 0.0000 0.0000 0.0000 -22.3775 0.0000 4.1749
#
#
#
# Elastic Compliance Matrix: (Units=1/GPa)
#
#
# Indices 1 2 3 4 5 6 
#
# 1 0.023114 -0.004932 0.000477 0.000000 0.002879 0.000000
# 2 -0.004932 0.015053 -0.003115 0.000000 0.006274 0.000000
# 3 0.000477 -0.003115 0.006543 0.000000 -0.000205 0.000000
# 4 0.000000 0.000000 0.000000 -0.011630 0.000000 -0.062339
# 5 0.002879 0.006274 -0.000205 0.000000 0.023836 0.000000
# 6 0.000000 0.000000 0.000000 -0.062339 0.000000 -0.094609
#
#
# Mechanical properties :
#
#
# Convention : Reuss Voigt Hill
#
# Bulk Modulus (GPa) = 33.81690 50.90737 42.36214
# Shear Modulus (GPa) = -393.78085 33.96891 -179.90597
#
# Velocity S-wave (km/s) = -12.84756 3.77341 -8.68392
# Velocity P-wave (km/s) = 14.34938 6.35008 9.09893
#
# Compressibility (1/GPa) = 0.02957101
#
# Stress axis : x y z
#
# Youngs Moduli (GPa) = 43.26362 66.43194 152.83943
#
# Poissons Ratio (x) = 0.32766 -0.07296
# Poissons Ratio (y) = 0.21339 0.47603
# Poissons Ratio (z) = -0.02065 0.20691
#
# Static dielectric constant tensor:
#      x y z
#    x 1.976720 0.000000 0.017200 
#    y 0.000000 1.786320 0.000000 
#    z 0.017200 0.000000 1.934140 
# 
# From -- ./inp_files/26773.got.cif
#   From: 2010.05.17/outbox.cif.g08.bks.cpg/sg10_14_cif.got.tgz:26773.got - 2010.06.03 11:33:40.
