data_PCOD9141471
_publ_section_title
;
Structure prediction by ZEFSAII (Michael W. Deem and Ramdas Pophale) SiO2 
 PCOD9141471
Probable space group: P 2/M
;
_chemical_formula_sum "Si O2"
_cell_formula_units_Z 24
_cell_length_a 7.210415
_cell_length_b 16.977581
_cell_length_c 10.302798
_cell_angle_alpha 90.000000
_cell_angle_beta 136.925603
_cell_angle_gamma 90.000000
_cell_volume 861.347765
_symmetry_space_group_name_H-M "P 2/M"
_symmetry_group_IT_number 10
_symmetry_cell_setting 'monoclinic'
loop_
_space_group_symop_operation_xyz
x,y,z
-x,y,-z
-x,-y,-z
x,-y,z
loop_
_atom_site_type_symbol
_atom_site_label
_atom_site_fract_x
_atom_site_fract_y
_atom_site_fract_z
Si Si1 0.943921 0.000000 0.287311
Si Si2 0.370190 0.169801 0.136460
Si Si3 0.764746 0.500000 0.985188
Si Si4 0.950126 0.166781 0.292651
Si Si5 0.381575 0.000000 0.153358
Si Si6 0.207066 0.500000 0.429613
Si Si7 0.201185 0.671278 0.401261
Si Si8 0.322091 0.668909 0.037045
O O1 0.094080 0.082609 0.382775
O O2 0.803576 0.000000 0.072879
O O3 0.688501 0.000000 0.255253
O O4 0.145704 0.170603 0.906077
O O5 0.354119 0.262887 0.160662
O O6 0.329416 0.086383 0.189198
O O7 0.668556 0.162505 0.226458
O O8 0.601183 0.580385 0.886463
O O9 0.929314 0.500000 0.203026
O O10 0.000000 0.500000 0.000000
O O11 0.111145 0.244617 0.412700
O O12 0.500000 0.500000 0.500000
O O13 0.191822 0.589346 0.476101
O O14 0.500000 0.678863 0.500000
O O15 0.984341 0.661319 0.172488
O O16 0.500000 0.690418 0.000000
#
# Coordination Sequence:
#
# PCOD9141471 Si02
#       8
#     2   4   2   4   2   2   4   4
#     4   7  10  14  25  40  68 112 127 155 205 275
#     4   8  11  19  33  55  80 104 137 182 219 256
#     4  10  21  31  44  69  99 120 143 188 244 275
#     4   8  11  18  28  47  77 101 135 166 217 248
#     4   7  10  14  28  50  77 106 132 167 223 263
#     4   8  16  29  44  59  78 114 153 176 203 271
#     4   9  15  23  36  57  80 105 139 181 211 253
#     4  10  16  28  44  64  85 111 152 190 216 259
#
# _framework density 27.863310999999999
#
# number of rings (size 3 to 8) (size 9 to 14) (size 15 to 20)
#    0.000    3.500    3.333    2.250    0.000    0.000 
#    0.000    0.417    0.000    0.000    0.000   37.917 
#    0.000    0.000    0.000    0.000    0.000   84.000 
#
# Total GULP energy -133982.867445 kJ/mol
# GULP energy per Si atom -5582.619477 kJ/mol
# Density = 2.779989 g / cm^3
# Si number density = 27.863311 Si / 1000 Ang^3
#
#
#
# Elastic Constant Matrix: (Units=GPa)
#
#
# Indices 1 2 3 4 5 6 
#
# 1 57.6934 39.3473 28.0502 0.0000 8.8562 0.0000
# 2 39.3473 392.7024 47.2488 0.0000 11.5714 0.0000
# 3 28.0502 47.2488 129.1787 0.0000 -13.5275 0.0000
# 4 0.0000 0.0000 0.0000 -13.8031 0.0000 30.6178
# 5 8.8562 11.5714 -13.5275 0.0000 44.6461 0.0000
# 6 0.0000 0.0000 0.0000 30.6178 0.0000 -2.9971
#
#
#
# Elastic Compliance Matrix: (Units=1/GPa)
#
#
# Indices 1 2 3 4 5 6 
#
# 1 0.021391 -0.001425 -0.004678 0.000000 -0.005291 0.000000
# 2 -0.001425 0.002804 -0.000788 0.000000 -0.000683 0.000000
# 3 -0.004678 -0.000788 0.009464 0.000000 0.004000 0.000000
# 4 0.000000 0.000000 0.000000 0.003345 0.000000 0.034169
# 5 -0.005291 -0.000683 0.004000 0.000000 0.024837 0.000000
# 6 0.000000 0.000000 0.000000 0.034169 0.000000 0.015404
#
#
# Mechanical properties :
#
#
# Convention : Reuss Voigt Hill
#
# Bulk Modulus (GPa) = 50.30545 89.87413 70.08979
# Shear Modulus (GPa) = 51.20233 36.56438 43.88335
#
# Velocity S-wave (km/s) = 4.29140 3.62647 3.97287
# Velocity P-wave (km/s) = 6.53058 7.06119 6.80106
#
# Compressibility (1/GPa) = 0.01987856
#
# Stress axis : x y z
#
# Youngs Moduli (GPa) = 46.74815 356.62024 105.66344
#
# Poissons Ratio (x) = 0.50803 0.49429
# Poissons Ratio (y) = 0.06660 0.08324
# Poissons Ratio (z) = 0.21869 0.28095
#
# Static dielectric constant tensor:
#      x y z
#    x 2.192960 0.000000 -0.022760 
#    y 0.000000 2.316160 0.000000 
#    z -0.022760 0.000000 2.095330 
# 
# From -- ./inp_files/82980.got.cif
#   From: 2010.05.17/outbox.cif.g08.bks.cpg/sg10_42_cif.got.tgz:82980.got - 2010.06.03 11:33:40.
