data_PCOD9141544
_publ_section_title
;
Structure prediction by ZEFSAII (Michael W. Deem and Ramdas Pophale) SiO2 
 PCOD9141544
Probable space group: P 2/M
;
_chemical_formula_sum "Si O2"
_cell_formula_units_Z 28
_cell_length_a 7.074825
_cell_length_b 7.621004
_cell_length_c 21.269065
_cell_angle_alpha 90.000000
_cell_angle_beta 111.414494
_cell_angle_gamma 90.000000
_cell_volume 1067.600913
_symmetry_space_group_name_H-M "P 2/M"
_symmetry_group_IT_number 10
_symmetry_cell_setting 'monoclinic'
loop_
_space_group_symop_operation_xyz
x,y,z
-x,y,-z
-x,-y,-z
x,-y,z
loop_
_atom_site_type_symbol
_atom_site_label
_atom_site_fract_x
_atom_site_fract_y
_atom_site_fract_z
Si Si1 0.054206 0.698959 0.571182
Si Si2 0.713476 0.710232 0.987575
Si Si3 0.203638 0.195479 0.712010
Si Si4 0.387490 0.702485 0.423826
Si Si5 0.795980 0.700462 0.724695
Si Si6 0.950678 0.285992 0.131885
Si Si7 0.528835 0.289846 0.153903
O O1 0.121233 0.500000 0.566352
O O2 0.841508 0.693415 0.580038
O O3 0.000000 0.791131 0.500000
O O4 0.208233 0.781233 0.638241
O O5 0.746025 0.500000 0.985576
O O6 0.894552 0.775188 0.054374
O O7 0.500000 0.730513 0.000000
O O8 0.655231 0.777779 0.911209
O O9 0.418938 0.229645 0.769996
O O10 0.022356 0.310069 0.719513
O O11 0.136948 0.000000 0.718630
O O12 0.500000 0.779577 0.500000
O O13 0.461287 0.500000 0.426454
O O14 0.350105 0.777180 0.348249
O O15 0.725734 0.500000 0.726255
O O16 0.863779 0.775763 0.801364
O O17 0.969588 0.500000 0.131531
O O18 0.739889 0.246020 0.143216
O O19 0.511663 0.500000 0.153076
#
# Coordination Sequence:
#
# PCOD9141544 Si02
#       7
#     4   4   4   4   4   4   4
#     4   9  17  29  43  56  71  95 125 151 176 212
#     4   7   9  13  24  41  57  77 110 148 175 197
#     4  10  17  23  33  49  69  91 116 148 182 214
#     4   8  13  22  38  59  77  92 116 151 184 210
#     4   8  13  22  35  48  65  92 122 148 175 213
#     4   7   9  14  26  43  59  79 113 149 173 198
#     4   8  12  19  30  42  59  85 116 146 175 210
#
# _framework density 26.227027
#
# number of rings (size 3 to 8) (size 9 to 14) (size 15 to 20)
#    0.000    3.857    0.000    4.714    0.000    0.286 
#    0.000    0.000    0.000   17.571    0.000    0.000 
#    0.000    0.000    0.000    1.286    0.000   36.286 
#
# Total GULP energy -155979.755512 kJ/mol
# GULP energy per Si atom -5570.705554 kJ/mol
# Density = 2.616733 g / cm^3
# Si number density = 26.227027 Si / 1000 Ang^3
#
#
#
# Elastic Constant Matrix: (Units=GPa)
#
#
# Indices 1 2 3 4 5 6 
#
# 1 102.1504 -3.9162 31.5871 0.0000 25.6561 0.0000
# 2 -3.9162 64.1228 19.1056 0.0000 -0.9161 0.0000
# 3 31.5871 19.1056 386.3289 0.0000 31.9057 0.0000
# 4 0.0000 0.0000 0.0000 142.0053 0.0000 -8.2041
# 5 25.6561 -0.9161 31.9057 0.0000 30.7272 0.0000
# 6 0.0000 0.0000 0.0000 -8.2041 0.0000 -8.7566
#
#
#
# Elastic Compliance Matrix: (Units=1/GPa)
#
#
# Indices 1 2 3 4 5 6 
#
# 1 0.012427 0.000677 -0.000213 0.000000 -0.010135 0.000000
# 2 0.000677 0.015921 -0.000914 0.000000 0.000858 0.000000
# 3 -0.000213 -0.000914 0.002886 0.000000 -0.002847 0.000000
# 4 0.000000 0.000000 0.000000 0.006680 0.000000 -0.006259
# 5 -0.010135 0.000858 -0.002847 0.000000 0.043988 0.000000
# 6 0.000000 0.000000 0.000000 -0.006259 0.000000 -0.108336
#
#
# Mechanical properties :
#
#
# Convention : Reuss Voigt Hill
#
# Bulk Modulus (GPa) = 32.96369 71.79502 52.37936
# Shear Modulus (GPa) = -324.16183 66.51688 -128.82247
#
# Velocity S-wave (km/s) = -11.12954 5.04153 -7.01604
# Velocity P-wave (km/s) = 12.35151 7.83091 6.75413
#
# Compressibility (1/GPa) = 0.03033641
#
# Stress axis : x y z
#
# Youngs Moduli (GPa) = 80.47211 62.81049 346.48634
#
# Poissons Ratio (x) = -0.04255 0.07364
# Poissons Ratio (y) = -0.05452 0.31654
# Poissons Ratio (z) = 0.01710 0.05738
#
# Static dielectric constant tensor:
#      x y z
#    x 2.323240 0.000000 -0.114370 
#    y 0.000000 1.959960 0.000000 
#    z -0.114370 0.000000 2.244370 
# 
# From -- ./inp_files/88457.got.cif
#   From: 2010.05.17/outbox.cif.g08.bks.cpg/sg10_45_cif.got.tgz:88457.got - 2010.06.03 11:33:40.
