data_PCOD9141133
_publ_section_title
;
Structure prediction by ZEFSAII (Michael W. Deem and Ramdas Pophale) SiO2 
 PCOD9141133
Probable space group: C C
;
_chemical_formula_sum "Si O2"
_cell_formula_units_Z 20
_cell_length_a 20.715961
_cell_length_b 6.994772
_cell_length_c 9.084938
_cell_angle_alpha 90.000000
_cell_angle_beta 34.378151
_cell_angle_gamma 90.000000
_cell_volume 743.330117
_symmetry_space_group_name_H-M "C C"
_symmetry_group_IT_number 9
_symmetry_cell_setting 'monoclinic'
loop_
_space_group_symop_operation_xyz
x,y,z
x,-y,1/2+z
1/2+x,1/2+y,z
1/2+x,1/2-y,1/2+z
loop_
_atom_site_type_symbol
_atom_site_label
_atom_site_fract_x
_atom_site_fract_y
_atom_site_fract_z
Si Si1 0.723770 0.722337 0.178710
Si Si2 0.042705 0.064437 0.875584
Si Si3 0.701926 0.052168 0.428745
Si Si4 0.920943 0.158695 0.826805
Si Si5 0.981474 0.593389 0.675842
O O1 0.651524 0.547396 0.239611
O O2 0.701352 0.831090 0.376064
O O3 0.854847 0.664051 0.947050
O O4 0.711485 0.888627 0.079538
O O5 0.015832 0.060850 0.754377
O O6 0.027930 0.285493 0.950700
O O7 0.933089 0.960178 0.155592
O O8 0.577982 0.129687 0.614553
O O9 0.803455 0.152531 0.140411
O O10 0.962843 0.367458 0.701528
#
# Coordination Sequence:
#
# PCOD9141133 Si02
#       5
#     4   4   4   4   4
#     4  12  28  52  83 122 166 214 278 340 410 495
#     4  12  27  53  79 120 163 211 271 337 403 490
#     4  12  26  51  82 121 160 218 270 337 410 491
#     4  12  26  53  82 118 163 215 274 337 412 485
#     4  12  27  49  82 117 164 216 269 331 413 483
#
# _framework density 26.905946
#
# number of rings (size 3 to 8) (size 9 to 14) (size 15 to 20)
#    0.000    0.000    6.000    2.400    2.800    1.600 
#    7.200    0.000    0.000    0.000    0.000    0.000 
#    0.000    0.000    0.000    0.000    0.000    0.000 
#
# Total GULP energy -55986.285411 kJ/mol
# GULP energy per Si atom -5598.628541 kJ/mol
# Density = 2.684471 g / cm^3
# Si number density = 26.905946 Si / 1000 Ang^3
#
#
#
# Elastic Constant Matrix: (Units=GPa)
#
#
# Indices 1 2 3 4 5 6 
#
# 1 93.3517 39.3275 43.8485 0.0000 -17.6051 0.0000
# 2 39.3275 168.9399 43.7557 0.0000 -1.5277 0.0000
# 3 43.8485 43.7557 114.8178 0.0000 -17.2072 0.0000
# 4 0.0000 0.0000 0.0000 46.1762 0.0000 -15.5692
# 5 -17.6051 -1.5277 -17.2072 0.0000 67.2356 0.0000
# 6 0.0000 0.0000 0.0000 -15.5692 0.0000 45.3358
#
#
#
# Elastic Compliance Matrix: (Units=1/GPa)
#
#
# Indices 1 2 3 4 5 6 
#
# 1 0.014066 -0.002174 -0.004158 0.000000 0.002569 0.000000
# 2 -0.002174 0.006920 -0.001943 0.000000 -0.000909 0.000000
# 3 -0.004158 -0.001943 0.011302 0.000000 0.001759 0.000000
# 4 0.000000 0.000000 0.000000 0.024492 0.000000 0.008411
# 5 0.002569 -0.000909 0.001759 0.000000 0.015976 0.000000
# 6 0.000000 0.000000 0.000000 0.008411 0.000000 0.024946
#
#
# Mechanical properties :
#
#
# Convention : Reuss Voigt Hill
#
# Bulk Modulus (GPa) = 63.54499 70.10806 66.82653
# Shear Modulus (GPa) = 41.84156 48.42802 45.13479
#
# Velocity S-wave (km/s) = 3.94776 4.24713 4.10018
# Velocity P-wave (km/s) = 6.66697 7.08266 6.87795
#
# Compressibility (1/GPa) = 0.01573688
#
# Stress axis : x y z
#
# Youngs Moduli (GPa) = 71.09445 144.49850 88.48279
#
# Poissons Ratio (x) = 0.31417 0.36791
# Poissons Ratio (y) = 0.15457 0.17195
# Poissons Ratio (z) = 0.29561 0.28080
#
# Static dielectric constant tensor:
#      x y z
#    x 2.087160 0.000000 -0.040310 
#    y 0.000000 2.130690 0.000000 
#    z -0.040310 0.000000 2.154050 
# 
# From -- ./inp_files/11189.got.cif
#   From: 2010.05.17/outbox.cif.g08.bks.cpg/sg9_6_cif.got.tgz:11189.got - 2010.06.03 20:04:27.
