data_PCOD9141113
_publ_section_title
;
Structure prediction by ZEFSAII (Michael W. Deem and Ramdas Pophale) SiO2 
 PCOD9141113
Probable space group: C C
;
_chemical_formula_sum "Si O2"
_cell_formula_units_Z 28
_cell_length_a 14.375797
_cell_length_b 14.785550
_cell_length_c 7.954211
_cell_angle_alpha 90.000000
_cell_angle_beta 43.168033
_cell_angle_gamma 90.000000
_cell_volume 1156.675903
_symmetry_space_group_name_H-M "C C"
_symmetry_group_IT_number 9
_symmetry_cell_setting 'monoclinic'
loop_
_space_group_symop_operation_xyz
x,y,z
x,-y,1/2+z
1/2+x,1/2+y,z
1/2+x,1/2-y,1/2+z
loop_
_atom_site_type_symbol
_atom_site_label
_atom_site_fract_x
_atom_site_fract_y
_atom_site_fract_z
Si Si1 0.176940 0.564989 0.748790
Si Si2 0.919228 0.172459 0.573467
Si Si3 0.510787 0.397533 0.293520
Si Si4 0.115152 0.190219 0.989010
Si Si5 0.219076 0.392587 0.823209
Si Si6 0.244477 0.964671 0.504845
Si Si7 0.380720 0.873467 0.648782
O O1 0.295300 0.602909 0.711259
O O2 0.120196 0.465511 0.868685
O O3 0.240332 0.570955 0.481654
O O4 0.043454 0.626088 0.923710
O O5 0.849393 0.268172 0.714628
O O6 0.018144 0.139987 0.594050
O O7 0.003026 0.185667 0.287867
O O8 0.558751 0.332078 0.379399
O O9 0.352552 0.406326 0.538319
O O10 0.593917 0.490044 0.211930
O O11 0.175051 0.290181 0.898806
O O12 0.225805 0.113123 0.889186
O O13 0.309585 0.913064 0.575771
O O14 0.332329 0.053906 0.349337
#
# Coordination Sequence:
#
# PCOD9141113 Si02
#       7
#     4   4   4   4   4   4   4
#     4  12  26  49  76 117 163 211 268 336 411 484
#     4  12  28  51  84 117 162 216 272 337 415 488
#     4  12  29  49  82 120 159 213 274 333 405 498
#     4  12  27  53  81 116 165 206 274 334 411 488
#     4  12  27  49  80 118 162 210 266 343 407 484
#     4  12  27  51  79 116 159 215 271 335 410 489
#     4  12  28  48  80 114 162 215 267 342 407 487
#
# _framework density 24.2073
#
# number of rings (size 3 to 8) (size 9 to 14) (size 15 to 20)
#    0.000    0.000    4.286    4.286    6.000    2.286 
#    0.000    0.000    0.000    0.000    0.000    0.000 
#    0.000    0.000    0.000    0.000    0.000    0.000 
#
# Total GULP energy -78359.352103 kJ/mol
# GULP energy per Si atom -5597.096579 kJ/mol
# Density = 2.415220 g / cm^3
# Si number density = 24.207300 Si / 1000 Ang^3
#
#
#
# Elastic Constant Matrix: (Units=GPa)
#
#
# Indices 1 2 3 4 5 6 
#
# 1 128.7716 46.1693 24.0343 0.0000 24.8579 0.0000
# 2 46.1693 190.9743 28.9834 0.0000 10.3958 0.0000
# 3 24.0343 28.9834 79.4309 0.0000 -2.4299 0.0000
# 4 0.0000 0.0000 0.0000 -15.2654 0.0000 25.8877
# 5 24.8579 10.3958 -2.4299 0.0000 33.3351 0.0000
# 6 0.0000 0.0000 0.0000 25.8877 0.0000 27.8703
#
#
#
# Elastic Compliance Matrix: (Units=1/GPa)
#
#
# Indices 1 2 3 4 5 6 
#
# 1 0.010295 -0.001674 -0.002729 0.000000 -0.007354 0.000000
# 2 -0.001674 0.005936 -0.001681 0.000000 -0.000725 0.000000
# 3 -0.002729 -0.001681 0.014139 0.000000 0.003590 0.000000
# 4 0.000000 0.000000 0.000000 -0.025438 0.000000 0.023628
# 5 -0.007354 -0.000725 0.003590 0.000000 0.035970 0.000000
# 6 0.000000 0.000000 0.000000 0.023628 0.000000 0.013933
#
#
# Mechanical properties :
#
#
# Convention : Reuss Voigt Hill
#
# Bulk Modulus (GPa) = 54.94619 66.39455 60.67037
# Shear Modulus (GPa) = 68.42676 29.18728 48.80702
#
# Velocity S-wave (km/s) = 5.32244 3.47612 4.49510
# Velocity P-wave (km/s) = 7.77937 6.60290 7.21515
#
# Compressibility (1/GPa) = 0.01819962
#
# Stress axis : x y z
#
# Youngs Moduli (GPa) = 97.13527 168.47048 70.72797
#
# Poissons Ratio (x) = 0.28209 0.19302
# Poissons Ratio (y) = 0.16264 0.11892
# Poissons Ratio (z) = 0.26509 0.28327
#
# Static dielectric constant tensor:
#      x y z
#    x 1.925500 0.000000 -0.017400 
#    y 0.000000 1.909820 0.000000 
#    z -0.017400 0.000000 1.997220 
# 
# From -- ./inp_files/9639.got.cif
#   From: 2010.05.17/outbox.cif.g08.bks.cpg/sg9_5_cif.got.tgz:9639.got - 2010.06.03 20:04:27.
