data_PCOD9141599
_publ_section_title
;
Structure prediction by ZEFSAII (Michael W. Deem and Ramdas Pophale) SiO2 
 PCOD9141599
Probable space group: P 2/M
;
_chemical_formula_sum "Si O2"
_cell_formula_units_Z 32
_cell_length_a 12.432484
_cell_length_b 9.330419
_cell_length_c 24.508158
_cell_angle_alpha 90.000000
_cell_angle_beta 130.597442
_cell_angle_gamma 90.000000
_cell_volume 2158.655475
_symmetry_space_group_name_H-M "P 2/M"
_symmetry_group_IT_number 10
_symmetry_cell_setting 'monoclinic'
loop_
_space_group_symop_operation_xyz
x,y,z
-x,y,-z
-x,-y,-z
x,-y,z
loop_
_atom_site_type_symbol
_atom_site_label
_atom_site_fract_x
_atom_site_fract_y
_atom_site_fract_z
Si Si1 0.336502 0.170848 0.009705
Si Si2 0.661138 0.828749 0.119147
Si Si3 0.830658 0.834296 0.612489
Si Si4 0.641578 0.164971 0.661214
Si Si5 0.880336 0.331066 0.798073
Si Si6 0.933367 0.672288 0.036104
Si Si7 0.405690 0.665618 0.524612
Si Si8 0.069921 0.669138 0.751536
O O1 0.320810 0.200881 0.939692
O O2 0.216880 0.254487 0.002630
O O3 0.319201 0.000000 0.010742
O O4 0.498134 0.206970 0.078877
O O5 0.777540 0.741050 0.190544
O O6 0.680955 0.000000 0.133063
O O7 0.734980 0.834266 0.636198
O O8 0.736512 0.751404 0.536988
O O9 0.972941 0.750487 0.675462
O O10 0.856060 0.000000 0.606420
O O11 0.741170 0.240140 0.738571
O O12 0.501240 0.254317 0.600829
O O13 0.610263 0.000000 0.663985
O O14 0.844470 0.500000 0.789272
O O15 0.961007 0.287605 0.879636
O O16 0.987774 0.314055 0.782461
O O17 0.916642 0.500000 0.032557
O O18 0.000000 0.711282 0.000000
O O19 0.500000 0.665831 0.500000
O O20 0.378753 0.500000 0.529520
O O21 0.078639 0.500000 0.742985
#
# Coordination Sequence:
#
# PCOD9141599 Si02
#       8
#     4   4   4   4   4   4   4   4
#     4   9  18  31  46  63  83 107 139 175 216 261
#     4   9  17  29  44  62  84 109 136 175 218 256
#     4   9  16  24  34  50  75 105 135 168 203 243
#     4   9  16  24  36  52  70  98 134 171 206 242
#     4   9  17  28  39  55  78 104 136 173 211 251
#     4  10  20  33  47  63  85 112 142 179 221 261
#     4   9  15  23  34  49  71 100 133 168 202 241
#     4  10  17  25  39  59  80 107 140 174 209 250
#
# _framework density 14.824043
#
# number of rings (size 3 to 8) (size 9 to 14) (size 15 to 20)
#    0.000    2.750    1.250    2.250    0.000    6.250 
#    0.000    1.250    0.000    0.000    0.000    0.000 
#    0.000    0.000    0.000    1.125    0.000   21.875 
#
# Total GULP energy -178274.085668 kJ/mol
# GULP energy per Si atom -5571.065177 kJ/mol
# Density = 1.479030 g / cm^3
# Si number density = 14.824043 Si / 1000 Ang^3
#
#
#
# Elastic Constant Matrix: (Units=GPa)
#
#
# Indices 1 2 3 4 5 6 
#
# 1 57.8108 41.1015 47.6603 0.0000 14.9819 0.0000
# 2 41.1015 99.5492 78.7578 0.0000 26.7451 0.0000
# 3 47.6603 78.7578 119.3752 0.0000 39.1869 0.0000
# 4 0.0000 0.0000 0.0000 28.6170 0.0000 9.4478
# 5 14.9819 26.7451 39.1869 0.0000 21.3546 0.0000
# 6 0.0000 0.0000 0.0000 9.4478 0.0000 11.2316
#
#
#
# Elastic Compliance Matrix: (Units=1/GPa)
#
#
# Indices 1 2 3 4 5 6 
#
# 1 0.027219 -0.005575 -0.008080 0.000000 0.002712 0.000000
# 2 -0.005575 0.022197 -0.011510 0.000000 -0.002766 0.000000
# 3 -0.008080 -0.011510 0.031698 0.000000 -0.038084 0.000000
# 4 0.000000 0.000000 0.000000 0.048380 0.000000 -0.040696
# 5 0.002712 -0.002766 -0.038084 0.000000 0.118276 0.000000
# 6 0.000000 0.000000 0.000000 -0.040696 0.000000 0.123267
#
#
# Mechanical properties :
#
#
# Convention : Reuss Voigt Hill
#
# Bulk Modulus (GPa) = 32.48347 67.97492 50.22920
# Shear Modulus (GPa) = 11.58403 19.52168 15.55286
#
# Velocity S-wave (km/s) = 2.79845 3.63284 3.24259
# Velocity P-wave (km/s) = 5.69228 7.97187 6.92650
#
# Compressibility (1/GPa) = 0.03078489
#
# Stress axis : x y z
#
# Youngs Moduli (GPa) = 36.73847 45.05210 31.54732
#
# Poissons Ratio (x) = 0.25115 0.25489
# Poissons Ratio (y) = 0.20480 0.36312
# Poissons Ratio (z) = 0.29683 0.51857
#
# Static dielectric constant tensor:
#      x y z
#    x 1.453620 0.000000 0.011660 
#    y 0.000000 1.493620 0.000000 
#    z 0.011660 0.000000 1.486590 
# 
# From -- ./inp_files/56402.got.cif
#   From: 2010.05.17/outbox.cif.g08.bks.cpg/sg10_29_cif.got.tgz:56402.got - 2010.06.03 11:33:40.
