data_PCOD9141437
_publ_section_title
;
Structure prediction by ZEFSAII (Michael W. Deem and Ramdas Pophale) SiO2 
 PCOD9141437
Probable space group: P 2/M
;
_chemical_formula_sum "Si O2"
_cell_formula_units_Z 30
_cell_length_a 5.279358
_cell_length_b 22.863370
_cell_length_c 14.005039
_cell_angle_alpha 90.000000
_cell_angle_beta 103.145795
_cell_angle_gamma 90.000000
_cell_volume 1646.163612
_symmetry_space_group_name_H-M "P 2/M"
_symmetry_group_IT_number 10
_symmetry_cell_setting 'monoclinic'
loop_
_space_group_symop_operation_xyz
x,y,z
-x,y,-z
-x,-y,-z
x,-y,z
loop_
_atom_site_type_symbol
_atom_site_label
_atom_site_fract_x
_atom_site_fract_y
_atom_site_fract_z
Si Si1 0.388128 0.818359 0.881983
Si Si2 0.884255 0.121437 0.882740
Si Si3 0.440772 0.411814 0.387455
Si Si4 0.713524 0.000000 0.930589
Si Si5 0.871869 0.588918 0.270126
Si Si6 0.225710 0.567473 0.956616
Si Si7 0.446462 0.730527 0.387374
Si Si8 0.873009 0.729952 0.269302
O O1 0.650714 0.832988 0.846212
O O2 0.247086 0.759634 0.834988
O O3 0.153295 0.866306 0.849596
O O4 0.500000 0.816604 0.000000
O O5 0.730559 0.059443 0.870712
O O6 0.000000 0.128115 0.000000
O O7 0.500000 0.431353 0.500000
O O8 0.652412 0.429512 0.326821
O O9 0.445300 0.340692 0.389548
O O10 0.153553 0.429389 0.331509
O O11 0.500000 0.000000 0.000000
O O12 0.000000 0.000000 0.000000
O O13 0.828374 0.567004 0.159694
O O14 0.867296 0.659671 0.262617
O O15 0.246772 0.500000 0.993185
O O16 0.500000 0.597068 0.000000
O O17 0.000000 0.595652 0.000000
O O18 0.500000 0.750441 0.500000
O O19 0.681015 0.747939 0.338600
O O20 0.166011 0.747763 0.321537
#
# Coordination Sequence:
#
# PCOD9141437 Si02
#       8
#     4   4   4   2   4   4   4   4
#     4  10  19  30  41  60  94 130 154 177 220 271
#     4   9  17  28  42  59  83 119 158 191 222 258
#     4   9  17  30  50  74  98 122 149 186 234 288
#     4  10  16  26  44  62  78 108 161 206 223 250
#     4  10  19  32  51  73  95 122 160 196 230 280
#     4  10  21  37  55  72  92 122 161 205 245 270
#     4   9  17  30  47  67  90 118 155 194 229 268
#     4  10  19  30  46  69  94 125 155 183 227 279
#
# _framework density 18.22419
#
# number of rings (size 3 to 8) (size 9 to 14) (size 15 to 20)
#    0.000    2.400    0.000    4.400    0.000    3.733 
#    0.000    2.000    0.000    2.400    0.000    0.000 
#    0.000    0.000    0.000   42.000    0.000    4.667 
#
# Total GULP energy -167051.065151 kJ/mol
# GULP energy per Si atom -5568.368838 kJ/mol
# Density = 1.818271 g / cm^3
# Si number density = 18.224190 Si / 1000 Ang^3
#
#
#
# Elastic Constant Matrix: (Units=GPa)
#
#
# Indices 1 2 3 4 5 6 
#
# 1 181.9128 22.8795 58.0282 0.0000 3.5785 0.0000
# 2 22.8795 47.7839 11.3881 0.0000 7.3433 0.0000
# 3 58.0282 11.3881 76.6908 0.0000 5.0935 0.0000
# 4 0.0000 0.0000 0.0000 37.4030 0.0000 35.2864
# 5 3.5785 7.3433 5.0935 0.0000 29.5822 0.0000
# 6 0.0000 0.0000 0.0000 35.2864 0.0000 89.1308
#
#
#
# Elastic Compliance Matrix: (Units=1/GPa)
#
#
# Indices 1 2 3 4 5 6 
#
# 1 0.007496 -0.002407 -0.005355 0.000000 0.000613 0.000000
# 2 -0.002407 0.023190 -0.001274 0.000000 -0.005246 0.000000
# 3 -0.005355 -0.001274 0.017416 0.000000 -0.002035 0.000000
# 4 0.000000 0.000000 0.000000 0.042674 0.000000 -0.016895
# 5 0.000613 -0.005246 -0.002035 0.000000 0.035383 0.000000
# 6 0.000000 0.000000 0.000000 -0.016895 0.000000 0.017908
#
#
# Mechanical properties :
#
#
# Convention : Reuss Voigt Hill
#
# Bulk Modulus (GPa) = 33.30062 54.55323 43.92693
# Shear Modulus (GPa) = 29.04471 45.49597 37.27034
#
# Velocity S-wave (km/s) = 3.99650 5.00188 4.52719
# Velocity P-wave (km/s) = 6.29353 7.95977 7.17518
#
# Compressibility (1/GPa) = 0.03002947
#
# Stress axis : x y z
#
# Youngs Moduli (GPa) = 133.40319 43.12228 57.41958
#
# Poissons Ratio (x) = 0.10380 0.30749
# Poissons Ratio (y) = 0.32112 0.07314
# Poissons Ratio (z) = 0.71440 0.05493
#
# Static dielectric constant tensor:
#      x y z
#    x 1.593560 0.000000 -0.076760 
#    y 0.000000 1.675420 0.000000 
#    z -0.076760 0.000000 1.533240 
# 
# From -- ./inp_files/39974.got.cif
#   From: 2010.05.17/outbox.cif.g08.bks.cpg/sg10_20_cif.got.tgz:39974.got - 2010.06.03 11:33:40.
