data_PCOD9141801
_publ_section_title
;
Structure prediction by ZEFSAII (Michael W. Deem and Ramdas Pophale) SiO2 
 PCOD9141801
Probable space group: P 2/M
;
_chemical_formula_sum "Si O2"
_cell_formula_units_Z 32
_cell_length_a 14.143418
_cell_length_b 8.523526
_cell_length_c 17.793319
_cell_angle_alpha 90.000000
_cell_angle_beta 102.597159
_cell_angle_gamma 90.000000
_cell_volume 2093.380731
_symmetry_space_group_name_H-M "P 2/M"
_symmetry_group_IT_number 10
_symmetry_cell_setting 'monoclinic'
loop_
_space_group_symop_operation_xyz
x,y,z
-x,y,-z
-x,-y,-z
x,-y,z
loop_
_atom_site_type_symbol
_atom_site_label
_atom_site_fract_x
_atom_site_fract_y
_atom_site_fract_z
Si Si1 0.245123 0.814225 0.826267
Si Si2 0.610731 0.310049 0.029828
Si Si3 0.115973 0.818707 0.506114
Si Si4 0.082109 0.311297 0.908639
Si Si5 0.149026 0.313806 0.669573
Si Si6 0.126291 0.308201 0.185503
Si Si7 0.925298 0.310614 0.658414
Si Si8 0.227504 0.308903 0.060120
O O1 0.340144 0.751754 0.885376
O O2 0.155790 0.737520 0.856184
O O3 0.227094 0.765361 0.737399
O O4 0.241021 0.000000 0.833048
O O5 0.613760 0.500000 0.032681
O O6 0.500000 0.260581 0.000000
O O7 0.679143 0.258455 0.971782
O O8 0.161685 0.728119 0.584286
O O9 0.128460 0.750088 0.425135
O O10 0.000000 0.809194 0.500000
O O11 0.144648 0.000000 0.513702
O O12 0.077551 0.500000 0.910624
O O13 0.975146 0.256693 0.869777
O O14 0.133500 0.260461 0.994616
O O15 0.153159 0.500000 0.680922
O O16 0.039129 0.261455 0.673738
O O17 0.126551 0.500000 0.186874
O O18 0.122315 0.257753 0.271488
O O19 0.211005 0.258168 0.143071
O O20 0.925855 0.500000 0.656493
O O21 0.229369 0.500000 0.060539
#
# Coordination Sequence:
#
# PCOD9141801 Si02
#       8
#     4   4   4   4   4   4   4   4
#     4  11  20  28  42  64  87 112 142 176 216 257
#     4   9  18  33  50  65  83 109 142 180 221 260
#     4   9  17  27  38  55  80 111 145 178 212 246
#     4   9  15  26  40  57  81 112 145 176 208 243
#     4  10  17  28  43  59  81 110 146 181 209 244
#     4   9  14  22  38  61  84 109 144 180 208 242
#     4   9  16  25  38  56  80 113 148 177 207 243
#     4   8  14  23  41  64  82 103 139 182 216 246
#
# _framework density 15.286279
#
# number of rings (size 3 to 8) (size 9 to 14) (size 15 to 20)
#    0.000    2.750    1.250    3.000    0.000    3.750 
#    0.000    0.000    0.000    9.000    0.000    0.000 
#    0.000    1.000    0.000   11.750    0.000    2.250 
#
# Total GULP energy -178176.075429 kJ/mol
# GULP energy per Si atom -5568.002357 kJ/mol
# Density = 1.525149 g / cm^3
# Si number density = 15.286279 Si / 1000 Ang^3
#
#
#
# Elastic Constant Matrix: (Units=GPa)
#
#
# Indices 1 2 3 4 5 6 
#
# 1 34.6943 -21.5566 35.3195 0.0000 -5.6582 0.0000
# 2 -21.5566 -53.4148 -16.5857 0.0000 -10.5113 0.0000
# 3 35.3195 -16.5857 110.1379 0.0000 -19.3792 0.0000
# 4 0.0000 0.0000 0.0000 3.4285 0.0000 5.8088
# 5 -5.6582 -10.5113 -19.3792 0.0000 17.2722 0.0000
# 6 0.0000 0.0000 0.0000 5.8088 0.0000 1.9932
#
#
#
# Elastic Compliance Matrix: (Units=1/GPa)
#
#
# Indices 1 2 3 4 5 6 
#
# 1 0.037145 -0.008461 -0.014891 0.000000 -0.009687 0.000000
# 2 -0.008461 -0.012582 -0.001266 0.000000 -0.011849 0.000000
# 3 -0.014891 -0.001266 0.015787 0.000000 0.012064 0.000000
# 4 0.000000 0.000000 0.000000 -0.074076 0.000000 0.215875
# 5 -0.009687 -0.011849 0.012064 0.000000 0.061047 0.000000
# 6 0.000000 0.000000 0.000000 0.215875 0.000000 -0.127415
#
#
# Mechanical properties :
#
#
# Convention : Reuss Voigt Hill
#
# Bulk Modulus (GPa) = -112.54418 9.53022 -51.50698
# Shear Modulus (GPa) = -92.90225 10.82147 -41.04039
#
# Velocity S-wave (km/s) = -7.80428 2.66356 -5.18711
# Velocity P-wave (km/s) = 12.44963 3.96326 8.34523
#
# Compressibility (1/GPa) = -0.00888540
#
# Stress axis : x y z
#
# Youngs Moduli (GPa) = 26.92134 -79.47939 63.34477
#
# Poissons Ratio (x) = -0.67245 0.94324
# Poissons Ratio (y) = 0.22777 0.08022
# Poissons Ratio (z) = 0.40087 -0.10066
#
# Static dielectric constant tensor:
#      x y z
#    x 1.493510 0.000000 -0.019450 
#    y 0.000000 1.518540 0.000000 
#    z -0.019450 0.000000 1.542730 
# 
# From -- ./inp_files/72023.got.cif
#   From: 2010.05.17/outbox.cif.g08.bks.cpg/sg10_37_cif.got.tgz:72023.got - 2010.06.03 11:33:40.
