data_PCOD9141369
_publ_section_title
;
Structure prediction by ZEFSAII (Michael W. Deem and Ramdas Pophale) SiO2 
 PCOD9141369
Probable space group: P 2/M
;
_chemical_formula_sum "Si O2"
_cell_formula_units_Z 28
_cell_length_a 21.294438
_cell_length_b 8.738025
_cell_length_c 19.312131
_cell_angle_alpha 90.000000
_cell_angle_beta 25.497631
_cell_angle_gamma 90.000000
_cell_volume 1546.879078
_symmetry_space_group_name_H-M "P 2/M"
_symmetry_group_IT_number 10
_symmetry_cell_setting 'monoclinic'
loop_
_space_group_symop_operation_xyz
x,y,z
-x,y,-z
-x,-y,-z
x,-y,z
loop_
_atom_site_type_symbol
_atom_site_label
_atom_site_fract_x
_atom_site_fract_y
_atom_site_fract_z
Si Si1 0.336422 0.817540 0.590882
Si Si2 0.167492 0.813060 0.332275
Si Si3 0.327076 0.319802 0.457304
Si Si4 0.668437 0.184824 0.691866
Si Si5 0.680154 0.680279 0.101164
Si Si6 0.666805 0.315304 0.265092
Si Si7 0.671661 0.183737 0.966307
O O1 0.272220 0.762468 0.581494
O O2 0.265913 0.750624 0.731283
O O3 0.501386 0.749570 0.427297
O O4 0.342364 0.000000 0.588251
O O5 0.247393 0.765206 0.323139
O O6 0.245121 0.760317 0.184633
O O7 0.000000 0.766166 0.500000
O O8 0.172700 0.000000 0.326473
O O9 0.299639 0.500000 0.489716
O O10 0.272859 0.253287 0.438411
O O11 0.503781 0.297374 0.278981
O O12 0.674674 0.000000 0.680922
O O13 0.498418 0.229331 0.868861
O O14 0.706910 0.500000 0.067727
O O15 0.734908 0.729290 0.122888
O O16 0.732942 0.761374 0.979124
O O17 0.659874 0.500000 0.275247
O O18 0.675885 0.000000 0.961791
#
# Coordination Sequence:
#
# PCOD9141369 Si02
#       7
#     4   4   4   4   4   4   4
#     4  10  16  21  32  52  78 109 144 178 212 250
#     4   9  17  29  45  65  88 112 138 172 217 263
#     4   9  16  26  38  54  79 110 142 175 214 257
#     4   9  16  27  44  64  84 108 143 182 213 247
#     4   8  15  25  37  54  78 109 142 175 211 251
#     4   9  15  23  33  48  76 113 146 174 211 256
#     4   9  16  26  43  64  84 109 143 180 213 248
#
# _framework density 18.100963
#
# number of rings (size 3 to 8) (size 9 to 14) (size 15 to 20)
#    0.000    3.000    0.000    4.286    0.000    5.714 
#    0.000    0.714    0.000    5.143    0.000    0.000 
#    0.000    1.143    0.000   13.143    0.000   13.571 
#
# Total GULP energy -155869.270570 kJ/mol
# GULP energy per Si atom -5566.759663 kJ/mol
# Density = 1.805976 g / cm^3
# Si number density = 18.100963 Si / 1000 Ang^3
#
#
#
# Elastic Constant Matrix: (Units=GPa)
#
#
# Indices 1 2 3 4 5 6 
#
# 1 148.2183 43.1497 83.0442 0.0000 68.2460 0.0000
# 2 43.1497 34.3397 22.2975 0.0000 19.9715 0.0000
# 3 83.0442 22.2975 44.8372 0.0000 29.4412 0.0000
# 4 0.0000 0.0000 0.0000 7.3768 0.0000 5.7476
# 5 68.2460 19.9715 29.4412 0.0000 32.0888 0.0000
# 6 0.0000 0.0000 0.0000 5.7476 0.0000 11.2540
#
#
#
# Elastic Compliance Matrix: (Units=1/GPa)
#
#
# Indices 1 2 3 4 5 6 
#
# 1 -0.047494 -0.008764 0.056386 0.000000 0.054730 0.000000
# 2 -0.008764 0.045948 -0.000199 0.000000 -0.009775 0.000000
# 3 0.056386 -0.000199 -0.008478 0.000000 -0.112018 0.000000
# 4 0.000000 0.000000 0.000000 0.225153 0.000000 -0.114989
# 5 0.054730 -0.009775 -0.112018 0.000000 0.023624 0.000000
# 6 0.000000 0.000000 0.000000 -0.114989 0.000000 0.147584
#
#
# Mechanical properties :
#
#
# Convention : Reuss Voigt Hill
#
# Bulk Modulus (GPa) = 11.78945 58.26422 35.02683
# Shear Modulus (GPa) = 15.63644 15.40419 15.52032
#
# Velocity S-wave (km/s) = 2.94231 2.92038 2.93137
# Velocity P-wave (km/s) = 4.25091 6.60529 5.55428
#
# Compressibility (1/GPa) = 0.08482163
#
# Stress axis : x y z
#
# Youngs Moduli (GPa) = -21.05546 21.76392 -117.95929
#
# Poissons Ratio (x) = 0.19075 6.65119
# Poissons Ratio (y) = -0.18454 -0.02342
# Poissons Ratio (z) = 1.18722 0.00432
#
# Static dielectric constant tensor:
#      x y z
#    x 1.661870 0.000000 0.039070 
#    y 0.000000 1.606590 0.000000 
#    z 0.039070 0.000000 1.613250 
# 
# From -- ./inp_files/79224.got.cif
#   From: 2010.05.17/outbox.cif.g08.bks.cpg/sg10_40_cif.got.tgz:79224.got - 2010.06.03 11:33:40.
