data_PCOD9141214
_publ_section_title
;
Structure prediction by ZEFSAII (Michael W. Deem and Ramdas Pophale) SiO2 
 PCOD9141214
Probable space group: C C
;
_chemical_formula_sum "Si O2"
_cell_formula_units_Z 16
_cell_length_a 15.000000
_cell_length_b 12.000000
_cell_length_c 9.000000
_cell_angle_alpha 90.000000
_cell_angle_beta 70.000000
_cell_angle_gamma 90.000000
_cell_volume 1522.302046
_symmetry_space_group_name_H-M "C C"
_symmetry_group_IT_number 9
_symmetry_cell_setting 'monoclinic'
loop_
_space_group_symop_operation_xyz
x,y,z
x,-y,1/2+z
1/2+x,1/2+y,z
1/2+x,1/2-y,1/2+z
loop_
_atom_site_type_symbol
_atom_site_label
_atom_site_fract_x
_atom_site_fract_y
_atom_site_fract_z
Si Si1 0.423080 0.571052 0.866910
Si Si2 0.319043 0.807384 0.923463
Si Si3 0.148219 0.328177 0.394271
Si Si4 0.808430 0.994787 0.691126
Si Si5 0.987898 0.316873 0.263240
Si Si6 0.070158 0.219431 0.918294
Si Si7 0.507966 0.083588 0.229409
Si Si8 0.288252 0.232986 0.774467
O O1 0.375326 0.691724 0.886159
O O2 0.409294 0.520668 0.713922
O O3 0.524514 0.606986 0.872938
O O4 0.344245 0.499753 0.002014
O O5 0.215966 0.770722 0.919091
O O6 0.394005 0.886486 0.793562
O O7 0.308743 0.831389 0.105887
O O8 0.222643 0.419876 0.280258
O O9 0.067216 0.276913 0.334472
O O10 0.080825 0.390419 0.553081
O O11 0.785052 0.865832 0.739060
O O12 0.007464 0.450339 0.250732
O O13 0.874545 0.294150 0.338572
O O14 0.014530 0.252231 0.098046
O O15 0.181668 0.204746 0.883761
O O16 0.050640 0.329979 0.827443
#
# Coordination Sequence:
#
# PCOD9141214 Si02
#       8
#     4   4   4   4   4   4   4   4
#     4   9  20  39  63  92 123 162 204 261 308 371
#     4   9  20  41  62  87 127 165 202 253 319 374
#     4  11  24  36  65 100 119 163 212 268 308 361
#     4  10  20  40  63  95 123 156 216 255 310 366
#     4  12  24  38  62 100 126 159 212 270 303 368
#     4  11  22  43  65  87 129 174 205 249 330 379
#     4  11  21  41  64  92 126 168 213 252 315 382
#     4  11  21  40  66  89 125 169 204 256 317 375
#
# _framework density 10.510398
#
# number of rings (size 3 to 8) (size 9 to 14) (size 15 to 20)
#    0.000    1.500    5.000    2.250    5.250    1.000 
#    4.500    2.500    0.000    0.000    0.000    0.000 
#    0.000    0.000    0.000    0.000    0.000    0.000 
#
# Total GULP energy -89072.546274 kJ/mol
# GULP energy per Si atom -5567.034142 kJ/mol
# Density = 1.048648 g / cm^3
# Si number density = 10.510398 Si / 1000 Ang^3
#
#
#
# Elastic Constant Matrix: (Units=GPa)
#
#
# Indices 1 2 3 4 5 6 
#
# 1 181.8347 12.0321 6.5056 0.0000 -8.3294 0.0000
# 2 12.0321 16.0016 2.3920 0.0000 -4.3594 0.0000
# 3 6.5056 2.3920 4.9219 0.0000 -4.2191 0.0000
# 4 0.0000 0.0000 0.0000 18.3212 0.0000 -4.1560
# 5 -8.3294 -4.3594 -4.2191 0.0000 31.1330 0.0000
# 6 0.0000 0.0000 0.0000 -4.1560 0.0000 28.5940
#
#
#
# Elastic Compliance Matrix: (Units=1/GPa)
#
#
# Indices 1 2 3 4 5 6 
#
# 1 0.005957 -0.003514 -0.005908 0.000000 0.000301 0.000000
# 2 -0.003514 0.070354 -0.024787 0.000000 0.005552 0.000000
# 3 -0.005908 -0.024787 0.247442 0.000000 0.028482 0.000000
# 4 0.000000 0.000000 0.000000 0.056443 0.000000 0.008204
# 5 0.000301 0.005552 0.028482 0.000000 0.036838 0.000000
# 6 0.000000 0.000000 0.000000 0.008204 0.000000 0.036165
#
#
# Mechanical properties :
#
#
# Convention : Reuss Voigt Hill
#
# Bulk Modulus (GPa) = 3.91643 27.17973 15.54808
# Shear Modulus (GPa) = 8.24092 27.73154 17.98623
#
# Velocity S-wave (km/s) = 1.98214 3.63608 2.92831
# Velocity P-wave (km/s) = 2.66565 5.53047 4.34118
#
# Compressibility (1/GPa) = 0.25533462
#
# Stress axis : x y z
#
# Youngs Moduli (GPa) = 167.86391 14.21379 4.04136
#
# Poissons Ratio (x) = 0.04995 0.02388
# Poissons Ratio (y) = 0.58991 0.10017
# Poissons Ratio (z) = 0.99175 0.35232
#
# Static dielectric constant tensor:
#      x y z
#    x 1.835080 0.000000 0.064800 
#    y 0.000000 1.749680 0.000000 
#    z 0.064800 0.000000 1.828530 
# 
# From -- ./inp_files/9248.got.cif
#   From: 2010.05.17/outbox.ucp.g08.bks.cvg/sg9_5_cif.got.tgz:9248.got - 2010.06.11 13:03:20.
