data_PCOD9141199
_publ_section_title
;
Structure prediction by ZEFSAII (Michael W. Deem and Ramdas Pophale) SiO2 
 PCOD9141199
Probable space group: C C
;
_chemical_formula_sum "Si O2"
_cell_formula_units_Z 24
_cell_length_a 22.533712
_cell_length_b 7.345897
_cell_length_c 7.905738
_cell_angle_alpha 90.000000
_cell_angle_beta 140.123406
_cell_angle_gamma 90.000000
_cell_volume 839.016068
_symmetry_space_group_name_H-M "C C"
_symmetry_group_IT_number 9
_symmetry_cell_setting 'monoclinic'
loop_
_space_group_symop_operation_xyz
x,y,z
x,-y,1/2+z
1/2+x,1/2+y,z
1/2+x,1/2-y,1/2+z
loop_
_atom_site_type_symbol
_atom_site_label
_atom_site_fract_x
_atom_site_fract_y
_atom_site_fract_z
Si Si1 0.328400 0.264006 0.050110
Si Si2 0.662071 0.821222 0.896150
Si Si3 0.285987 0.159656 0.466210
Si Si4 0.953300 0.739137 0.642388
Si Si5 0.990235 0.298747 0.699385
Si Si6 0.620662 0.761591 0.317380
O O1 0.390800 0.306987 0.349566
O O2 0.394391 0.303119 0.034938
O O3 0.225386 0.330060 0.867579
O O4 0.313827 0.048214 0.018565
O O5 0.556919 0.747972 0.687648
O O6 0.645759 0.029877 0.903448
O O7 0.723325 0.721439 0.171102
O O8 0.384109 0.261784 0.650328
O O9 0.218305 0.175241 0.478836
O O10 0.967754 0.517585 0.648264
O O11 0.055903 0.815718 0.825544
O O12 0.055385 0.266049 0.006870
#
# Coordination Sequence:
#
# PCOD9141199 Si02
#       6
#     4   4   4   4   4   4
#     4   9  16  29  50  69  92 122 153 190 230 271
#     4   9  17  30  47  70  94 120 154 192 228 273
#     4   9  17  30  47  70  94 120 154 192 228 273
#     4   8  15  29  48  67  88 122 158 184 221 280
#     4   8  15  29  48  67  88 122 158 184 221 280
#     4   9  16  29  50  69  92 122 153 190 230 271
#
# _framework density 28.604934
#
# number of rings (size 3 to 8) (size 9 to 14) (size 15 to 20)
#    0.000    3.333    0.000    0.000    0.000    0.000 
#    0.000   16.667    0.000   28.000    0.000    0.000 
#    0.000    0.000    0.000    0.000    0.000    0.000 
#
# Total GULP energy -67078.435716 kJ/mol
# GULP energy per Si atom -5589.869643 kJ/mol
# Density = 2.853983 g / cm^3
# Si number density = 28.604934 Si / 1000 Ang^3
#
#
#
# Elastic Constant Matrix: (Units=GPa)
#
#
# Indices 1 2 3 4 5 6 
#
# 1 308.0694 29.8165 95.8950 0.0000 80.4226 0.0000
# 2 29.8165 61.9919 24.6409 0.0000 6.4801 0.0000
# 3 95.8950 24.6409 167.5828 0.0000 56.3160 0.0000
# 4 0.0000 0.0000 0.0000 22.3650 0.0000 4.8962
# 5 80.4226 6.4801 56.3160 0.0000 73.4015 0.0000
# 6 0.0000 0.0000 0.0000 4.8962 0.0000 38.0575
#
#
#
# Elastic Compliance Matrix: (Units=1/GPa)
#
#
# Indices 1 2 3 4 5 6 
#
# 1 0.004868 -0.001445 -0.001110 0.000000 -0.004355 0.000000
# 2 -0.001445 0.017579 -0.002383 0.000000 0.001860 0.000000
# 3 -0.001110 -0.002383 0.008722 0.000000 -0.005266 0.000000
# 4 0.000000 0.000000 0.000000 0.046009 0.000000 -0.005919
# 5 -0.004355 0.001860 -0.005266 0.000000 0.022271 0.000000
# 6 0.000000 0.000000 0.000000 -0.005919 0.000000 0.027038
#
#
# Mechanical properties :
#
#
# Convention : Reuss Voigt Hill
#
# Bulk Modulus (GPa) = 46.96176 93.14988 70.05582
# Shear Modulus (GPa) = 34.85311 52.58426 43.71869
#
# Velocity S-wave (km/s) = 3.49439 4.29218 3.91367
# Velocity P-wave (km/s) = 5.72136 7.56299 6.70570
#
# Compressibility (1/GPa) = 0.02129392
#
# Stress axis : x y z
#
# Youngs Moduli (GPa) = 205.41609 56.88632 114.65154
#
# Poissons Ratio (x) = 0.08221 0.12724
# Poissons Ratio (y) = 0.29685 0.27318
# Poissons Ratio (z) = 0.22797 0.13554
#
# Static dielectric constant tensor:
#      x y z
#    x 2.460310 0.000000 0.022010 
#    y 0.000000 2.187600 0.000000 
#    z 0.022010 0.000000 2.194260 
# 
# From -- ./inp_files/15931.got.cif
#   From: 2010.05.17/outbox.cif.g08.bks.cpg/sg9_8_cif.got.tgz:15931.got - 2010.06.03 20:04:27.
