data_PCOD9141112
_publ_section_title
;
Structure prediction by ZEFSAII (Michael W. Deem and Ramdas Pophale) SiO2 
 PCOD9141112
Probable space group: C C
;
_chemical_formula_sum "Si O2"
_cell_formula_units_Z 32
_cell_length_a 27.807154
_cell_length_b 9.195656
_cell_length_c 9.216741
_cell_angle_alpha 90.000000
_cell_angle_beta 143.580923
_cell_angle_gamma 90.000000
_cell_volume 1399.181552
_symmetry_space_group_name_H-M "C C"
_symmetry_group_IT_number 9
_symmetry_cell_setting 'monoclinic'
loop_
_space_group_symop_operation_xyz
x,y,z
x,-y,1/2+z
1/2+x,1/2+y,z
1/2+x,1/2-y,1/2+z
loop_
_atom_site_type_symbol
_atom_site_label
_atom_site_fract_x
_atom_site_fract_y
_atom_site_fract_z
Si Si1 0.833820 0.852372 0.155040
Si Si2 0.156234 0.308688 0.639925
Si Si3 0.539666 0.326907 0.085263
Si Si4 0.896354 0.618754 0.110353
Si Si5 0.073084 0.621206 0.438558
Si Si6 0.855064 0.147090 0.046320
Si Si7 0.131043 0.124763 0.295108
Si Si8 0.797816 0.597684 0.574552
O O1 0.896449 0.764332 0.206311
O O2 0.859512 0.862085 0.383993
O O3 0.826712 0.002515 0.054578
O O4 0.742375 0.792430 0.928251
O O5 0.085681 0.230049 0.556387
O O6 0.130279 0.479342 0.561718
O O7 0.162329 0.218919 0.506458
O O8 0.561660 0.210834 0.262700
O O9 0.570152 0.493004 0.187626
O O10 0.444116 0.322145 0.825508
O O11 0.849983 0.513795 0.107993
O O12 0.985209 0.566988 0.281455
O O13 0.845759 0.635635 0.839027
O O14 0.098094 0.748560 0.610479
O O15 0.793299 0.267749 0.953706
O O16 0.208525 0.052262 0.404965
#
# Coordination Sequence:
#
# PCOD9141112 Si02
#       8
#     4   4   4   4   4   4   4   4
#     4  12  28  49  78 108 152 201 258 318 383 462
#     4  12  28  50  75 113 154 200 257 316 391 465
#     4  12  28  50  75 113 154 200 257 316 391 465
#     4  12  26  49  73 109 150 197 257 313 383 459
#     4  12  28  47  78 110 153 200 253 320 390 463
#     4  12  28  49  78 108 152 201 258 318 383 462
#     4  12  28  47  78 110 153 200 253 320 390 463
#     4  12  26  49  73 109 150 197 257 313 383 459
#
# _framework density 22.870512999999999
#
# number of rings (size 3 to 8) (size 9 to 14) (size 15 to 20)
#    0.000    0.000    2.500    6.000   14.000    0.000 
#    0.000    0.000    0.000    0.000    0.000    0.000 
#    0.000    0.000    0.000    0.000    0.000    0.000 
#
# Total GULP energy -89571.207021 kJ/mol
# GULP energy per Si atom -5598.200439 kJ/mol
# Density = 2.281846 g / cm^3
# Si number density = 22.870513 Si / 1000 Ang^3
#
#
#
# Elastic Constant Matrix: (Units=GPa)
#
#
# Indices 1 2 3 4 5 6 
#
# 1 90.1058 15.7871 4.1146 0.0000 3.0580 0.0000
# 2 15.7871 117.0423 -1.1560 0.0000 -11.7768 0.0000
# 3 4.1146 -1.1560 70.6550 0.0000 9.7603 0.0000
# 4 0.0000 0.0000 0.0000 28.6611 0.0000 1.7561
# 5 3.0580 -11.7768 9.7603 0.0000 52.5775 0.0000
# 6 0.0000 0.0000 0.0000 1.7561 0.0000 50.6938
#
#
#
# Elastic Compliance Matrix: (Units=1/GPa)
#
#
# Indices 1 2 3 4 5 6 
#
# 1 0.011443 -0.001643 -0.000565 0.000000 -0.000929 0.000000
# 2 -0.001643 0.008978 -0.000050 0.000000 0.002116 0.000000
# 3 -0.000565 -0.000050 0.014556 0.000000 -0.002680 0.000000
# 4 0.000000 0.000000 0.000000 0.034965 0.000000 -0.001211
# 5 -0.000929 0.002116 -0.002680 0.000000 0.020045 0.000000
# 6 0.000000 0.000000 0.000000 -0.001211 0.000000 0.019768
#
#
# Mechanical properties :
#
#
# Convention : Reuss Voigt Hill
#
# Bulk Modulus (GPa) = 32.82759 35.03273 33.93016
# Shear Modulus (GPa) = 40.18546 43.65698 41.92122
#
# Velocity S-wave (km/s) = 4.19631 4.37381 4.28598
# Velocity P-wave (km/s) = 6.15333 6.39203 6.27382
#
# Compressibility (1/GPa) = 0.03046218
#
# Stress axis : x y z
#
# Youngs Moduli (GPa) = 87.38849 111.38509 68.70196
#
# Poissons Ratio (x) = 0.18295 0.03882
# Poissons Ratio (y) = 0.14354 0.00342
# Poissons Ratio (z) = 0.04937 0.00554
#
# Static dielectric constant tensor:
#      x y z
#    x 1.819100 0.000000 -0.010000 
#    y 0.000000 1.798340 0.000000 
#    z -0.010000 0.000000 1.879810 
# 
# From -- ./inp_files/11421.got.cif
#   From: 2010.05.17/outbox.cif.g08.bks.cpg/sg9_6_cif.got.tgz:11421.got - 2010.06.03 20:04:27.
