data_PCOD9141888
_publ_section_title
;
Structure prediction by ZEFSAII (Michael W. Deem and Ramdas Pophale) SiO2 
 PCOD9141888
Probable space group: P 2/M
;
_chemical_formula_sum "Si O2"
_cell_formula_units_Z 26
_cell_length_a 14.426860
_cell_length_b 9.014926
_cell_length_c 20.075475
_cell_angle_alpha 90.000000
_cell_angle_beta 147.208683
_cell_angle_gamma 90.000000
_cell_volume 1414.044535
_symmetry_space_group_name_H-M "P 2/M"
_symmetry_group_IT_number 10
_symmetry_cell_setting 'monoclinic'
loop_
_space_group_symop_operation_xyz
x,y,z
-x,y,-z
-x,-y,-z
x,-y,z
loop_
_atom_site_type_symbol
_atom_site_label
_atom_site_fract_x
_atom_site_fract_y
_atom_site_fract_z
Si Si1 0.390983 0.674786 0.164437
Si Si2 0.722967 0.179077 0.316311
Si Si3 0.500000 0.226583 0.500000
Si Si4 0.039958 0.174900 0.911153
Si Si5 0.329439 0.833706 0.256901
Si Si6 0.847348 0.819743 0.659471
Si Si7 0.969711 0.820496 0.587114
O O1 0.400549 0.500000 0.164943
O O2 0.537692 0.749821 0.208767
O O3 0.415141 0.726657 0.255627
O O4 0.204181 0.733230 0.030907
O O5 0.828430 0.222011 0.446817
O O6 0.844882 0.226082 0.328702
O O7 0.708076 0.000000 0.306633
O O8 0.578235 0.159758 0.615759
O O9 0.318114 0.278743 0.420774
O O10 0.867429 0.210035 0.848411
O O11 0.985864 0.196058 0.801533
O O12 0.073337 0.000000 0.941411
O O13 0.333463 0.000000 0.231017
O O14 0.918513 0.777785 0.630486
O O15 0.799463 0.000000 0.630182
O O16 0.972300 0.000000 0.588148
#
# Coordination Sequence:
#
# PCOD9141888 Si02
#       7
#     4   4   2   4   4   4   4
#     4  12  24  35  49  71 101 139 177 212 251 293
#     4   9  17  32  55  79 102 129 165 209 254 303
#     4  10  17  28  53  88 113 128 153 198 253 306
#     4   9  19  34  52  74 100 134 173 210 249 297
#     4  10  19  33  55  80 105 133 166 205 251 303
#     4   9  15  26  48  79 109 130 157 202 254 303
#     4   8  15  29  53  83 106 126 158 206 260 304
#
# _framework density 18.386973000000001
#
# number of rings (size 3 to 8) (size 9 to 14) (size 15 to 20)
#    0.000    2.462    0.000    6.000    0.000    3.692 
#    0.000    2.692    0.000   11.077    0.000    0.000 
#    0.000    0.000    0.000    0.000    0.000    0.000 
#
# Total GULP energy -144769.526617 kJ/mol
# GULP energy per Si atom -5568.058716 kJ/mol
# Density = 1.834512 g / cm^3
# Si number density = 18.386973 Si / 1000 Ang^3
#
#
#
# Elastic Constant Matrix: (Units=GPa)
#
#
# Indices 1 2 3 4 5 6 
#
# 1 119.8239 33.2111 37.0603 0.0000 -0.6764 0.0000
# 2 33.2111 30.2001 23.4250 0.0000 13.2267 0.0000
# 3 37.0603 23.4250 81.9083 0.0000 13.4084 0.0000
# 4 0.0000 0.0000 0.0000 -11.7273 0.0000 -4.8331
# 5 -0.6764 13.2267 13.4084 0.0000 25.3858 0.0000
# 6 0.0000 0.0000 0.0000 -4.8331 0.0000 -7.8790
#
#
#
# Elastic Compliance Matrix: (Units=1/GPa)
#
#
# Indices 1 2 3 4 5 6 
#
# 1 0.014601 -0.018787 -0.003174 0.000000 0.011854 0.000000
# 2 -0.018787 0.074940 -0.007070 0.000000 -0.035813 0.000000
# 3 -0.003174 -0.007070 0.016505 0.000000 -0.005119 0.000000
# 4 0.000000 0.000000 0.000000 -0.114121 0.000000 0.070004
# 5 0.011854 -0.035813 -0.005119 0.000000 0.061071 0.000000
# 6 0.000000 0.000000 0.000000 0.070004 0.000000 -0.169861
#
#
# Mechanical properties :
#
#
# Convention : Reuss Voigt Hill
#
# Bulk Modulus (GPa) = 20.83952 46.59170 33.71561
# Shear Modulus (GPa) = -116.79740 10.37161 -53.21289
#
# Velocity S-wave (km/s) = -7.97870 2.37760 -5.38548
# Velocity P-wave (km/s) = 8.57445 5.73863 4.50496
#
# Compressibility (1/GPa) = 0.04798576
#
# Stress axis : x y z
#
# Youngs Moduli (GPa) = 68.48730 13.34393 60.58859
#
# Poissons Ratio (x) = 0.25069 0.19232
# Poissons Ratio (y) = 1.28664 0.42834
# Poissons Ratio (z) = 0.21739 0.09434
#
# Static dielectric constant tensor:
#      x y z
#    x 1.646770 0.000000 0.002400 
#    y 0.000000 1.620990 0.000000 
#    z 0.002400 0.000000 1.638940 
# 
# From -- ./inp_files/84787.got.cif
#   From: 2010.05.17/outbox.cif.g08.bks.cpg/sg10_43_cif.got.tgz:84787.got - 2010.06.03 11:33:40.
