data_PCOD9141568
_publ_section_title
;
Structure prediction by ZEFSAII (Michael W. Deem and Ramdas Pophale) SiO2 
 PCOD9141568
Probable space group: P 2/M
;
_chemical_formula_sum "Si O2"
_cell_formula_units_Z 28
_cell_length_a 26.808052
_cell_length_b 8.462500
_cell_length_c 18.556561
_cell_angle_alpha 90.000000
_cell_angle_beta 24.788611
_cell_angle_gamma 90.000000
_cell_volume 1765.049582
_symmetry_space_group_name_H-M "P 2/M"
_symmetry_group_IT_number 10
_symmetry_cell_setting 'monoclinic'
loop_
_space_group_symop_operation_xyz
x,y,z
-x,y,-z
-x,-y,-z
x,-y,z
loop_
_atom_site_type_symbol
_atom_site_label
_atom_site_fract_x
_atom_site_fract_y
_atom_site_fract_z
Si Si1 0.364259 0.309323 0.180530
Si Si2 0.797786 0.691167 0.473699
Si Si3 0.082729 0.809792 0.286581
Si Si4 0.120486 0.313084 0.927796
Si Si5 0.929617 0.309841 0.851949
Si Si6 0.855455 0.814080 0.251836
Si Si7 0.175985 0.809215 0.315881
O O1 0.365348 0.500000 0.180119
O O2 0.294690 0.257543 0.343956
O O3 0.287345 0.255893 0.213070
O O4 0.500000 0.252838 0.000000
O O5 0.796905 0.500000 0.470108
O O6 0.775061 0.761576 0.424316
O O7 0.931664 0.740903 0.321783
O O8 0.117050 0.748333 0.163274
O O9 0.162635 0.759626 0.249931
O O10 0.947140 0.759224 0.483343
O O11 0.082790 0.000000 0.285154
O O12 0.141455 0.500000 0.895368
O O13 0.183977 0.229245 0.777381
O O14 0.140185 0.258029 0.984254
O O15 0.979406 0.279465 0.101747
O O16 0.929826 0.500000 0.852276
O O17 0.879796 0.000000 0.223711
O O18 0.179004 0.000000 0.313604
#
# Coordination Sequence:
#
# PCOD9141568 Si02
#       7
#     4   4   4   4   4   4   4
#     4  10  20  33  48  65  85 112 150 190 222 256
#     4   9  17  29  41  56  82 113 142 175 219 260
#     4   9  17  28  43  62  87 115 144 178 214 258
#     4   9  16  26  37  53  82 114 139 169 211 254
#     4   9  16  25  40  61  83 112 146 174 209 256
#     4  10  17  24  37  57  78 106 145 178 205 248
#     4   9  18  31  44  62  86 114 145 178 221 262
#
# _framework density 15.863578
#
# number of rings (size 3 to 8) (size 9 to 14) (size 15 to 20)
#    0.000    2.714    1.429    4.286    0.000    4.286 
#    0.000    1.429    0.000    0.000    0.000    0.000 
#    0.000    1.143    0.000   12.857    0.000    6.714 
#
# Total GULP energy -155893.888657 kJ/mol
# GULP energy per Si atom -5567.638881 kJ/mol
# Density = 1.582747 g / cm^3
# Si number density = 15.863578 Si / 1000 Ang^3
#
#
#
# Elastic Constant Matrix: (Units=GPa)
#
#
# Indices 1 2 3 4 5 6 
#
# 1 147.1478 13.5296 59.2777 0.0000 31.0339 0.0000
# 2 13.5296 4.8020 10.1551 0.0000 3.6208 0.0000
# 3 59.2777 10.1551 53.7251 0.0000 8.6531 0.0000
# 4 0.0000 0.0000 0.0000 4.9606 0.0000 4.2483
# 5 31.0339 3.6208 8.6531 0.0000 26.5037 0.0000
# 6 0.0000 0.0000 0.0000 4.2483 0.0000 27.9133
#
#
#
# Elastic Compliance Matrix: (Units=1/GPa)
#
#
# Indices 1 2 3 4 5 6 
#
# 1 0.015819 -0.003635 -0.014633 0.000000 -0.013249 0.000000
# 2 -0.003635 0.367740 -0.061318 0.000000 -0.025963 0.000000
# 3 -0.014633 -0.061318 0.044585 0.000000 0.010955 0.000000
# 4 0.000000 0.000000 0.000000 0.231801 0.000000 -0.035279
# 5 -0.013249 -0.025963 0.010955 0.000000 0.053215 0.000000
# 6 0.000000 0.000000 0.000000 -0.035279 0.000000 0.041195
#
#
# Mechanical properties :
#
#
# Convention : Reuss Voigt Hill
#
# Bulk Modulus (GPa) = 3.71786 41.28887 22.50336
# Shear Modulus (GPa) = 4.98413 20.05636 12.52024
#
# Velocity S-wave (km/s) = 1.77445 3.55956 2.81240
# Velocity P-wave (km/s) = 2.55871 6.55576 4.97619
#
# Compressibility (1/GPa) = 0.26897188
#
# Stress axis : x y z
#
# Youngs Moduli (GPa) = 63.21385 2.71931 22.42913
#
# Poissons Ratio (x) = 0.00988 0.32821
# Poissons Ratio (y) = 0.22976 1.37532
# Poissons Ratio (z) = 0.92503 0.16674
#
# Static dielectric constant tensor:
#      x y z
#    x 1.567360 0.000000 0.044210 
#    y 0.000000 1.538130 0.000000 
#    z 0.044210 0.000000 1.518730 
# 
# From -- ./inp_files/79841.got.cif
#   From: 2010.05.17/outbox.cif.g08.bks.cpg/sg10_40_cif.got.tgz:79841.got - 2010.06.03 11:33:40.
