data_PCOD9141009
_publ_section_title
;
Structure prediction by ZEFSAII (Michael W. Deem and Ramdas Pophale) SiO2 
 PCOD9141009
Probable space group: C C
;
_chemical_formula_sum "Si O2"
_cell_formula_units_Z 32
_cell_length_a 17.922095
_cell_length_b 18.277213
_cell_length_c 10.449513
_cell_angle_alpha 90.000000
_cell_angle_beta 23.265931
_cell_angle_gamma 90.000000
_cell_volume 1352.044965
_symmetry_space_group_name_H-M "C C"
_symmetry_group_IT_number 9
_symmetry_cell_setting 'monoclinic'
loop_
_space_group_symop_operation_xyz
x,y,z
x,-y,1/2+z
1/2+x,1/2+y,z
1/2+x,1/2-y,1/2+z
loop_
_atom_site_type_symbol
_atom_site_label
_atom_site_fract_x
_atom_site_fract_y
_atom_site_fract_z
Si Si1 0.393480 0.715350 0.846760
Si Si2 0.014399 0.793011 0.427226
Si Si3 0.916907 0.101960 0.284654
Si Si4 0.007289 0.662004 0.984345
Si Si5 0.008280 0.569000 0.229429
Si Si6 0.331185 0.910015 0.515689
Si Si7 0.308957 0.151455 0.777374
Si Si8 0.390867 0.561267 0.746501
O O1 0.535149 0.712172 0.742248
O O2 0.476482 0.757522 0.593000
O O3 0.336790 0.632387 0.912629
O O4 0.206176 0.759667 0.180281
O O5 0.973918 0.871293 0.551245
O O6 0.844864 0.737937 0.727819
O O7 0.727262 0.144400 0.618496
O O8 0.882318 0.015489 0.333919
O O9 0.093819 0.126785 0.091600
O O10 0.398877 0.857975 0.524752
O O11 0.945666 0.605994 0.195340
O O12 0.927658 0.488690 0.378685
O O13 0.929576 0.618400 0.469556
O O14 0.235347 0.562158 0.879527
O O15 0.380696 0.879515 0.298788
O O16 0.107064 0.923972 0.870368
#
# Coordination Sequence:
#
# PCOD9141009 Si02
#       8
#     4   4   4   4   4   4   4   4
#     4  12  26  50  81 109 155 207 258 317 391 464
#     4  12  26  50  79 109 153 207 259 311 394 470
#     4  12  28  49  79 118 154 202 261 328 385 469
#     4  12  27  50  78 118 162 203 266 321 392 469
#     4  12  24  51  75 113 158 210 255 321 389 468
#     4  12  28  45  79 117 161 201 260 325 396 456
#     4  12  26  51  78 112 154 208 259 320 385 468
#     4  12  27  48  77 116 153 206 256 325 388 456
#
# _framework density 23.667852
#
# number of rings (size 3 to 8) (size 9 to 14) (size 15 to 20)
#    0.000    0.000    6.250    2.250    3.500    2.000 
#    0.000    0.000    0.000    0.000    0.000    0.000 
#    0.000    0.000    0.000    0.000    0.000    0.000 
#
# Total GULP energy -89615.117556 kJ/mol
# GULP energy per Si atom -5600.944847 kJ/mol
# Density = 2.361398 g / cm^3
# Si number density = 23.667852 Si / 1000 Ang^3
#
#
#
# Elastic Constant Matrix: (Units=GPa)
#
#
# Indices 1 2 3 4 5 6 
#
# 1 151.2542 38.2225 36.9287 -0.0038 4.0181 -0.0022
# 2 38.2225 138.4769 22.8280 -0.0111 1.4016 -0.0027
# 3 36.9287 22.8280 100.6676 -0.0217 -11.8419 -0.0017
# 4 -0.0038 -0.0111 -0.0217 21.6686 0.0048 2.7833
# 5 4.0181 1.4016 -11.8419 0.0048 38.2278 0.0031
# 6 -0.0022 -0.0027 -0.0017 2.7833 0.0031 24.1391
#
#
#
# Elastic Compliance Matrix: (Units=1/GPa)
#
#
# Indices 1 2 3 4 5 6 
#
# 1 0.007721 -0.001681 -0.002636 -0.000002 -0.001566 0.000001
# 2 -0.001681 0.007893 -0.001231 0.000003 -0.000494 0.000000
# 3 -0.002636 -0.001231 0.011642 0.000010 0.003928 -0.000001
# 4 -0.000002 0.000003 0.000010 0.046843 -0.000002 -0.005401
# 5 -0.001566 -0.000494 0.003928 -0.000002 0.027559 -0.000003
# 6 0.000001 0.000000 -0.000001 -0.005401 -0.000003 0.042049
#
#
# Mechanical properties :
#
#
# Convention : Reuss Voigt Hill
#
# Bulk Modulus (GPa) = 61.87849 65.15080 63.51464
# Shear Modulus (GPa) = 31.21281 36.30173 33.75727
#
# Velocity S-wave (km/s) = 3.63545 3.92062 3.78073
# Velocity P-wave (km/s) = 6.61991 6.93411 6.77883
#
# Compressibility (1/GPa) = 0.01616071
#
# Stress axis : x y z
#
# Youngs Moduli (GPa) = 129.51294 126.68813 85.89678
#
# Poissons Ratio (x) = 0.21295 0.22638
# Poissons Ratio (y) = 0.21770 0.10578
# Poissons Ratio (z) = 0.34134 0.15601
#
# Static dielectric constant tensor:
#      x y z
#    x 1.900630 0.000000 0.003180 
#    y 0.000000 1.866680 0.000010 
#    z 0.003180 0.000010 1.912460 
# 
# From -- ./inp_files/20387.got.cif
#   From: 2010.05.17/outbox.cif.g08.bks.cpg/sg9_11_cif.got.tgz:20387.got - 2010.06.03 20:04:27.
