data_PCOD9141633
_publ_section_title
;
Structure prediction by ZEFSAII (Michael W. Deem and Ramdas Pophale) SiO2 
 PCOD9141633
Probable space group: P 2/M
;
_chemical_formula_sum "Si O2"
_cell_formula_units_Z 28
_cell_length_a 11.735685
_cell_length_b 8.996766
_cell_length_c 20.721842
_cell_angle_alpha 90.000000
_cell_angle_beta 34.314014
_cell_angle_gamma 90.000000
_cell_volume 1233.368638
_symmetry_space_group_name_H-M "P 2/M"
_symmetry_group_IT_number 10
_symmetry_cell_setting 'monoclinic'
loop_
_space_group_symop_operation_xyz
x,y,z
-x,y,-z
-x,-y,-z
x,-y,z
loop_
_atom_site_type_symbol
_atom_site_label
_atom_site_fract_x
_atom_site_fract_y
_atom_site_fract_z
Si Si1 0.290603 0.822649 0.520006
Si Si2 0.261530 0.169094 0.132089
Si Si3 0.278084 0.330048 0.647743
Si Si4 0.817097 0.667499 0.159610
Si Si5 0.202962 0.177435 0.014630
Si Si6 0.351997 0.320600 0.360123
Si Si7 0.636514 0.677074 0.787666
O O1 0.511374 0.752081 0.432116
O O2 0.176647 0.764071 0.637516
O O3 0.243585 0.757161 0.471363
O O4 0.295062 0.000000 0.516605
O O5 0.168059 0.212086 0.107028
O O6 0.248867 0.265350 0.202678
O O7 0.204510 0.000000 0.174880
O O8 0.500000 0.168654 0.000000
O O9 0.297685 0.500000 0.614506
O O10 0.187232 0.343784 0.760757
O O11 0.833110 0.500000 0.125622
O O12 0.591916 0.723862 0.247382
O O13 0.018302 0.764153 0.058084
O O14 0.221977 0.000000 0.000741
O O15 0.412073 0.253878 0.896955
O O16 0.346325 0.500000 0.372778
O O17 0.273761 0.285406 0.324888
O O18 0.620098 0.500000 0.798227
#
# Coordination Sequence:
#
# PCOD9141633 Si02
#       7
#     4   4   4   4   4   4   4
#     4  10  17  25  42  66  88 114 150 187 218 259
#     4   8  16  31  47  64  87 113 143 184 232 268
#     4   9  16  28  44  61  87 120 148 182 226 262
#     4   9  18  31  46  64  89 122 155 182 213 263
#     4  10  20  32  46  65  92 121 147 184 229 266
#     4   9  19  33  45  63  93 124 150 181 225 267
#     4  10  19  31  49  68  87 116 154 190 220 261
#
# _framework density 22.702051999999998
#
# number of rings (size 3 to 8) (size 9 to 14) (size 15 to 20)
#    0.000    2.714    0.000    5.143    0.000    7.714 
#    0.000    2.857    0.000    0.000    0.000    1.000 
#    0.000    8.000    0.000    0.000    0.000    0.000 
#
# Total GULP energy -156124.618925 kJ/mol
# GULP energy per Si atom -5575.879247 kJ/mol
# Density = 2.265038 g / cm^3
# Si number density = 22.702052 Si / 1000 Ang^3
#
#
#
# Elastic Constant Matrix: (Units=GPa)
#
#
# Indices 1 2 3 4 5 6 
#
# 1 102.5300 55.6626 45.3798 0.0000 36.6404 0.0000
# 2 55.6626 75.0728 22.7434 0.0000 30.7012 0.0000
# 3 45.3798 22.7434 57.8613 0.0000 40.9257 0.0000
# 4 0.0000 0.0000 0.0000 5.7457 0.0000 21.5578
# 5 36.6404 30.7012 40.9257 0.0000 53.9122 0.0000
# 6 0.0000 0.0000 0.0000 21.5578 0.0000 65.6597
#
#
#
# Elastic Compliance Matrix: (Units=1/GPa)
#
#
# Indices 1 2 3 4 5 6 
#
# 1 0.022404 -0.013683 -0.014975 0.000000 0.003933 0.000000
# 2 -0.013683 0.025725 0.009511 0.000000 -0.012570 0.000000
# 3 -0.014975 0.009511 0.047339 0.000000 -0.031174 0.000000
# 4 0.000000 0.000000 0.000000 -0.750610 0.000000 0.246445
# 5 0.003933 -0.012570 -0.031174 0.000000 0.046698 0.000000
# 6 0.000000 0.000000 0.000000 0.246445 0.000000 -0.065684
#
#
# Mechanical properties :
#
#
# Convention : Reuss Voigt Hill
#
# Bulk Modulus (GPa) = 17.49093 53.67063 35.58078
# Shear Modulus (GPa) = -8.10667 32.50874 12.20103
#
# Velocity S-wave (km/s) = -1.89173 3.78825 2.32079
# Velocity P-wave (km/s) = 1.71748 6.54424 4.78418
#
# Compressibility (1/GPa) = 0.05717249
#
# Stress axis : x y z
#
# Youngs Moduli (GPa) = 44.63491 38.87271 21.12437
#
# Poissons Ratio (x) = 0.53191 0.31633
# Poissons Ratio (y) = 0.61075 -0.20090
# Poissons Ratio (z) = 0.66840 -0.36970
#
# Static dielectric constant tensor:
#      x y z
#    x 1.869860 0.000000 -0.004860 
#    y 0.000000 1.779510 0.000000 
#    z -0.004860 0.000000 1.991970 
# 
# From -- ./inp_files/83310.got.cif
#   From: 2010.05.17/outbox.cif.g08.bks.cpg/sg10_42_cif.got.tgz:83310.got - 2010.06.03 11:33:40.
