data_PCOD9141373
_publ_section_title
;
Structure prediction by ZEFSAII (Michael W. Deem and Ramdas Pophale) SiO2 
 PCOD9141373
Probable space group: P 2/M
;
_chemical_formula_sum "Si O2"
_cell_formula_units_Z 24
_cell_length_a 7.692714
_cell_length_b 28.074038
_cell_length_c 6.601936
_cell_angle_alpha 90.000000
_cell_angle_beta 42.598779
_cell_angle_gamma 90.000000
_cell_volume 965.061102
_symmetry_space_group_name_H-M "P 2/M"
_symmetry_group_IT_number 10
_symmetry_cell_setting 'monoclinic'
loop_
_space_group_symop_operation_xyz
x,y,z
-x,y,-z
-x,-y,-z
x,-y,z
loop_
_atom_site_type_symbol
_atom_site_label
_atom_site_fract_x
_atom_site_fract_y
_atom_site_fract_z
Si Si1 0.416056 0.705476 0.850746
Si Si2 0.221928 0.000000 0.132925
Si Si3 0.280590 0.602828 0.860591
Si Si4 0.597748 0.902313 0.149902
Si Si5 0.910134 0.749069 0.341162
Si Si6 0.907936 0.143493 0.343278
Si Si7 0.281472 0.500000 0.862159
O O1 0.323342 0.651142 0.945722
O O2 0.681750 0.711442 0.503148
O O3 0.500000 0.722387 0.000000
O O4 0.175279 0.738008 0.999840
O O5 0.000000 0.000000 0.500000
O O6 0.500000 0.000000 0.000000
O O7 0.244929 0.047898 0.980996
O O8 0.500000 0.603027 0.500000
O O9 0.301460 0.551355 0.952743
O O10 0.000000 0.605269 0.000000
O O11 0.324286 0.893925 0.493246
O O12 0.500000 0.897526 0.000000
O O13 0.818716 0.863761 0.000806
O O14 0.812586 0.802767 0.399932
O O15 0.000000 0.744985 0.500000
O O16 0.000000 0.137942 0.500000
O O17 0.500000 0.500000 0.500000
O O18 0.000000 0.500000 0.000000
#
# Coordination Sequence:
#
# PCOD9141373 Si02
#       7
#     4   2   4   4   4   4   2
#     4  10  19  31  47  69  95 122 152 194 241 277
#     4  10  16  22  28  40  62  90 126 178 234 268
#     4  10  19  33  52  73  96 125 159 193 228 277
#     4   9  15  21  30  43  62  90 129 176 222 263
#     4   9  17  28  42  60  85 114 146 187 234 276
#     4   9  15  23  34  48  66  95 134 175 217 264
#     4   8  16  30  49  70  93 122 156 190 226 268
#
# _framework density 24.868891000000001
#
# number of rings (size 3 to 8) (size 9 to 14) (size 15 to 20)
#    0.000    2.667    0.000    4.500    0.000    4.000 
#    0.000    0.417    0.000    0.000    0.000   10.500 
#    0.000    0.000    0.000    0.000    0.000    0.000 
#
# Total GULP energy -133968.239335 kJ/mol
# GULP energy per Si atom -5582.009972 kJ/mol
# Density = 2.481229 g / cm^3
# Si number density = 24.868891 Si / 1000 Ang^3
#
#
#
# Elastic Constant Matrix: (Units=GPa)
#
#
# Indices 1 2 3 4 5 6 
#
# 1 58.5018 6.4063 25.6959 0.0000 -20.1085 0.0000
# 2 6.4063 131.1279 44.0592 0.0000 -43.6916 0.0000
# 3 25.6959 44.0592 191.4173 0.0000 -17.0496 0.0000
# 4 0.0000 0.0000 0.0000 38.0014 0.0000 -11.6794
# 5 -20.1085 -43.6916 -17.0496 0.0000 43.6812 0.0000
# 6 0.0000 0.0000 0.0000 -11.6794 0.0000 23.4219
#
#
#
# Elastic Compliance Matrix: (Units=1/GPa)
#
#
# Indices 1 2 3 4 5 6 
#
# 1 0.022557 0.004409 -0.002823 0.000000 0.013692 0.000000
# 2 0.004409 0.012841 -0.002303 0.000000 0.013975 0.000000
# 3 -0.002823 -0.002303 0.006022 0.000000 -0.001253 0.000000
# 4 0.000000 0.000000 0.000000 0.031078 0.000000 0.015497
# 5 0.013692 0.013975 -0.001253 0.000000 0.042685 0.000000
# 6 0.000000 0.000000 0.000000 0.015497 0.000000 0.050423
#
#
# Mechanical properties :
#
#
# Convention : Reuss Voigt Hill
#
# Bulk Modulus (GPa) = 25.00950 59.26329 42.13639
# Shear Modulus (GPa) = 27.72113 41.34660 34.53386
#
# Velocity S-wave (km/s) = 3.34232 4.08190 3.73048
# Velocity P-wave (km/s) = 4.99732 6.78955 5.96117
#
# Compressibility (1/GPa) = 0.03998481
#
# Stress axis : x y z
#
# Youngs Moduli (GPa) = 44.33211 77.87700 166.06776
#
# Poissons Ratio (x) = -0.34334 0.46886
# Poissons Ratio (y) = -0.19545 0.38241
# Poissons Ratio (z) = 0.12516 0.17933
#
# Static dielectric constant tensor:
#      x y z
#    x 2.418610 0.000000 -0.109320 
#    y 0.000000 1.999200 0.000000 
#    z -0.109320 0.000000 2.068270 
# 
# From -- ./inp_files/48224.got.cif
#   From: 2010.05.17/outbox.cif.g08.bks.cpg/sg10_25_cif.got.tgz:48224.got - 2010.06.03 11:33:40.
