data_PCOD9141664
_publ_section_title
;
Structure prediction by ZEFSAII (Michael W. Deem and Ramdas Pophale) SiO2 
 PCOD9141664
Probable space group: P 2/M
;
_chemical_formula_sum "Si O2"
_cell_formula_units_Z 32
_cell_length_a 16.633450
_cell_length_b 9.376905
_cell_length_c 23.497210
_cell_angle_alpha 90.000000
_cell_angle_beta 142.410751
_cell_angle_gamma 90.000000
_cell_volume 2235.555652
_symmetry_space_group_name_H-M "P 2/M"
_symmetry_group_IT_number 10
_symmetry_cell_setting 'monoclinic'
loop_
_space_group_symop_operation_xyz
x,y,z
-x,y,-z
-x,-y,-z
x,-y,z
loop_
_atom_site_type_symbol
_atom_site_label
_atom_site_fract_x
_atom_site_fract_y
_atom_site_fract_z
Si Si1 0.010510 0.170357 0.072716
Si Si2 0.301959 0.165623 0.849668
Si Si3 0.574150 0.834707 0.953427
Si Si4 0.814428 0.667747 0.045650
Si Si5 0.061846 0.668221 0.758348
Si Si6 0.791230 0.831539 0.617498
Si Si7 0.723621 0.832456 0.713510
Si Si8 0.532490 0.335801 0.450437
O O1 0.901642 0.253101 0.047792
O O2 0.154916 0.207362 0.178037
O O3 0.993275 0.000000 0.071880
O O4 0.000000 0.200194 0.000000
O O5 0.421376 0.208508 0.874816
O O6 0.174840 0.265067 0.781637
O O7 0.267296 0.000000 0.819076
O O8 0.365207 0.169028 0.948619
O O9 0.579351 0.000000 0.937802
O O10 0.669931 0.737169 0.970275
O O11 0.805876 0.500000 0.029560
O O12 0.886186 0.686177 0.147369
O O13 0.044313 0.500000 0.738597
O O14 0.925944 0.753407 0.676637
O O15 0.771612 0.816163 0.674940
O O16 0.665174 0.755609 0.518548
O O17 0.795348 0.000000 0.607422
O O18 0.593597 0.738480 0.648744
O O19 0.692205 0.000000 0.703855
O O20 0.500000 0.335267 0.500000
O O21 0.549627 0.500000 0.442688
#
# Coordination Sequence:
#
# PCOD9141664 Si02
#       8
#     4   4   4   4   4   4   4   4
#     4  10  20  33  47  61  78 104 140 179 214 246
#     4   8  14  24  37  54  74 101 134 166 197 233
#     4   8  14  25  40  54  72  99 134 168 198 237
#     4  10  19  28  40  57  78 104 134 170 211 248
#     4  10  18  25  36  56  82 109 135 166 202 241
#     4  10  17  26  41  58  78 106 137 169 199 238
#     4   9  17  29  43  58  75 100 134 170 206 245
#     4   9  17  27  40  58  79 101 127 163 203 245
#
# _framework density 14.314114999999999
#
# number of rings (size 3 to 8) (size 9 to 14) (size 15 to 20)
#    0.000    2.750    1.250    2.250    0.000    4.250 
#    0.000    2.500    0.000    0.000    0.000    0.000 
#    0.000    0.000    0.000    1.125    0.000   22.500 
#
# Total GULP energy -178229.648466 kJ/mol
# GULP energy per Si atom -5569.676515 kJ/mol
# Density = 1.428154 g / cm^3
# Si number density = 14.314115 Si / 1000 Ang^3
#
#
#
# Elastic Constant Matrix: (Units=GPa)
#
#
# Indices 1 2 3 4 5 6 
#
# 1 75.4633 69.5895 59.0060 0.0000 31.6823 0.0000
# 2 69.5895 102.1706 64.5159 0.0000 34.5134 0.0000
# 3 59.0060 64.5159 76.5991 0.0000 28.5205 0.0000
# 4 0.0000 0.0000 0.0000 11.4806 0.0000 1.3568
# 5 31.6823 34.5134 28.5205 0.0000 29.0934 0.0000
# 6 0.0000 0.0000 0.0000 1.3568 0.0000 11.5694
#
#
#
# Elastic Compliance Matrix: (Units=1/GPa)
#
#
# Indices 1 2 3 4 5 6 
#
# 1 0.050079 -0.017193 -0.017929 0.000000 -0.016564 0.000000
# 2 -0.017193 0.029784 -0.008909 0.000000 -0.007876 0.000000
# 3 -0.017929 -0.008909 0.036481 0.000000 -0.005669 0.000000
# 4 0.000000 0.000000 0.000000 0.088328 0.000000 -0.010359
# 5 -0.016564 -0.007876 -0.005669 0.000000 0.067311 0.000000
# 6 0.000000 0.000000 0.000000 -0.010359 0.000000 0.087649
#
#
# Mechanical properties :
#
#
# Convention : Reuss Voigt Hill
#
# Bulk Modulus (GPa) = 35.35847 71.16177 53.26012
# Shear Modulus (GPa) = 10.93800 14.50345 12.72073
#
# Velocity S-wave (km/s) = 2.76731 3.18658 2.98431
# Velocity P-wave (km/s) = 5.91322 7.95998 7.01169
#
# Compressibility (1/GPa) = 0.02828176
#
# Stress axis : x y z
#
# Youngs Moduli (GPa) = 19.96827 33.57490 27.41174
#
# Poissons Ratio (x) = 0.57725 0.49147
# Poissons Ratio (y) = 0.34331 0.24422
# Poissons Ratio (z) = 0.35802 0.29912
#
# Static dielectric constant tensor:
#      x y z
#    x 1.453050 0.000000 0.019320 
#    y 0.000000 1.474830 0.000000 
#    z 0.019320 0.000000 1.456540 
# 
# From -- ./inp_files/66181.got.cif
#   From: 2010.05.17/outbox.cif.g08.bks.cpg/sg10_34_cif.got.tgz:66181.got - 2010.06.03 11:33:40.
