data_PCOD9141646
_publ_section_title
;
Structure prediction by ZEFSAII (Michael W. Deem and Ramdas Pophale) SiO2 
 PCOD9141646
Probable space group: P 2/M
;
_chemical_formula_sum "Si O2"
_cell_formula_units_Z 32
_cell_length_a 16.044818
_cell_length_b 7.432642
_cell_length_c 15.556305
_cell_angle_alpha 90.000000
_cell_angle_beta 61.002136
_cell_angle_gamma 90.000000
_cell_volume 1622.604562
_symmetry_space_group_name_H-M "P 2/M"
_symmetry_group_IT_number 10
_symmetry_cell_setting 'monoclinic'
loop_
_space_group_symop_operation_xyz
x,y,z
-x,y,-z
-x,-y,-z
x,-y,z
loop_
_atom_site_type_symbol
_atom_site_label
_atom_site_fract_x
_atom_site_fract_y
_atom_site_fract_z
Si Si1 0.839328 0.280778 0.734612
Si Si2 0.060035 0.280874 0.816709
Si Si3 0.839328 0.719222 0.926060
Si Si4 0.778019 0.712982 0.136846
Si Si5 0.060035 0.719126 0.623256
Si Si6 0.391363 0.783697 0.458393
Si Si7 0.608637 0.216303 0.349756
Si Si8 0.778019 0.712982 0.585134
O O1 0.836355 0.500000 0.739232
O O2 0.811606 0.218682 0.844197
O O3 0.779856 0.218352 0.681874
O O4 0.950107 0.230539 0.663848
O O5 0.061867 0.500000 0.816951
O O6 0.134253 0.214432 0.850128
O O7 0.087670 0.225215 0.706165
O O8 0.950107 0.230539 0.886045
O O9 0.836355 0.500000 0.924413
O O10 0.779856 0.781648 0.038270
O O11 0.795198 0.500000 0.121152
O O12 0.682207 0.734960 0.239038
O O13 0.061867 0.500000 0.621182
O O14 0.134253 0.785568 0.515620
O O15 0.361469 0.721063 0.569265
O O16 0.500000 0.721913 0.389020
O O17 0.317793 0.734960 0.421245
O O18 0.393680 0.000000 0.460125
O O19 0.606321 0.000000 0.353805
O O20 0.795198 0.500000 0.583650
#
# Coordination Sequence:
#
# PCOD9141646 Si02
#       8
#     4   4   4   4   4   4   4   4
#     4   8  14  24  38  60  93 127 150 170 205 253
#     4   8  13  21  35  60  93 121 143 171 209 252
#     4   8  14  24  38  60  93 127 150 170 205 253
#     4  10  17  25  44  71  91 110 145 188 217 240
#     4   8  13  21  35  60  93 121 143 171 209 252
#     4   9  19  35  50  63  84 114 141 167 213 277
#     4   9  19  35  50  63  84 114 141 167 213 277
#     4  10  17  25  44  71  91 110 145 188 217 240
#
# _framework density 19.721378999999999
#
# number of rings (size 3 to 8) (size 9 to 14) (size 15 to 20)
#    0.000    3.250    0.000    3.750    0.000    5.000 
#    0.000    1.250    0.000    4.500    0.000    8.750 
#    0.000    0.000    0.000    0.000    0.000    0.000 
#
# Total GULP energy -178449.982397 kJ/mol
# GULP energy per Si atom -5576.561950 kJ/mol
# Density = 1.967649 g / cm^3
# Si number density = 19.721379 Si / 1000 Ang^3
#
#
#
# Elastic Constant Matrix: (Units=GPa)
#
#
# Indices 1 2 3 4 5 6 
#
# 1 117.2825 -2.1430 99.6139 0.0000 36.0694 0.0000
# 2 -2.1430 58.2806 3.7040 0.0000 5.0637 0.0000
# 3 99.6139 3.7040 192.8584 0.0000 29.3821 0.0000
# 4 0.0000 0.0000 0.0000 -4.9099 0.0000 -17.7834
# 5 36.0694 5.0637 29.3821 0.0000 23.8673 0.0000
# 6 0.0000 0.0000 0.0000 -17.7834 0.0000 15.6247
#
#
#
# Elastic Compliance Matrix: (Units=1/GPa)
#
#
# Indices 1 2 3 4 5 6 
#
# 1 0.023848 0.003715 -0.008343 0.000000 -0.026557 0.000000
# 2 0.003715 0.018072 -0.001017 0.000000 -0.008196 0.000000
# 3 -0.008343 -0.001017 0.009306 0.000000 0.001369 0.000000
# 4 0.000000 0.000000 0.000000 -0.039761 0.000000 -0.045254
# 5 -0.026557 -0.008196 0.001369 0.000000 0.082087 0.000000
# 6 0.000000 0.000000 0.000000 -0.045254 0.000000 0.012495
#
#
# Mechanical properties :
#
#
# Convention : Reuss Voigt Hill
#
# Bulk Modulus (GPa) = 25.04133 63.41902 44.23018
# Shear Modulus (GPa) = 38.27061 24.73286 31.50174
#
# Velocity S-wave (km/s) = 4.40996 3.54519 4.00101
# Velocity P-wave (km/s) = 6.21735 6.99894 6.61969
#
# Compressibility (1/GPa) = 0.03993398
#
# Stress axis : x y z
#
# Youngs Moduli (GPa) = 41.93207 55.33522 107.46324
#
# Poissons Ratio (x) = -0.20555 0.89658
# Poissons Ratio (y) = -0.15576 0.10930
# Poissons Ratio (z) = 0.34985 0.05628
#
# Static dielectric constant tensor:
#      x y z
#    x 1.672680 0.000000 0.031520 
#    y 0.000000 1.769520 0.000000 
#    z 0.031520 0.000000 1.709080 
# 
# From -- ./inp_files/66476.got.cif
#   From: 2010.05.17/outbox.cif.g08.bks.cpg/sg10_34_cif.got.tgz:66476.got - 2010.06.03 11:33:40.
