data_PCOD9141923
_publ_section_title
;
Structure prediction by ZEFSAII (Michael W. Deem and Ramdas Pophale) SiO2 
 PCOD9141923
Probable space group: P 2/M
;
_chemical_formula_sum "Si O2"
_cell_formula_units_Z 28
_cell_length_a 29.726279
_cell_length_b 7.502135
_cell_length_c 10.024963
_cell_angle_alpha 90.000000
_cell_angle_beta 38.501456
_cell_angle_gamma 90.000000
_cell_volume 1391.783374
_symmetry_space_group_name_H-M "P 2/M"
_symmetry_group_IT_number 10
_symmetry_cell_setting 'monoclinic'
loop_
_space_group_symop_operation_xyz
x,y,z
-x,y,-z
-x,-y,-z
x,-y,z
loop_
_atom_site_type_symbol
_atom_site_label
_atom_site_fract_x
_atom_site_fract_y
_atom_site_fract_z
Si Si1 0.917533 0.782158 0.695572
Si Si2 0.798401 0.783331 0.176342
Si Si3 0.599082 0.715011 0.877965
Si Si4 0.807301 0.206860 0.729336
Si Si5 0.315701 0.294681 0.786668
Si Si6 0.237846 0.209770 0.447141
Si Si7 0.444018 0.282041 0.320828
O O1 0.868812 0.717736 0.684200
O O2 0.000000 0.722355 0.500000
O O3 0.917794 0.000000 0.691270
O O4 0.873296 0.733121 0.931187
O O5 0.734644 0.715688 0.228432
O O6 0.788719 0.717644 0.349142
O O7 0.793172 0.000000 0.186825
O O8 0.599188 0.500000 0.876725
O O9 0.675501 0.774843 0.756133
O O10 0.588075 0.772208 0.749248
O O11 0.527761 0.772177 0.124323
O O12 0.795817 0.286797 0.609919
O O13 0.826570 0.000000 0.666665
O O14 0.731976 0.211137 0.985880
O O15 0.325880 0.500000 0.801429
O O16 0.392493 0.219748 0.559693
O O17 0.220333 0.000000 0.490071
O O18 0.442003 0.500000 0.327670
#
# Coordination Sequence:
#
# PCOD9141923 Si02
#       7
#     4   4   4   4   4   4   4
#     4   8  14  28  50  71  90 118 155 188 222 269
#     4   9  17  29  47  70  95 122 151 187 228 273
#     4   9  16  29  47  66  91 122 154 196 237 267
#     4   9  19  33  47  66  97 128 150 186 234 274
#     4  10  17  29  49  71  90 117 160 199 229 273
#     4  10  19  31  45  67  98 127 154 185 230 281
#     4   8  15  27  45  68  91 116 153 200 240 265
#
# _framework density 20.118074
#
# number of rings (size 3 to 8) (size 9 to 14) (size 15 to 20)
#    0.000    3.000    1.429    2.143    0.000    0.571 
#    0.000    4.286    0.000   15.429    0.000    0.000 
#    0.000   10.286    0.000    0.000    0.000    0.000 
#
# Total GULP energy -156104.537233 kJ/mol
# GULP energy per Si atom -5575.162044 kJ/mol
# Density = 2.007228 g / cm^3
# Si number density = 20.118074 Si / 1000 Ang^3
#
#
#
# Elastic Constant Matrix: (Units=GPa)
#
#
# Indices 1 2 3 4 5 6 
#
# 1 88.7295 -2.4981 60.6714 0.0000 11.0239 0.0000
# 2 -2.4981 52.5818 -7.6033 0.0000 1.7731 0.0000
# 3 60.6714 -7.6033 107.0330 0.0000 -7.0962 0.0000
# 4 0.0000 0.0000 0.0000 11.8280 0.0000 -9.6303
# 5 11.0239 1.7731 -7.0962 0.0000 31.7900 0.0000
# 6 0.0000 0.0000 0.0000 -9.6303 0.0000 7.3860
#
#
#
# Elastic Compliance Matrix: (Units=1/GPa)
#
#
# Indices 1 2 3 4 5 6 
#
# 1 0.021240 -0.000491 -0.012750 0.000000 -0.010184 0.000000
# 2 -0.000491 0.019246 0.001609 0.000000 -0.000544 0.000000
# 3 -0.012750 0.001609 0.017226 0.000000 0.008177 0.000000
# 4 0.000000 0.000000 0.000000 -1.372330 0.000000 -1.789337
# 5 -0.010184 -0.000544 0.008177 0.000000 0.036843 0.000000
# 6 0.000000 0.000000 0.000000 -1.789337 0.000000 -2.197668
#
#
# Mechanical properties :
#
#
# Convention : Reuss Voigt Hill
#
# Bulk Modulus (GPa) = 29.02825 38.83158 33.92992
# Shear Modulus (GPa) = -1.45319 23.38575 10.96628
#
# Velocity S-wave (km/s) = -0.85082 3.41313 2.33726
# Velocity P-wave (km/s) = 3.67356 5.90562 4.91790
#
# Compressibility (1/GPa) = 0.03444920
#
# Stress axis : x y z
#
# Youngs Moduli (GPa) = 47.08179 51.95958 58.05014
#
# Poissons Ratio (x) = 0.02552 0.74012
# Poissons Ratio (y) = 0.02312 -0.09343
# Poissons Ratio (z) = 0.60028 -0.08363
#
# Static dielectric constant tensor:
#      x y z
#    x 1.691410 0.000000 0.010890 
#    y 0.000000 1.765690 0.000000 
#    z 0.010890 0.000000 1.722550 
# 
# From -- ./inp_files/37964.got.cif
#   From: 2010.05.17/outbox.cif.g08.bks.cpg/sg10_19_cif.got.tgz:37964.got - 2010.06.03 11:33:40.
