data_PCOD9141281
_publ_section_title
;
Structure prediction by ZEFSAII (Michael W. Deem and Ramdas Pophale) SiO2 
 PCOD9141281
Probable space group: C C
;
_chemical_formula_sum "Si O2"
_cell_formula_units_Z 16
_cell_length_a 15.000000
_cell_length_b 18.000000
_cell_length_c 6.000000
_cell_angle_alpha 90.000000
_cell_angle_beta 70.000000
_cell_angle_gamma 90.000000
_cell_volume 1522.302046
_symmetry_space_group_name_H-M "C C"
_symmetry_group_IT_number 9
_symmetry_cell_setting 'monoclinic'
loop_
_space_group_symop_operation_xyz
x,y,z
x,-y,1/2+z
1/2+x,1/2+y,z
1/2+x,1/2-y,1/2+z
loop_
_atom_site_type_symbol
_atom_site_label
_atom_site_fract_x
_atom_site_fract_y
_atom_site_fract_z
Si Si1 0.864140 0.306092 0.277210
Si Si2 0.365358 0.965422 0.440109
Si Si3 0.407676 0.520506 0.724119
Si Si4 0.075325 0.564650 0.879301
Si Si5 0.372589 0.305301 0.148158
Si Si6 0.721341 0.219650 0.114519
Si Si7 0.711603 0.929414 0.898642
Si Si8 0.011697 0.307400 0.778383
O O1 0.839601 0.377542 0.448644
O O2 0.882306 0.228985 0.393766
O O3 0.778379 0.283873 0.190816
O O4 0.955719 0.328599 0.050890
O O5 0.479868 0.965048 0.346619
O O6 0.337730 0.001071 0.214712
O O7 0.449493 0.488624 0.446696
O O8 0.393072 0.608204 0.680298
O O9 0.308813 0.475004 0.846837
O O10 0.137165 0.492626 0.889882
O O11 0.152779 0.605306 0.654936
O O12 0.038694 0.621882 0.100190
O O13 0.268469 0.286653 0.332234
O O14 0.443603 0.252025 0.221402
O O15 0.733430 0.137460 0.212953
O O16 0.610800 0.233034 0.228694
#
# Coordination Sequence:
#
# PCOD9141281 Si02
#       8
#     4   4   4   4   4   4   4   4
#     4  11  26  45  66  99 145 192 248 293 364 440
#     4  12  25  41  66  97 135 188 236 296 356 428
#     4  12  24  41  64 101 141 184 233 291 359 434
#     4  12  21  36  61 100 150 178 224 286 365 454
#     4  11  24  43  68  97 145 194 236 295 362 438
#     4  11  25  42  67 101 144 187 238 294 361 441
#     4  12  22  35  64 106 146 177 221 288 377 447
#     4  11  25  43  64 101 144 192 242 293 362 442
#
# _framework density 10.510398
#
# number of rings (size 3 to 8) (size 9 to 14) (size 15 to 20)
#    0.000    0.500    5.000    3.750    5.250    0.000 
#    0.000    0.000    0.000    1.500    0.000    0.000 
#    0.000    0.000    0.000    0.000    0.000    0.000 
#
# Total GULP energy -89219.227155 kJ/mol
# GULP energy per Si atom -5576.201697 kJ/mol
# Density = 1.048648 g / cm^3
# Si number density = 10.510398 Si / 1000 Ang^3
#
#
#
# Elastic Constant Matrix: (Units=GPa)
#
#
# Indices 1 2 3 4 5 6 
#
# 1 66.3860 22.0592 11.6038 0.0000 -0.6900 0.0000
# 2 22.0592 89.1244 39.7652 0.0000 0.8587 0.0000
# 3 11.6038 39.7652 132.6615 0.0000 5.1711 0.0000
# 4 0.0000 0.0000 0.0000 47.8494 0.0000 8.0130
# 5 -0.6900 0.8587 5.1711 0.0000 25.6831 0.0000
# 6 0.0000 0.0000 0.0000 8.0130 0.0000 37.1655
#
#
#
# Elastic Compliance Matrix: (Units=1/GPa)
#
#
# Indices 1 2 3 4 5 6 
#
# 1 0.016431 -0.003949 -0.000278 0.000000 0.000629 0.000000
# 2 -0.003949 0.013905 -0.003830 0.000000 0.000200 0.000000
# 3 -0.000278 -0.003830 0.008775 0.000000 -0.001646 0.000000
# 4 0.000000 0.000000 0.000000 0.021682 0.000000 -0.004675
# 5 0.000629 0.000200 -0.001646 0.000000 0.039278 0.000000
# 6 0.000000 0.000000 0.000000 -0.004675 0.000000 0.027915
#
#
# Mechanical properties :
#
#
# Convention : Reuss Voigt Hill
#
# Bulk Modulus (GPa) = 43.48647 48.33648 45.91147
# Shear Modulus (GPa) = 32.94599 36.45585 34.70092
#
# Velocity S-wave (km/s) = 3.96321 4.16898 4.06740
# Velocity P-wave (km/s) = 6.45562 6.79841 6.62923
#
# Compressibility (1/GPa) = 0.02299566
#
# Stress axis : x y z
#
# Youngs Moduli (GPa) = 60.86179 71.91812 113.96522
#
# Poissons Ratio (x) = 0.28399 0.03169
# Poissons Ratio (y) = 0.24033 0.43652
# Poissons Ratio (z) = 0.01692 0.27547
#
# Static dielectric constant tensor:
#      x y z
#    x 1.790490 0.000000 0.122750 
#    y 0.000000 1.752330 0.000000 
#    z 0.122750 0.000000 1.930360 
# 
# From -- ./inp_files/2582.got.cif
#   From: 2010.05.17/outbox.ucp.g08.bks.cvg/sg9_2_cif.got.tgz:2582.got - 2010.06.11 13:03:20.
