data_PCOD9141838
_publ_section_title
;
Structure prediction by ZEFSAII (Michael W. Deem and Ramdas Pophale) SiO2 
 PCOD9141838
Probable space group: P 2/M
;
_chemical_formula_sum "Si O2"
_cell_formula_units_Z 32
_cell_length_a 12.119363
_cell_length_b 8.823266
_cell_length_c 17.521517
_cell_angle_alpha 90.000000
_cell_angle_beta 84.408139
_cell_angle_gamma 90.000000
_cell_volume 1864.701152
_symmetry_space_group_name_H-M "P 2/M"
_symmetry_group_IT_number 10
_symmetry_cell_setting 'monoclinic'
loop_
_space_group_symop_operation_xyz
x,y,z
-x,y,-z
-x,-y,-z
x,-y,z
loop_
_atom_site_type_symbol
_atom_site_label
_atom_site_fract_x
_atom_site_fract_y
_atom_site_fract_z
Si Si1 0.600861 0.682545 0.738253
Si Si2 0.757867 0.182114 0.596046
Si Si3 0.968754 0.182206 0.917951
Si Si4 0.379465 0.184103 0.538016
Si Si5 0.631194 0.816747 0.284963
Si Si6 0.877512 0.182520 0.232803
Si Si7 0.053155 0.675269 0.324879
Si Si8 0.786003 0.675307 0.834968
O O1 0.607446 0.500000 0.731621
O O2 0.667287 0.754991 0.662491
O O3 0.475766 0.739875 0.744512
O O4 0.667799 0.727791 0.810380
O O5 0.715269 0.230186 0.515378
O O6 0.877574 0.243592 0.613321
O O7 0.757976 0.000000 0.600612
O O8 0.848729 0.233553 0.896056
O O9 0.057243 0.232830 0.847665
O O10 0.971318 0.000000 0.918993
O O11 0.000000 0.238073 0.000000
O O12 0.500000 0.235090 0.500000
O O13 0.363595 0.229589 0.626296
O O14 0.380817 0.000000 0.537115
O O15 0.748836 0.775581 0.240361
O O16 0.618240 0.000000 0.282765
O O17 0.941408 0.247562 0.302197
O O18 0.884512 0.000000 0.236646
O O19 0.035077 0.500000 0.344660
O O20 0.135149 0.682966 0.245527
O O21 0.778277 0.500000 0.858397
#
# Coordination Sequence:
#
# PCOD9141838 Si02
#       8
#     4   4   4   4   4   4   4   4
#     4  10  19  30  45  69  98 125 157 197 238 275
#     4  10  17  28  48  68  90 121 160 203 242 277
#     4   9  17  30  50  76 100 118 143 187 236 276
#     4   9  16  28  45  67  92 119 157 202 239 272
#     4  10  19  32  49  68  92 125 163 198 232 278
#     4   9  18  32  50  71  94 123 159 191 228 284
#     4   9  17  30  47  67  94 123 155 198 241 278
#     4   8  16  29  45  68  95 121 152 188 222 269
#
# _framework density 17.160926
#
# number of rings (size 3 to 8) (size 9 to 14) (size 15 to 20)
#    0.000    2.750    1.250    1.875    0.000    4.250 
#    0.000    2.500    0.000    4.500    0.000    5.250 
#    0.000    0.000    0.000    0.000    0.000    0.000 
#
# Total GULP energy -178294.233730 kJ/mol
# GULP energy per Si atom -5571.694804 kJ/mol
# Density = 1.712187 g / cm^3
# Si number density = 17.160926 Si / 1000 Ang^3
#
#
#
# Elastic Constant Matrix: (Units=GPa)
#
#
# Indices 1 2 3 4 5 6 
#
# 1 125.1740 30.2850 54.5237 0.0000 27.0808 0.0000
# 2 30.2850 27.3161 21.7429 0.0000 8.9304 0.0000
# 3 54.5237 21.7429 82.4217 0.0000 29.2395 0.0000
# 4 0.0000 0.0000 0.0000 -9.2776 0.0000 -5.5879
# 5 27.0808 8.9304 29.2395 0.0000 27.3163 0.0000
# 6 0.0000 0.0000 0.0000 -5.5879 0.0000 15.3470
#
#
#
# Elastic Compliance Matrix: (Units=1/GPa)
#
#
# Indices 1 2 3 4 5 6 
#
# 1 0.013402 -0.009569 -0.004414 0.000000 -0.005434 0.000000
# 2 -0.009569 0.053359 -0.007937 0.000000 0.000538 0.000000
# 3 -0.004414 -0.007937 0.023657 0.000000 -0.018352 0.000000
# 4 0.000000 0.000000 0.000000 -0.088400 0.000000 -0.032187
# 5 -0.005434 0.000538 -0.018352 0.000000 0.061463 0.000000
# 6 0.000000 0.000000 0.000000 -0.032187 0.000000 0.053440
#
#
# Mechanical properties :
#
#
# Convention : Reuss Voigt Hill
#
# Bulk Modulus (GPa) = 21.46909 49.77943 35.62426
# Shear Modulus (GPa) = 28.36279 15.23447 21.79863
#
# Velocity S-wave (km/s) = 4.06982 2.98273 3.56792
# Velocity P-wave (km/s) = 5.88406 6.39786 6.14633
#
# Compressibility (1/GPa) = 0.04657859
#
# Stress axis : x y z
#
# Youngs Moduli (GPa) = 74.61437 18.74087 42.27128
#
# Poissons Ratio (x) = 0.17933 0.18658
# Poissons Ratio (y) = 0.71400 0.33550
# Poissons Ratio (z) = 0.32934 0.14874
#
# Static dielectric constant tensor:
#      x y z
#    x 1.591240 0.000000 0.010510 
#    y 0.000000 1.580180 0.000000 
#    z 0.010510 0.000000 1.576300 
# 
# From -- ./inp_files/52778.got.cif
#   From: 2010.05.17/outbox.cif.g08.bks.cpg/sg10_27_cif.got.tgz:52778.got - 2010.06.03 11:33:40.
