data_PCOD9141665
_publ_section_title
;
Structure prediction by ZEFSAII (Michael W. Deem and Ramdas Pophale) SiO2 
 PCOD9141665
Probable space group: P 2/M
;
_chemical_formula_sum "Si O2"
_cell_formula_units_Z 32
_cell_length_a 16.950135
_cell_length_b 8.873679
_cell_length_c 14.349302
_cell_angle_alpha 90.000000
_cell_angle_beta 96.072887
_cell_angle_gamma 90.000000
_cell_volume 2146.167323
_symmetry_space_group_name_H-M "P 2/M"
_symmetry_group_IT_number 10
_symmetry_cell_setting 'monoclinic'
loop_
_space_group_symop_operation_xyz
x,y,z
-x,y,-z
-x,-y,-z
x,-y,z
loop_
_atom_site_type_symbol
_atom_site_label
_atom_site_fract_x
_atom_site_fract_y
_atom_site_fract_z
Si Si1 0.175489 0.678753 0.112014
Si Si2 0.936740 0.820876 0.573097
Si Si3 0.619475 0.821597 0.453699
Si Si4 0.022156 0.321419 0.225600
Si Si5 0.300850 0.817904 0.258776
Si Si6 0.922453 0.174051 0.057627
Si Si7 0.233434 0.679374 0.442186
Si Si8 0.462210 0.177697 0.352081
O O1 0.187210 0.500000 0.106223
O O2 0.252070 0.758495 0.164904
O O3 0.103018 0.704100 0.176222
O O4 0.146096 0.746531 0.010565
O O5 0.853786 0.737588 0.544658
O O6 0.000000 0.790555 0.500000
O O7 0.969525 0.763173 0.676013
O O8 0.922503 0.000000 0.576116
O O9 0.701208 0.733216 0.474609
O O10 0.578409 0.811025 0.550819
O O11 0.551688 0.762087 0.374415
O O12 0.634240 0.000000 0.439315
O O13 0.014655 0.500000 0.239176
O O14 0.950365 0.259660 0.153637
O O15 0.258403 0.753475 0.346306
O O16 0.393091 0.765795 0.275171
O O17 0.298934 0.000000 0.262869
O O18 0.903577 0.000000 0.074425
O O19 0.000000 0.176991 0.000000
O O20 0.234474 0.500000 0.432247
O O21 0.472162 0.000000 0.334414
#
# Coordination Sequence:
#
# PCOD9141665 Si02
#       8
#     4   4   4   4   4   4   4   4
#     4  10  18  27  40  62  87 111 140 174 211 251
#     4  11  23  36  49  63  79 105 144 184 218 255
#     4   8  13  25  41  54  73 102 137 171 202 242
#     4  10  19  31  46  62  83 107 134 174 218 257
#     4  10  17  26  41  58  81 112 144 174 204 244
#     4   9  17  28  43  61  81 108 141 172 203 246
#     4  11  20  29  41  59  80 105 136 173 217 256
#     4   7  12  22  37  56  75 102 138 171 201 235
#
# _framework density 14.910301
#
# number of rings (size 3 to 8) (size 9 to 14) (size 15 to 20)
#    0.000    2.500    1.250    4.500    0.000    3.500 
#    0.000    5.625    0.000    0.000    0.000    0.000 
#    0.000    0.000    0.000    1.125    0.000   22.500 
#
# Total GULP energy -178214.596203 kJ/mol
# GULP energy per Si atom -5569.206131 kJ/mol
# Density = 1.487636 g / cm^3
# Si number density = 14.910301 Si / 1000 Ang^3
#
#
#
# Elastic Constant Matrix: (Units=GPa)
#
#
# Indices 1 2 3 4 5 6 
#
# 1 95.7667 43.7850 52.5885 0.0000 41.8397 0.0000
# 2 43.7850 63.9246 35.5546 0.0000 17.2251 0.0000
# 3 52.5885 35.5546 48.4370 0.0000 27.1763 0.0000
# 4 0.0000 0.0000 0.0000 13.4558 0.0000 0.7188
# 5 41.8397 17.2251 27.1763 0.0000 31.8259 0.0000
# 6 0.0000 0.0000 0.0000 0.7188 0.0000 -1.9069
#
#
#
# Elastic Compliance Matrix: (Units=1/GPa)
#
#
# Indices 1 2 3 4 5 6 
#
# 1 0.035582 -0.006863 -0.018109 0.000000 -0.027600 0.000000
# 2 -0.006863 0.028077 -0.018611 0.000000 0.009718 0.000000
# 3 -0.018109 -0.018611 0.067112 0.000000 -0.023428 0.000000
# 4 0.000000 0.000000 0.000000 0.072850 0.000000 0.027459
# 5 -0.027600 0.009718 -0.023428 0.000000 0.082451 0.000000
# 6 0.000000 0.000000 0.000000 0.027459 0.000000 -0.514055
#
#
# Mechanical properties :
#
#
# Convention : Reuss Voigt Hill
#
# Bulk Modulus (GPa) = 22.93265 52.44274 37.68770
# Shear Modulus (GPa) = -39.59414 13.75497 -12.91959
#
# Velocity S-wave (km/s) = -5.15873 3.04059 -2.94681
# Velocity P-wave (km/s) = 4.47991 6.89749 3.70849
#
# Compressibility (1/GPa) = 0.04360595
#
# Stress axis : x y z
#
# Youngs Moduli (GPa) = 28.10395 35.61660 14.90041
#
# Poissons Ratio (x) = 0.24443 0.26983
# Poissons Ratio (y) = 0.19287 0.27731
# Poissons Ratio (z) = 0.50893 0.66286
#
# Static dielectric constant tensor:
#      x y z
#    x 1.513500 0.000000 0.040600 
#    y 0.000000 1.494240 0.000000 
#    z 0.040600 0.000000 1.479230 
# 
# From -- ./inp_files/54905.got.cif
#   From: 2010.05.17/outbox.cif.g08.bks.cpg/sg10_28_cif.got.tgz:54905.got - 2010.06.03 11:33:40.
