data_PCOD9141162
_publ_section_title
;
Structure prediction by ZEFSAII (Michael W. Deem and Ramdas Pophale) SiO2 
 PCOD9141162
Probable space group: C C
;
_chemical_formula_sum "Si O2"
_cell_formula_units_Z 32
_cell_length_a 26.242461
_cell_length_b 8.474484
_cell_length_c 9.248655
_cell_angle_alpha 90.000000
_cell_angle_beta 37.952014
_cell_angle_gamma 90.000000
_cell_volume 1264.947294
_symmetry_space_group_name_H-M "C C"
_symmetry_group_IT_number 9
_symmetry_cell_setting 'monoclinic'
loop_
_space_group_symop_operation_xyz
x,y,z
x,-y,1/2+z
1/2+x,1/2+y,z
1/2+x,1/2-y,1/2+z
loop_
_atom_site_type_symbol
_atom_site_label
_atom_site_fract_x
_atom_site_fract_y
_atom_site_fract_z
Si Si1 0.233120 0.823076 0.615910
Si Si2 0.452042 0.460189 0.964856
Si Si3 0.568483 0.528674 0.940986
Si Si4 0.712827 0.990397 0.797234
Si Si5 0.611495 0.123692 0.282974
Si Si6 0.350291 0.257645 0.594388
Si Si7 0.943185 0.472152 0.662817
Si Si8 0.364932 0.166111 0.053032
O O1 0.222821 0.637504 0.667235
O O2 0.289324 0.826580 0.345952
O O3 0.279264 0.874112 0.662844
O O4 0.150365 0.922793 0.776025
O O5 0.494525 0.436670 0.023917
O O6 0.527931 0.435240 0.685643
O O7 0.414941 0.633981 0.035499
O O8 0.378867 0.341620 0.081669
O O9 0.588087 0.692532 0.813470
O O10 0.642368 0.886516 0.878505
O O11 0.791616 0.877982 0.636994
O O12 0.682068 0.071060 0.013118
O O13 0.540268 0.991681 0.421870
O O14 0.402006 0.147408 0.369906
O O15 0.899263 0.433426 0.610933
O O16 0.924915 0.638622 0.782269
#
# Coordination Sequence:
#
# PCOD9141162 Si02
#       8
#     4   4   4   4   4   4   4   4
#     4  12  29  53  77 125 160 220 268 343 410 498
#     4  12  27  52  80 117 157 213 269 336 401 485
#     4  12  30  50  83 115 162 209 279 333 413 481
#     4  12  28  49  81 115 173 212 268 336 422 487
#     4  12  29  52  77 122 163 218 271 344 411 490
#     4  12  29  51  83 119 163 216 270 339 409 495
#     4  12  29  49  84 117 158 217 274 337 403 493
#     4  12  27  50  81 116 166 207 275 332 413 481
#
# _framework density 25.297498000000001
#
# number of rings (size 3 to 8) (size 9 to 14) (size 15 to 20)
#    0.000    0.000    3.750    3.750   14.000    2.000 
#    0.000    0.000    0.000    0.000    0.000    0.000 
#    0.000    0.000    0.000    0.000    0.000    0.000 
#
# Total GULP energy -89525.355559 kJ/mol
# GULP energy per Si atom -5595.334722 kJ/mol
# Density = 2.523992 g / cm^3
# Si number density = 25.297498 Si / 1000 Ang^3
#
#
#
# Elastic Constant Matrix: (Units=GPa)
#
#
# Indices 1 2 3 4 5 6 
#
# 1 171.4785 70.3269 31.6584 0.0000 -9.4337 0.0000
# 2 70.3269 103.0884 47.1506 0.0000 -14.4077 0.0000
# 3 31.6584 47.1506 100.1019 0.0000 -6.7528 0.0000
# 4 0.0000 0.0000 0.0000 44.9917 0.0000 -7.2897
# 5 -9.4337 -14.4077 -6.7528 0.0000 46.5595 0.0000
# 6 0.0000 0.0000 0.0000 -7.2897 0.0000 51.0572
#
#
#
# Elastic Compliance Matrix: (Units=1/GPa)
#
#
# Indices 1 2 3 4 5 6 
#
# 1 0.008098 -0.005558 0.000052 0.000000 -0.000072 0.000000
# 2 -0.005558 0.016612 -0.005853 0.000000 0.003165 0.000000
# 3 0.000052 -0.005853 0.012733 0.000000 0.000046 0.000000
# 4 0.000000 0.000000 0.000000 0.022753 0.000000 0.003249
# 5 -0.000072 0.003165 0.000046 0.000000 0.022450 0.000000
# 6 0.000000 0.000000 0.000000 0.003249 0.000000 0.020050
#
#
# Mechanical properties :
#
#
# Convention : Reuss Voigt Hill
#
# Bulk Modulus (GPa) = 67.91375 74.77118 71.34246
# Shear Modulus (GPa) = 38.36689 43.55720 40.96205
#
# Velocity S-wave (km/s) = 3.89862 4.15396 4.02831
# Velocity P-wave (km/s) = 6.86804 7.25452 7.06392
#
# Compressibility (1/GPa) = 0.01472456
#
# Stress axis : x y z
#
# Youngs Moduli (GPa) = 123.49474 60.19881 78.53339
#
# Poissons Ratio (x) = 0.33459 -0.00410
# Poissons Ratio (y) = 0.68639 0.45967
# Poissons Ratio (z) = -0.00645 0.35236
#
# Static dielectric constant tensor:
#      x y z
#    x 2.016010 0.000000 -0.027900 
#    y 0.000000 2.103320 0.000000 
#    z -0.027900 0.000000 1.961030 
# 
# From -- ./inp_files/12424.got.cif
#   From: 2010.05.17/outbox.cif.g08.bks.cpg/sg9_7_cif.got.tgz:12424.got - 2010.06.03 20:04:27.
