data_PCOD9141248
_publ_section_title
;
Structure prediction by ZEFSAII (Michael W. Deem and Ramdas Pophale) SiO2 
 PCOD9141248
Probable space group: C C
;
_chemical_formula_sum "Si O2"
_cell_formula_units_Z 16
_cell_length_a 15.000000
_cell_length_b 12.000000
_cell_length_c 9.000000
_cell_angle_alpha 90.000000
_cell_angle_beta 60.000000
_cell_angle_gamma 90.000000
_cell_volume 1402.961154
_symmetry_space_group_name_H-M "C C"
_symmetry_group_IT_number 9
_symmetry_cell_setting 'monoclinic'
loop_
_space_group_symop_operation_xyz
x,y,z
x,-y,1/2+z
1/2+x,1/2+y,z
1/2+x,1/2-y,1/2+z
loop_
_atom_site_type_symbol
_atom_site_label
_atom_site_fract_x
_atom_site_fract_y
_atom_site_fract_z
Si Si1 0.634420 0.140123 0.819390
Si Si2 0.001511 0.158081 0.412663
Si Si3 0.854496 0.373015 0.986002
Si Si4 0.004064 0.973280 0.605733
Si Si5 0.243799 0.042800 0.877784
Si Si6 0.584716 0.937910 0.694915
Si Si7 0.293341 0.259919 0.001037
Si Si8 0.797031 0.144458 0.169423
O O1 0.601520 0.268084 0.839625
O O2 0.749683 0.156056 0.662775
O O3 0.576830 0.068436 0.740921
O O4 0.607515 0.090966 0.003518
O O5 0.004182 0.069045 0.275244
O O6 0.912717 0.242416 0.439580
O O7 0.986242 0.102350 0.585068
O O8 0.786531 0.429061 0.912907
O O9 0.976321 0.387095 0.845348
O O10 0.815012 0.427295 0.176048
O O11 0.824749 0.245378 0.036861
O O12 0.120958 0.953874 0.446619
O O13 0.906040 0.918746 0.603519
O O14 0.258116 0.134715 0.996587
O O15 0.690431 0.906754 0.695786
O O16 0.272594 0.316353 0.858017
#
# Coordination Sequence:
#
# PCOD9141248 Si02
#       8
#     4   4   4   4   4   4   4   4
#     4  12  26  46  72 103 146 197 241 314 367 439
#     4  11  25  45  73 106 145 190 240 304 371 442
#     4  11  26  43  71 105 146 195 252 302 374 433
#     4  11  24  45  72 108 146 188 245 297 375 443
#     4  11  23  44  74 104 148 194 245 308 363 450
#     4  12  27  46  71 104 150 194 259 307 372 443
#     4  10  23  44  70 100 142 192 246 295 378 431
#     4  10  26  45  75 106 145 198 242 317 368 453
#
# _framework density 11.404450000000001
#
# number of rings (size 3 to 8) (size 9 to 14) (size 15 to 20)
#    0.000    1.000    1.250    3.750    5.250    8.000 
#    0.000    0.000    0.000    0.000    0.000    0.000 
#    0.000    0.000    0.000    0.000    0.000    0.000 
#
# Total GULP energy -89281.349792 kJ/mol
# GULP energy per Si atom -5580.084362 kJ/mol
# Density = 1.137849 g / cm^3
# Si number density = 11.404450 Si / 1000 Ang^3
#
#
#
# Elastic Constant Matrix: (Units=GPa)
#
#
# Indices 1 2 3 4 5 6 
#
# 1 109.1776 27.3054 34.5273 0.0000 -24.0269 0.0000
# 2 27.3054 70.9737 18.1941 0.0000 -3.9713 0.0000
# 3 34.5273 18.1941 112.1608 0.0000 -11.7969 0.0000
# 4 0.0000 0.0000 0.0000 31.7184 0.0000 2.7103
# 5 -24.0269 -3.9713 -11.7969 0.0000 35.2653 0.0000
# 6 0.0000 0.0000 0.0000 2.7103 0.0000 28.6077
#
#
#
# Elastic Compliance Matrix: (Units=1/GPa)
#
#
# Indices 1 2 3 4 5 6 
#
# 1 0.012476 -0.003762 -0.002468 0.000000 0.007251 0.000000
# 2 -0.003762 0.015862 -0.001551 0.000000 -0.001296 0.000000
# 3 -0.002468 -0.001551 0.010087 0.000000 0.001518 0.000000
# 4 0.000000 0.000000 0.000000 0.031785 0.000000 -0.003011
# 5 0.007251 -0.001296 0.001518 0.000000 0.033659 0.000000
# 6 0.000000 0.000000 0.000000 -0.003011 0.000000 0.035241
#
#
# Mechanical properties :
#
#
# Convention : Reuss Voigt Hill
#
# Bulk Modulus (GPa) = 43.73749 50.26286 47.00018
# Shear Modulus (GPa) = 30.80852 33.27063 32.03958
#
# Velocity S-wave (km/s) = 3.67921 3.82340 3.75199
# Velocity P-wave (km/s) = 6.10459 6.44791 6.27859
#
# Compressibility (1/GPa) = 0.02286368
#
# Stress axis : x y z
#
# Youngs Moduli (GPa) = 80.15108 63.04328 99.13955
#
# Poissons Ratio (x) = 0.23715 0.24466
# Poissons Ratio (y) = 0.30150 0.15380
# Poissons Ratio (z) = 0.19780 0.09780
#
# Static dielectric constant tensor:
#      x y z
#    x 1.862180 0.000000 -0.067890 
#    y 0.000000 1.920780 0.000000 
#    z -0.067890 0.000000 1.877120 
# 
# From -- ./inp_files/9238.got.cif
#   From: 2010.05.17/outbox.ucp.g08.bks.cvg/sg9_5_cif.got.tgz:9238.got - 2010.06.11 13:03:20.
