data_PCOD9141209
_publ_section_title
;
Structure prediction by ZEFSAII (Michael W. Deem and Ramdas Pophale) SiO2 
 PCOD9141209
Probable space group: C C
;
_chemical_formula_sum "Si O2"
_cell_formula_units_Z 16
_cell_length_a 21.000000
_cell_length_b 15.000000
_cell_length_c 15.000000
_cell_angle_alpha 90.000000
_cell_angle_beta 20.000000
_cell_angle_gamma 90.000000
_cell_volume 1616.045177
_symmetry_space_group_name_H-M "C C"
_symmetry_group_IT_number 9
_symmetry_cell_setting 'monoclinic'
loop_
_space_group_symop_operation_xyz
x,y,z
x,-y,1/2+z
1/2+x,1/2+y,z
1/2+x,1/2-y,1/2+z
loop_
_atom_site_type_symbol
_atom_site_label
_atom_site_fract_x
_atom_site_fract_y
_atom_site_fract_z
Si Si1 0.767650 0.475063 0.010300
Si Si2 0.617725 0.357738 0.358100
Si Si3 0.969569 0.839460 0.085383
Si Si4 0.610174 0.333469 0.697371
Si Si5 0.675844 0.039578 0.057482
Si Si6 0.524056 0.202847 0.343434
Si Si7 0.682985 0.681382 0.483946
Si Si8 0.333681 0.648791 0.396005
O O1 0.638982 0.442039 0.263111
O O2 0.732752 0.576579 0.027932
O O3 0.725586 0.406258 0.985728
O O4 0.978559 0.463352 0.766668
O O5 0.572526 0.272905 0.355405
O O6 0.474006 0.361707 0.627734
O O7 0.822742 0.338025 0.125452
O O8 0.831747 0.922664 0.284989
O O9 0.858085 0.747274 0.247564
O O10 0.043499 0.835838 0.887856
O O11 0.118450 0.842536 0.969591
O O12 0.445877 0.342891 0.841069
O O13 0.714905 0.239715 0.542374
O O14 0.660390 0.118470 0.151463
O O15 0.717979 0.943424 0.043761
O O16 0.535491 0.258506 0.234996
#
# Coordination Sequence:
#
# PCOD9141209 Si02
#       8
#     4   4   4   4   4   4   4   4
#     4  10  22  40  63  91 119 150 197 251 301 357
#     4  10  20  38  62  88 117 153 192 239 295 353
#     4  11  21  39  63  90 120 159 199 244 299 355
#     4  12  26  42  58  84 122 164 203 245 294 354
#     4  10  21  40  63  89 119 152 197 251 301 355
#     4   9  18  35  63  93 116 143 191 247 297 348
#     4  10  19  36  65  95 120 149 196 253 301 350
#     4  12  25  42  59  84 123 164 201 244 294 354
#
# _framework density 9.9007129999999997
#
# number of rings (size 3 to 8) (size 9 to 14) (size 15 to 20)
#    0.000    1.500    0.000    7.500    0.000    1.000 
#    0.000    7.500    0.000    0.000    0.000    0.000 
#    0.000    0.000    0.000    0.000    0.000    0.000 
#
# Total GULP energy -89387.198602 kJ/mol
# GULP energy per Si atom -5586.699913 kJ/mol
# Density = 0.987818 g / cm^3
# Si number density = 9.900713 Si / 1000 Ang^3
#
#
#
# Elastic Constant Matrix: (Units=GPa)
#
#
# Indices 1 2 3 4 5 6 
#
# 1 135.5335 43.9532 45.3365 -0.0006 4.6389 -0.0004
# 2 43.9532 151.3618 34.4709 -0.0025 -3.7452 -0.0006
# 3 45.3365 34.4709 51.9598 -0.0023 2.3433 -0.0005
# 4 -0.0006 -0.0025 -0.0023 30.3093 0.0010 -8.8849
# 5 4.6389 -3.7452 2.3433 0.0010 23.6674 0.0005
# 6 -0.0004 -0.0006 -0.0005 -8.8849 0.0005 29.1655
#
#
#
# Elastic Compliance Matrix: (Units=1/GPa)
#
#
# Indices 1 2 3 4 5 6 
#
# 1 0.010633 -0.001208 -0.008411 -0.000001 -0.001442 0.000000
# 2 -0.001208 0.007993 -0.004336 0.000000 0.001931 0.000000
# 3 -0.008411 -0.004336 0.029550 0.000002 -0.001963 0.000001
# 4 -0.000001 0.000000 0.000002 0.036228 -0.000002 0.011036
# 5 -0.001442 0.001931 -0.001963 -0.000002 0.043035 -0.000001
# 6 0.000000 0.000000 0.000001 0.011036 -0.000001 0.037649
#
#
# Mechanical properties :
#
#
# Convention : Reuss Voigt Hill
#
# Bulk Modulus (GPa) = 49.34433 65.15291 57.24862
# Shear Modulus (GPa) = 25.03104 30.96806 27.99955
#
# Velocity S-wave (km/s) = 3.55928 3.95895 3.76442
# Velocity P-wave (km/s) = 6.47031 7.33977 6.91871
#
# Compressibility (1/GPa) = 0.02026575
#
# Stress axis : x y z
#
# Youngs Moduli (GPa) = 94.04803 125.11613 33.84147
#
# Poissons Ratio (x) = 0.15111 0.28465
# Poissons Ratio (y) = 0.11359 0.14673
# Poissons Ratio (z) = 0.79106 0.54246
#
# Static dielectric constant tensor:
#      x y z
#    x 1.676710 0.000000 -0.005550 
#    y 0.000000 1.687900 0.000000 
#    z -0.005550 0.000000 1.724810 
# 
# From -- ./inp_files/7452.got.cif
#   From: 2010.05.17/outbox.ucp.g08.bks.cvg/sg9_4_cif.got.tgz:7452.got - 2010.06.11 13:03:20.
