data_PCOD9141663
_publ_section_title
;
Structure prediction by ZEFSAII (Michael W. Deem and Ramdas Pophale) SiO2 
 PCOD9141663
Probable space group: P 2/M
;
_chemical_formula_sum "Si O2"
_cell_formula_units_Z 32
_cell_length_a 15.123374
_cell_length_b 16.627412
_cell_length_c 15.153408
_cell_angle_alpha 90.000000
_cell_angle_beta 148.481748
_cell_angle_gamma 90.000000
_cell_volume 1992.023471
_symmetry_space_group_name_H-M "P 2/M"
_symmetry_group_IT_number 10
_symmetry_cell_setting 'monoclinic'
loop_
_space_group_symop_operation_xyz
x,y,z
-x,y,-z
-x,-y,-z
x,-y,z
loop_
_atom_site_type_symbol
_atom_site_label
_atom_site_fract_x
_atom_site_fract_y
_atom_site_fract_z
Si Si1 0.370905 0.346761 0.466081
Si Si2 0.003821 0.625321 0.900792
Si Si3 0.430361 0.402055 0.710068
Si Si4 0.702627 0.155981 0.601914
Si Si5 0.371708 0.905911 0.262679
Si Si6 0.054772 0.402126 0.448159
Si Si7 0.776753 0.409195 0.075170
Si Si8 0.055988 0.816350 0.946724
O O1 0.500000 0.372575 0.500000
O O2 0.185908 0.385561 0.297255
O O3 0.444695 0.368447 0.623571
O O4 0.341068 0.250872 0.430591
O O5 0.136690 0.586682 0.947480
O O6 0.052496 0.720030 0.938768
O O7 0.000000 0.600708 0.000000
O O8 0.436348 0.500000 0.711677
O O9 0.246149 0.377152 0.588900
O O10 0.590355 0.373375 0.903817
O O11 0.668915 0.117210 0.669614
O O12 0.568999 0.116746 0.421745
O O13 0.903397 0.150251 0.756906
O O14 0.343957 0.000000 0.226166
O O15 0.240331 0.854258 0.093320
O O16 0.056749 0.500000 0.444547
O O17 0.000000 0.379904 0.500000
O O18 0.916257 0.372010 0.259305
O O19 0.748983 0.500000 0.084982
O O20 0.000000 0.834959 0.000000
#
# Coordination Sequence:
#
# PCOD9141663 Si02
#       8
#     4   4   4   4   4   4   4   4
#     4  11  19  30  47  62  90 127 159 199 228 270
#     4  10  19  30  45  63  89 126 160 195 227 269
#     4  10  21  33  47  70  92 117 157 196 235 279
#     4   9  17  27  38  57  78 109 150 188 219 266
#     4  10  17  26  41  57  78 109 150 195 225 253
#     4   9  18  35  54  70  92 116 145 194 242 283
#     4  10  20  33  48  69  93 117 153 196 234 277
#     4   8  17  27  37  56  78 107 149 186 216 266
#
# _framework density 16.064067000000001
#
# number of rings (size 3 to 8) (size 9 to 14) (size 15 to 20)
#    0.000    2.375    2.500    2.250    1.750    3.750 
#    0.000    2.500    0.000    0.000    0.000    0.000 
#    0.000    0.000    0.000    0.000    0.000    6.875 
#
# Total GULP energy -178203.079212 kJ/mol
# GULP energy per Si atom -5568.846225 kJ/mol
# Density = 1.602750 g / cm^3
# Si number density = 16.064067 Si / 1000 Ang^3
#
#
#
# Elastic Constant Matrix: (Units=GPa)
#
#
# Indices 1 2 3 4 5 6 
#
# 1 62.5245 1.0762 38.8796 0.0000 2.5642 0.0000
# 2 1.0762 26.6160 19.3376 0.0000 6.4032 0.0000
# 3 38.8796 19.3376 152.1124 0.0000 20.4274 0.0000
# 4 0.0000 0.0000 0.0000 14.8711 0.0000 4.3348
# 5 2.5642 6.4032 20.4274 0.0000 17.4349 0.0000
# 6 0.0000 0.0000 0.0000 4.3348 0.0000 -4.7888
#
#
#
# Elastic Compliance Matrix: (Units=1/GPa)
#
#
# Indices 1 2 3 4 5 6 
#
# 1 0.019353 0.002654 -0.005662 0.000000 0.002812 0.000000
# 2 0.002654 0.043521 -0.004761 0.000000 -0.010795 0.000000
# 3 -0.005662 -0.004761 0.009826 0.000000 -0.008931 0.000000
# 4 0.000000 0.000000 0.000000 0.053206 0.000000 0.048161
# 5 0.002812 -0.010795 -0.008931 0.000000 0.071371 0.000000
# 6 0.000000 0.000000 0.000000 0.048161 0.000000 -0.165225
#
#
# Mechanical properties :
#
#
# Convention : Reuss Voigt Hill
#
# Bulk Modulus (GPa) = 17.49405 39.98220 28.73812
# Shear Modulus (GPa) = 75.02522 17.63406 46.32964
#
# Velocity S-wave (km/s) = 6.84143 3.31680 5.37617
# Velocity P-wave (km/s) = 8.56275 6.29376 7.51439
#
# Compressibility (1/GPa) = 0.05716231
#
# Stress axis : x y z
#
# Youngs Moduli (GPa) = 51.67054 22.97763 101.77192
#
# Poissons Ratio (x) = -0.06099 0.57621
# Poissons Ratio (y) = -0.13716 0.48458
# Poissons Ratio (z) = 0.29255 0.10941
#
# Static dielectric constant tensor:
#      x y z
#    x 1.511240 0.000000 0.024740 
#    y 0.000000 1.542580 0.000000 
#    z 0.024740 0.000000 1.613400 
# 
# From -- ./inp_files/67739.got.cif
#   From: 2010.05.17/outbox.cif.g08.bks.cpg/sg10_34_cif.got.tgz:67739.got - 2010.06.03 11:33:40.
