data_PCOD9141597
_publ_section_title
;
Structure prediction by ZEFSAII (Michael W. Deem and Ramdas Pophale) SiO2 
 PCOD9141597
Probable space group: P 2/M
;
_chemical_formula_sum "Si O2"
_cell_formula_units_Z 32
_cell_length_a 16.566563
_cell_length_b 9.045212
_cell_length_c 31.498923
_cell_angle_alpha 90.000000
_cell_angle_beta 150.640311
_cell_angle_gamma 90.000000
_cell_volume 2314.197981
_symmetry_space_group_name_H-M "P 2/M"
_symmetry_group_IT_number 10
_symmetry_cell_setting 'monoclinic'
loop_
_space_group_symop_operation_xyz
x,y,z
-x,y,-z
-x,-y,-z
x,-y,z
loop_
_atom_site_type_symbol
_atom_site_label
_atom_site_fract_x
_atom_site_fract_y
_atom_site_fract_z
Si Si1 0.106787 0.323478 0.313147
Si Si2 0.788575 0.822669 0.987265
Si Si3 0.854052 0.678838 0.838428
Si Si4 0.326429 0.323016 0.331228
Si Si5 0.416560 0.820856 0.026038
Si Si6 0.244319 0.178894 0.859501
Si Si7 0.612372 0.170178 0.508856
Si Si8 0.200018 0.329997 0.093750
O O1 0.097536 0.500000 0.312233
O O2 0.196782 0.287346 0.309469
O O3 0.224120 0.258587 0.403598
O O4 0.927260 0.252126 0.230905
O O5 0.660972 0.772984 0.965098
O O6 0.967355 0.754659 0.080078
O O7 0.799921 0.000000 0.992825
O O8 0.740992 0.767098 0.918517
O O9 0.877173 0.500000 0.849858
O O10 0.751087 0.717774 0.749523
O O11 0.764879 0.718869 0.841970
O O12 0.351218 0.500000 0.343581
O O13 0.497454 0.244018 0.420732
O O14 0.301337 0.778406 0.933362
O O15 0.418160 0.000000 0.026770
O O16 0.603022 0.775850 0.100679
O O17 0.229389 0.000000 0.851423
O O18 0.500000 0.173695 0.500000
O O19 0.649405 0.000000 0.516056
O O20 0.252451 0.500000 0.111983
O O21 0.000000 0.328114 0.000000
#
# Coordination Sequence:
#
# PCOD9141597 Si02
#       8
#     4   4   4   4   4   4   4   4
#     4  10  18  27  40  59  81 103 130 163 198 229
#     4  10  17  25  39  58  78 101 133 168 198 226
#     4   9  17  28  40  55  78 107 134 158 192 236
#     4   9  17  28  41  57  79 105 130 161 197 228
#     4   8  16  28  41  57  77 103 133 166 200 231
#     4   9  16  29  44  55  74 105 137 164 194 232
#     4   9  17  28  41  57  77 103 133 160 188 228
#     4   8  15  27  39  52  74 104 133 158 189 233
#
# _framework density 13.827684
#
# number of rings (size 3 to 8) (size 9 to 14) (size 15 to 20)
#    0.000    3.000    0.000    3.375    0.000    4.750 
#    0.000    3.125    0.000    0.000    0.000    0.000 
#    0.000    1.000    0.000   11.500    0.000    3.500 
#
# Total GULP energy -178171.425783 kJ/mol
# GULP energy per Si atom -5567.857056 kJ/mol
# Density = 1.379621 g / cm^3
# Si number density = 13.827684 Si / 1000 Ang^3
#
#
#
# Elastic Constant Matrix: (Units=GPa)
#
#
# Indices 1 2 3 4 5 6 
#
# 1 101.8112 36.3383 56.2871 0.0000 -8.2273 0.0000
# 2 36.3383 37.3640 42.7116 0.0000 -0.6986 0.0000
# 3 56.2871 42.7116 111.6004 0.0000 -4.0023 0.0000
# 4 0.0000 0.0000 0.0000 20.7024 0.0000 -5.1597
# 5 -8.2273 -0.6986 -4.0023 0.0000 21.5495 0.0000
# 6 0.0000 0.0000 0.0000 -5.1597 0.0000 10.8796
#
#
#
# Elastic Compliance Matrix: (Units=1/GPa)
#
#
# Indices 1 2 3 4 5 6 
#
# 1 0.016435 -0.011777 -0.003594 0.000000 0.005225 0.000000
# 2 -0.011777 0.056093 -0.015729 0.000000 -0.005599 0.000000
# 3 -0.003594 -0.015729 0.016838 0.000000 0.001245 0.000000
# 4 0.000000 0.000000 0.000000 0.054778 0.000000 0.025979
# 5 0.005225 -0.005599 0.001245 0.000000 0.048449 0.000000
# 6 0.000000 0.000000 0.000000 0.025979 0.000000 0.104236
#
#
# Mechanical properties :
#
#
# Convention : Reuss Voigt Hill
#
# Bulk Modulus (GPa) = 36.81217 57.93886 47.37551
# Shear Modulus (GPa) = 13.58382 18.32219 15.95300
#
# Velocity S-wave (km/s) = 3.13767 3.64405 3.40030
# Velocity P-wave (km/s) = 6.30924 7.72639 7.05350
#
# Compressibility (1/GPa) = 0.02716493
#
# Stress axis : x y z
#
# Youngs Moduli (GPa) = 60.84531 17.82760 59.39054
#
# Poissons Ratio (x) = 0.20996 0.21348
# Poissons Ratio (y) = 0.71660 0.93413
# Poissons Ratio (z) = 0.21870 0.28040
#
# Static dielectric constant tensor:
#      x y z
#    x 1.460030 0.000000 -0.015110 
#    y 0.000000 1.464080 0.000000 
#    z -0.015110 0.000000 1.435550 
# 
# From -- ./inp_files/72533.got.cif
#   From: 2010.05.17/outbox.cif.g08.bks.cpg/sg10_37_cif.got.tgz:72533.got - 2010.06.03 11:33:40.
