data_PCOD9141766
_publ_section_title
;
Structure prediction by ZEFSAII (Michael W. Deem and Ramdas Pophale) SiO2 
 PCOD9141766
Probable space group: P 2/M
;
_chemical_formula_sum "Si O2"
_cell_formula_units_Z 32
_cell_length_a 15.094336
_cell_length_b 7.260456
_cell_length_c 14.741792
_cell_angle_alpha 90.000000
_cell_angle_beta 126.337719
_cell_angle_gamma 90.000000
_cell_volume 1301.410852
_symmetry_space_group_name_H-M "P 2/M"
_symmetry_group_IT_number 10
_symmetry_cell_setting 'monoclinic'
loop_
_space_group_symop_operation_xyz
x,y,z
-x,y,-z
-x,-y,-z
x,-y,z
loop_
_atom_site_type_symbol
_atom_site_label
_atom_site_fract_x
_atom_site_fract_y
_atom_site_fract_z
Si Si1 0.058582 0.275210 0.794355
Si Si2 0.657273 0.275565 0.357127
Si Si3 0.178805 0.725280 0.053185
Si Si4 0.586325 0.296831 0.825431
Si Si5 0.845990 0.276126 0.766450
Si Si6 0.625824 0.213554 0.048544
Si Si7 0.378412 0.723449 0.456491
Si Si8 0.187514 0.293944 0.701083
O O1 0.065619 0.500000 0.795538
O O2 0.101452 0.211827 0.721715
O O3 0.935463 0.220808 0.746187
O O4 0.130597 0.217260 0.926497
O O5 0.661299 0.500000 0.351670
O O6 0.535795 0.215360 0.248493
O O7 0.653379 0.225930 0.460003
O O8 0.760369 0.209983 0.359026
O O9 0.180131 0.500000 0.050735
O O10 0.304160 0.789989 0.148079
O O11 0.118934 0.776621 0.110425
O O12 0.574269 0.500000 0.775045
O O13 0.626517 0.309351 0.952869
O O14 0.846053 0.500000 0.765401
O O15 0.723444 0.217105 0.666772
O O16 0.703822 0.301932 0.169689
O O17 0.658183 0.000000 0.058583
O O18 0.500000 0.220315 0.000000
O O19 0.500000 0.786148 0.500000
O O20 0.382035 0.500000 0.456111
O O21 0.147624 0.500000 0.654238
#
# Coordination Sequence:
#
# PCOD9141766 Si02
#       8
#     4   4   4   4   4   4   4   4
#     4   9  16  25  39  61  89 123 159 190 225 274
#     4   9  17  26  41  62  85 118 160 191 221 272
#     4   9  15  23  39  63  89 120 157 188 223 276
#     4  10  17  27  45  67  91 124 158 187 226 273
#     4   9  16  25  38  60  93 123 152 197 240 268
#     4  11  21  30  42  65  98 128 154 187 232 278
#     4   9  16  27  40  58  89 125 153 187 238 285
#     4  10  18  30  46  65  92 127 160 188 223 276
#
# _framework density 24.588699999999999
#
# number of rings (size 3 to 8) (size 9 to 14) (size 15 to 20)
#    0.000    2.500    2.500    1.500    0.000    5.000 
#    0.000    0.625    0.000    3.750    0.000    1.750 
#    0.000   12.000    0.000    0.000    0.000    0.000 
#
# Total GULP energy -178540.212230 kJ/mol
# GULP energy per Si atom -5579.381632 kJ/mol
# Density = 2.453274 g / cm^3
# Si number density = 24.588700 Si / 1000 Ang^3
#
#
#
# Elastic Constant Matrix: (Units=GPa)
#
#
# Indices 1 2 3 4 5 6 
#
# 1 209.7544 10.2950 73.5113 0.0000 -22.7879 0.0000
# 2 10.2950 106.9903 -5.7033 0.0000 0.2482 0.0000
# 3 73.5113 -5.7033 83.0038 0.0000 -20.3874 0.0000
# 4 0.0000 0.0000 0.0000 93.1275 0.0000 -116.7255
# 5 -22.7879 0.2482 -20.3874 0.0000 45.3454 0.0000
# 6 0.0000 0.0000 0.0000 -116.7255 0.0000 85.0528
#
#
#
# Elastic Compliance Matrix: (Units=1/GPa)
#
#
# Indices 1 2 3 4 5 6 
#
# 1 0.007046 -0.001006 -0.006113 0.000000 0.000798 0.000000
# 2 -0.001006 0.009527 0.001583 0.000000 0.000154 0.000000
# 3 -0.006113 0.001583 0.018901 0.000000 0.005417 0.000000
# 4 0.000000 0.000000 0.000000 -0.014911 0.000000 -0.020463
# 5 0.000798 0.000154 0.005417 0.000000 0.024889 0.000000
# 6 0.000000 0.000000 0.000000 -0.020463 0.000000 -0.016326
#
#
# Mechanical properties :
#
#
# Convention : Reuss Voigt Hill
#
# Bulk Modulus (GPa) = 40.97857 61.77272 51.37564
# Shear Modulus (GPa) = 103.45086 66.14817 84.79952
#
# Velocity S-wave (km/s) = 6.49337 5.19233 5.87895
# Velocity P-wave (km/s) = 8.53934 7.81818 8.18670
#
# Compressibility (1/GPa) = 0.02440300
#
# Stress axis : x y z
#
# Youngs Moduli (GPa) = 141.92385 104.95978 52.90665
#
# Poissons Ratio (x) = 0.10556 0.32344
# Poissons Ratio (y) = 0.14274 -0.08376
# Poissons Ratio (z) = 0.86763 -0.16618
#
# Static dielectric constant tensor:
#      x y z
#    x 2.016540 0.000000 -0.016310 
#    y 0.000000 1.973520 0.000000 
#    z -0.016310 0.000000 1.893790 
# 
# From -- ./inp_files/66634.got.cif
#   From: 2010.05.17/outbox.cif.g08.bks.cpg/sg10_34_cif.got.tgz:66634.got - 2010.06.03 11:33:40.
