data_PCOD9141507
_publ_section_title
;
Structure prediction by ZEFSAII (Michael W. Deem and Ramdas Pophale) SiO2 
 PCOD9141507
Probable space group: P 2/M
;
_chemical_formula_sum "Si O2"
_cell_formula_units_Z 30
_cell_length_a 32.741257
_cell_length_b 9.456412
_cell_length_c 12.844840
_cell_angle_alpha 90.000000
_cell_angle_beta 25.780738
_cell_angle_gamma 90.000000
_cell_volume 1729.689708
_symmetry_space_group_name_H-M "P 2/M"
_symmetry_group_IT_number 10
_symmetry_cell_setting 'monoclinic'
loop_
_space_group_symop_operation_xyz
x,y,z
-x,y,-z
-x,-y,-z
x,-y,z
loop_
_atom_site_type_symbol
_atom_site_label
_atom_site_fract_x
_atom_site_fract_y
_atom_site_fract_z
Si Si1 0.507059 0.833565 0.107651
Si Si2 0.671188 0.329183 0.418471
Si Si3 0.187928 0.670147 0.331974
Si Si4 0.000000 0.240955 0.500000
Si Si5 0.004474 0.158108 0.726060
Si Si6 0.279713 0.166014 0.307697
Si Si7 0.797500 0.166273 0.290991
Si Si8 0.209337 0.664434 0.051695
O O1 0.432433 0.735348 0.336912
O O2 0.484234 0.000000 0.175438
O O3 0.500000 0.806216 0.000000
O O4 0.612920 0.810088 0.903420
O O5 0.670417 0.500000 0.424015
O O6 0.728645 0.265168 0.383485
O O7 0.726619 0.277582 0.187844
O O8 0.188593 0.500000 0.333310
O O9 0.248643 0.736948 0.284084
O O10 0.222131 0.721767 0.138931
O O11 0.081794 0.728859 0.582589
O O12 0.996649 0.161342 0.618181
O O13 0.901149 0.323288 0.722182
O O14 0.034237 0.000000 0.689648
O O15 0.903137 0.187208 0.008236
O O16 0.215928 0.192944 0.555946
O O17 0.270077 0.000000 0.302210
O O18 0.772560 0.000000 0.330809
O O19 0.233178 0.500000 0.003077
#
# Coordination Sequence:
#
# PCOD9141507 Si02
#       8
#     4   4   4   2   4   4   4   4
#     4  10  20  38  61  83 110 145 181 223 282 338
#     4  11  21  34  55  87 117 140 180 230 277 327
#     4  10  22  39  57  77 111 153 191 225 272 328
#     4  10  16  30  54  80 111 144 191 228 269 320
#     4  10  20  33  53  83 114 146 188 229 273 323
#     4  10  21  39  61  79 106 145 188 228 272 331
#     4  10  20  36  56  81 114 150 181 222 281 334
#     4   9  19  34  53  79 113 152 182 221 277 330
#
# _framework density 17.344151
#
# number of rings (size 3 to 8) (size 9 to 14) (size 15 to 20)
#    0.000    2.000    2.667    1.200    0.000    2.933 
#    0.000    5.333    0.000    4.000    0.000    0.000 
#    0.000    0.000    0.000    0.000    0.000    0.000 
#
# Total GULP energy -167277.779569 kJ/mol
# GULP energy per Si atom -5575.925986 kJ/mol
# Density = 1.730467 g / cm^3
# Si number density = 17.344151 Si / 1000 Ang^3
#
#
#
# Elastic Constant Matrix: (Units=GPa)
#
#
# Indices 1 2 3 4 5 6 
#
# 1 110.2913 49.4956 44.0534 0.0000 0.5145 0.0000
# 2 49.4956 57.9399 36.6444 0.0000 1.7443 0.0000
# 3 44.0534 36.6444 96.6125 0.0000 12.0990 0.0000
# 4 0.0000 0.0000 0.0000 18.5855 0.0000 -1.5201
# 5 0.5145 1.7443 12.0990 0.0000 18.6009 0.0000
# 6 0.0000 0.0000 0.0000 -1.5201 0.0000 27.6177
#
#
#
# Elastic Compliance Matrix: (Units=1/GPa)
#
#
# Indices 1 2 3 4 5 6 
#
# 1 0.015313 -0.011231 -0.003050 0.000000 0.002613 0.000000
# 2 -0.011231 0.031190 -0.006948 0.000000 0.001905 0.000000
# 3 -0.003050 -0.006948 0.015551 0.000000 -0.009379 0.000000
# 4 0.000000 0.000000 0.000000 0.054049 0.000000 0.002975
# 5 0.002613 0.001905 -0.009379 0.000000 0.059611 0.000000
# 6 0.000000 0.000000 0.000000 0.002975 0.000000 0.036372
#
#
# Mechanical properties :
#
#
# Convention : Reuss Voigt Hill
#
# Bulk Modulus (GPa) = 51.02767 58.35895 54.69331
# Shear Modulus (GPa) = 19.15151 21.93750 20.54450
#
# Velocity S-wave (km/s) = 3.32656 3.56031 3.44542
# Velocity P-wave (km/s) = 6.65126 7.11490 6.88698
#
# Compressibility (1/GPa) = 0.01959721
#
# Stress axis : x y z
#
# Youngs Moduli (GPa) = 65.30344 32.06134 64.30414
#
# Poissons Ratio (x) = 0.36008 0.19612
# Poissons Ratio (y) = 0.73343 0.44676
# Poissons Ratio (z) = 0.19917 0.22275
#
# Static dielectric constant tensor:
#      x y z
#    x 1.577430 0.000000 0.016540 
#    y 0.000000 1.586330 0.000000 
#    z 0.016540 0.000000 1.594500 
# 
# From -- ./inp_files/57990.got.cif
#   From: 2010.05.17/outbox.cif.g08.bks.cpg/sg10_29_cif.got.tgz:57990.got - 2010.06.03 11:33:40.
