data_PCOD9141662
_publ_section_title
;
Structure prediction by ZEFSAII (Michael W. Deem and Ramdas Pophale) SiO2 
 PCOD9141662
Probable space group: P 2/M
;
_chemical_formula_sum "Si O2"
_cell_formula_units_Z 26
_cell_length_a 10.138401
_cell_length_b 8.423721
_cell_length_c 20.493711
_cell_angle_alpha 90.000000
_cell_angle_beta 42.092690
_cell_angle_gamma 90.000000
_cell_volume 1173.232178
_symmetry_space_group_name_H-M "P 2/M"
_symmetry_group_IT_number 10
_symmetry_cell_setting 'monoclinic'
loop_
_space_group_symop_operation_xyz
x,y,z
-x,y,-z
-x,-y,-z
x,-y,z
loop_
_atom_site_type_symbol
_atom_site_label
_atom_site_fract_x
_atom_site_fract_y
_atom_site_fract_z
Si Si1 0.206406 0.500000 0.884307
Si Si2 0.640672 0.500000 0.884307
Si Si3 0.112079 0.500000 0.091948
Si Si4 0.682741 0.175236 0.197077
Si Si5 0.139903 0.164845 0.073399
Si Si6 0.175744 0.310898 0.611646
Si Si7 0.226027 0.175236 0.197078
Si Si8 0.510684 0.689103 0.388353
O O1 0.317517 0.332984 0.847561
O O2 0.000000 0.500000 0.000000
O O3 0.116086 0.500000 0.843100
O O4 0.639801 0.332984 0.847561
O O5 0.500000 0.500000 0.000000
O O6 0.854616 0.500000 0.843099
O O7 0.205694 0.340029 0.029537
O O8 0.550066 0.214740 0.308382
O O9 0.635898 0.000000 0.187594
O O10 0.910519 0.164312 0.138173
O O11 0.226629 0.000000 0.015582
O O12 0.174960 0.164312 0.138174
O O13 0.137465 0.500000 0.619499
O O14 0.307048 0.287667 0.628635
O O15 0.315508 0.264138 0.500000
O O16 0.975214 0.214740 0.691617
O O17 0.301318 0.000000 0.187595
O O18 0.495963 0.500000 0.380501
#
# Coordination Sequence:
#
# PCOD9141662 Si02
#       8
#     2   2   2   4   4   4   4   4
#     4  10  20  32  45  60  81 107 140 185 225 251
#     4  10  20  32  45  60  81 107 140 185 225 251
#     4   8  16  28  44  56  75 100 131 170 212 256
#     4  10  17  26  41  57  78 108 141 175 209 246
#     4   8  14  22  35  55  73  98 134 165 198 233
#     4   9  16  24  37  58  85 116 148 177 204 242
#     4  10  17  26  41  57  78 108 141 175 209 246
#     4   9  16  24  37  58  85 116 148 177 204 242
#
# _framework density 22.161002
#
# number of rings (size 3 to 8) (size 9 to 14) (size 15 to 20)
#    0.000    2.769    3.077    0.923    0.000    1.231 
#    0.000    1.538    0.000    0.000    0.000    0.000 
#    0.000    0.000    0.000    2.769    0.000    3.538 
#
# Total GULP energy -144876.242693 kJ/mol
# GULP energy per Si atom -5572.163180 kJ/mol
# Density = 2.211056 g / cm^3
# Si number density = 22.161002 Si / 1000 Ang^3
#
#
#
# Elastic Constant Matrix: (Units=GPa)
#
#
# Indices 1 2 3 4 5 6 
#
# 1 39.7871 4.7489 13.5055 0.0000 -1.3583 0.0000
# 2 4.7489 260.3256 67.0043 0.0000 -3.3131 0.0000
# 3 13.5055 67.0043 140.3916 0.0000 -3.9959 0.0000
# 4 0.0000 0.0000 0.0000 -599.5222 0.0000 30.0060
# 5 -1.3583 -3.3131 -3.9959 0.0000 26.0428 0.0000
# 6 0.0000 0.0000 0.0000 30.0060 0.0000 -35.6852
#
#
#
# Elastic Compliance Matrix: (Units=1/GPa)
#
#
# Indices 1 2 3 4 5 6 
#
# 1 0.026016 0.000199 -0.002570 0.000000 0.000988 0.000000
# 2 0.000199 0.004382 -0.002104 0.000000 0.000245 0.000000
# 3 -0.002570 -0.002104 0.008399 0.000000 0.000887 0.000000
# 4 0.000000 0.000000 0.000000 -0.001741 0.000000 -0.001464
# 5 0.000988 0.000245 0.000887 0.000000 0.038617 0.000000
# 6 0.000000 0.000000 0.000000 -0.001464 0.000000 -0.029254
#
#
# Mechanical properties :
#
#
# Convention : Reuss Voigt Hill
#
# Bulk Modulus (GPa) = 33.50132 67.89130 50.69631
# Shear Modulus (GPa) = 76.54893 -98.14987 -10.80047
#
# Velocity S-wave (km/s) = 5.88364 -6.66225 -2.21003
# Velocity P-wave (km/s) = 7.82983 5.33655 4.05139
#
# Compressibility (1/GPa) = 0.02984957
#
# Stress axis : x y z
#
# Youngs Moduli (GPa) = 38.43787 228.19078 119.05566
#
# Poissons Ratio (x) = -0.04550 0.30594
# Poissons Ratio (y) = -0.00766 0.25046
# Poissons Ratio (z) = 0.09878 0.48005
#
# Static dielectric constant tensor:
#      x y z
#    x 1.882710 0.000000 0.005180 
#    y 0.000000 1.914420 0.000000 
#    z 0.005180 0.000000 1.785450 
# 
# From -- ./inp_files/48767.got.cif
#   From: 2010.05.17/outbox.cif.g08.bks.cpg/sg10_25_cif.got.tgz:48767.got - 2010.06.03 11:33:40.
