data_PCOD9141643
_publ_section_title
;
Structure prediction by ZEFSAII (Michael W. Deem and Ramdas Pophale) SiO2 
 PCOD9141643
Probable space group: P 2/M
;
_chemical_formula_sum "Si O2"
_cell_formula_units_Z 24
_cell_length_a 21.372216
_cell_length_b 8.778014
_cell_length_c 9.245897
_cell_angle_alpha 90.000000
_cell_angle_beta 49.320487
_cell_angle_gamma 90.000000
_cell_volume 1315.450658
_symmetry_space_group_name_H-M "P 2/M"
_symmetry_group_IT_number 10
_symmetry_cell_setting 'monoclinic'
loop_
_space_group_symop_operation_xyz
x,y,z
-x,y,-z
-x,-y,-z
x,-y,z
loop_
_atom_site_type_symbol
_atom_site_label
_atom_site_fract_x
_atom_site_fract_y
_atom_site_fract_z
Si Si1 0.915555 0.681599 0.962849
Si Si2 0.734784 0.817426 0.567726
Si Si3 0.918008 0.182708 0.285050
Si Si4 0.419314 0.682124 0.032271
Si Si5 0.580138 0.816090 0.288231
Si Si6 0.254990 0.816721 0.788258
O O1 0.918817 0.500000 0.964231
O O2 0.000221 0.746376 0.767553
O O3 0.914729 0.751173 0.126749
O O4 0.828917 0.738837 0.029901
O O5 0.827456 0.781023 0.483537
O O6 0.662829 0.736823 0.762838
O O7 0.731456 0.777787 0.401745
O O8 0.724220 0.000000 0.594217
O O9 0.926153 0.000000 0.265140
O O10 0.420204 0.500000 0.023736
O O11 0.500000 0.733340 0.000000
O O12 0.422183 0.749494 0.867884
O O13 0.500000 0.767402 0.500000
O O14 0.664377 0.773043 0.243274
O O15 0.578640 0.000000 0.281999
O O16 0.244222 0.000000 0.811069
#
# Coordination Sequence:
#
# PCOD9141643 Si02
#       6
#     4   4   4   4   4   4
#     4  10  17  25  43  73 106 139 173 209 255 309
#     4   9  18  33  55  79 103 136 177 218 258 303
#     4   9  16  28  46  70 102 137 175 219 260 296
#     4  11  24  38  53  77 109 141 170 207 260 316
#     4  10  21  38  60  81 101 132 176 220 259 305
#     4   9  18  33  53  78 106 136 173 218 264 305
#
# _framework density 18.244696999999999
#
# number of rings (size 3 to 8) (size 9 to 14) (size 15 to 20)
#    0.000    2.333    0.000    5.500    0.000    7.000 
#    0.000    0.000    0.000    1.000    0.000    7.000 
#    0.000    0.000    0.000    0.000    0.000    0.000 
#
# Total GULP energy -133859.804618 kJ/mol
# GULP energy per Si atom -5577.491859 kJ/mol
# Density = 1.820317 g / cm^3
# Si number density = 18.244697 Si / 1000 Ang^3
#
#
#
# Elastic Constant Matrix: (Units=GPa)
#
#
# Indices 1 2 3 4 5 6 
#
# 1 157.0536 54.0228 92.4017 0.0000 -38.8183 0.0000
# 2 54.0228 50.1955 42.7320 0.0000 -19.0111 0.0000
# 3 92.4017 42.7320 111.5119 0.0000 -31.2454 0.0000
# 4 0.0000 0.0000 0.0000 39.0835 0.0000 2.5289
# 5 -38.8183 -19.0111 -31.2454 0.0000 35.3042 0.0000
# 6 0.0000 0.0000 0.0000 2.5289 0.0000 21.8401
#
#
#
# Elastic Compliance Matrix: (Units=1/GPa)
#
#
# Indices 1 2 3 4 5 6 
#
# 1 0.014931 -0.007096 -0.008143 0.000000 0.005389 0.000000
# 2 -0.007096 0.034667 -0.005798 0.000000 0.005734 0.000000
# 3 -0.008143 -0.005798 0.019352 0.000000 0.005052 0.000000
# 4 0.000000 0.000000 0.000000 0.025779 0.000000 -0.002985
# 5 0.005389 0.005734 0.005052 0.000000 0.041810 0.000000
# 6 0.000000 0.000000 0.000000 -0.002985 0.000000 0.046133
#
#
# Mechanical properties :
#
#
# Convention : Reuss Voigt Hill
#
# Bulk Modulus (GPa) = 37.20718 77.45269 57.32994
# Shear Modulus (GPa) = 21.39449 27.88586 24.64017
#
# Velocity S-wave (km/s) = 3.42810 3.91376 3.67895
# Velocity P-wave (km/s) = 6.00890 7.93522 7.03827
#
# Compressibility (1/GPa) = 0.02687653
#
# Stress axis : x y z
#
# Youngs Moduli (GPa) = 66.97445 28.84603 51.67336
#
# Poissons Ratio (x) = 0.20470 0.42077
# Poissons Ratio (y) = 0.47527 0.29959
# Poissons Ratio (z) = 0.54536 0.16724
#
# Static dielectric constant tensor:
#      x y z
#    x 1.657630 0.000000 -0.033170 
#    y 0.000000 1.606810 0.000000 
#    z -0.033170 0.000000 1.620890 
# 
# From -- ./inp_files/33724.got.cif
#   From: 2010.05.17/outbox.cif.g08.bks.cpg/sg10_17_cif.got.tgz:33724.got - 2010.06.03 11:33:40.
