data_PCOD9141961
_publ_section_title
;
Structure prediction by ZEFSAII (Michael W. Deem and Ramdas Pophale) SiO2 
 PCOD9141961
Probable space group: P 2/M
;
_chemical_formula_sum "Si O2"
_cell_formula_units_Z 21
_cell_length_a 16.836014
_cell_length_b 8.942831
_cell_length_c 6.809644
_cell_angle_alpha 90.000000
_cell_angle_beta 54.297649
_cell_angle_gamma 90.000000
_cell_volume 832.581210
_symmetry_space_group_name_H-M "P 2/M"
_symmetry_group_IT_number 10
_symmetry_cell_setting 'monoclinic'
loop_
_space_group_symop_operation_xyz
x,y,z
-x,y,-z
-x,-y,-z
x,-y,z
loop_
_atom_site_type_symbol
_atom_site_label
_atom_site_fract_x
_atom_site_fract_y
_atom_site_fract_z
Si Si1 0.081425 0.500000 0.103104
Si Si2 0.822863 0.800999 0.108742
Si Si3 0.000000 0.000000 0.000000
Si Si4 0.865713 0.500000 0.513652
Si Si5 0.227942 0.828355 0.278874
Si Si6 0.364724 0.673085 0.514639
Si Si7 0.581947 0.672657 0.098234
O O1 0.142997 0.634407 0.936629
O O2 0.100900 0.500000 0.308312
O O3 0.965474 0.500000 0.246044
O O4 0.806779 0.837615 0.901253
O O5 0.719963 0.798497 0.373131
O O6 0.916551 0.877914 0.063919
O O7 0.816909 0.669083 0.572624
O O8 0.205709 0.000000 0.385906
O O9 0.342979 0.789008 0.104189
O O10 0.337142 0.500000 0.505821
O O11 0.466559 0.704878 0.257662
O O12 0.390438 0.671508 0.709815
O O13 0.599135 0.500000 0.008782
#
# Coordination Sequence:
#
# PCOD9141961 Si02
#       7
#     2   4   1   2   4   4   4
#     4   9  18  35  53  67  90 133 169 214 247 297
#     4  10  19  34  47  66  98 131 176 209 245 284
#     4  12  24  34  44  68 100 136 176 224 240 272
#     4   9  18  32  51  75 100 126 173 202 249 303
#     4  10  17  30  48  75 105 138 157 198 246 307
#     4   8  13  25  45  66  90 132 161 194 236 303
#     4   8  13  23  43  69 100 127 158 184 240 306
#
# _framework density 25.222763
#
# number of rings (size 3 to 8) (size 9 to 14) (size 15 to 20)
#    0.000    2.857    2.857    1.143    0.000    0.381 
#    3.429    3.810    0.000    0.000    0.000    0.000 
#    0.000    4.571    0.000    0.571    0.000    0.000 
#
# Total GULP energy -116924.149247 kJ/mol
# GULP energy per Si atom -5567.816631 kJ/mol
# Density = 2.516536 g / cm^3
# Si number density = 25.222763 Si / 1000 Ang^3
#
#
#
# Elastic Constant Matrix: (Units=GPa)
#
#
# Indices 1 2 3 4 5 6 
#
# 1 130.1993 44.5331 46.1752 0.0000 -19.9637 0.0000
# 2 44.5331 183.7487 46.8408 0.0000 -21.0363 0.0000
# 3 46.1752 46.8408 130.8562 0.0000 -9.0205 0.0000
# 4 0.0000 0.0000 0.0000 41.7495 0.0000 -22.4203
# 5 -19.9637 -21.0363 -9.0205 0.0000 49.3567 0.0000
# 6 0.0000 0.0000 0.0000 -22.4203 0.0000 61.6285
#
#
#
# Elastic Compliance Matrix: (Units=1/GPa)
#
#
# Indices 1 2 3 4 5 6 
#
# 1 0.009511 -0.001296 -0.002699 0.000000 0.002801 0.000000
# 2 -0.001296 0.006408 -0.001706 0.000000 0.001895 0.000000
# 3 -0.002699 -0.001706 0.009195 0.000000 -0.000138 0.000000
# 4 0.000000 0.000000 0.000000 0.029768 0.000000 0.010830
# 5 0.002801 0.001895 -0.000138 0.000000 0.022176 0.000000
# 6 0.000000 0.000000 0.000000 0.010830 0.000000 0.020166
#
#
# Mechanical properties :
#
#
# Convention : Reuss Voigt Hill
#
# Bulk Modulus (GPa) = 72.92760 79.98916 76.45838
# Shear Modulus (GPa) = 44.17076 51.03061 47.60068
#
# Velocity S-wave (km/s) = 4.18931 4.50288 4.34892
# Velocity P-wave (km/s) = 7.23716 7.66919 7.45631
#
# Compressibility (1/GPa) = 0.01371223
#
# Stress axis : x y z
#
# Youngs Moduli (GPa) = 105.14619 156.05041 108.74992
#
# Poissons Ratio (x) = 0.20229 0.29350
# Poissons Ratio (y) = 0.13630 0.18550
# Poissons Ratio (z) = 0.28378 0.26619
#
# Static dielectric constant tensor:
#      x y z
#    x 2.107510 0.000000 0.050960 
#    y 0.000000 1.888600 0.000000 
#    z 0.050960 0.000000 1.999020 
# 
# From -- ./inp_files/52587.got.cif
#   From: 2010.05.17/outbox.cif.g08.bks.cpg/sg10_27_cif.got.tgz:52587.got - 2010.06.03 11:33:40.
