data_PCOD9141943
_publ_section_title
;
Structure prediction by ZEFSAII (Michael W. Deem and Ramdas Pophale) SiO2 
 PCOD9141943
Probable space group: P 2/M
;
_chemical_formula_sum "Si O2"
_cell_formula_units_Z 32
_cell_length_a 18.995180
_cell_length_b 14.728085
_cell_length_c 13.262393
_cell_angle_alpha 90.000000
_cell_angle_beta 25.601628
_cell_angle_gamma 90.000000
_cell_volume 1603.272286
_symmetry_space_group_name_H-M "P 2/M"
_symmetry_group_IT_number 10
_symmetry_cell_setting 'monoclinic'
loop_
_space_group_symop_operation_xyz
x,y,z
-x,y,-z
-x,-y,-z
x,-y,z
loop_
_atom_site_type_symbol
_atom_site_label
_atom_site_fract_x
_atom_site_fract_y
_atom_site_fract_z
Si Si1 0.532870 0.639372 0.069642
Si Si2 0.391530 0.146620 0.045971
Si Si3 0.141429 0.601578 0.241959
Si Si4 0.184042 0.244715 0.787652
Si Si5 0.088839 0.273950 0.127650
Si Si6 0.808940 0.393187 0.380531
Si Si7 0.351204 0.898712 0.434244
Si Si8 0.111246 0.895447 0.549461
O O1 0.369928 0.621564 0.342393
O O2 0.500000 0.605675 0.000000
O O3 0.574437 0.746338 0.007222
O O4 0.691235 0.597137 0.914103
O O5 0.211283 0.125618 0.317682
O O6 0.500000 0.111096 0.000000
O O7 0.467177 0.106887 0.846485
O O8 0.091790 0.500000 0.273118
O O9 0.165822 0.666722 0.116084
O O10 0.000000 0.635673 0.500000
O O11 0.192013 0.344050 0.726626
O O12 0.307721 0.178100 0.571047
O O13 0.197865 0.252570 0.889399
O O14 0.000000 0.209923 0.000000
O O15 0.936791 0.334469 0.281677
O O16 0.023610 0.180363 0.258301
O O17 0.848160 0.500000 0.327031
O O18 0.232914 0.884352 0.489424
O O19 0.320521 0.000000 0.513255
O O20 0.057116 0.000000 0.618441
#
# Coordination Sequence:
#
# PCOD9141943 Si02
#       8
#     4   4   4   4   4   4   4   4
#     4  11  21  37  64  90 122 152 192 246 300 356
#     4   9  16  30  52  83 121 151 186 242 303 360
#     4  11  24  40  60  90 122 156 196 239 304 371
#     4  10  20  35  52  81 118 160 207 247 296 347
#     4  11  22  39  58  84 125 164 196 245 304 358
#     4  11  21  36  58  85 116 157 210 254 290 345
#     4  10  17  29  52  86 122 154 197 253 305 352
#     4  10  18  30  54  87 119 156 201 248 303 359
#
# _framework density 19.95918
#
# number of rings (size 3 to 8) (size 9 to 14) (size 15 to 20)
#    0.000    1.625    3.750    4.125    0.000    7.000 
#    0.000    0.625    0.000    5.625    0.000    0.875 
#    0.000    0.000    0.000    0.000    0.000    0.000 
#
# Total GULP energy -178677.203261 kJ/mol
# GULP energy per Si atom -5583.662602 kJ/mol
# Density = 1.991375 g / cm^3
# Si number density = 19.959180 Si / 1000 Ang^3
#
#
#
# Elastic Constant Matrix: (Units=GPa)
#
#
# Indices 1 2 3 4 5 6 
#
# 1 63.9168 27.9657 38.0191 0.0000 17.8661 0.0000
# 2 27.9657 145.6862 40.4550 0.0000 19.1965 0.0000
# 3 38.0191 40.4550 111.5860 0.0000 30.8433 0.0000
# 4 0.0000 0.0000 0.0000 2.2724 0.0000 3.0374
# 5 17.8661 19.1965 30.8433 0.0000 25.0345 0.0000
# 6 0.0000 0.0000 0.0000 3.0374 0.0000 -0.4532
#
#
#
# Elastic Compliance Matrix: (Units=1/GPa)
#
#
# Indices 1 2 3 4 5 6 
#
# 1 0.021368 -0.001783 -0.004241 0.000000 -0.008657 0.000000
# 2 -0.001783 0.008015 -0.001442 0.000000 -0.003096 0.000000
# 3 -0.004241 -0.001442 0.014841 0.000000 -0.014153 0.000000
# 4 0.000000 0.000000 0.000000 0.044191 0.000000 0.296164
# 5 -0.008657 -0.003096 -0.014153 0.000000 0.065933 0.000000
# 6 0.000000 0.000000 0.000000 0.296164 0.000000 -0.221570
#
#
# Mechanical properties :
#
#
# Convention : Reuss Voigt Hill
#
# Bulk Modulus (GPa) = 34.14043 59.34099 46.74071
# Shear Modulus (GPa) = -117.58065 19.68736 -48.94665
#
# Velocity S-wave (km/s) = -7.68365 3.14408 -4.95748
# Velocity P-wave (km/s) = 7.84702 6.55561 3.04956
#
# Compressibility (1/GPa) = 0.02929079
#
# Stress axis : x y z
#
# Youngs Moduli (GPa) = 46.79882 124.76789 67.37872
#
# Poissons Ratio (x) = 0.22252 0.28576
# Poissons Ratio (y) = 0.08346 0.09718
# Poissons Ratio (z) = 0.19848 0.17996
#
# Static dielectric constant tensor:
#      x y z
#    x 1.711520 0.000000 -0.004280 
#    y 0.000000 1.726860 0.000000 
#    z -0.004280 0.000000 1.719630 
# 
# From -- ./inp_files/54006.got.cif
#   From: 2010.05.17/outbox.cif.g08.bks.cpg/sg10_28_cif.got.tgz:54006.got - 2010.06.03 11:33:40.
