data_PCOD9141681
_publ_section_title
;
Structure prediction by ZEFSAII (Michael W. Deem and Ramdas Pophale) SiO2 
 PCOD9141681
Probable space group: P 2/M
;
_chemical_formula_sum "Si O2"
_cell_formula_units_Z 32
_cell_length_a 11.699876
_cell_length_b 9.054193
_cell_length_c 23.790560
_cell_angle_alpha 90.000000
_cell_angle_beta 54.415339
_cell_angle_gamma 90.000000
_cell_volume 2049.572357
_symmetry_space_group_name_H-M "P 2/M"
_symmetry_group_IT_number 10
_symmetry_cell_setting 'monoclinic'
loop_
_space_group_symop_operation_xyz
x,y,z
-x,y,-z
-x,-y,-z
x,-y,z
loop_
_atom_site_type_symbol
_atom_site_label
_atom_site_fract_x
_atom_site_fract_y
_atom_site_fract_z
Si Si1 0.187974 0.177992 0.298622
Si Si2 0.377236 0.669535 0.987316
Si Si3 0.424096 0.169593 0.149190
Si Si4 0.317334 0.320565 0.605638
Si Si5 0.631323 0.320284 0.536125
Si Si6 0.153195 0.677103 0.429269
Si Si7 0.016992 0.677784 0.734454
Si Si8 0.822457 0.169796 0.875128
O O1 0.341252 0.217213 0.228742
O O2 0.169527 0.237864 0.366327
O O3 0.073128 0.253158 0.290848
O O4 0.174707 0.000000 0.299152
O O5 0.337038 0.500000 0.991615
O O6 0.449205 0.734150 0.910986
O O7 0.500000 0.675144 0.000000
O O8 0.248215 0.761847 0.049370
O O9 0.301722 0.172392 0.136467
O O10 0.470044 0.000000 0.141748
O O11 0.318889 0.500000 0.605005
O O12 0.468553 0.272864 0.586261
O O13 0.311853 0.274476 0.541614
O O14 0.178607 0.276402 0.678830
O O15 0.632852 0.500000 0.535584
O O16 0.730140 0.274131 0.558787
O O17 0.167322 0.500000 0.415497
O O18 0.000000 0.701320 0.500000
O O19 0.006520 0.500000 0.735392
O O20 0.947781 0.737672 0.811452
O O21 0.862854 0.000000 0.871824
#
# Coordination Sequence:
#
# PCOD9141681 Si02
#       8
#     4   4   4   4   4   4   4   4
#     4  10  20  31  42  59  86 118 147 175 213 259
#     4   9  15  22  35  55  77 104 139 176 209 242
#     4   8  15  26  37  50  73 108 143 171 204 249
#     4   8  14  25  43  64  85 109 137 175 219 258
#     4   8  14  26  43  64  87 109 137 174 218 260
#     4  10  19  30  46  67  88 111 143 181 215 250
#     4  10  17  26  42  63  85 110 145 183 215 249
#     4   9  16  25  36  53  81 114 142 169 207 254
#
# _framework density 15.613011999999999
#
# number of rings (size 3 to 8) (size 9 to 14) (size 15 to 20)
#    0.000    3.000    0.000    3.750    0.000    7.250 
#    0.000    0.000    0.000    1.500    0.000    5.250 
#    0.000    1.000    0.000   11.500    0.000    5.625 
#
# Total GULP energy -178161.446886 kJ/mol
# GULP energy per Si atom -5567.545215 kJ/mol
# Density = 1.557748 g / cm^3
# Si number density = 15.613012 Si / 1000 Ang^3
#
#
#
# Elastic Constant Matrix: (Units=GPa)
#
#
# Indices 1 2 3 4 5 6 
#
# 1 48.9183 22.8933 40.8723 0.0000 -11.4088 0.0000
# 2 22.8933 57.7620 56.4265 0.0000 -8.7802 0.0000
# 3 40.8723 56.4265 136.4245 0.0000 -21.3743 0.0000
# 4 0.0000 0.0000 0.0000 23.2724 0.0000 3.6849
# 5 -11.4088 -8.7802 -21.3743 0.0000 17.7489 0.0000
# 6 0.0000 0.0000 0.0000 3.6849 0.0000 0.1253
#
#
#
# Elastic Compliance Matrix: (Units=1/GPa)
#
#
# Indices 1 2 3 4 5 6 
#
# 1 0.029512 -0.005152 -0.005100 0.000000 0.010279 0.000000
# 2 -0.005152 0.029949 -0.011144 0.000000 -0.001916 0.000000
# 3 -0.005100 -0.011144 0.014902 0.000000 0.009154 0.000000
# 4 0.000000 0.000000 0.000000 -0.011748 0.000000 0.345576
# 5 0.010279 -0.001916 0.009154 0.000000 0.073025 0.000000
# 6 0.000000 0.000000 0.000000 0.345576 0.000000 -2.182523
#
#
# Mechanical properties :
#
#
# Convention : Reuss Voigt Hill
#
# Bulk Modulus (GPa) = 31.67509 53.72098 42.69803
# Shear Modulus (GPa) = -2.50807 16.42351 6.95772
#
# Velocity S-wave (km/s) = -1.26881 3.24684 2.11330
# Velocity P-wave (km/s) = 4.26441 6.96695 5.77597
#
# Compressibility (1/GPa) = 0.03157055
#
# Stress axis : x y z
#
# Youngs Moduli (GPa) = 33.88450 33.38962 67.10664
#
# Poissons Ratio (x) = 0.17202 0.34227
# Poissons Ratio (y) = 0.17456 0.74785
# Poissons Ratio (z) = 0.17282 0.37210
#
# Static dielectric constant tensor:
#      x y z
#    x 1.501790 0.000000 -0.010760 
#    y 0.000000 1.524930 0.000000 
#    z -0.010760 0.000000 1.531940 
# 
# From -- ./inp_files/83579.got.cif
#   From: 2010.05.17/outbox.cif.g08.bks.cpg/sg10_42_cif.got.tgz:83579.got - 2010.06.03 11:33:40.
