data_PCOD9141869
_publ_section_title
;
Structure prediction by ZEFSAII (Michael W. Deem and Ramdas Pophale) SiO2 
 PCOD9141869
Probable space group: P 2/M
;
_chemical_formula_sum "Si O2"
_cell_formula_units_Z 32
_cell_length_a 18.113729
_cell_length_b 15.742756
_cell_length_c 9.188546
_cell_angle_alpha 90.000000
_cell_angle_beta 42.448229
_cell_angle_gamma 90.000000
_cell_volume 1768.439200
_symmetry_space_group_name_H-M "P 2/M"
_symmetry_group_IT_number 10
_symmetry_cell_setting 'monoclinic'
loop_
_space_group_symop_operation_xyz
x,y,z
-x,y,-z
-x,-y,-z
x,-y,z
loop_
_atom_site_type_symbol
_atom_site_label
_atom_site_fract_x
_atom_site_fract_y
_atom_site_fract_z
Si Si1 0.156877 0.323127 0.991247
Si Si2 0.812638 0.739380 0.735872
Si Si3 0.269181 0.093866 0.523652
Si Si4 0.375316 0.254593 0.229792
Si Si5 0.738280 0.598504 0.430156
Si Si6 0.069907 0.595693 0.619643
Si Si7 0.911889 0.140101 0.002599
Si Si8 0.089276 0.093669 0.525738
O O1 0.204601 0.288434 0.073501
O O2 0.104845 0.240606 0.989536
O O3 0.056411 0.386567 0.165949
O O4 0.242260 0.366939 0.759817
O O5 0.703491 0.747083 0.797489
O O6 0.886262 0.666564 0.553950
O O7 0.877365 0.827845 0.623524
O O8 0.346009 0.172999 0.372902
O O9 0.176484 0.097209 0.532118
O O10 0.320525 0.000000 0.443949
O O11 0.202912 0.104644 0.771252
O O12 0.342356 0.339178 0.366221
O O13 0.500000 0.253776 0.000000
O O14 0.705198 0.500000 0.480860
O O15 0.855277 0.604602 0.344628
O O16 0.086179 0.500000 0.540460
O O17 0.970735 0.105484 0.772949
O O18 0.000000 0.122010 0.000000
O O19 0.099492 0.000000 0.445355
#
# Coordination Sequence:
#
# PCOD9141869 Si02
#       8
#     4   4   4   4   4   4   4   4
#     4  12  20  31  52  79 115 145 172 212 260 315
#     4  10  22  35  51  80 112 142 182 220 266 316
#     4   9  17  31  54  83 106 132 181 230 264 310
#     4  10  21  40  61  78 100 136 181 233 280 318
#     4  10  21  37  58  82 107 141 182 218 261 319
#     4  10  20  34  54  80 113 149 179 209 252 313
#     4  10  17  28  50  77 109 147 177 208 253 314
#     4   9  17  31  50  74 111 152 182 212 253 312
#
# _framework density 18.095051999999999
#
# number of rings (size 3 to 8) (size 9 to 14) (size 15 to 20)
#    0.000    2.000    2.500    2.250    0.000    4.500 
#    0.000    2.500    0.000    0.750    0.000    0.875 
#    0.000    0.000    0.000    0.000    0.000    0.000 
#
# Total GULP energy -178570.911577 kJ/mol
# GULP energy per Si atom -5580.340987 kJ/mol
# Density = 1.805387 g / cm^3
# Si number density = 18.095052 Si / 1000 Ang^3
#
#
#
# Elastic Constant Matrix: (Units=GPa)
#
#
# Indices 1 2 3 4 5 6 
#
# 1 43.4061 31.6898 53.9451 0.0000 2.2287 0.0000
# 2 31.6898 166.6393 72.6615 0.0000 0.0527 0.0000
# 3 53.9451 72.6615 120.4820 0.0000 -5.7743 0.0000
# 4 0.0000 0.0000 0.0000 -2.7160 0.0000 -4.5937
# 5 2.2287 0.0527 -5.7743 0.0000 26.7786 0.0000
# 6 0.0000 0.0000 0.0000 -4.5937 0.0000 7.6787
#
#
#
# Elastic Compliance Matrix: (Units=1/GPa)
#
#
# Indices 1 2 3 4 5 6 
#
# 1 0.054466 0.000662 -0.025264 0.000000 -0.009982 0.000000
# 2 0.000662 0.008182 -0.005288 0.000000 -0.001212 0.000000
# 3 -0.025264 -0.005288 0.023142 0.000000 0.007103 0.000000
# 4 0.000000 0.000000 0.000000 -0.183013 0.000000 -0.109485
# 5 -0.009982 -0.001212 0.007103 0.000000 0.039708 0.000000
# 6 0.000000 0.000000 0.000000 -0.109485 0.000000 0.064732
#
#
# Mechanical properties :
#
#
# Convention : Reuss Voigt Hill
#
# Bulk Modulus (GPa) = 38.45102 71.90223 55.17662
# Shear Modulus (GPa) = 66.07809 17.83034 41.95422
#
# Velocity S-wave (km/s) = 6.04950 3.14247 4.82035
# Velocity P-wave (km/s) = 8.37203 7.27935 7.84474
#
# Compressibility (1/GPa) = 0.02600712
#
# Stress axis : x y z
#
# Youngs Moduli (GPa) = 18.35999 122.22616 43.21179
#
# Poissons Ratio (x) = -0.08086 1.09172
# Poissons Ratio (y) = -0.01215 0.22853
# Poissons Ratio (z) = 0.46385 0.64639
#
# Static dielectric constant tensor:
#      x y z
#    x 1.636470 0.000000 0.034450 
#    y 0.000000 1.635790 0.000000 
#    z 0.034450 0.000000 1.609240 
# 
# From -- ./inp_files/35101.got.cif
#   From: 2010.05.17/outbox.cif.g08.bks.cpg/sg10_18_cif.got.tgz:35101.got - 2010.06.03 11:33:40.
