data_PCOD9141366
_publ_section_title
;
Structure prediction by ZEFSAII (Michael W. Deem and Ramdas Pophale) SiO2 
 PCOD9141366
Probable space group: P 2/M
;
_chemical_formula_sum "Si O2"
_cell_formula_units_Z 24
_cell_length_a 18.223938
_cell_length_b 8.100539
_cell_length_c 6.938759
_cell_angle_alpha 90.000000
_cell_angle_beta 113.968343
_cell_angle_gamma 90.000000
_cell_volume 935.997887
_symmetry_space_group_name_H-M "P 2/M"
_symmetry_group_IT_number 10
_symmetry_cell_setting 'monoclinic'
loop_
_space_group_symop_operation_xyz
x,y,z
-x,y,-z
-x,-y,-z
x,-y,z
loop_
_atom_site_type_symbol
_atom_site_label
_atom_site_fract_x
_atom_site_fract_y
_atom_site_fract_z
Si Si1 0.097188 0.692000 0.948481
Si Si2 0.735017 0.805241 0.831945
Si Si3 0.238322 0.799585 0.597718
Si Si4 0.934049 0.192293 0.654294
Si Si5 0.410386 0.186848 0.872388
Si Si6 0.410240 0.682216 0.473276
O O1 0.093988 0.500000 0.994428
O O2 0.186794 0.737281 0.979480
O O3 0.083204 0.791483 0.133033
O O4 0.022638 0.731678 0.730225
O O5 0.748042 0.766675 0.616699
O O6 0.647805 0.727043 0.764385
O O7 0.732528 0.000000 0.856781
O O8 0.146965 0.736525 0.528888
O O9 0.318354 0.744388 0.798924
O O10 0.236234 0.000000 0.618029
O O11 0.939129 0.000000 0.610655
O O12 0.408549 0.183114 0.637686
O O13 0.413032 0.000000 0.955874
O O14 0.500000 0.265038 0.000000
O O15 0.500000 0.674529 0.500000
O O16 0.388076 0.500000 0.526546
#
# Coordination Sequence:
#
# PCOD9141366 Si02
#       6
#     4   4   4   4   4   4
#     4  10  16  21  31  50  76 104 136 174 216 259
#     4   9  16  27  41  56  77 108 144 178 216 263
#     4   7  12  22  36  54  76 104 138 176 214 251
#     4   9  14  21  32  47  72 107 143 173 207 256
#     4   9  17  30  48  68  90 119 155 190 224 265
#     4  10  20  32  46  66  92 120 150 186 228 270
#
# _framework density 25.641083999999999
#
# number of rings (size 3 to 8) (size 9 to 14) (size 15 to 20)
#    0.000    3.000    0.000    6.000    0.000    1.667 
#    0.000    0.833    0.000    0.000    0.000    0.000 
#    0.000    1.333    0.000   15.333    0.000   12.167 
#
# Total GULP energy -133840.637076 kJ/mol
# GULP energy per Si atom -5576.693211 kJ/mol
# Density = 2.558272 g / cm^3
# Si number density = 25.641084 Si / 1000 Ang^3
#
#
#
# Elastic Constant Matrix: (Units=GPa)
#
#
# Indices 1 2 3 4 5 6 
#
# 1 95.9998 15.5812 79.4482 0.0000 64.5450 0.0000
# 2 15.5812 68.5077 2.2205 0.0000 13.0712 0.0000
# 3 79.4482 2.2205 218.4913 0.0000 62.5072 0.0000
# 4 0.0000 0.0000 0.0000 -10.3092 0.0000 12.9586
# 5 64.5450 13.0712 62.5072 0.0000 83.5430 0.0000
# 6 0.0000 0.0000 0.0000 12.9586 0.0000 8.7053
#
#
#
# Elastic Compliance Matrix: (Units=1/GPa)
#
#
# Indices 1 2 3 4 5 6 
#
# 1 0.025145 -0.002606 -0.004677 0.000000 -0.015520 0.000000
# 2 -0.002606 0.015392 0.001150 0.000000 -0.001255 0.000000
# 3 -0.004677 0.001150 0.006722 0.000000 -0.001597 0.000000
# 4 0.000000 0.000000 0.000000 -0.033785 0.000000 0.050292
# 5 -0.015520 -0.001255 -0.001597 0.000000 0.025351 0.000000
# 6 0.000000 0.000000 0.000000 0.050292 0.000000 0.040009
#
#
# Mechanical properties :
#
#
# Convention : Reuss Voigt Hill
#
# Bulk Modulus (GPa) = 28.57613 64.16652 46.37132
# Shear Modulus (GPa) = 48.65483 35.43774 42.04629
#
# Velocity S-wave (km/s) = 4.36080 3.72165 4.05384
# Velocity P-wave (km/s) = 6.04353 6.59900 6.32736
#
# Compressibility (1/GPa) = 0.03499425
#
# Stress axis : x y z
#
# Youngs Moduli (GPa) = 39.76978 64.96932 148.75530
#
# Poissons Ratio (x) = 0.16932 0.69568
# Poissons Ratio (y) = 0.10364 -0.17113
# Poissons Ratio (z) = 0.18599 -0.07474
#
# Static dielectric constant tensor:
#      x y z
#    x 2.253230 0.000000 0.028240 
#    y 0.000000 1.928680 0.000000 
#    z 0.028240 0.000000 2.095830 
# 
# From -- ./inp_files/52387.got.cif
#   From: 2010.05.17/outbox.cif.g08.bks.cpg/sg10_27_cif.got.tgz:52387.got - 2010.06.03 11:33:40.
