data_PCOD9141922
_publ_section_title
;
Structure prediction by ZEFSAII (Michael W. Deem and Ramdas Pophale) SiO2 
 PCOD9141922
Probable space group: P 2/M
;
_chemical_formula_sum "Si O2"
_cell_formula_units_Z 32
_cell_length_a 25.217804
_cell_length_b 7.571525
_cell_length_c 18.559631
_cell_angle_alpha 90.000000
_cell_angle_beta 29.109977
_cell_angle_gamma 90.000000
_cell_volume 1723.977806
_symmetry_space_group_name_H-M "P 2/M"
_symmetry_group_IT_number 10
_symmetry_cell_setting 'monoclinic'
loop_
_space_group_symop_operation_xyz
x,y,z
-x,y,-z
-x,-y,-z
x,-y,z
loop_
_atom_site_type_symbol
_atom_site_label
_atom_site_fract_x
_atom_site_fract_y
_atom_site_fract_z
Si Si1 0.963579 0.704471 0.466661
Si Si2 0.596497 0.717018 0.712450
Si Si3 0.638557 0.713236 0.950077
Si Si4 0.186155 0.206875 0.137534
Si Si5 0.374877 0.713480 0.635240
Si Si6 0.731608 0.715894 0.688792
Si Si7 0.347607 0.792516 0.823889
Si Si8 0.401658 0.704647 0.449217
O O1 0.935672 0.500000 0.515779
O O2 0.854148 0.777568 0.560785
O O3 0.000000 0.785960 0.500000
O O4 0.068768 0.710488 0.291044
O O5 0.595155 0.500000 0.712145
O O6 0.680976 0.773761 0.673403
O O7 0.620962 0.781068 0.602623
O O8 0.475347 0.772879 0.880686
O O9 0.637758 0.500000 0.951591
O O10 0.739037 0.770611 0.880516
O O11 0.657920 0.768408 0.844776
O O12 0.167428 0.000000 0.147335
O O13 0.257903 0.277888 0.985919
O O14 0.500000 0.770348 0.500000
O O15 0.373116 0.500000 0.635881
O O16 0.314715 0.769847 0.779362
O O17 0.349144 0.779037 0.585174
O O18 0.730686 0.500000 0.687313
O O19 0.466739 0.709295 0.695808
O O20 0.361816 0.000000 0.821792
O O21 0.368391 0.500000 0.485929
#
# Coordination Sequence:
#
# PCOD9141922 Si02
#       8
#     4   4   4   4   4   4   4   4
#     4  10  19  33  51  69  89 117 156 199 234 269
#     4   9  16  26  46  72  96 122 150 186 228 271
#     4  10  17  29  49  69  92 122 156 188 224 270
#     4  11  22  32  45  67  94 123 156 192 232 272
#     4   8  15  26  41  63  91 119 147 180 220 272
#     4   9  17  29  46  71  94 115 155 198 227 265
#     4  10  19  29  42  63  91 121 153 187 223 267
#     4   9  16  27  44  67  93 121 149 178 222 275
#
# _framework density 18.561724999999999
#
# number of rings (size 3 to 8) (size 9 to 14) (size 15 to 20)
#    0.000    2.500    2.500    1.875    0.000    5.500 
#    0.000    0.000    0.000    3.750    0.000    0.875 
#    0.000    7.000    0.000    0.000    0.000    0.000 
#
# Total GULP energy -178403.673494 kJ/mol
# GULP energy per Si atom -5575.114797 kJ/mol
# Density = 1.851948 g / cm^3
# Si number density = 18.561725 Si / 1000 Ang^3
#
#
#
# Elastic Constant Matrix: (Units=GPa)
#
#
# Indices 1 2 3 4 5 6 
#
# 1 134.6359 -1.2833 47.1080 0.0000 26.6201 0.0000
# 2 -1.2833 39.8031 -8.3792 0.0000 -0.8007 0.0000
# 3 47.1080 -8.3792 46.3507 0.0000 17.7241 0.0000
# 4 0.0000 0.0000 0.0000 14.7887 0.0000 26.5700
# 5 26.6201 -0.8007 17.7241 0.0000 37.0411 0.0000
# 6 0.0000 0.0000 0.0000 26.5700 0.0000 -4.2687
#
#
#
# Elastic Compliance Matrix: (Units=1/GPa)
#
#
# Indices 1 2 3 4 5 6 
#
# 1 0.012021 -0.002067 -0.011347 0.000000 -0.003255 0.000000
# 2 -0.002067 0.026604 0.007493 0.000000 -0.001525 0.000000
# 3 -0.011347 0.007493 0.038287 0.000000 -0.010004 0.000000
# 4 0.000000 0.000000 0.000000 0.005550 0.000000 0.034547
# 5 -0.003255 -0.001525 -0.010004 0.000000 0.034090 0.000000
# 6 0.000000 0.000000 0.000000 0.034547 0.000000 -0.019229
#
#
# Mechanical properties :
#
#
# Convention : Reuss Voigt Hill
#
# Bulk Modulus (GPa) = 15.36786 32.85339 24.11063
# Shear Modulus (GPa) = 38.21034 21.73516 29.97275
#
# Velocity S-wave (km/s) = 4.54205 3.42565 4.02277
# Velocity P-wave (km/s) = 5.98367 5.77795 5.88171
#
# Compressibility (1/GPa) = 0.06507086
#
# Stress axis : x y z
#
# Youngs Moduli (GPa) = 83.18483 37.58865 26.11869
#
# Poissons Ratio (x) = 0.07768 0.29637
# Poissons Ratio (y) = 0.17191 -0.19571
# Poissons Ratio (z) = 0.94389 -0.28165
#
# Static dielectric constant tensor:
#      x y z
#    x 1.659620 0.000000 0.042690 
#    y 0.000000 1.692460 0.000000 
#    z 0.042690 0.000000 1.634440 
# 
# From -- ./inp_files/56474.got.cif
#   From: 2010.05.17/outbox.cif.g08.bks.cpg/sg10_29_cif.got.tgz:56474.got - 2010.06.03 11:33:40.
