data_PCOD9141900
_publ_section_title
;
Structure prediction by ZEFSAII (Michael W. Deem and Ramdas Pophale) SiO2 
 PCOD9141900
Probable space group: P 2/M
;
_chemical_formula_sum "Si O2"
_cell_formula_units_Z 32
_cell_length_a 17.557031
_cell_length_b 7.384078
_cell_length_c 17.557035
_cell_angle_alpha 90.000000
_cell_angle_beta 50.308618
_cell_angle_gamma 90.000000
_cell_volume 1751.477979
_symmetry_space_group_name_H-M "P 2/M"
_symmetry_group_IT_number 10
_symmetry_cell_setting 'monoclinic'
loop_
_space_group_symop_operation_xyz
x,y,z
-x,y,-z
-x,-y,-z
x,-y,z
loop_
_atom_site_type_symbol
_atom_site_label
_atom_site_fract_x
_atom_site_fract_y
_atom_site_fract_z
Si Si1 0.268828 0.718539 0.768828
Si Si2 0.057553 0.293608 0.181494
Si Si3 0.829997 0.210032 0.329997
Si Si4 0.055856 0.721171 0.348870
Si Si5 0.095523 0.721662 0.989045
Si Si6 0.318506 0.706392 0.442447
Si Si7 0.510955 0.721662 0.404477
Si Si8 0.151130 0.278829 0.444145
O O1 0.269725 0.500000 0.769725
O O2 0.220133 0.773413 0.720134
O O3 0.382608 0.778056 0.695722
O O4 0.195722 0.778056 0.882608
O O5 0.094952 0.500000 0.157630
O O6 0.084430 0.213420 0.246652
O O7 0.088396 0.213459 0.080622
O O8 0.938089 0.295770 0.258011
O O9 0.758010 0.295770 0.438089
O O10 0.841946 0.000000 0.341946
O O11 0.054872 0.500000 0.347286
O O12 0.126391 0.774767 0.373609
O O13 0.944131 0.775137 0.444131
O O14 0.092482 0.500000 0.992509
O O15 0.000000 0.777232 0.000000
O O16 0.342370 0.500000 0.405049
O O17 0.419378 0.786541 0.411604
O O18 0.253348 0.786580 0.415571
O O19 0.500000 0.777232 0.500000
O O20 0.507492 0.500000 0.407518
O O21 0.152714 0.500000 0.445128
#
# Coordination Sequence:
#
# PCOD9141900 Si02
#       8
#     4   4   4   4   4   4   4   4
#     4  10  18  32  46  59  84 110 142 181 204 237
#     4  10  17  29  46  62  82 114 145 171 202 242
#     4  12  22  28  39  63  90 114 141 171 210 249
#     4   8  13  21  38  64  85 102 132 172 206 237
#     4   9  16  25  44  67  80 102 142 176 206 239
#     4  10  17  29  46  62  82 114 145 171 202 242
#     4   9  16  25  44  67  80 102 142 176 206 239
#     4   8  13  21  38  64  85 102 132 172 206 237
#
# _framework density 18.270284
#
# number of rings (size 3 to 8) (size 9 to 14) (size 15 to 20)
#    0.000    2.500    3.750    1.875    0.000    0.000 
#    0.000    2.500    0.000    1.500    0.000    0.875 
#    0.000    7.000    0.000    0.000    0.000    3.750 
#
# Total GULP energy -178510.173063 kJ/mol
# GULP energy per Si atom -5578.442908 kJ/mol
# Density = 1.822870 g / cm^3
# Si number density = 18.270284 Si / 1000 Ang^3
#
#
#
# Elastic Constant Matrix: (Units=GPa)
#
#
# Indices 1 2 3 4 5 6 
#
# 1 165.1690 3.6880 78.3397 0.0000 16.5495 0.0000
# 2 3.6880 69.3204 2.5595 0.0000 0.6724 0.0000
# 3 78.3397 2.5595 120.5777 0.0000 10.0223 0.0000
# 4 0.0000 0.0000 0.0000 -23.3616 0.0000 1.2218
# 5 16.5495 0.6724 10.0223 0.0000 33.4179 0.0000
# 6 0.0000 0.0000 0.0000 1.2218 0.0000 -21.3113
#
#
#
# Elastic Compliance Matrix: (Units=1/GPa)
#
#
# Indices 1 2 3 4 5 6 
#
# 1 0.008999 -0.000245 -0.005611 0.000000 -0.002769 0.000000
# 2 -0.000245 0.014445 -0.000137 0.000000 -0.000128 0.000000
# 3 -0.005611 -0.000137 0.012010 0.000000 -0.000820 0.000000
# 4 0.000000 0.000000 0.000000 -0.042934 0.000000 -0.002461
# 5 -0.002769 -0.000128 -0.000820 0.000000 0.031544 0.000000
# 6 0.000000 0.000000 0.000000 -0.002461 0.000000 -0.047065
#
#
# Mechanical properties :
#
#
# Convention : Reuss Voigt Hill
#
# Bulk Modulus (GPa) = 42.61084 58.24905 50.42995
# Shear Modulus (GPa) = -1566.14305 15.78098 -775.18103
#
# Velocity S-wave (km/s) = -29.30987 2.94215 -20.62053
# Velocity P-wave (km/s) = 33.49704 6.59490 23.22239
#
# Compressibility (1/GPa) = 0.02346820
#
# Stress axis : x y z
#
# Youngs Moduli (GPa) = 111.12804 69.22768 83.26350
#
# Poissons Ratio (x) = 0.01694 0.46720
# Poissons Ratio (y) = 0.02720 0.01140
# Poissons Ratio (z) = 0.62355 0.00948
#
# Static dielectric constant tensor:
#      x y z
#    x 1.638290 0.000000 0.018400 
#    y 0.000000 1.677190 0.000000 
#    z 0.018400 0.000000 1.607410 
# 
# From -- ./inp_files/78521.got.cif
#   From: 2010.05.17/outbox.cif.g08.bks.cpg/sg10_40_cif.got.tgz:78521.got - 2010.06.03 11:33:40.
