data_PCOD9141368
_publ_section_title
;
Structure prediction by ZEFSAII (Michael W. Deem and Ramdas Pophale) SiO2 
 PCOD9141368
Probable space group: P 2/M
;
_chemical_formula_sum "Si O2"
_cell_formula_units_Z 24
_cell_length_a 7.315730
_cell_length_b 8.963260
_cell_length_c 19.440705
_cell_angle_alpha 90.000000
_cell_angle_beta 58.156873
_cell_angle_gamma 90.000000
_cell_volume 1082.921344
_symmetry_space_group_name_H-M "P 2/M"
_symmetry_group_IT_number 10
_symmetry_cell_setting 'monoclinic'
loop_
_space_group_symop_operation_xyz
x,y,z
-x,y,-z
-x,-y,-z
x,-y,z
loop_
_atom_site_type_symbol
_atom_site_label
_atom_site_fract_x
_atom_site_fract_y
_atom_site_fract_z
Si Si1 0.824469 0.680909 0.926246
Si Si2 0.120514 0.328380 0.750957
Si Si3 0.674289 0.329008 0.750359
Si Si4 0.346813 0.168548 0.588722
Si Si5 0.564502 0.821974 0.087157
Si Si6 0.909695 0.170255 0.589498
O O1 0.805772 0.500000 0.929316
O O2 0.634821 0.754661 0.917812
O O3 0.042198 0.722535 0.842128
O O4 0.772703 0.744673 0.011802
O O5 0.185872 0.500000 0.743059
O O6 0.298093 0.242944 0.671448
O O7 0.897976 0.324074 0.750148
O O8 0.603237 0.500000 0.764091
O O9 0.500355 0.228084 0.823657
O O10 0.736546 0.268475 0.663330
O O11 0.500000 0.240896 0.500000
O O12 0.115896 0.161332 0.597920
O O13 0.427095 0.000000 0.583845
O O14 0.574871 0.000000 0.078523
O O15 0.000000 0.231461 0.500000
O O16 0.834189 0.000000 0.593239
#
# Coordination Sequence:
#
# PCOD9141368 Si02
#       6
#     4   4   4   4   4   4
#     4   9  15  23  33  48  73 103 134 166 202 243
#     4   8  15  25  37  53  74 103 135 166 201 240
#     4   9  16  26  38  53  76 105 135 167 204 244
#     4   9  17  28  42  60  82 108 137 169 205 243
#     4  10  16  21  32  51  74 102 135 166 200 243
#     4   9  17  29  44  61  82 108 138 172 207 242
#
# _framework density 22.162275000000001
#
# number of rings (size 3 to 8) (size 9 to 14) (size 15 to 20)
#    0.000    3.000    0.000    4.500    0.000    5.333 
#    0.000    0.000    0.000    0.000    0.000    0.000 
#    0.000    1.333    0.000   15.333    0.000   15.833 
#
# Total GULP energy -133839.542491 kJ/mol
# GULP energy per Si atom -5576.647604 kJ/mol
# Density = 2.211183 g / cm^3
# Si number density = 22.162275 Si / 1000 Ang^3
#
#
#
# Elastic Constant Matrix: (Units=GPa)
#
#
# Indices 1 2 3 4 5 6 
#
# 1 72.9868 1.8979 -7.1292 0.0000 -9.0411 0.0000
# 2 1.8979 106.9889 87.7944 0.0000 -10.7067 0.0000
# 3 -7.1292 87.7944 237.7790 0.0000 -7.4044 0.0000
# 4 0.0000 0.0000 0.0000 45.2081 0.0000 0.2999
# 5 -9.0411 -10.7067 -7.4044 0.0000 11.4442 0.0000
# 6 0.0000 0.0000 0.0000 0.2999 0.0000 -6.4849
#
#
#
# Elastic Compliance Matrix: (Units=1/GPa)
#
#
# Indices 1 2 3 4 5 6 
#
# 1 0.015370 0.000459 0.000697 0.000000 0.013023 0.000000
# 2 0.000459 0.014527 -0.005016 0.000000 0.010707 0.000000
# 3 0.000697 -0.005016 0.006072 0.000000 -0.000214 0.000000
# 4 0.000000 0.000000 0.000000 0.022113 0.000000 0.001022
# 5 0.013023 0.010707 -0.000214 0.000000 0.107548 0.000000
# 6 0.000000 0.000000 0.000000 0.001022 0.000000 -0.154157
#
#
# Mechanical properties :
#
#
# Convention : Reuss Voigt Hill
#
# Bulk Modulus (GPa) = 35.40142 64.76456 50.08299
# Shear Modulus (GPa) = 174.76006 32.37956 103.56981
#
# Velocity S-wave (km/s) = 8.88965 3.82648 6.84353
# Velocity P-wave (km/s) = 11.01709 6.98634 9.22457
#
# Compressibility (1/GPa) = 0.02824746
#
# Stress axis : x y z
#
# Youngs Moduli (GPa) = 65.05984 68.83937 164.68957
#
# Poissons Ratio (x) = -0.03157 -0.11480
# Poissons Ratio (y) = -0.02984 0.82616
# Poissons Ratio (z) = -0.04535 0.34533
#
# Static dielectric constant tensor:
#      x y z
#    x 2.059460 0.000000 0.093700 
#    y 0.000000 1.756480 0.000000 
#    z 0.093700 0.000000 1.895440 
# 
# From -- ./inp_files/52395.got.cif
#   From: 2010.05.17/outbox.cif.g08.bks.cpg/sg10_27_cif.got.tgz:52395.got - 2010.06.03 11:33:40.
