data_PCOD9141956
_publ_section_title
;
Structure prediction by ZEFSAII (Michael W. Deem and Ramdas Pophale) SiO2 
 PCOD9141956
Probable space group: P 2/M
;
_chemical_formula_sum "Si O2"
_cell_formula_units_Z 28
_cell_length_a 30.159405
_cell_length_b 8.587697
_cell_length_c 14.893667
_cell_angle_alpha 90.000000
_cell_angle_beta 153.051299
_cell_angle_gamma 90.000000
_cell_volume 1748.170954
_symmetry_space_group_name_H-M "P 2/M"
_symmetry_group_IT_number 10
_symmetry_cell_setting 'monoclinic'
loop_
_space_group_symop_operation_xyz
x,y,z
-x,y,-z
-x,-y,-z
x,-y,z
loop_
_atom_site_type_symbol
_atom_site_label
_atom_site_fract_x
_atom_site_fract_y
_atom_site_fract_z
Si Si1 0.418241 0.314637 0.735123
Si Si2 0.367644 0.188055 0.832550
Si Si3 0.273150 0.683752 0.116259
Si Si4 0.417367 0.817012 0.234734
Si Si5 0.248435 0.183702 0.781336
Si Si6 0.112293 0.810899 0.690385
Si Si7 0.628238 0.813724 0.538885
O O1 0.427987 0.500000 0.755836
O O2 0.362636 0.255275 0.723521
O O3 0.368256 0.261307 0.552867
O O4 0.526843 0.239992 0.937946
O O5 0.283068 0.245624 0.747669
O O6 0.366859 0.000000 0.828131
O O7 0.263791 0.500000 0.108163
O O8 0.368205 0.725207 0.227197
O O9 0.289722 0.760426 0.243000
O O10 0.181799 0.751319 0.895562
O O11 0.523762 0.766820 0.394290
O O12 0.421380 0.000000 0.267645
O O13 0.342718 0.803831 0.016638
O O14 0.159444 0.246157 0.681083
O O15 0.228944 0.000000 0.732859
O O16 0.000000 0.764904 0.500000
O O17 0.117837 0.000000 0.700715
O O18 0.627715 0.000000 0.529123
#
# Coordination Sequence:
#
# PCOD9141956 Si02
#       7
#     4   4   4   4   4   4   4
#     4  11  21  30  42  66  98 128 164 206 243 275
#     4  10  17  30  47  65  92 131 171 198 233 282
#     4  11  22  32  45  70 100 126 155 196 244 291
#     4   9  17  31  47  65  91 128 168 199 227 274
#     4   8  14  27  48  72  93 120 161 202 235 273
#     4   9  18  35  56  75  95 123 161 201 239 284
#     4  11  20  33  49  65  90 131 171 199 232 281
#
# _framework density 16.016739999999999
#
# number of rings (size 3 to 8) (size 9 to 14) (size 15 to 20)
#    0.000    2.143    1.429    5.571    0.000    3.143 
#    0.000    0.714    0.000    0.000    0.000    1.000 
#    0.000    8.000    0.000    0.000    0.000    0.000 
#
# Total GULP energy -156149.198079 kJ/mol
# GULP energy per Si atom -5576.757074 kJ/mol
# Density = 1.598029 g / cm^3
# Si number density = 16.016740 Si / 1000 Ang^3
#
#
#
# Elastic Constant Matrix: (Units=GPa)
#
#
# Indices 1 2 3 4 5 6 
#
# 1 132.4065 30.0781 67.4259 0.0000 -9.4179 0.0000
# 2 30.0781 46.4347 18.1744 0.0000 -7.6939 0.0000
# 3 67.4259 18.1744 62.4690 0.0000 -2.1515 0.0000
# 4 0.0000 0.0000 0.0000 10.4567 0.0000 -24.5672
# 5 -9.4179 -7.6939 -2.1515 0.0000 25.0492 0.0000
# 6 0.0000 0.0000 0.0000 -24.5672 0.0000 427.5884
#
#
#
# Elastic Compliance Matrix: (Units=1/GPa)
#
#
# Indices 1 2 3 4 5 6 
#
# 1 0.017925 -0.003871 -0.018083 0.000000 0.003997 0.000000
# 2 -0.003871 0.026381 -0.003278 0.000000 0.006366 0.000000
# 3 -0.018083 -0.003278 0.036318 0.000000 -0.004686 0.000000
# 4 0.000000 0.000000 0.000000 0.110556 0.000000 0.006352
# 5 0.003997 0.006366 -0.004686 0.000000 0.042977 0.000000
# 6 0.000000 0.000000 0.000000 0.006352 0.000000 0.002704
#
#
# Mechanical properties :
#
#
# Convention : Reuss Voigt Hill
#
# Bulk Modulus (GPa) = 33.15656 52.51855 42.83756
# Shear Modulus (GPa) = 16.81365 100.99431 58.90398
#
# Velocity S-wave (km/s) = 3.24351 7.94936 6.07094
# Velocity P-wave (km/s) = 5.89688 10.82208 8.71466
#
# Compressibility (1/GPa) = 0.03015994
#
# Stress axis : x y z
#
# Youngs Moduli (GPa) = 55.78906 37.90659 27.53438
#
# Poissons Ratio (x) = 0.14673 0.49791
# Poissons Ratio (y) = 0.21595 0.09025
# Poissons Ratio (z) = 1.00884 0.12425
#
# Static dielectric constant tensor:
#      x y z
#    x 1.564070 0.000000 -0.005300 
#    y 0.000000 1.533850 0.000000 
#    z -0.005300 0.000000 1.515010 
# 
# From -- ./inp_files/72474.got.cif
#   From: 2010.05.17/outbox.cif.g08.bks.cpg/sg10_37_cif.got.tgz:72474.got - 2010.06.03 11:33:40.
