data_PCOD9141145
_publ_section_title
;
Structure prediction by ZEFSAII (Michael W. Deem and Ramdas Pophale) SiO2 
 PCOD9141145
Probable space group: C C
;
_chemical_formula_sum "Si O2"
_cell_formula_units_Z 24
_cell_length_a 21.724873
_cell_length_b 7.626717
_cell_length_c 8.794142
_cell_angle_alpha 90.000000
_cell_angle_beta 127.756623
_cell_angle_gamma 90.000000
_cell_volume 1152.007985
_symmetry_space_group_name_H-M "C C"
_symmetry_group_IT_number 9
_symmetry_cell_setting 'monoclinic'
loop_
_space_group_symop_operation_xyz
x,y,z
x,-y,1/2+z
1/2+x,1/2+y,z
1/2+x,1/2-y,1/2+z
loop_
_atom_site_type_symbol
_atom_site_label
_atom_site_fract_x
_atom_site_fract_y
_atom_site_fract_z
Si Si1 0.509320 0.323193 0.395300
Si Si2 0.019393 0.201734 0.275493
Si Si3 0.901764 0.485957 0.621367
Si Si4 0.292424 0.029031 0.704406
Si Si5 0.683511 0.829002 0.659749
Si Si6 0.675983 0.790953 0.012935
O O1 0.495175 0.519885 0.316466
O O2 0.519249 0.317613 0.592431
O O3 0.589897 0.261564 0.438980
O O4 0.441330 0.192410 0.238115
O O5 0.104007 0.258101 0.463842
O O6 0.960872 0.355779 0.231891
O O7 0.817457 0.524227 0.567033
O O8 0.877673 0.478683 0.409239
O O9 0.250509 0.203266 0.697114
O O10 0.235963 0.863944 0.643651
O O11 0.696886 0.027611 0.626774
O O12 0.676849 0.816666 0.831948
#
# Coordination Sequence:
#
# PCOD9141145 Si02
#       6
#     4   4   4   4   4   4
#     4  12  27  46  76 108 144 194 246 293 363 435
#     4  12  27  46  76 107 146 193 244 297 357 440
#     4  12  28  50  72 107 151 188 239 304 365 422
#     4  12  28  50  72 107 151 188 239 304 365 422
#     4  12  27  46  76 107 146 193 244 297 357 440
#     4  12  27  46  76 108 144 194 246 293 363 435
#
# _framework density 20.833189000000001
#
# number of rings (size 3 to 8) (size 9 to 14) (size 15 to 20)
#    0.000    0.000    6.667    2.000    9.333    2.667 
#    0.000    0.000    0.000    0.000    0.000    0.000 
#    0.000    0.000    0.000    0.000    0.000    0.000 
#
# Total GULP energy -67153.498458 kJ/mol
# GULP energy per Si atom -5596.124872 kJ/mol
# Density = 2.078577 g / cm^3
# Si number density = 20.833189 Si / 1000 Ang^3
#
#
#
# Elastic Constant Matrix: (Units=GPa)
#
#
# Indices 1 2 3 4 5 6 
#
# 1 68.4286 -7.1471 -4.2304 0.0000 1.8120 0.0000
# 2 -7.1471 72.3861 -1.6166 0.0000 7.1093 0.0000
# 3 -4.2304 -1.6166 84.7159 0.0000 -5.1134 0.0000
# 4 0.0000 0.0000 0.0000 38.9159 0.0000 1.5506
# 5 1.8120 7.1093 -5.1134 0.0000 32.4012 0.0000
# 6 0.0000 0.0000 0.0000 1.5506 0.0000 39.5819
#
#
#
# Elastic Compliance Matrix: (Units=1/GPa)
#
#
# Indices 1 2 3 4 5 6 
#
# 1 0.014852 0.001587 0.000708 0.000000 -0.001067 0.000000
# 2 0.001587 0.014289 0.000159 0.000000 -0.003199 0.000000
# 3 0.000708 0.000159 0.011952 0.000000 0.001812 0.000000
# 4 0.000000 0.000000 0.000000 0.025737 0.000000 -0.001008
# 5 -0.001067 -0.003199 0.001812 0.000000 0.031911 0.000000
# 6 0.000000 0.000000 0.000000 -0.001008 0.000000 0.025304
#
#
# Mechanical properties :
#
#
# Convention : Reuss Voigt Hill
#
# Bulk Modulus (GPa) = 21.73946 22.17136 21.95541
# Shear Modulus (GPa) = 37.18307 38.08145 37.63226
#
# Velocity S-wave (km/s) = 4.22927 4.28006 4.25474
# Velocity P-wave (km/s) = 5.85719 5.92374 5.89056
#
# Compressibility (1/GPa) = 0.04599931
#
# Stress axis : x y z
#
# Youngs Moduli (GPa) = 67.33316 69.98276 83.66888
#
# Poissons Ratio (x) = -0.11106 -0.05920
# Poissons Ratio (y) = -0.10686 -0.01329
# Poissons Ratio (z) = -0.04764 -0.01112
#
# Static dielectric constant tensor:
#      x y z
#    x 1.729460 0.000000 0.006960 
#    y 0.000000 1.709530 0.000000 
#    z 0.006960 0.000000 1.721950 
# 
# From -- ./inp_files/10290.got.cif
#   From: 2010.05.17/outbox.cif.g08.bks.cpg/sg9_6_cif.got.tgz:10290.got - 2010.06.03 20:04:27.
