data_PCOD9141844
_publ_section_title
;
Structure prediction by ZEFSAII (Michael W. Deem and Ramdas Pophale) SiO2 
 PCOD9141844
Probable space group: P 2/M
;
_chemical_formula_sum "Si O2"
_cell_formula_units_Z 20
_cell_length_a 13.121795
_cell_length_b 8.757752
_cell_length_c 18.698855
_cell_angle_alpha 90.000000
_cell_angle_beta 146.518970
_cell_angle_gamma 90.000000
_cell_volume 1185.422268
_symmetry_space_group_name_H-M "P 2/M"
_symmetry_group_IT_number 10
_symmetry_cell_setting 'monoclinic'
loop_
_space_group_symop_operation_xyz
x,y,z
-x,y,-z
-x,-y,-z
x,-y,z
loop_
_atom_site_type_symbol
_atom_site_label
_atom_site_fract_x
_atom_site_fract_y
_atom_site_fract_z
Si Si1 0.623457 0.683553 0.405295
Si Si2 0.786423 0.815668 0.360266
Si Si3 0.668210 0.676849 0.656137
Si Si4 0.917372 0.817714 0.689419
Si Si5 0.694907 0.186050 0.144948
O O1 0.627974 0.500000 0.410055
O O2 0.660180 0.744408 0.347869
O O3 0.429647 0.732339 0.328545
O O4 0.787463 0.746000 0.551945
O O5 0.729074 0.768143 0.247029
O O6 0.000000 0.772966 0.500000
O O7 0.775756 0.000000 0.358599
O O8 0.500000 0.681474 0.500000
O O9 0.722870 0.500000 0.695969
O O10 0.833104 0.768572 0.716133
O O11 0.127305 0.768269 0.797710
O O12 0.906900 0.000000 0.676085
O O13 0.691440 0.000000 0.142507
O O14 0.500000 0.240218 0.000000
#
# Coordination Sequence:
#
# PCOD9141844 Si02
#       5
#     4   4   4   4   4
#     4  10  19  30  46  70 100 129 157 193 243 289
#     4  10  18  31  50  73  97 122 160 203 238 277
#     4   8  16  29  43  65  97 128 156 193 242 286
#     4  10  17  28  48  72  96 124 163 200 234 281
#     4   9  18  32  49  70  99 130 155 191 245 290
#
# _framework density 16.871625000000002
#
# number of rings (size 3 to 8) (size 9 to 14) (size 15 to 20)
#    0.000    2.600    2.000    2.400    0.000    4.800 
#    0.000    0.000    0.000    6.600    0.000    8.400 
#    0.000    0.000    0.000    0.000    0.000    0.000 
#
# Total GULP energy -111441.337628 kJ/mol
# GULP energy per Si atom -5572.066881 kJ/mol
# Density = 1.683322 g / cm^3
# Si number density = 16.871625 Si / 1000 Ang^3
#
#
#
# Elastic Constant Matrix: (Units=GPa)
#
#
# Indices 1 2 3 4 5 6 
#
# 1 190.9234 38.4799 70.0920 0.0000 15.5239 0.0000
# 2 38.4799 25.5065 20.1352 0.0000 4.6749 0.0000
# 3 70.0920 20.1352 90.7316 0.0000 8.2904 0.0000
# 4 0.0000 0.0000 0.0000 -92.4931 0.0000 -72.0128
# 5 15.5239 4.6749 8.2904 0.0000 18.0185 0.0000
# 6 0.0000 0.0000 0.0000 -72.0128 0.0000 -21.4709
#
#
#
# Elastic Compliance Matrix: (Units=1/GPa)
#
#
# Indices 1 2 3 4 5 6 
#
# 1 0.009121 -0.009500 -0.004640 0.000000 -0.003258 0.000000
# 2 -0.009500 0.058503 -0.005225 0.000000 -0.004590 0.000000
# 3 -0.004640 -0.005225 0.015947 0.000000 -0.001984 0.000000
# 4 0.000000 0.000000 0.000000 0.006710 0.000000 -0.022504
# 5 -0.003258 -0.004590 -0.001984 0.000000 0.060409 0.000000
# 6 0.000000 0.000000 0.000000 -0.022504 0.000000 0.028905
#
#
# Mechanical properties :
#
#
# Convention : Reuss Voigt Hill
#
# Bulk Modulus (GPa) = 22.30085 62.73065 42.51575
# Shear Modulus (GPa) = 21.43429 -7.29214 7.07107
#
# Velocity S-wave (km/s) = 3.56818 -2.08123 2.04944
# Velocity P-wave (km/s) = 5.49750 5.61128 5.55469
#
# Compressibility (1/GPa) = 0.04484133
#
# Stress axis : x y z
#
# Youngs Moduli (GPa) = 109.64043 17.09310 62.70830
#
# Poissons Ratio (x) = 0.16238 0.29097
# Poissons Ratio (y) = 1.04155 0.32765
# Poissons Ratio (z) = 0.50874 0.08931
#
# Static dielectric constant tensor:
#      x y z
#    x 1.602150 0.000000 0.006980 
#    y 0.000000 1.568330 0.000000 
#    z 0.006980 0.000000 1.544480 
# 
# From -- ./inp_files/31424.got.cif
#   From: 2010.05.17/outbox.cif.g08.bks.cpg/sg10_16_cif.got.tgz:31424.got - 2010.06.03 11:33:40.
