data_PCOD9141773
_publ_section_title
;
Structure prediction by ZEFSAII (Michael W. Deem and Ramdas Pophale) SiO2 
 PCOD9141773
Probable space group: P 2/M
;
_chemical_formula_sum "Si O2"
_cell_formula_units_Z 20
_cell_length_a 7.926231
_cell_length_b 8.158090
_cell_length_c 17.333393
_cell_angle_alpha 90.000000
_cell_angle_beta 136.424700
_cell_angle_gamma 90.000000
_cell_volume 772.594610
_symmetry_space_group_name_H-M "P 2/M"
_symmetry_group_IT_number 10
_symmetry_cell_setting 'monoclinic'
loop_
_space_group_symop_operation_xyz
x,y,z
-x,y,-z
-x,-y,-z
x,-y,z
loop_
_atom_site_type_symbol
_atom_site_label
_atom_site_fract_x
_atom_site_fract_y
_atom_site_fract_z
Si Si1 0.618143 0.810942 0.281362
Si Si2 0.571186 0.198292 0.937166
Si Si3 0.149829 0.810949 0.323534
Si Si4 0.693718 0.692151 0.469421
Si Si5 0.090576 0.686979 0.141511
O O1 0.615092 0.749580 0.191983
O O2 0.738340 0.718389 0.393396
O O3 0.323332 0.799598 0.200094
O O4 0.694640 0.000000 0.310786
O O5 0.582594 0.000000 0.937506
O O6 0.500000 0.245375 0.000000
O O7 0.842042 0.269099 0.015900
O O8 0.441029 0.788468 0.402772
O O9 0.123564 0.754822 0.403612
O O10 0.038462 0.710924 0.215739
O O11 0.077363 0.000000 0.291566
O O12 0.653199 0.500000 0.469106
O O13 0.165062 0.500000 0.152271
#
# Coordination Sequence:
#
# PCOD9141773 Si02
#       5
#     4   4   4   4   4
#     4  10  19  33  54  78 104 136 174 212 253 303
#     4  10  22  39  56  74 100 136 176 216 258 306
#     4  10  17  28  47  72 103 136 170 206 250 301
#     4  10  17  27  45  73 107 135 164 206 256 302
#     4  11  21  33  52  79 108 136 170 212 258 304
#
# _framework density 25.886794999999999
#
# number of rings (size 3 to 8) (size 9 to 14) (size 15 to 20)
#    0.000    1.800    0.000   10.200    0.000    4.400 
#    0.000    0.000    0.000    1.200    0.000    8.400 
#    0.000    0.000    0.000    0.000    0.000    0.000 
#
# Total GULP energy -111971.929175 kJ/mol
# GULP energy per Si atom -5598.596459 kJ/mol
# Density = 2.582788 g / cm^3
# Si number density = 25.886795 Si / 1000 Ang^3
#
#
#
# Elastic Constant Matrix: (Units=GPa)
#
#
# Indices 1 2 3 4 5 6 
#
# 1 95.7632 5.2219 18.9586 0.0000 -27.7327 0.0000
# 2 5.2219 77.9374 12.8687 0.0000 -4.4928 0.0000
# 3 18.9586 12.8687 195.5100 0.0000 -24.2023 0.0000
# 4 0.0000 0.0000 0.0000 40.0072 0.0000 -13.7605
# 5 -27.7327 -4.4928 -24.2023 0.0000 60.6809 0.0000
# 6 0.0000 0.0000 0.0000 -13.7605 0.0000 -10.4839
#
#
#
# Elastic Compliance Matrix: (Units=1/GPa)
#
#
# Indices 1 2 3 4 5 6 
#
# 1 0.012098 -0.000424 -0.000489 0.000000 0.005303 0.000000
# 2 -0.000424 0.013011 -0.000757 0.000000 0.000467 0.000000
# 3 -0.000489 -0.000757 0.005446 0.000000 0.001893 0.000000
# 4 0.000000 0.000000 0.000000 0.017221 0.000000 -0.022603
# 5 0.005303 0.000467 0.001893 0.000000 0.019693 0.000000
# 6 0.000000 0.000000 0.000000 -0.022603 0.000000 -0.065717
#
#
# Mechanical properties :
#
#
# Convention : Reuss Voigt Hill
#
# Bulk Modulus (GPa) = 36.74474 49.25656 43.00065
# Shear Modulus (GPa) = 352.98124 40.18494 196.58309
#
# Velocity S-wave (km/s) = 11.68981 3.94424 8.72378
# Velocity P-wave (km/s) = 14.01526 6.30965 10.86828
#
# Compressibility (1/GPa) = 0.02721478
#
# Stress axis : x y z
#
# Youngs Moduli (GPa) = 82.65851 76.85669 183.60782
#
# Poissons Ratio (x) = 0.03260 0.08975
# Poissons Ratio (y) = 0.03506 0.13907
# Poissons Ratio (z) = 0.04040 0.05821
#
# Static dielectric constant tensor:
#      x y z
#    x 2.194360 0.000000 -0.026170 
#    y 0.000000 1.849460 0.000000 
#    z -0.026170 0.000000 2.042570 
# 
# From -- ./inp_files/26762.got.cif
#   From: 2010.05.17/outbox.cif.g08.bks.cpg/sg10_14_cif.got.tgz:26762.got - 2010.06.03 11:33:40.
