data_PCOD9141652
_publ_section_title
;
Structure prediction by ZEFSAII (Michael W. Deem and Ramdas Pophale) SiO2 
 PCOD9141652
Probable space group: P 2/M
;
_chemical_formula_sum "Si O2"
_cell_formula_units_Z 30
_cell_length_a 5.289756
_cell_length_b 12.963189
_cell_length_c 29.679899
_cell_angle_alpha 90.000000
_cell_angle_beta 79.733023
_cell_angle_gamma 90.000000
_cell_volume 2002.625225
_symmetry_space_group_name_H-M "P 2/M"
_symmetry_group_IT_number 10
_symmetry_cell_setting 'monoclinic'
loop_
_space_group_symop_operation_xyz
x,y,z
-x,y,-z
-x,-y,-z
x,-y,z
loop_
_atom_site_type_symbol
_atom_site_label
_atom_site_fract_x
_atom_site_fract_y
_atom_site_fract_z
Si Si1 0.900067 0.116329 0.349935
Si Si2 0.780800 0.500000 0.469202
Si Si3 0.117106 0.126285 0.133160
Si Si4 0.860511 0.663439 0.389452
Si Si5 0.777082 0.874356 0.972923
Si Si6 0.434498 0.877105 0.815236
Si Si7 0.581395 0.613952 0.668638
Si Si8 0.458195 0.169218 0.291811
O O1 0.863807 0.211266 0.386187
O O2 0.681970 0.130001 0.318334
O O3 0.181361 0.130003 0.318331
O O4 0.880920 0.000000 0.369091
O O5 0.500000 0.500000 0.500000
O O6 0.812952 0.602044 0.437050
O O7 0.000000 0.500000 0.500000
O O8 0.169968 0.157508 0.080075
O O9 0.338756 0.162349 0.159984
O O10 0.841926 0.162343 0.160041
O O11 0.116615 0.000000 0.133677
O O12 0.636317 0.628106 0.362513
O O13 0.138544 0.628095 0.362497
O O14 0.777165 0.000000 0.972861
O O15 0.500000 0.841306 0.000000
O O16 0.000000 0.841294 0.000000
O O17 0.488956 0.860631 0.760993
O O18 0.427331 0.000000 0.822375
O O19 0.561147 0.500000 0.688849
O O20 0.545905 0.707110 0.704094
#
# Coordination Sequence:
#
# PCOD9141652 Si02
#       8
#     4   2   4   4   4   4   4   4
#     4  10  19  32  49  69  93 120 154 187 220 260
#     4  12  22  34  54  76 100 120 150 190 232 276
#     4   9  17  25  35  49  69 105 136 171 221 252
#     4  10  20  33  51  73  96 122 148 185 230 263
#     4   9  15  23  34  47  63  86 130 181 215 252
#     4  10  17  26  36  51  81 108 139 173 202 253
#     4  10  17  32  51  68  95 119 148 186 222 259
#     4  10  20  28  45  69  88 121 153 183 220 256
#
# _framework density 14.980335999999999
#
# number of rings (size 3 to 8) (size 9 to 14) (size 15 to 20)
#    0.000    2.133    1.333    3.600    0.000    4.267 
#    0.000    0.000    0.000    0.800    0.000    0.000 
#    0.000    0.000    0.000    0.000    0.000   13.333 
#
# Total GULP energy -167165.565646 kJ/mol
# GULP energy per Si atom -5572.185522 kJ/mol
# Density = 1.494624 g / cm^3
# Si number density = 14.980336 Si / 1000 Ang^3
#
#
#
# Elastic Constant Matrix: (Units=GPa)
#
#
# Indices 1 2 3 4 5 6 
#
# 1 143.8477 18.7683 49.7333 0.0000 5.0378 0.0000
# 2 18.7683 84.6589 17.4943 0.0000 -0.1418 0.0000
# 3 49.7333 17.4943 81.4671 0.0000 -4.0405 0.0000
# 4 0.0000 0.0000 0.0000 11.1228 0.0000 -0.0235
# 5 5.0378 -0.1418 -4.0405 0.0000 -67.0052 0.0000
# 6 0.0000 0.0000 0.0000 -0.0235 0.0000 10.5912
#
#
#
# Elastic Compliance Matrix: (Units=1/GPa)
#
#
# Indices 1 2 3 4 5 6 
#
# 1 0.008811 -0.000890 -0.005139 0.000000 0.000974 0.000000
# 2 -0.000890 0.012449 -0.002129 0.000000 0.000035 0.000000
# 3 -0.005139 -0.002129 0.015803 0.000000 -0.001335 0.000000
# 4 0.000000 0.000000 0.000000 0.089905 0.000000 0.000199
# 5 0.000974 0.000035 -0.001335 0.000000 -0.014771 0.000000
# 6 0.000000 0.000000 0.000000 0.000199 0.000000 0.094418
#
#
# Mechanical properties :
#
#
# Convention : Reuss Voigt Hill
#
# Bulk Modulus (GPa) = 48.19706 53.55172 50.87439
# Shear Modulus (GPa) = 21.75361 5.87363 13.81362
#
# Velocity S-wave (km/s) = 3.81483 1.98227 3.03993
# Velocity P-wave (km/s) = 7.18661 6.40818 6.80853
#
# Compressibility (1/GPa) = 0.02074815
#
# Stress axis : x y z
#
# Youngs Moduli (GPa) = 113.50003 80.32623 63.27854
#
# Poissons Ratio (x) = 0.07146 0.32520
# Poissons Ratio (y) = 0.10097 0.13469
# Poissons Ratio (z) = 0.58330 0.17098
#
# Static dielectric constant tensor:
#      x y z
#    x 1.496700 0.000000 0.000730 
#    y 0.000000 1.501370 0.000000 
#    z 0.000730 0.000000 1.463580 
# 
# From -- ./inp_files/13464.got.cif
#   From: 2010.05.17/outbox.cif.g08.bks.cpg/sg10_7_cif.got.tgz:13464.got - 2010.06.03 11:33:40.
