data_PCOD9141899
_publ_section_title
;
Structure prediction by ZEFSAII (Michael W. Deem and Ramdas Pophale) SiO2 
 PCOD9141899
Probable space group: P 2/M
;
_chemical_formula_sum "Si O2"
_cell_formula_units_Z 32
_cell_length_a 16.507024
_cell_length_b 7.583355
_cell_length_c 22.563937
_cell_angle_alpha 90.000000
_cell_angle_beta 145.819214
_cell_angle_gamma 90.000000
_cell_volume 1586.833686
_symmetry_space_group_name_H-M "P 2/M"
_symmetry_group_IT_number 10
_symmetry_cell_setting 'monoclinic'
loop_
_space_group_symop_operation_xyz
x,y,z
-x,y,-z
-x,-y,-z
x,-y,z
loop_
_atom_site_type_symbol
_atom_site_label
_atom_site_fract_x
_atom_site_fract_y
_atom_site_fract_z
Si Si1 0.020373 0.204092 0.807957
Si Si2 0.872043 0.783711 0.604044
Si Si3 0.741984 0.306670 0.710372
Si Si4 0.881130 0.215243 0.474657
Si Si5 0.726253 0.784123 0.954474
Si Si6 0.169360 0.200142 0.109724
Si Si7 0.446750 0.785131 0.727375
Si Si8 0.545423 0.210451 0.404363
O O1 0.979855 0.281508 0.719749
O O2 0.869126 0.205605 0.753069
O O3 0.058326 0.000000 0.821337
O O4 0.156127 0.280098 0.926731
O O5 0.910166 0.732452 0.560187
O O6 0.706908 0.726894 0.516844
O O7 0.871967 0.000000 0.605966
O O8 0.742545 0.500000 0.684260
O O9 0.794532 0.305463 0.810199
O O10 0.576357 0.250439 0.620543
O O11 0.717459 0.270717 0.361314
O O12 0.000000 0.276249 0.500000
O O13 0.881506 0.000000 0.473915
O O14 0.778924 0.729329 0.921327
O O15 0.558484 0.732210 0.846721
O O16 0.732523 0.000000 0.959840
O O17 0.228656 0.000000 0.154554
O O18 0.000000 0.185676 0.000000
O O19 0.487108 0.729974 0.683660
O O20 0.448729 0.000000 0.727464
O O21 0.553713 0.000000 0.406306
#
# Coordination Sequence:
#
# PCOD9141899 Si02
#       8
#     4   4   4   4   4   4   4   4
#     4  10  19  32  46  61  85 121 164 195 220 263
#     4   8  16  29  47  67  84 114 158 193 218 263
#     4  12  23  30  40  64  93 121 154 195 243 273
#     4   8  13  23  42  70  99 117 133 173 232 278
#     4   9  15  24  43  64  81 112 155 193 220 253
#     4  10  17  29  46  62  81 116 162 198 230 261
#     4   8  13  22  41  66  86 111 149 182 215 266
#     4   9  16  30  48  62  82 116 160 200 226 259
#
# _framework density 20.165942999999999
#
# number of rings (size 3 to 8) (size 9 to 14) (size 15 to 20)
#    0.000    2.750    2.500    2.625    0.000    0.750 
#    0.000    3.125    0.000    0.750    0.000    5.250 
#    0.000   12.500    0.000    1.125    0.000    1.250 
#
# Total GULP energy -178243.478408 kJ/mol
# GULP energy per Si atom -5570.108700 kJ/mol
# Density = 2.012004 g / cm^3
# Si number density = 20.165943 Si / 1000 Ang^3
#
#
#
# Elastic Constant Matrix: (Units=GPa)
#
#
# Indices 1 2 3 4 5 6 
#
# 1 92.2544 -2.5362 74.9956 0.0000 7.0304 0.0000
# 2 -2.5362 42.3078 2.0454 0.0000 -2.3322 0.0000
# 3 74.9956 2.0454 157.5414 0.0000 -10.6067 0.0000
# 4 0.0000 0.0000 0.0000 -19.9334 0.0000 -1.3939
# 5 7.0304 -2.3322 -10.6067 0.0000 21.8521 0.0000
# 6 0.0000 0.0000 0.0000 -1.3939 0.0000 -16.6994
#
#
#
# Elastic Compliance Matrix: (Units=1/GPa)
#
#
# Indices 1 2 3 4 5 6 
#
# 1 0.020190 0.001083 -0.010394 0.000000 -0.011425 0.000000
# 2 0.001083 0.023837 -0.000700 0.000000 0.001856 0.000000
# 3 -0.010394 -0.000700 0.011914 0.000000 0.009052 0.000000
# 4 0.000000 0.000000 0.000000 -0.050462 0.000000 0.004212
# 5 -0.011425 0.001856 0.009052 0.000000 0.054030 0.000000
# 6 0.000000 0.000000 0.000000 0.004212 0.000000 -0.060234
#
#
# Mechanical properties :
#
#
# Convention : Reuss Voigt Hill
#
# Bulk Modulus (GPa) = 27.84081 49.01257 38.42669
# Shear Modulus (GPa) = 159.88678 11.55043 85.71860
#
# Velocity S-wave (km/s) = 8.91390 2.39586 6.52678
# Velocity P-wave (km/s) = 10.94438 5.65782 8.71178
#
# Compressibility (1/GPa) = 0.03591850
#
# Stress axis : x y z
#
# Youngs Moduli (GPa) = 49.52962 41.95089 83.93307
#
# Poissons Ratio (x) = -0.04543 0.87244
# Poissons Ratio (y) = -0.05364 0.05876
# Poissons Ratio (z) = 0.51483 0.02937
#
# Static dielectric constant tensor:
#      x y z
#    x 1.697330 0.000000 0.026890 
#    y 0.000000 1.181730 0.000000 
#    z 0.026890 0.000000 1.777430 
# 
# From -- ./inp_files/80002.got.cif
#   From: 2010.05.17/outbox.cif.g08.bks.cpg/sg10_41_cif.got.tgz:80002.got - 2010.06.03 11:33:40.
