data_PCOD9141021
_publ_section_title
;
Structure prediction by ZEFSAII (Michael W. Deem and Ramdas Pophale) SiO2 
 PCOD9141021
Probable space group: C C
;
_chemical_formula_sum "Si O2"
_cell_formula_units_Z 32
_cell_length_a 9.413154
_cell_length_b 13.507074
_cell_length_c 12.228459
_cell_angle_alpha 90.000000
_cell_angle_beta 55.181818
_cell_angle_gamma 90.000000
_cell_volume 1276.422455
_symmetry_space_group_name_H-M "C C"
_symmetry_group_IT_number 9
_symmetry_cell_setting 'monoclinic'
loop_
_space_group_symop_operation_xyz
x,y,z
x,-y,1/2+z
1/2+x,1/2+y,z
1/2+x,1/2-y,1/2+z
loop_
_atom_site_type_symbol
_atom_site_label
_atom_site_fract_x
_atom_site_fract_y
_atom_site_fract_z
Si Si1 0.287800 0.536194 0.386780
Si Si2 0.954656 0.151633 0.136433
Si Si3 0.772746 0.565568 0.341161
Si Si4 0.976345 0.560194 0.894583
Si Si5 0.657238 0.165170 0.632383
Si Si6 0.062231 0.900029 0.355504
Si Si7 0.510304 0.733628 0.501425
Si Si8 0.597068 0.211653 0.188569
O O1 0.427612 0.561727 0.231614
O O2 0.231916 0.629859 0.483544
O O3 0.383880 0.459982 0.423067
O O4 0.114617 0.493614 0.409933
O O5 0.761148 0.170768 0.179708
O O6 0.029812 0.244048 0.169620
O O7 0.066145 0.139819 0.977903
O O8 0.812728 0.509293 0.439125
O O9 0.721087 0.478127 0.279539
O O10 0.610364 0.640547 0.406886
O O11 0.939694 0.634279 0.252598
O O12 0.062098 0.578240 0.737937
O O13 0.960111 0.671139 0.950473
O O14 0.825519 0.196395 0.627883
O O15 0.057995 0.813284 0.269631
O O16 0.633207 0.764897 0.546653
#
# Coordination Sequence:
#
# PCOD9141021 Si02
#       8
#     4   4   4   4   4   4   4   4
#     4  12  25  45  74 104 152 188 249 309 376 454
#     4  12  26  48  74 107 147 195 248 312 375 448
#     4  12  27  49  76 108 156 200 251 311 388 444
#     4  12  27  48  74 111 149 197 251 313 381 445
#     4  12  26  48  74 107 147 195 248 312 375 448
#     4  12  27  48  74 111 149 197 251 313 381 445
#     4  12  27  48  76 110 150 197 256 312 375 454
#     4  12  27  48  76 110 150 197 256 312 375 454
#
# _framework density 25.070072
#
# number of rings (size 3 to 8) (size 9 to 14) (size 15 to 20)
#    0.000    0.000    2.500    7.500    7.000    1.000 
#    0.000    0.000    0.000    0.000    0.000    0.000 
#    0.000    0.000    0.000    0.000    0.000    0.000 
#
# Total GULP energy -89614.224384 kJ/mol
# GULP energy per Si atom -5600.889024 kJ/mol
# Density = 2.501301 g / cm^3
# Si number density = 25.070072 Si / 1000 Ang^3
#
#
#
# Elastic Constant Matrix: (Units=GPa)
#
#
# Indices 1 2 3 4 5 6 
#
# 1 115.1967 34.2303 -5.1872 0.0000 -5.8116 0.0000
# 2 34.2303 126.7411 20.9358 0.0000 -0.2752 0.0000
# 3 -5.1872 20.9358 45.2799 0.0000 7.3222 0.0000
# 4 0.0000 0.0000 0.0000 32.8604 0.0000 6.6221
# 5 -5.8116 -0.2752 7.3222 0.0000 37.7329 0.0000
# 6 0.0000 0.0000 0.0000 6.6221 0.0000 60.6306
#
#
#
# Elastic Compliance Matrix: (Units=1/GPa)
#
#
# Indices 1 2 3 4 5 6 
#
# 1 0.009733 -0.003014 0.002343 0.000000 0.001022 0.000000
# 2 -0.003014 0.009502 -0.004826 0.000000 0.000542 0.000000
# 3 0.002343 -0.004826 0.025327 0.000000 -0.004589 0.000000
# 4 0.000000 0.000000 0.000000 0.031117 0.000000 -0.003399
# 5 0.001022 0.000542 -0.004589 0.000000 0.027554 0.000000
# 6 0.000000 0.000000 0.000000 -0.003399 0.000000 0.016865
#
#
# Mechanical properties :
#
#
# Convention : Reuss Voigt Hill
#
# Bulk Modulus (GPa) = 29.78950 43.01948 36.40449
# Shear Modulus (GPa) = 35.14159 42.06069 38.60114
#
# Velocity S-wave (km/s) = 3.74804 4.10045 3.92820
# Velocity P-wave (km/s) = 5.53522 6.29406 5.92680
#
# Compressibility (1/GPa) = 0.03356887
#
# Stress axis : x y z
#
# Youngs Moduli (GPa) = 102.73920 105.23596 39.48363
#
# Poissons Ratio (x) = 0.31714 -0.09251
# Poissons Ratio (y) = 0.30962 0.19057
# Poissons Ratio (z) = -0.24073 0.50791
#
# Static dielectric constant tensor:
#      x y z
#    x 1.913220 0.000000 -0.029790 
#    y 0.000000 1.984430 0.000000 
#    z -0.029790 0.000000 1.989540 
# 
# From -- ./inp_files/14722.got.cif
#   From: 2010.05.17/outbox.cif.g08.bks.cpg/sg9_8_cif.got.tgz:14722.got - 2010.06.03 20:04:27.
