data_PCOD9141237
_publ_section_title
;
Structure prediction by ZEFSAII (Michael W. Deem and Ramdas Pophale) SiO2 
 PCOD9141237
Probable space group: C C
;
_chemical_formula_sum "Si O2"
_cell_formula_units_Z 16
_cell_length_a 9.000000
_cell_length_b 12.000000
_cell_length_c 15.000000
_cell_angle_alpha 90.000000
_cell_angle_beta 60.000000
_cell_angle_gamma 90.000000
_cell_volume 1402.961154
_symmetry_space_group_name_H-M "C C"
_symmetry_group_IT_number 9
_symmetry_cell_setting 'monoclinic'
loop_
_space_group_symop_operation_xyz
x,y,z
x,-y,1/2+z
1/2+x,1/2+y,z
1/2+x,1/2-y,1/2+z
loop_
_atom_site_type_symbol
_atom_site_label
_atom_site_fract_x
_atom_site_fract_y
_atom_site_fract_z
Si Si1 0.653120 0.733678 0.530420
Si Si2 0.237779 0.583185 0.127340
Si Si3 0.633290 0.636058 0.024787
Si Si4 0.848883 0.374594 0.291204
Si Si5 0.549249 0.346471 0.800160
Si Si6 0.891606 0.629149 0.312181
Si Si7 0.815591 0.845012 0.038076
Si Si8 0.700195 0.461076 0.148726
O O1 0.693410 0.858673 0.546682
O O2 0.806957 0.688006 0.422254
O O3 0.467177 0.720593 0.542909
O O4 0.642608 0.649323 0.616199
O O5 0.093897 0.643553 0.231791
O O6 0.432828 0.610145 0.093191
O O7 0.238039 0.449775 0.113867
O O8 0.682008 0.644078 0.905205
O O9 0.675481 0.755953 0.052260
O O10 0.742858 0.545029 0.050937
O O11 0.898365 0.495184 0.316203
O O12 0.813274 0.410570 0.198091
O O13 0.971872 0.268161 0.279907
O O14 0.747114 0.337022 0.779411
O O15 0.421190 0.380271 0.918319
O O16 0.563285 0.456092 0.735309
#
# Coordination Sequence:
#
# PCOD9141237 Si02
#       8
#     4   4   4   4   4   4   4   4
#     4  11  25  47  71 104 149 193 245 314 364 428
#     4  12  26  43  74 110 146 196 245 295 371 450
#     4  11  24  48  75 108 150 187 243 312 363 439
#     4  10  22  44  78 107 148 192 249 303 369 436
#     4   9  22  43  75 108 143 194 246 306 360 437
#     4  10  23  45  67 105 150 190 248 305 369 437
#     4  10  24  50  73 103 144 191 248 304 363 435
#     4  11  22  40  77 105 146 193 236 305 369 424
#
# _framework density 11.404450000000001
#
# number of rings (size 3 to 8) (size 9 to 14) (size 15 to 20)
#    0.000    1.500    2.500    1.500    7.000    3.000 
#    2.250    1.250    8.250    0.000    0.000    0.000 
#    0.000    0.000    0.000    0.000    0.000    0.000 
#
# Total GULP energy -89150.854495 kJ/mol
# GULP energy per Si atom -5571.928406 kJ/mol
# Density = 1.137849 g / cm^3
# Si number density = 11.404450 Si / 1000 Ang^3
#
#
#
# Elastic Constant Matrix: (Units=GPa)
#
#
# Indices 1 2 3 4 5 6 
#
# 1 91.2044 50.9051 31.3373 0.0000 -5.0626 0.0000
# 2 50.9051 98.0547 -2.2279 0.0000 -13.6191 0.0000
# 3 31.3373 -2.2279 54.6339 0.0000 5.9131 0.0000
# 4 0.0000 0.0000 0.0000 31.7961 0.0000 7.4686
# 5 -5.0626 -13.6191 5.9131 0.0000 28.3196 0.0000
# 6 0.0000 0.0000 0.0000 7.4686 0.0000 44.9534
#
#
#
# Elastic Compliance Matrix: (Units=1/GPa)
#
#
# Indices 1 2 3 4 5 6 
#
# 1 0.022043 -0.011587 -0.013239 0.000000 0.001132 0.000000
# 2 -0.011587 0.017020 0.006833 0.000000 0.004687 0.000000
# 3 -0.013239 0.006833 0.026679 0.000000 -0.004651 0.000000
# 4 0.000000 0.000000 0.000000 0.032728 0.000000 -0.005437
# 5 0.001132 0.004687 -0.004651 0.000000 0.038739 0.000000
# 6 0.000000 0.000000 0.000000 -0.005437 0.000000 0.023149
#
#
# Mechanical properties :
#
#
# Convention : Reuss Voigt Hill
#
# Bulk Modulus (GPa) = 33.60583 44.88021 39.24302
# Shear Modulus (GPa) = 24.24086 31.93905 28.08996
#
# Velocity S-wave (km/s) = 3.26357 3.74610 3.51313
# Velocity P-wave (km/s) = 5.38208 6.19922 5.80505
#
# Compressibility (1/GPa) = 0.02975674
#
# Stress axis : x y z
#
# Youngs Moduli (GPa) = 45.36497 58.75372 37.48217
#
# Poissons Ratio (x) = 0.68080 0.49622
# Poissons Ratio (y) = 0.52566 -0.25612
# Poissons Ratio (z) = 0.60058 -0.40147
#
# Static dielectric constant tensor:
#      x y z
#    x 1.882850 0.000000 0.031090 
#    y 0.000000 1.854950 0.000000 
#    z 0.031090 0.000000 2.003010 
# 
# From -- ./inp_files/22864.got.cif
#   From: 2010.05.17/outbox.ucp.g08.bks.cvg/sg9_12_cif.got.tgz:22864.got - 2010.06.11 13:03:20.
