data_PCOD9141226
_publ_section_title
;
Structure prediction by ZEFSAII (Michael W. Deem and Ramdas Pophale) SiO2 
 PCOD9141226
Probable space group: C C
;
_chemical_formula_sum "Si O2"
_cell_formula_units_Z 16
_cell_length_a 12.000000
_cell_length_b 9.000000
_cell_length_c 15.000000
_cell_angle_alpha 90.000000
_cell_angle_beta 120.000000
_cell_angle_gamma 90.000000
_cell_volume 1402.961154
_symmetry_space_group_name_H-M "C C"
_symmetry_group_IT_number 9
_symmetry_cell_setting 'monoclinic'
loop_
_space_group_symop_operation_xyz
x,y,z
x,-y,1/2+z
1/2+x,1/2+y,z
1/2+x,1/2-y,1/2+z
loop_
_atom_site_type_symbol
_atom_site_label
_atom_site_fract_x
_atom_site_fract_y
_atom_site_fract_z
Si Si1 0.571310 0.966684 0.969440
Si Si2 0.111231 0.239063 0.146599
Si Si3 0.828890 0.954677 0.306483
Si Si4 0.791353 0.560263 0.929464
Si Si5 0.601215 0.515675 0.502426
Si Si6 0.637093 0.179865 0.310664
Si Si7 0.472600 0.281701 0.087947
Si Si8 0.355921 0.580409 0.120550
O O1 0.575143 0.873340 0.878780
O O2 0.420796 0.017535 0.925737
O O3 0.589334 0.864585 0.063563
O O4 0.704252 0.071442 0.024522
O O5 0.234370 0.309595 0.251603
O O6 0.971152 0.201336 0.139639
O O7 0.147073 0.093825 0.101185
O O8 0.971899 0.940103 0.406819
O O9 0.750935 0.063657 0.339936
O O10 0.846148 0.050269 0.222449
O O11 0.708188 0.461464 0.966882
O O12 0.686955 0.649575 0.829750
O O13 0.846985 0.691756 0.012071
O O14 0.555086 0.665068 0.535136
O O15 0.546549 0.178432 0.187878
O O16 0.421745 0.431256 0.110993
#
# Coordination Sequence:
#
# PCOD9141226 Si02
#       8
#     4   4   4   4   4   4   4   4
#     4  11  24  44  69 104 145 187 226 289 352 409
#     4  10  22  45  73 101 138 183 231 290 350 419
#     4  11  23  44  71 102 143 184 229 293 356 407
#     4  12  24  44  71 101 142 187 233 285 348 422
#     4  11  23  46  71 103 144 185 231 294 354 412
#     4  12  24  46  69  98 145 185 231 293 350 413
#     4  11  23  44  74  98 141 187 232 292 344 419
#     4  10  21  43  72 105 140 182 231 288 354 411
#
# _framework density 11.404450000000001
#
# number of rings (size 3 to 8) (size 9 to 14) (size 15 to 20)
#    0.000    1.000    3.750    3.750    0.000    4.000 
#    6.750    0.000    0.000    0.000    0.000    0.000 
#    0.000    0.000    0.000    0.000    0.000    0.000 
#
# Total GULP energy -89241.677186 kJ/mol
# GULP energy per Si atom -5577.604824 kJ/mol
# Density = 1.137849 g / cm^3
# Si number density = 11.404450 Si / 1000 Ang^3
#
#
#
# Elastic Constant Matrix: (Units=GPa)
#
#
# Indices 1 2 3 4 5 6 
#
# 1 193.8236 41.5941 28.5821 0.0000 -14.8566 0.0000
# 2 41.5941 42.2751 15.0548 0.0000 -1.2617 0.0000
# 3 28.5821 15.0548 86.3795 0.0000 0.8657 0.0000
# 4 0.0000 0.0000 0.0000 24.4796 0.0000 9.0437
# 5 -14.8566 -1.2617 0.8657 0.0000 37.9711 0.0000
# 6 0.0000 0.0000 0.0000 9.0437 0.0000 54.6432
#
#
#
# Elastic Compliance Matrix: (Units=1/GPa)
#
#
# Indices 1 2 3 4 5 6 
#
# 1 0.006872 -0.006256 -0.001209 0.000000 0.002509 0.000000
# 2 -0.006256 0.030949 -0.003310 0.000000 -0.001344 0.000000
# 3 -0.001209 -0.003310 0.012562 0.000000 -0.000869 0.000000
# 4 0.000000 0.000000 0.000000 0.043511 0.000000 -0.007201
# 5 0.002509 -0.001344 -0.000869 0.000000 0.027292 0.000000
# 6 0.000000 0.000000 0.000000 -0.007201 0.000000 0.019492
#
#
# Mechanical properties :
#
#
# Convention : Reuss Voigt Hill
#
# Bulk Modulus (GPa) = 34.68268 54.77113 44.72690
# Shear Modulus (GPa) = 29.09659 39.23528 34.16593
#
# Velocity S-wave (km/s) = 3.57552 4.15200 3.87450
# Velocity P-wave (km/s) = 5.68195 6.85935 6.29822
#
# Compressibility (1/GPa) = 0.02883284
#
# Stress axis : x y z
#
# Youngs Moduli (GPa) = 145.50781 32.31122 79.60236
#
# Poissons Ratio (x) = 0.20215 0.09622
# Poissons Ratio (y) = 0.91036 0.26351
# Poissons Ratio (z) = 0.17588 0.10696
#
# Static dielectric constant tensor:
#      x y z
#    x 1.898250 0.000000 -0.001870 
#    y 0.000000 1.895740 0.000000 
#    z -0.001870 0.000000 1.895800 
# 
# From -- ./inp_files/24195.got.cif
#   From: 2010.05.17/outbox.ucp.g08.bks.cvg/sg9_13_cif.got.tgz:24195.got - 2010.06.11 13:03:20.
