data_PCOD9141082
_publ_section_title
;
Structure prediction by ZEFSAII (Michael W. Deem and Ramdas Pophale) SiO2 
 PCOD9141082
Probable space group: C C
;
_chemical_formula_sum "Si O2"
_cell_formula_units_Z 32
_cell_length_a 12.921530
_cell_length_b 9.934085
_cell_length_c 16.885664
_cell_angle_alpha 90.000000
_cell_angle_beta 33.144048
_cell_angle_gamma 90.000000
_cell_volume 1185.073888
_symmetry_space_group_name_H-M "C C"
_symmetry_group_IT_number 9
_symmetry_cell_setting 'monoclinic'
loop_
_space_group_symop_operation_xyz
x,y,z
x,-y,1/2+z
1/2+x,1/2+y,z
1/2+x,1/2-y,1/2+z
loop_
_atom_site_type_symbol
_atom_site_label
_atom_site_fract_x
_atom_site_fract_y
_atom_site_fract_z
Si Si1 0.751190 0.052674 0.297990
Si Si2 0.426807 0.755464 0.387175
Si Si3 0.179584 0.293420 0.712146
Si Si4 0.071928 0.701280 0.541214
Si Si5 0.510598 0.996492 0.221483
Si Si6 0.994989 0.336534 0.520196
Si Si7 0.117399 0.908528 0.040764
Si Si8 0.629197 0.510932 0.715659
O O1 0.608387 0.096618 0.321122
O O2 0.681898 0.925100 0.390349
O O3 0.728249 0.175909 0.372299
O O4 0.946738 0.011712 0.134211
O O5 0.203713 0.785052 0.517248
O O6 0.533267 0.870076 0.268248
O O7 0.475056 0.760058 0.448777
O O8 0.477444 0.605830 0.325356
O O9 0.154655 0.381232 0.649011
O O10 0.527168 0.733553 0.570760
O O11 0.386937 0.249741 0.612260
O O12 0.023602 0.571884 0.627030
O O13 0.570987 0.653399 0.790494
O O14 0.303604 0.059928 0.370618
O O15 0.816487 0.438746 0.631335
O O16 0.160245 0.935137 0.105939
#
# Coordination Sequence:
#
# PCOD9141082 Si02
#       8
#     4   4   4   4   4   4   4   4
#     4  12  26  54  78 121 170 216 290 360 425 522
#     4  12  25  53  80 120 174 226 283 365 432 521
#     4  12  29  50  82 123 171 222 294 356 425 523
#     4  12  28  50  84 121 173 225 287 361 443 511
#     4  12  29  54  84 123 172 232 292 355 444 521
#     4  12  27  50  83 122 168 226 283 355 438 523
#     4  12  29  53  85 123 172 227 288 360 437 523
#     4  12  27  52  80 123 172 220 291 354 434 520
#
# _framework density 27.002535999999999
#
# number of rings (size 3 to 8) (size 9 to 14) (size 15 to 20)
#    0.000    0.000    5.000    3.000    7.000    1.000 
#    0.000    0.000    0.000    0.000    0.000    0.000 
#    0.000    0.000    0.000    0.000    0.000    0.000 
#
# Total GULP energy -89440.017969 kJ/mol
# GULP energy per Si atom -5590.001123 kJ/mol
# Density = 2.694108 g / cm^3
# Si number density = 27.002536 Si / 1000 Ang^3
#
#
#
# Elastic Constant Matrix: (Units=GPa)
#
#
# Indices 1 2 3 4 5 6 
#
# 1 140.3170 66.1733 39.6604 0.0001 0.1338 0.0000
# 2 66.1733 167.5938 52.8388 0.0004 -15.5714 0.0000
# 3 39.6604 52.8388 71.1936 0.0002 -4.0420 0.0000
# 4 0.0001 0.0004 0.0002 35.6098 -0.0001 -3.9035
# 5 0.1338 -15.5714 -4.0420 -0.0001 33.3093 0.0001
# 6 0.0000 0.0000 0.0000 -3.9035 0.0001 63.3144
#
#
#
# Elastic Compliance Matrix: (Units=1/GPa)
#
#
# Indices 1 2 3 4 5 6 
#
# 1 0.009382 -0.002857 -0.003206 0.000000 -0.001763 0.000000
# 2 -0.002857 0.008961 -0.004854 0.000000 0.003612 0.000000
# 3 -0.003206 -0.004854 0.019440 0.000000 0.000103 0.000000
# 4 0.000000 0.000000 0.000000 0.028273 0.000000 0.001743
# 5 -0.001763 0.003612 0.000103 0.000000 0.031730 0.000000
# 6 0.000000 0.000000 0.000000 0.001743 0.000000 0.015902
#
#
# Mechanical properties :
#
#
# Convention : Reuss Voigt Hill
#
# Bulk Modulus (GPa) = 62.69920 77.38325 70.04123
# Shear Modulus (GPa) = 35.50166 41.14215 38.32190
#
# Velocity S-wave (km/s) = 3.62989 3.90762 3.77131
# Velocity P-wave (km/s) = 6.39048 7.00566 6.70513
#
# Compressibility (1/GPa) = 0.01594917
#
# Stress axis : x y z
#
# Youngs Moduli (GPa) = 106.58577 111.59580 51.43936
#
# Poissons Ratio (x) = 0.31888 0.16491
# Poissons Ratio (y) = 0.30457 0.24967
# Poissons Ratio (z) = 0.34170 0.54166
#
# Static dielectric constant tensor:
#      x y z
#    x 2.180960 0.000000 -0.003140 
#    y 0.000000 2.202650 0.000000 
#    z -0.003140 0.000000 2.162860 
# 
# From -- ./inp_files/16708.got.cif
#   From: 2010.05.17/outbox.cif.g08.bks.cpg/sg9_9_cif.got.tgz:16708.got - 2010.06.03 20:04:27.
