data_PCOD9141959
_publ_section_title
;
Structure prediction by ZEFSAII (Michael W. Deem and Ramdas Pophale) SiO2 
 PCOD9141959
Probable space group: P 2/M
;
_chemical_formula_sum "Si O2"
_cell_formula_units_Z 28
_cell_length_a 29.633552
_cell_length_b 7.509280
_cell_length_c 9.871268
_cell_angle_alpha 90.000000
_cell_angle_beta 140.916779
_cell_angle_gamma 90.000000
_cell_volume 1384.855879
_symmetry_space_group_name_H-M "P 2/M"
_symmetry_group_IT_number 10
_symmetry_cell_setting 'monoclinic'
loop_
_space_group_symop_operation_xyz
x,y,z
-x,y,-z
-x,-y,-z
x,-y,z
loop_
_atom_site_type_symbol
_atom_site_label
_atom_site_fract_x
_atom_site_fract_y
_atom_site_fract_z
Si Si1 0.946772 0.282195 0.679235
Si Si2 0.696821 0.281099 0.731612
Si Si3 0.258487 0.285273 0.453391
Si Si4 0.180310 0.297794 0.787382
Si Si5 0.296128 0.793717 0.844660
Si Si6 0.420366 0.288667 0.331309
Si Si7 0.098258 0.283264 0.121499
O O1 0.944907 0.500000 0.671207
O O2 0.893789 0.217064 0.438436
O O3 0.916132 0.230916 0.755863
O O4 0.029693 0.227214 0.873533
O O5 0.697262 0.500000 0.738675
O O6 0.699852 0.225885 0.583176
O O7 0.628308 0.220036 0.657985
O O8 0.768885 0.220457 0.977755
O O9 0.256879 0.500000 0.446358
O O10 0.291149 0.233997 0.673464
O O11 0.176075 0.222446 0.257101
O O12 0.164045 0.500000 0.793043
O O13 0.232430 0.303505 0.777012
O O14 0.285327 0.000000 0.850257
O O15 0.371320 0.737040 0.084596
O O16 0.500000 0.214425 0.500000
O O17 0.427601 0.500000 0.371164
O O18 0.098420 0.500000 0.120442
#
# Coordination Sequence:
#
# PCOD9141959 Si02
#       7
#     4   4   4   4   4   4   4
#     4   8  12  20  38  65  91 118 160 203 239 277
#     4   8  16  28  48  75  96 118 156 197 235 282
#     4  10  17  30  48  68  97 130 160 195 237 281
#     4   9  15  29  49  68  92 126 165 205 240 279
#     4  11  21  31  48  74  99 125 160 196 230 278
#     4   9  18  36  59  78  96 121 153 189 231 281
#     4   8  13  20  37  65  92 122 157 197 241 278
#
# _framework density 20.218713000000001
#
# number of rings (size 3 to 8) (size 9 to 14) (size 15 to 20)
#    0.000    3.000    1.429    3.000    0.000    0.286 
#    0.000    4.286    0.000   10.286    0.000    0.000 
#    0.000    5.714    0.000    0.000    0.000    0.000 
#
# Total GULP energy -156112.016712 kJ/mol
# GULP energy per Si atom -5575.429168 kJ/mol
# Density = 2.017269 g / cm^3
# Si number density = 20.218713 Si / 1000 Ang^3
#
#
#
# Elastic Constant Matrix: (Units=GPa)
#
#
# Indices 1 2 3 4 5 6 
#
# 1 84.1856 -9.7201 47.9753 0.0000 4.2233 0.0000
# 2 -9.7201 40.3068 -32.3144 0.0000 7.4298 0.0000
# 3 47.9753 -32.3144 73.8342 0.0000 16.9447 0.0000
# 4 0.0000 0.0000 0.0000 92.7365 0.0000 -18.6896
# 5 4.2233 7.4298 16.9447 0.0000 34.3764 0.0000
# 6 0.0000 0.0000 0.0000 -18.6896 0.0000 -9.1334
#
#
#
# Elastic Compliance Matrix: (Units=1/GPa)
#
#
# Indices 1 2 3 4 5 6 
#
# 1 0.024831 -0.019122 -0.027909 0.000000 0.014839 0.000000
# 2 -0.019122 0.067539 0.050509 0.000000 -0.037145 0.000000
# 3 -0.027909 0.050509 0.062582 0.000000 -0.038335 0.000000
# 4 0.000000 0.000000 0.000000 0.007635 0.000000 -0.015623
# 5 0.014839 -0.037145 -0.038335 0.000000 0.054191 0.000000
# 6 0.000000 0.000000 0.000000 -0.015623 0.000000 -0.077519
#
#
# Mechanical properties :
#
#
# Convention : Reuss Voigt Hill
#
# Bulk Modulus (GPa) = 6.17640 23.35645 14.76643
# Shear Modulus (GPa) = 26.84263 36.42161 31.63212
#
# Velocity S-wave (km/s) = 3.64760 4.24887 3.95966
# Velocity P-wave (km/s) = 4.56085 5.97056 5.31267
#
# Compressibility (1/GPa) = 0.16190649
#
# Stress axis : x y z
#
# Youngs Moduli (GPa) = 40.27258 14.80633 15.97911
#
# Poissons Ratio (x) = 0.28313 0.44596
# Poissons Ratio (y) = 0.77010 -0.80708
# Poissons Ratio (z) = 1.12396 -0.74785
#
# Static dielectric constant tensor:
#      x y z
#    x 1.698710 0.000000 0.011070 
#    y 0.000000 1.785700 0.000000 
#    z 0.011070 0.000000 1.714590 
# 
# From -- ./inp_files/38026.got.cif
#   From: 2010.05.17/outbox.cif.g08.bks.cpg/sg10_20_cif.got.tgz:38026.got - 2010.06.03 11:33:40.
