data_PCOD9141734
_publ_section_title
;
Structure prediction by ZEFSAII (Michael W. Deem and Ramdas Pophale) SiO2 
 PCOD9141734
Probable space group: P 2/M
;
_chemical_formula_sum "Si O2"
_cell_formula_units_Z 28
_cell_length_a 28.714659
_cell_length_b 7.423916
_cell_length_c 13.872009
_cell_angle_alpha 90.000000
_cell_angle_beta 148.751700
_cell_angle_gamma 90.000000
_cell_volume 1534.024937
_symmetry_space_group_name_H-M "P 2/M"
_symmetry_group_IT_number 10
_symmetry_cell_setting 'monoclinic'
loop_
_space_group_symop_operation_xyz
x,y,z
-x,y,-z
-x,-y,-z
x,-y,z
loop_
_atom_site_type_symbol
_atom_site_label
_atom_site_fract_x
_atom_site_fract_y
_atom_site_fract_z
Si Si1 0.898252 0.779968 0.708947
Si Si2 0.280083 0.793626 0.301099
Si Si3 0.279208 0.206305 0.699124
Si Si4 0.460254 0.220617 0.531746
Si Si5 0.444644 0.217774 0.103902
Si Si6 0.628821 0.289532 0.336376
Si Si7 0.899457 0.779891 0.934205
O O1 0.817648 0.714351 0.498976
O O2 0.883320 0.726163 0.794144
O O3 0.895587 0.000000 0.704193
O O4 0.999303 0.726412 0.860267
O O5 0.358625 0.715642 0.373306
O O6 0.323499 0.792612 0.485137
O O7 0.181255 0.714188 0.141233
O O8 0.267698 0.000000 0.247769
O O9 0.334127 0.206136 0.695699
O O10 0.262662 0.000000 0.699651
O O11 0.348156 0.286643 0.898359
O O12 0.500000 0.276639 0.500000
O O13 0.521299 0.276559 0.730700
O O14 0.458224 0.000000 0.529652
O O15 0.522845 0.268434 0.166987
O O16 0.441288 0.000000 0.098574
O O17 0.650633 0.500000 0.372509
O O18 0.896888 0.000000 0.930217
#
# Coordination Sequence:
#
# PCOD9141734 Si02
#       7
#     4   4   4   4   4   4   4
#     4   8  13  20  35  57  78  98 127 166 192 213
#     4   9  15  26  44  60  77 104 136 164 190 229
#     4  10  17  27  41  56  76 105 137 163 187 222
#     4   8  14  25  41  61  79  94 123 168 205 230
#     4   9  18  29  42  57  74 102 136 163 190 231
#     4  11  20  27  37  56  83 110 132 159 193 229
#     4   8  12  20  36  58  77  97 129 164 192 217
#
# _framework density 18.252635999999999
#
# number of rings (size 3 to 8) (size 9 to 14) (size 15 to 20)
#    0.000    3.000    1.429    3.429    0.000    2.286 
#    0.000    0.000    0.000    8.571    0.000    1.000 
#    0.000    8.000    0.000    0.000    0.000   13.714 
#
# Total GULP energy -156063.532849 kJ/mol
# GULP energy per Si atom -5573.697602 kJ/mol
# Density = 1.821109 g / cm^3
# Si number density = 18.252636 Si / 1000 Ang^3
#
#
#
# Elastic Constant Matrix: (Units=GPa)
#
#
# Indices 1 2 3 4 5 6 
#
# 1 109.3296 -0.8601 65.4449 0.0000 23.9348 0.0000
# 2 -0.8601 65.9197 0.5863 0.0000 1.7569 0.0000
# 3 65.4449 0.5863 151.9287 0.0000 36.9446 0.0000
# 4 0.0000 0.0000 0.0000 -17.9126 0.0000 -0.0736
# 5 23.9348 1.7569 36.9446 0.0000 24.3860 0.0000
# 6 0.0000 0.0000 0.0000 -0.0736 0.0000 -28.3939
#
#
#
# Elastic Compliance Matrix: (Units=1/GPa)
#
#
# Indices 1 2 3 4 5 6 
#
# 1 0.013003 0.000386 -0.003946 0.000000 -0.006812 0.000000
# 2 0.000386 0.015221 0.000212 0.000000 -0.001796 0.000000
# 3 -0.003946 0.000212 0.011626 0.000000 -0.013755 0.000000
# 4 0.000000 0.000000 0.000000 -0.055827 0.000000 0.000145
# 5 -0.006812 -0.001796 -0.013755 0.000000 0.068661 0.000000
# 6 0.000000 0.000000 0.000000 0.000145 0.000000 -0.035219
#
#
# Mechanical properties :
#
#
# Convention : Reuss Voigt Hill
#
# Bulk Modulus (GPa) = 30.16263 50.83555 40.49909
# Shear Modulus (GPa) = 141.99287 13.08303 77.53795
#
# Velocity S-wave (km/s) = 8.82961 2.68017 6.52477
# Velocity P-wave (km/s) = 10.97772 6.12285 8.88818
#
# Compressibility (1/GPa) = 0.03315361
#
# Stress axis : x y z
#
# Youngs Moduli (GPa) = 76.90392 65.69863 86.01401
#
# Poissons Ratio (x) = -0.02538 0.33944
# Poissons Ratio (y) = -0.02971 -0.01821
# Poissons Ratio (z) = 0.30349 -0.01391
#
# Static dielectric constant tensor:
#      x y z
#    x 1.596240 0.000000 0.033160 
#    y 0.000000 1.673230 0.000000 
#    z 0.033160 0.000000 1.664610 
# 
# From -- ./inp_files/54691.got.cif
#   From: 2010.05.17/outbox.cif.g08.bks.cpg/sg10_28_cif.got.tgz:54691.got - 2010.06.03 11:33:40.
