data_PCOD9141920
_publ_section_title
;
Structure prediction by ZEFSAII (Michael W. Deem and Ramdas Pophale) SiO2 
 PCOD9141920
Probable space group: P 2/M
;
_chemical_formula_sum "Si O2"
_cell_formula_units_Z 30
_cell_length_a 20.488161
_cell_length_b 18.874902
_cell_length_c 19.810653
_cell_angle_alpha 90.000000
_cell_angle_beta 165.225159
_cell_angle_gamma 90.000000
_cell_volume 1953.721922
_symmetry_space_group_name_H-M "P 2/M"
_symmetry_group_IT_number 10
_symmetry_cell_setting 'monoclinic'
loop_
_space_group_symop_operation_xyz
x,y,z
-x,y,-z
-x,-y,-z
x,-y,z
loop_
_atom_site_type_symbol
_atom_site_label
_atom_site_fract_x
_atom_site_fract_y
_atom_site_fract_z
Si Si1 0.250003 0.000000 0.296294
Si Si2 0.750032 0.580405 0.110166
Si Si3 0.750000 0.710341 0.205286
Si Si4 0.750020 0.220537 0.060725
Si Si5 0.250016 0.265175 0.475676
Si Si6 0.750004 0.079815 0.995153
Si Si7 0.749976 0.417618 0.484133
Si Si8 0.750001 0.880843 0.590541
O O1 0.500000 0.000000 0.500000
O O2 0.250005 0.928018 0.341658
O O3 0.000000 0.000000 0.000000
O O4 0.750038 0.500000 0.133782
O O5 0.500026 0.590703 0.813255
O O6 0.750019 0.631862 0.173445
O O7 0.000044 0.590705 0.313279
O O8 0.000000 0.721855 0.500000
O O9 0.500000 0.721847 0.000000
O O10 0.749991 0.756577 0.137559
O O11 0.500427 0.248397 0.771192
O O12 0.750019 0.136321 0.054385
O O13 0.999633 0.248396 0.270408
O O14 0.250013 0.350531 0.464409
O O15 0.249997 0.206004 0.415213
O O16 0.501553 0.094718 0.701261
O O17 0.750005 0.000000 0.018798
O O18 0.998443 0.094716 0.198148
O O19 0.749987 0.500000 0.509744
#
# Coordination Sequence:
#
# PCOD9141920 Si02
#       8
#     2   4   4   4   4   4   4   4
#     4  12  22  34  50  74 118 148 160 176 214 268
#     4  10  20  32  44  62  87 116 155 190 238 299
#     4  12  22  32  46  60  87 118 158 194 235 308
#     4  10  20  31  48  69  86 118 151 197 260 274
#     4  10  17  32  51  67  95 117 158 206 230 282
#     4  10  17  32  54  72  96 113 158 210 228 278
#     4  10  17  29  49  68  91 118 146 195 255 294
#     4  10  20  31  49  77  99 132 166 189 219 258
#
# _framework density 15.355306000000001
#
# number of rings (size 3 to 8) (size 9 to 14) (size 15 to 20)
#    0.000    1.600    4.000    2.400    0.000    0.533 
#    0.000    0.000    0.000    0.800    0.000    0.000 
#    0.000    1.067    0.000    0.000    0.000    3.200 
#
# Total GULP energy -167131.067896 kJ/mol
# GULP energy per Si atom -5571.035597 kJ/mol
# Density = 1.532036 g / cm^3
# Si number density = 15.355306 Si / 1000 Ang^3
#
#
#
# Elastic Constant Matrix: (Units=GPa)
#
#
# Indices 1 2 3 4 5 6 
#
# 1 74.0100 50.5478 34.3612 0.0000 0.0751 0.0000
# 2 50.5478 129.2956 29.9183 0.0000 -5.6277 0.0000
# 3 34.3612 29.9183 124.3810 0.0000 13.6851 0.0000
# 4 0.0000 0.0000 0.0000 28.2794 0.0000 -0.6930
# 5 0.0751 -5.6277 13.6851 0.0000 23.6684 0.0000
# 6 0.0000 0.0000 0.0000 -0.6930 0.0000 30.8104
#
#
#
# Elastic Compliance Matrix: (Units=1/GPa)
#
#
# Indices 1 2 3 4 5 6 
#
# 1 0.020057 -0.006904 -0.003944 0.000000 0.000575 0.000000
# 2 -0.006904 0.010814 -0.001046 0.000000 0.003198 0.000000
# 3 -0.003944 -0.001046 0.010046 0.000000 -0.006045 0.000000
# 4 0.000000 0.000000 0.000000 0.035381 0.000000 0.000796
# 5 0.000575 0.003198 -0.006045 0.000000 0.046504 0.000000
# 6 0.000000 0.000000 0.000000 0.000796 0.000000 0.032474
#
#
# Mechanical properties :
#
#
# Convention : Reuss Voigt Hill
#
# Bulk Modulus (GPa) = 58.37376 61.92679 60.15028
# Shear Modulus (GPa) = 27.06010 30.74227 28.90119
#
# Velocity S-wave (km/s) = 4.20249 4.47929 4.34310
# Velocity P-wave (km/s) = 7.85148 8.19566 8.02542
#
# Compressibility (1/GPa) = 0.01713098
#
# Stress axis : x y z
#
# Youngs Moduli (GPa) = 49.85741 92.46900 99.54288
#
# Poissons Ratio (x) = 0.63838 0.39256
# Poissons Ratio (y) = 0.34420 0.10412
# Poissons Ratio (z) = 0.19662 0.09672
#
# Static dielectric constant tensor:
#      x y z
#    x 1.463070 0.000000 0.012760 
#    y 0.000000 1.574670 0.000000 
#    z 0.012760 0.000000 1.509840 
# 
# From -- ./inp_files/11679.got.cif
#   From: 2010.05.17/outbox.cif.g08.bks.cpg/sg10_6_cif.got.tgz:11679.got - 2010.06.03 11:33:40.
