data_PCOD9141099
_publ_section_title
;
Structure prediction by ZEFSAII (Michael W. Deem and Ramdas Pophale) SiO2 
 PCOD9141099
Probable space group: C C
;
_chemical_formula_sum "Si O2"
_cell_formula_units_Z 32
_cell_length_a 4.919203
_cell_length_b 18.586606
_cell_length_c 13.422401
_cell_angle_alpha 90.000000
_cell_angle_beta 71.158020
_cell_angle_gamma 90.000000
_cell_volume 1161.463836
_symmetry_space_group_name_H-M "C C"
_symmetry_group_IT_number 9
_symmetry_cell_setting 'monoclinic'
loop_
_space_group_symop_operation_xyz
x,y,z
x,-y,1/2+z
1/2+x,1/2+y,z
1/2+x,1/2-y,1/2+z
loop_
_atom_site_type_symbol
_atom_site_label
_atom_site_fract_x
_atom_site_fract_y
_atom_site_fract_z
Si Si1 0.851770 0.153149 0.020730
Si Si2 0.406443 0.911405 0.356548
Si Si3 0.086293 0.551291 0.422122
Si Si4 0.360721 0.937912 0.149832
Si Si5 0.511004 0.575282 0.198171
Si Si6 0.915795 0.810894 0.227759
Si Si7 0.766581 0.669248 0.327801
Si Si8 0.345163 0.250615 0.018583
O O1 0.838041 0.107703 0.124958
O O2 0.551471 0.180396 0.012272
O O3 0.028638 0.225307 0.027492
O O4 0.081939 0.114488 0.919099
O O5 0.634744 0.849034 0.306841
O O6 0.450154 0.958208 0.250330
O O7 0.488656 0.968536 0.430300
O O8 0.096553 0.571721 0.536825
O O9 0.885372 0.608924 0.388634
O O10 0.359446 0.552751 0.319331
O O11 0.176474 0.866318 0.189775
O O12 0.159910 0.003547 0.141505
O O13 0.702381 0.637969 0.225674
O O14 0.972146 0.738290 0.283932
O O15 0.844661 0.790689 0.123172
O O16 0.487087 0.702257 0.414737
#
# Coordination Sequence:
#
# PCOD9141099 Si02
#       8
#     4   4   4   4   4   4   4   4
#     4  12  28  53  81 118 164 212 265 333 402 481
#     4  12  27  48  79 113 159 212 264 334 401 482
#     4  12  27  48  75 113 155 209 271 330 405 480
#     4  12  27  48  75 113 155 209 271 330 405 480
#     4  12  27  48  79 113 159 212 264 334 401 482
#     4  12  26  47  75 113 156 202 268 325 403 473
#     4  12  26  47  75 113 156 202 268 325 403 473
#     4  12  28  49  77 118 162 212 265 331 400 467
#
# _framework density 27.551441000000001
#
# number of rings (size 3 to 8) (size 9 to 14) (size 15 to 20)
#    0.000    0.000    7.500    1.500    5.250    1.000 
#    2.250    0.000    0.000    0.000    0.000    0.000 
#    0.000    0.000    0.000    0.000    0.000    0.000 
#
# Total GULP energy -89741.682791 kJ/mol
# GULP energy per Si atom -5608.855174 kJ/mol
# Density = 2.748873 g / cm^3
# Si number density = 27.551441 Si / 1000 Ang^3
#
#
#
# Elastic Constant Matrix: (Units=GPa)
#
#
# Indices 1 2 3 4 5 6 
#
# 1 46.5306 21.2240 22.5863 0.0000 -9.7092 0.0000
# 2 21.2240 131.9611 21.8797 0.0000 -16.6426 0.0000
# 3 22.5863 21.8797 201.0658 0.0000 -26.9339 0.0000
# 4 0.0000 0.0000 0.0000 45.2659 0.0000 4.5566
# 5 -9.7092 -16.6426 -26.9339 0.0000 39.4509 0.0000
# 6 0.0000 0.0000 0.0000 4.5566 0.0000 42.4793
#
#
#
# Elastic Compliance Matrix: (Units=1/GPa)
#
#
# Indices 1 2 3 4 5 6 
#
# 1 0.024610 -0.003208 -0.001965 0.000000 0.003362 0.000000
# 2 -0.003208 0.008461 -0.000207 0.000000 0.002639 0.000000
# 3 -0.001965 -0.000207 0.005658 0.000000 0.003292 0.000000
# 4 0.000000 0.000000 0.000000 0.022333 0.000000 -0.002396
# 5 0.003362 0.002639 0.003292 0.000000 0.029536 0.000000
# 6 0.000000 0.000000 0.000000 -0.002396 0.000000 0.023798
#
#
# Mechanical properties :
#
#
# Convention : Reuss Voigt Hill
#
# Bulk Modulus (GPa) = 35.75498 56.77083 46.26290
# Shear Modulus (GPa) = 37.18069 46.36372 41.77220
#
# Velocity S-wave (km/s) = 3.67754 4.10665 3.89801
# Velocity P-wave (km/s) = 5.57119 6.56782 6.08992
#
# Compressibility (1/GPa) = 0.02796814
#
# Stress axis : x y z
#
# Youngs Moduli (GPa) = 40.63395 118.18829 176.75051
#
# Poissons Ratio (x) = 0.37919 0.34732
# Poissons Ratio (y) = 0.13037 0.03656
# Poissons Ratio (z) = 0.07985 0.02445
#
# Static dielectric constant tensor:
#      x y z
#    x 2.170440 0.000000 0.002420 
#    y 0.000000 2.181520 0.000000 
#    z 0.002420 0.000000 2.093470 
# 
# From -- ./inp_files/22038.got.cif
#   From: 2010.05.17/outbox.cif.g08.bks.cpg/sg9_12_cif.got.tgz:22038.got - 2010.06.03 20:04:27.
