data_PCOD9141700
_publ_section_title
;
Structure prediction by ZEFSAII (Michael W. Deem and Ramdas Pophale) SiO2 
 PCOD9141700
Probable space group: P 2/M
;
_chemical_formula_sum "Si O2"
_cell_formula_units_Z 32
_cell_length_a 22.082271
_cell_length_b 7.979185
_cell_length_c 31.957267
_cell_angle_alpha 90.000000
_cell_angle_beta 160.488616
_cell_angle_gamma 90.000000
_cell_volume 1880.662019
_symmetry_space_group_name_H-M "P 2/M"
_symmetry_group_IT_number 10
_symmetry_cell_setting 'monoclinic'
loop_
_space_group_symop_operation_xyz
x,y,z
-x,y,-z
-x,-y,-z
x,-y,z
loop_
_atom_site_type_symbol
_atom_site_label
_atom_site_fract_x
_atom_site_fract_y
_atom_site_fract_z
Si Si1 0.621255 0.800983 0.617846
Si Si2 0.705203 0.699562 0.545384
Si Si3 0.342707 0.800303 0.019960
Si Si4 0.060244 0.795454 0.473083
Si Si5 0.674908 0.794754 0.087202
Si Si6 0.945433 0.798011 0.625400
Si Si7 0.947035 0.302341 0.781139
Si Si8 0.712555 0.204689 0.300542
O O1 0.500000 0.733122 0.500000
O O2 0.499170 0.758536 0.578255
O O3 0.820603 0.731603 0.738946
O O4 0.633216 0.000000 0.622021
O O5 0.705865 0.500000 0.548862
O O6 0.788454 0.751184 0.555525
O O7 0.837834 0.766771 0.669098
O O8 0.337291 0.735956 0.968669
O O9 0.147845 0.769677 0.913517
O O10 0.368192 0.000000 0.033324
O O11 0.515339 0.734715 0.158047
O O12 0.081415 0.736508 0.439426
O O13 0.213048 0.740515 0.605752
O O14 0.865857 0.748556 0.366356
O O15 0.063613 0.000000 0.474709
O O16 0.862476 0.738834 0.230507
O O17 0.677231 0.000000 0.088393
O O18 0.500000 0.743780 0.000000
O O19 0.954411 0.000000 0.629575
O O20 0.964451 0.500000 0.786847
O O21 0.709876 0.000000 0.299803
#
# Coordination Sequence:
#
# PCOD9141700 Si02
#       8
#     4   4   4   4   4   4   4   4
#     4   9  17  29  47  67  88 115 150 185 217 257
#     4  10  19  30  43  62  92 124 150 178 219 269
#     4  10  17  26  43  65  89 117 151 188 224 264
#     4   8  14  25  42  65  90 115 149 195 238 267
#     4   9  16  24  37  60  87 114 147 185 222 259
#     4  10  17  26  43  65  89 117 151 188 224 264
#     4  10  19  30  43  62  92 124 150 178 219 269
#     4   8  14  25  42  65  90 115 149 195 238 267
#
# _framework density 17.015284000000001
#
# number of rings (size 3 to 8) (size 9 to 14) (size 15 to 20)
#    0.000    2.750    1.250    2.625    0.000    5.500 
#    0.000    0.000    0.000    4.500    0.000    2.625 
#    0.000    7.000    0.000    0.000    0.000    0.000 
#
# Total GULP energy -178342.935797 kJ/mol
# GULP energy per Si atom -5573.216744 kJ/mol
# Density = 1.697656 g / cm^3
# Si number density = 17.015284 Si / 1000 Ang^3
#
#
#
# Elastic Constant Matrix: (Units=GPa)
#
#
# Indices 1 2 3 4 5 6 
#
# 1 104.1829 -6.5000 74.9467 0.0000 8.5155 0.0000
# 2 -6.5000 9.7339 1.3029 0.0000 -6.3713 0.0000
# 3 74.9467 1.3029 118.3923 0.0000 6.0139 0.0000
# 4 0.0000 0.0000 0.0000 -30.5191 0.0000 -40.5649
# 5 8.5155 -6.3713 6.0139 0.0000 21.9234 0.0000
# 6 0.0000 0.0000 0.0000 -40.5649 0.0000 -44.8608
#
#
#
# Elastic Compliance Matrix: (Units=1/GPa)
#
#
# Indices 1 2 3 4 5 6 
#
# 1 0.019525 0.014820 -0.012531 0.000000 0.000161 0.000000
# 2 0.014820 0.139412 -0.012861 0.000000 0.038287 0.000000
# 3 -0.012531 -0.012861 0.016696 0.000000 -0.003450 0.000000
# 4 0.000000 0.000000 0.000000 0.162303 0.000000 -0.146761
# 5 0.000161 0.038287 -0.003450 0.000000 0.057624 0.000000
# 6 0.000000 0.000000 0.000000 -0.146761 0.000000 0.110416
#
#
# Mechanical properties :
#
#
# Convention : Reuss Voigt Hill
#
# Bulk Modulus (GPa) = 6.47294 41.31202 23.89248
# Shear Modulus (GPa) = 8.64132 0.14601 4.39366
#
# Velocity S-wave (km/s) = 2.25601 0.29325 1.60866
# Velocity P-wave (km/s) = 3.25554 4.94436 4.18601
#
# Compressibility (1/GPa) = 0.15448928
#
# Stress axis : x y z
#
# Youngs Moduli (GPa) = 51.21756 7.17299 59.89497
#
# Poissons Ratio (x) = -0.10631 0.75055
# Poissons Ratio (y) = -0.75907 0.77030
# Poissons Ratio (z) = 0.64181 0.09225
#
# Static dielectric constant tensor:
#      x y z
#    x 1.576880 0.000000 0.000450 
#    y 0.000000 1.599670 0.000000 
#    z 0.000450 0.000000 1.575840 
# 
# From -- ./inp_files/72565.got.cif
#   From: 2010.05.17/outbox.cif.g08.bks.cpg/sg10_37_cif.got.tgz:72565.got - 2010.06.03 11:33:40.
