data_PCOD9141011
_publ_section_title
;
Structure prediction by ZEFSAII (Michael W. Deem and Ramdas Pophale) SiO2 
 PCOD9141011
Probable space group: C C
;
_chemical_formula_sum "Si O2"
_cell_formula_units_Z 32
_cell_length_a 8.746111
_cell_length_b 8.974921
_cell_length_c 28.364096
_cell_angle_alpha 90.000000
_cell_angle_beta 141.661279
_cell_angle_gamma 90.000000
_cell_volume 1381.092677
_symmetry_space_group_name_H-M "C C"
_symmetry_group_IT_number 9
_symmetry_cell_setting 'monoclinic'
loop_
_space_group_symop_operation_xyz
x,y,z
x,-y,1/2+z
1/2+x,1/2+y,z
1/2+x,1/2-y,1/2+z
loop_
_atom_site_type_symbol
_atom_site_label
_atom_site_fract_x
_atom_site_fract_y
_atom_site_fract_z
Si Si1 0.919400 0.466986 0.903790
Si Si2 0.041451 0.025668 0.163003
Si Si3 0.386920 0.810400 0.805042
Si Si4 0.820247 0.190996 0.020765
Si Si5 0.912401 0.098198 0.416619
Si Si6 0.184742 0.323219 0.662510
Si Si7 0.131228 0.809382 0.506742
Si Si8 0.380983 0.475485 0.805130
O O1 0.802011 0.412970 0.827098
O O2 0.678158 0.493592 0.876003
O O3 0.099222 0.604129 0.941033
O O4 0.086010 0.340842 0.967483
O O5 0.128221 0.854838 0.167426
O O6 0.295553 0.111418 0.235713
O O7 0.909457 0.096501 0.086149
O O8 0.866443 0.095822 0.165339
O O9 0.680265 0.821329 0.883200
O O10 0.284807 0.644724 0.784190
O O11 0.040573 0.216786 0.038162
O O12 0.670703 0.337726 0.997599
O O13 0.852121 0.110711 0.346820
O O14 0.943740 0.925941 0.437391
O O15 0.266197 0.398986 0.731434
O O16 0.913334 0.358049 0.576649
#
# Coordination Sequence:
#
# PCOD9141011 Si02
#       8
#     4   4   4   4   4   4   4   4
#     4  12  24  52  72 108 148 198 252 328 388 472
#     4  12  32  52  78 112 164 212 268 334 416 496
#     4  12  28  48  77 109 153 202 260 325 402 482
#     4  12  28  48  77 109 153 202 260 325 402 482
#     4  12  28  44  80 112 148 198 272 324 400 484
#     4  12  32  52  78 112 164 212 268 334 416 496
#     4  12  28  48  77 109 153 202 260 325 402 482
#     4  12  28  48  77 109 153 202 260 325 402 482
#
# _framework density 23.170059999999999
#
# number of rings (size 3 to 8) (size 9 to 14) (size 15 to 20)
#    0.000    0.000    7.500    0.000   17.500    0.000 
#    0.000    0.000    0.000    0.000    0.000    0.000 
#    0.000    0.000    0.000    0.000    0.000    0.000 
#
# Total GULP energy -89093.057032 kJ/mol
# GULP energy per Si atom -5568.316064 kJ/mol
# Density = 2.311732 g / cm^3
# Si number density = 23.170060 Si / 1000 Ang^3
#
#
#
# Elastic Constant Matrix: (Units=GPa)
#
#
# Indices 1 2 3 4 5 6 
#
# 1 57.3685 -6.0259 0.9856 0.0000 13.8973 0.0000
# 2 -6.0259 102.2528 25.1987 0.0000 -7.8464 0.0000
# 3 0.9856 25.1987 110.2370 0.0000 -3.9453 0.0000
# 4 0.0000 0.0000 0.0000 49.9936 0.0000 2.5863
# 5 13.8973 -7.8464 -3.9453 0.0000 41.4847 0.0000
# 6 0.0000 0.0000 0.0000 2.5863 0.0000 11.9073
#
#
#
# Elastic Compliance Matrix: (Units=1/GPa)
#
#
# Indices 1 2 3 4 5 6 
#
# 1 0.019046 0.000781 -0.000574 0.000000 -0.006287 0.000000
# 2 0.000781 0.010522 -0.002358 0.000000 0.001504 0.000000
# 3 -0.000574 -0.002358 0.009639 0.000000 0.000663 0.000000
# 4 0.000000 0.000000 0.000000 0.020230 0.000000 -0.004394
# 5 -0.006287 0.001504 0.000663 0.000000 0.026559 0.000000
# 6 0.000000 0.000000 0.000000 -0.004394 0.000000 0.084937
#
#
# Mechanical properties :
#
#
# Convention : Reuss Voigt Hill
#
# Bulk Modulus (GPa) = 28.64843 34.46391 31.55617
# Shear Modulus (GPa) = 26.75650 37.32377 32.04013
#
# Velocity S-wave (km/s) = 3.40190 4.01791 3.72267
# Velocity P-wave (km/s) = 5.27464 6.03584 5.66804
#
# Compressibility (1/GPa) = 0.03490593
#
# Stress axis : x y z
#
# Youngs Moduli (GPa) = 52.50407 95.03575 103.74174
#
# Poissons Ratio (x) = -0.07426 0.05954
# Poissons Ratio (y) = -0.04103 0.24467
# Poissons Ratio (z) = 0.03013 0.22413
#
# Static dielectric constant tensor:
#      x y z
#    x 1.979820 0.000000 -0.021770 
#    y 0.000000 1.950570 0.000000 
#    z -0.021770 0.000000 1.822550 
# 
# From -- ./inp_files/32392.got.cif
#   From: 2010.05.17/outbox.cif.g08.bks.cpg/sg9_17_cif.got.tgz:32392.got - 2010.06.03 20:04:27.
