data_PCOD9141901
_publ_section_title
;
Structure prediction by ZEFSAII (Michael W. Deem and Ramdas Pophale) SiO2 
 PCOD9141901
Probable space group: P 2/M
;
_chemical_formula_sum "Si O2"
_cell_formula_units_Z 32
_cell_length_a 14.356290
_cell_length_b 8.213015
_cell_length_c 15.683712
_cell_angle_alpha 90.000000
_cell_angle_beta 87.918585
_cell_angle_gamma 90.000000
_cell_volume 1848.021703
_symmetry_space_group_name_H-M "P 2/M"
_symmetry_group_IT_number 10
_symmetry_cell_setting 'monoclinic'
loop_
_space_group_symop_operation_xyz
x,y,z
-x,y,-z
-x,-y,-z
x,-y,z
loop_
_atom_site_type_symbol
_atom_site_label
_atom_site_fract_x
_atom_site_fract_y
_atom_site_fract_z
Si Si1 0.389943 0.688717 0.740503
Si Si2 0.224987 0.300427 0.851879
Si Si3 0.466389 0.816564 0.139802
Si Si4 0.316569 0.692725 0.023460
Si Si5 0.313565 0.187854 0.297801
Si Si6 0.472423 0.804859 0.408062
Si Si7 0.016409 0.302887 0.900743
Si Si8 0.172818 0.195817 0.171557
O O1 0.383777 0.500000 0.717548
O O2 0.287610 0.751165 0.769514
O O3 0.453034 0.704931 0.824210
O O4 0.445966 0.775712 0.663468
O O5 0.225839 0.500000 0.852539
O O6 0.117833 0.250016 0.863942
O O7 0.278853 0.244557 0.935024
O O8 0.411160 0.768041 0.057064
O O9 0.386113 0.813812 0.215849
O O10 0.502397 0.000000 0.132560
O O11 0.330562 0.500000 0.017349
O O12 0.234760 0.728131 0.094005
O O13 0.375499 0.262965 0.371495
O O14 0.219157 0.255776 0.259018
O O15 0.293939 0.000000 0.321926
O O16 0.500000 0.740966 0.500000
O O17 0.460525 0.000000 0.414969
O O18 0.014101 0.500000 0.901003
O O19 0.933016 0.240499 0.844466
O O20 0.000000 0.250845 0.000000
O O21 0.184305 0.000000 0.168181
#
# Coordination Sequence:
#
# PCOD9141901 Si02
#       8
#     4   4   4   4   4   4   4   4
#     4  10  19  32  48  67  93 124 156 192 234 285
#     4   9  19  32  45  63  89 123 163 203 242 280
#     4   9  17  30  44  63  92 123 157 196 235 274
#     4  10  17  29  46  63  85 123 168 200 234 280
#     4   7  13  26  43  64  92 119 143 178 225 276
#     4   9  17  32  54  76  98 124 150 181 231 293
#     4  10  18  32  49  63  85 124 170 210 241 279
#     4  10  18  28  43  67  96 122 154 202 247 279
#
# _framework density 17.315814
#
# number of rings (size 3 to 8) (size 9 to 14) (size 15 to 20)
#    0.000    2.750    1.250    3.000    0.000    1.000 
#    0.000    6.875    0.000    0.000    0.000    0.875 
#    0.000    7.000    0.000    0.000    0.000    0.000 
#
# Total GULP energy -178258.160718 kJ/mol
# GULP energy per Si atom -5570.567522 kJ/mol
# Density = 1.727640 g / cm^3
# Si number density = 17.315814 Si / 1000 Ang^3
#
#
#
# Elastic Constant Matrix: (Units=GPa)
#
#
# Indices 1 2 3 4 5 6 
#
# 1 105.7631 -2.8877 63.3965 0.0000 13.4666 0.0000
# 2 -2.8877 14.3822 2.4558 0.0000 4.2992 0.0000
# 3 63.3965 2.4558 84.1724 0.0000 25.1764 0.0000
# 4 0.0000 0.0000 0.0000 12.4078 0.0000 6.5254
# 5 13.4666 4.2992 25.1764 0.0000 22.0794 0.0000
# 6 0.0000 0.0000 0.0000 6.5254 0.0000 37.2808
#
#
#
# Elastic Compliance Matrix: (Units=1/GPa)
#
#
# Indices 1 2 3 4 5 6 
#
# 1 0.018154 0.004581 -0.015523 0.000000 0.005735 0.000000
# 2 0.004581 0.075577 -0.000634 0.000000 -0.016787 0.000000
# 3 -0.015523 -0.000634 0.031446 0.000000 -0.026266 0.000000
# 4 0.000000 0.000000 0.000000 0.088766 0.000000 -0.015537
# 5 0.005735 -0.016787 -0.026266 0.000000 0.075012 0.000000
# 6 0.000000 0.000000 0.000000 -0.015537 0.000000 0.029543
#
#
# Mechanical properties :
#
#
# Convention : Reuss Voigt Hill
#
# Bulk Modulus (GPa) = 9.80140 36.69409 23.24774
# Shear Modulus (GPa) = 13.30995 23.77716 18.54356
#
# Velocity S-wave (km/s) = 2.77548 3.70962 3.27602
# Velocity P-wave (km/s) = 3.99296 6.29170 5.26921
#
# Compressibility (1/GPa) = 0.10202629
#
# Stress axis : x y z
#
# Youngs Moduli (GPa) = 55.08286 13.23157 31.80008
#
# Poissons Ratio (x) = -0.06062 0.49362
# Poissons Ratio (y) = -0.25235 0.02018
# Poissons Ratio (z) = 0.85503 0.00839
#
# Static dielectric constant tensor:
#      x y z
#    x 1.615620 0.000000 0.018300 
#    y 0.000000 1.611270 0.000000 
#    z 0.018300 0.000000 1.601960 
# 
# From -- ./inp_files/66158.got.cif
#   From: 2010.05.17/outbox.cif.g08.bks.cpg/sg10_34_cif.got.tgz:66158.got - 2010.06.03 11:33:40.
