data_PCOD9141016
_publ_section_title
;
Structure prediction by ZEFSAII (Michael W. Deem and Ramdas Pophale) SiO2 
 PCOD9141016
Probable space group: C C
;
_chemical_formula_sum "Si O2"
_cell_formula_units_Z 24
_cell_length_a 4.909744
_cell_length_b 25.843201
_cell_length_c 8.663233
_cell_angle_alpha 90.000000
_cell_angle_beta 62.984463
_cell_angle_gamma 90.000000
_cell_volume 979.278019
_symmetry_space_group_name_H-M "C C"
_symmetry_group_IT_number 9
_symmetry_cell_setting 'monoclinic'
loop_
_space_group_symop_operation_xyz
x,y,z
x,-y,1/2+z
1/2+x,1/2+y,z
1/2+x,1/2-y,1/2+z
loop_
_atom_site_type_symbol
_atom_site_label
_atom_site_fract_x
_atom_site_fract_y
_atom_site_fract_z
Si Si1 0.284280 0.289154 0.803780
Si Si2 0.491008 0.448364 0.779027
Si Si3 0.651488 0.349294 0.922556
Si Si4 0.879359 0.880808 0.313134
Si Si5 0.277201 0.820425 0.424243
Si Si6 0.148907 0.525738 0.057818
O O1 0.402569 0.305988 0.942228
O O2 0.254430 0.227575 0.811803
O O3 0.556263 0.304052 0.619095
O O4 0.978826 0.321358 0.845855
O O5 0.617904 0.392826 0.798836
O O6 0.278306 0.450268 0.683309
O O7 0.789719 0.481949 0.666656
O O8 0.310259 0.472998 0.967924
O O9 0.553291 0.375954 0.106797
O O10 0.616940 0.836412 0.385935
O O11 0.720049 0.934407 0.400208
O O12 0.130519 0.869510 0.378294
#
# Coordination Sequence:
#
# PCOD9141016 Si02
#       6
#     4   4   4   4   4   4
#     4  12  25  44  68  98 135 178 225 279 338 402
#     4  12  26  46  71 101 137 181 228 282 342 407
#     4  12  25  44  68  99 135 177 226 279 337 403
#     4  12  25  44  68  99 135 177 226 279 337 403
#     4  12  25  44  68  98 135 178 225 279 338 402
#     4  12  26  46  71 101 137 181 228 282 342 407
#
# _framework density 24.507852
#
# number of rings (size 3 to 8) (size 9 to 14) (size 15 to 20)
#    0.000    0.000    0.000   12.000    0.000    2.667 
#    0.000    0.000    0.000    0.000    0.000    0.000 
#    0.000    0.000    0.000    0.000    0.000    0.000 
#
# Total GULP energy -67294.697423 kJ/mol
# GULP energy per Si atom -5607.891452 kJ/mol
# Density = 2.445207 g / cm^3
# Si number density = 24.507852 Si / 1000 Ang^3
#
#
#
# Elastic Constant Matrix: (Units=GPa)
#
#
# Indices 1 2 3 4 5 6 
#
# 1 114.7458 7.7154 9.0524 0.0000 -13.3694 0.0000
# 2 7.7154 61.2900 3.7580 0.0000 -15.9417 0.0000
# 3 9.0524 3.7580 75.7089 0.0000 -3.3959 0.0000
# 4 0.0000 0.0000 0.0000 28.3781 0.0000 -5.2123
# 5 -13.3694 -15.9417 -3.3959 0.0000 37.0504 0.0000
# 6 0.0000 0.0000 0.0000 -5.2123 0.0000 35.3269
#
#
#
# Elastic Compliance Matrix: (Units=1/GPa)
#
#
# Indices 1 2 3 4 5 6 
#
# 1 0.009170 -0.000291 -0.000943 0.000000 0.003097 0.000000
# 2 -0.000291 0.018405 -0.000530 0.000000 0.007765 0.000000
# 3 -0.000943 -0.000530 0.013377 0.000000 0.000658 0.000000
# 4 0.000000 0.000000 0.000000 0.036220 0.000000 0.005344
# 5 0.003097 0.007765 0.000658 0.000000 0.031509 0.000000
# 6 0.000000 0.000000 0.000000 0.005344 0.000000 0.029096
#
#
# Mechanical properties :
#
#
# Convention : Reuss Voigt Hill
#
# Bulk Modulus (GPa) = 26.72161 32.53290 29.62725
# Shear Modulus (GPa) = 32.51404 35.56567 34.03985
#
# Velocity S-wave (km/s) = 3.64631 3.81359 3.73089
# Velocity P-wave (km/s) = 5.35298 5.71792 5.53846
#
# Compressibility (1/GPa) = 0.03742289
#
# Stress axis : x y z
#
# Youngs Moduli (GPa) = 109.05431 54.33350 74.75475
#
# Poissons Ratio (x) = 0.01580 0.07050
# Poissons Ratio (y) = 0.03172 0.03965
# Poissons Ratio (z) = 0.10284 0.02882
#
# Static dielectric constant tensor:
#      x y z
#    x 1.885000 0.000000 0.035320 
#    y 0.000000 1.967070 0.000000 
#    z 0.035320 0.000000 1.929180 
# 
# From -- ./inp_files/3906.got.cif
#   From: 2010.05.17/outbox.cif.g08.bks.cpg/sg9_2_cif.got.tgz:3906.got - 2010.06.03 20:04:27.
