data_PCOD9141277
_publ_section_title
;
Structure prediction by ZEFSAII (Michael W. Deem and Ramdas Pophale) SiO2 
 PCOD9141277
Probable space group: C C
;
_chemical_formula_sum "Si O2"
_cell_formula_units_Z 16
_cell_length_a 21.000000
_cell_length_b 9.000000
_cell_length_c 15.000000
_cell_angle_alpha 90.000000
_cell_angle_beta 30.000000
_cell_angle_gamma 90.000000
_cell_volume 1417.500000
_symmetry_space_group_name_H-M "C C"
_symmetry_group_IT_number 9
_symmetry_cell_setting 'monoclinic'
loop_
_space_group_symop_operation_xyz
x,y,z
x,-y,1/2+z
1/2+x,1/2+y,z
1/2+x,1/2-y,1/2+z
loop_
_atom_site_type_symbol
_atom_site_label
_atom_site_fract_x
_atom_site_fract_y
_atom_site_fract_z
Si Si1 0.545180 0.624167 0.930280
Si Si2 0.256861 0.364800 0.964482
Si Si3 0.533734 0.966262 0.821059
Si Si4 0.121860 0.862288 0.157687
Si Si5 0.363084 0.050221 0.871514
Si Si6 0.742636 0.155170 0.283252
Si Si7 0.967793 0.107634 0.666095
Si Si8 0.038691 0.435929 0.510805
O O1 0.586279 0.546484 0.789065
O O2 0.653234 0.742853 0.829506
O O3 0.396610 0.671793 0.089565
O O4 0.538945 0.508773 0.017395
O O5 0.327603 0.223683 0.921707
O O6 0.216179 0.303627 0.917464
O O7 0.335955 0.516649 0.845216
O O8 0.138258 0.412578 0.166579
O O9 0.599788 0.807158 0.718615
O O10 0.414113 0.985206 0.901976
O O11 0.495257 0.004851 0.967804
O O12 0.028960 0.878095 0.188392
O O13 0.256075 0.932928 0.968613
O O14 0.474739 0.036424 0.664165
O O15 0.688931 0.985707 0.333382
O O16 0.991848 0.268869 0.590382
#
# Coordination Sequence:
#
# PCOD9141277 Si02
#       8
#     4   4   4   4   4   4   4   4
#     4  11  27  45  79 117 151 208 256 327 385 477
#     4  11  26  48  76 108 153 202 251 324 384 471
#     4  12  28  48  75 111 153 195 261 319 383 465
#     4  12  27  48  80 106 156 209 256 317 394 470
#     4  12  28  49  78 110 151 202 260 310 403 462
#     4  11  23  47  76 108 157 201 260 315 395 460
#     4  11  26  47  76 110 158 195 258 315 395 453
#     4  12  25  48  74 112 151 202 246 325 377 468
#
# _framework density 11.287478
#
# number of rings (size 3 to 8) (size 9 to 14) (size 15 to 20)
#    0.000    0.500    3.750    3.000    7.000    2.000 
#    2.250    0.000    0.000    0.000    0.000    0.000 
#    0.000    0.000    0.000    0.000    0.000    0.000 
#
# Total GULP energy -89261.221626 kJ/mol
# GULP energy per Si atom -5578.826352 kJ/mol
# Density = 1.126179 g / cm^3
# Si number density = 11.287478 Si / 1000 Ang^3
#
#
#
# Elastic Constant Matrix: (Units=GPa)
#
#
# Indices 1 2 3 4 5 6 
#
# 1 137.6441 18.1442 24.9073 0.0000 11.1568 0.0000
# 2 18.1442 85.1038 4.8876 0.0000 -29.3793 0.0000
# 3 24.9073 4.8876 41.4235 0.0000 -8.9405 0.0000
# 4 0.0000 0.0000 0.0000 27.2630 0.0000 -10.1759
# 5 11.1568 -29.3793 -8.9405 0.0000 35.7844 0.0000
# 6 0.0000 0.0000 0.0000 -10.1759 0.0000 35.4167
#
#
#
# Elastic Compliance Matrix: (Units=1/GPa)
#
#
# Indices 1 2 3 4 5 6 
#
# 1 0.009927 -0.004739 -0.007312 0.000000 -0.008813 0.000000
# 2 -0.004739 0.018701 0.004519 0.000000 0.017961 0.000000
# 3 -0.007312 0.004519 0.030967 0.000000 0.013727 0.000000
# 4 0.000000 0.000000 0.000000 0.041086 0.000000 0.011805
# 5 -0.008813 0.017961 0.013727 0.000000 0.048868 0.000000
# 6 0.000000 0.000000 0.000000 0.011805 0.000000 0.031627
#
#
# Mechanical properties :
#
#
# Convention : Reuss Voigt Hill
#
# Bulk Modulus (GPa) = 22.45551 40.00551 31.23051
# Shear Modulus (GPa) = 23.68729 34.10830 28.89779
#
# Velocity S-wave (km/s) = 3.24276 3.89123 3.58170
# Velocity P-wave (km/s) = 4.89789 6.16024 5.56498
#
# Compressibility (1/GPa) = 0.04453251
#
# Stress axis : x y z
#
# Youngs Moduli (GPa) = 100.73319 53.47187 32.29250
#
# Poissons Ratio (x) = 0.25339 0.23612
# Poissons Ratio (y) = 0.47735 -0.14594
# Poissons Ratio (z) = 0.73656 -0.24165
#
# Static dielectric constant tensor:
#      x y z
#    x 1.841780 0.000000 -0.016920 
#    y 0.000000 1.869880 0.000000 
#    z -0.016920 0.000000 1.887130 
# 
# From -- ./inp_files/27339.got.cif
#   From: 2010.05.17/outbox.ucp.g08.bks.cvg/sg9_14_cif.got.tgz:27339.got - 2010.06.11 13:03:20.
