data_PCOD9141547
_publ_section_title
;
Structure prediction by ZEFSAII (Michael W. Deem and Ramdas Pophale) SiO2 
 PCOD9141547
Probable space group: P 2/M
;
_chemical_formula_sum "Si O2"
_cell_formula_units_Z 28
_cell_length_a 17.380418
_cell_length_b 7.333579
_cell_length_c 20.492948
_cell_angle_alpha 90.000000
_cell_angle_beta 22.491069
_cell_angle_gamma 90.000000
_cell_volume 999.210116
_symmetry_space_group_name_H-M "P 2/M"
_symmetry_group_IT_number 10
_symmetry_cell_setting 'monoclinic'
loop_
_space_group_symop_operation_xyz
x,y,z
-x,y,-z
-x,-y,-z
x,-y,z
loop_
_atom_site_type_symbol
_atom_site_label
_atom_site_fract_x
_atom_site_fract_y
_atom_site_fract_z
Si Si1 0.235464 0.722718 0.742410
Si Si2 0.229883 0.278646 0.890798
Si Si3 0.173617 0.214737 0.135234
Si Si4 0.002874 0.711729 0.582733
Si Si5 0.408580 0.718371 0.140602
Si Si6 0.769131 0.709663 0.394228
Si Si7 0.392692 0.276329 0.339197
O O1 0.247138 0.500000 0.731774
O O2 0.308070 0.776628 0.757333
O O3 0.306041 0.786056 0.615814
O O4 0.000148 0.776403 0.925619
O O5 0.229855 0.500000 0.891673
O O6 0.377508 0.216515 0.832415
O O7 0.095661 0.285848 0.267031
O O8 0.013640 0.290289 0.208447
O O9 0.148088 0.000000 0.154759
O O10 0.413384 0.252030 0.946680
O O11 0.034167 0.500000 0.541614
O O12 0.822534 0.785756 0.678899
O O13 0.226428 0.789542 0.418279
O O14 0.390788 0.500000 0.150268
O O15 0.500000 0.786861 0.000000
O O16 0.702237 0.500000 0.447097
O O17 0.696868 0.782518 0.520044
O O18 0.391594 0.500000 0.335967
#
# Coordination Sequence:
#
# PCOD9141547 Si02
#       7
#     4   4   4   4   4   4   4
#     4   8  14  23  36  56  83 107 126 156 199 238
#     4   8  13  22  36  58  83 102 125 162 200 228
#     4  10  17  23  34  54  78 103 132 166 198 227
#     4   8  14  24  36  53  78 107 133 157 192 236
#     4   8  13  22  35  50  74 106 133 157 191 235
#     4   9  16  26  38  55  80 108 133 157 193 238
#     4   8  13  21  35  55  80 105 129 158 191 229
#
# _framework density 28.022136
#
# number of rings (size 3 to 8) (size 9 to 14) (size 15 to 20)
#    0.000    3.571    0.000    3.857    0.000    3.143 
#    0.000    2.857    0.000    0.000    0.000   15.000 
#    0.000    8.000    0.000    0.000    0.000    0.000 
#
# Total GULP energy -156465.340967 kJ/mol
# GULP energy per Si atom -5588.047892 kJ/mol
# Density = 2.795836 g / cm^3
# Si number density = 28.022136 Si / 1000 Ang^3
#
#
#
# Elastic Constant Matrix: (Units=GPa)
#
#
# Indices 1 2 3 4 5 6 
#
# 1 207.3374 -3.3192 29.8167 0.0000 -44.6664 0.0000
# 2 -3.3192 124.8912 -6.2916 0.0000 0.6745 0.0000
# 3 29.8167 -6.2916 143.5729 0.0000 -41.5755 0.0000
# 4 0.0000 0.0000 0.0000 -180.8250 0.0000 -52.6515
# 5 -44.6664 0.6745 -41.5755 0.0000 66.3383 0.0000
# 6 0.0000 0.0000 0.0000 -52.6515 0.0000 13.9738
#
#
#
# Elastic Compliance Matrix: (Units=1/GPa)
#
#
# Indices 1 2 3 4 5 6 
#
# 1 0.005644 0.000126 -0.000081 0.000000 0.003748 0.000000
# 2 0.000126 0.008029 0.000399 0.000000 0.000253 0.000000
# 3 -0.000081 0.000399 0.008531 0.000000 0.005288 0.000000
# 4 0.000000 0.000000 0.000000 -0.002637 0.000000 -0.009936
# 5 0.003748 0.000253 0.005288 0.000000 0.020909 0.000000
# 6 0.000000 0.000000 0.000000 -0.009936 0.000000 0.034124
#
#
# Mechanical properties :
#
#
# Convention : Reuss Voigt Hill
#
# Bulk Modulus (GPa) = 43.30759 57.35703 50.33231
# Shear Modulus (GPa) = 61.41727 10.27047 35.84387
#
# Velocity S-wave (km/s) = 4.68668 1.91653 3.58037
# Velocity P-wave (km/s) = 6.69141 5.04087 5.92391
#
# Compressibility (1/GPa) = 0.02309064
#
# Stress axis : x y z
#
# Youngs Moduli (GPa) = 177.17293 124.54782 117.22481
#
# Poissons Ratio (x) = -0.01565 0.00953
# Poissons Ratio (y) = -0.02226 -0.04678
# Poissons Ratio (z) = 0.01440 -0.04970
#
# Static dielectric constant tensor:
#      x y z
#    x 2.177180 0.000000 0.040160 
#    y 0.000000 2.091460 0.000000 
#    z 0.040160 0.000000 2.289140 
# 
# From -- ./inp_files/54468.got.cif
#   From: 2010.05.17/outbox.cif.g08.bks.cpg/sg10_28_cif.got.tgz:54468.got - 2010.06.03 11:33:40.
