data_PCOD9141375
_publ_section_title
;
Structure prediction by ZEFSAII (Michael W. Deem and Ramdas Pophale) SiO2 
 PCOD9141375
Probable space group: P 2/M
;
_chemical_formula_sum "Si O2"
_cell_formula_units_Z 16
_cell_length_a 11.111693
_cell_length_b 16.655741
_cell_length_c 7.698719
_cell_angle_alpha 90.000000
_cell_angle_beta 156.787392
_cell_angle_gamma 90.000000
_cell_volume 561.587915
_symmetry_space_group_name_H-M "P 2/M"
_symmetry_group_IT_number 10
_symmetry_cell_setting 'monoclinic'
loop_
_space_group_symop_operation_xyz
x,y,z
-x,y,-z
-x,-y,-z
x,-y,z
loop_
_atom_site_type_symbol
_atom_site_label
_atom_site_fract_x
_atom_site_fract_y
_atom_site_fract_z
Si Si1 0.284129 0.589600 0.044122
Si Si2 0.772233 0.678777 0.533297
Si Si3 0.849683 0.910364 0.606896
Si Si4 0.638442 0.178144 0.880090
O O1 0.500000 0.596913 0.500000
O O2 0.156811 0.500000 0.873322
O O3 0.541836 0.604308 0.243744
O O4 0.016729 0.655494 0.710216
O O5 0.523588 0.749721 0.229407
O O6 0.000000 0.688641 0.000000
O O7 0.499460 0.896187 0.193869
O O8 0.911663 0.000000 0.626043
O O9 0.000000 0.904037 0.000000
O O10 0.011874 0.842307 0.703900
O O11 0.500000 0.184459 0.500000
#
# Coordination Sequence:
#
# PCOD9141375 Si02
#       4
#     4   4   4   4
#     4   9  16  23  29  35  41  47  53  59  65  71
#     4  10  16  22  29  35  41  47  53  59  65  71
#     4   9  16  23  29  35  41  47  53  59  65  71
#     4  10  16  22  29  35  41  47  53  59  65  71
#
# _framework density 28.490642999999999
#
# number of rings (size 3 to 8) (size 9 to 14) (size 15 to 20)
#    0.000    2.500    0.000    7.500    0.000    6.000 
#    0.000    0.000    0.000    0.000    0.000    0.000 
#    0.000    0.000    0.000    0.000    0.000    0.000 
#
# Total GULP energy -89363.879267 kJ/mol
# GULP energy per Si atom -5585.242454 kJ/mol
# Density = 2.842580 g / cm^3
# Si number density = 28.490643 Si / 1000 Ang^3
#
#
#
# Elastic Constant Matrix: (Units=GPa)
#
#
# Indices 1 2 3 4 5 6 
#
# 1 142.0793 21.6682 60.6253 0.0000 12.4981 0.0000
# 2 21.6682 165.4274 69.4402 0.0000 39.8446 0.0000
# 3 60.6253 69.4402 219.0936 0.0000 41.7368 0.0000
# 4 0.0000 0.0000 0.0000 48.6959 0.0000 32.4492
# 5 12.4981 39.8446 41.7368 0.0000 71.9828 0.0000
# 6 0.0000 0.0000 0.0000 32.4492 0.0000 399.9621
#
#
#
# Elastic Compliance Matrix: (Units=1/GPa)
#
#
# Indices 1 2 3 4 5 6 
#
# 1 0.007984 -0.000124 -0.002157 0.000000 -0.000067 0.000000
# 2 -0.000124 0.007557 -0.001763 0.000000 -0.003140 0.000000
# 3 -0.002157 -0.001763 0.006141 0.000000 -0.002210 0.000000
# 4 0.000000 0.000000 0.000000 0.021709 0.000000 -0.001761
# 5 -0.000067 -0.003140 -0.002210 0.000000 0.016923 0.000000
# 6 0.000000 0.000000 0.000000 -0.001761 0.000000 0.002643
#
#
# Mechanical properties :
#
#
# Convention : Reuss Voigt Hill
#
# Bulk Modulus (GPa) = 73.56346 92.22975 82.89661
# Shear Modulus (GPa) = 66.15789 129.11927 97.63858
#
# Velocity S-wave (km/s) = 4.82404 6.73931 5.86044
# Velocity P-wave (km/s) = 7.54352 9.64365 8.65750
#
# Compressibility (1/GPa) = 0.01359371
#
# Stress axis : x y z
#
# Youngs Moduli (GPa) = 125.25760 132.32125 162.84233
#
# Poissons Ratio (x) = 0.01643 0.35126
# Poissons Ratio (y) = 0.01556 0.28706
# Poissons Ratio (z) = 0.27019 0.23326
#
# Static dielectric constant tensor:
#      x y z
#    x 2.331750 0.000000 -0.173150 
#    y 0.000000 2.212410 0.000000 
#    z -0.173150 0.000000 2.156270 
# 
# From -- ./inp_files/69432.got.cif
#   From: 2010.05.17/outbox.cif.g08.bks.cpg/sg10_35_cif.got.tgz:69432.got - 2010.06.03 11:33:40.
