data_PCOD9141930
_publ_section_title
;
Structure prediction by ZEFSAII (Michael W. Deem and Ramdas Pophale) SiO2 
 PCOD9141930
Probable space group: P 2/M
;
_chemical_formula_sum "Si O2"
_cell_formula_units_Z 32
_cell_length_a 14.662452
_cell_length_b 7.318561
_cell_length_c 14.634738
_cell_angle_alpha 90.000000
_cell_angle_beta 119.272862
_cell_angle_gamma 90.000000
_cell_volume 1369.883414
_symmetry_space_group_name_H-M "P 2/M"
_symmetry_group_IT_number 10
_symmetry_cell_setting 'monoclinic'
loop_
_space_group_symop_operation_xyz
x,y,z
-x,y,-z
-x,-y,-z
x,-y,z
loop_
_atom_site_type_symbol
_atom_site_label
_atom_site_fract_x
_atom_site_fract_y
_atom_site_fract_z
Si Si1 0.313525 0.219580 0.270656
Si Si2 0.888000 0.223768 0.484577
Si Si3 0.747355 0.778644 0.954918
Si Si4 0.538592 0.293049 0.422786
Si Si5 0.481480 0.222660 0.096394
Si Si6 0.331539 0.208413 0.683978
Si Si7 0.026522 0.223039 0.909066
Si Si8 0.855819 0.222552 0.676875
O O1 0.246081 0.267164 0.149193
O O2 0.429146 0.293427 0.315156
O O3 0.254989 0.278472 0.333621
O O4 0.322727 0.000000 0.276540
O O5 0.785148 0.286639 0.378824
O O6 0.875285 0.281634 0.583545
O O7 0.000000 0.279336 0.500000
O O8 0.885760 0.000000 0.482466
O O9 0.634793 0.714328 0.933911
O O10 0.745668 0.000000 0.960542
O O11 0.854568 0.719591 0.054164
O O12 0.500000 0.208259 0.500000
O O13 0.571925 0.500000 0.457321
O O14 0.623315 0.206446 0.397726
O O15 0.577189 0.288278 0.207237
O O16 0.479862 0.000000 0.105140
O O17 0.500000 0.266518 0.000000
O O18 0.319000 0.000000 0.709398
O O19 0.944768 0.281116 0.792031
O O20 0.022952 0.000000 0.907814
O O21 0.000000 0.278894 0.000000
O O22 0.855567 0.000000 0.676346
#
# Coordination Sequence:
#
# PCOD9141930 Si02
#       8
#     4   4   4   4   4   4   4   4
#     4  10  17  29  50  73  99 130 168 207 247 302
#     4   9  18  30  44  67  99 132 166 203 246 295
#     4   9  15  24  40  65  96 128 160 199 244 292
#     4  11  23  35  49  74 105 134 167 211 261 307
#     4   9  17  28  44  70 101 129 162 205 251 296
#     4  10  19  34  55  75 100 137 173 207 250 302
#     4   9  14  21  35  59  93 124 150 192 245 285
#     4   9  16  25  41  67  98 131 167 205 244 294
#
# _framework density 23.359649999999998
#
# number of rings (size 3 to 8) (size 9 to 14) (size 15 to 20)
#    0.000    2.500    2.500    1.125    0.000    3.000 
#    0.000    5.000    0.000    0.750    0.000    1.750 
#    0.000    0.000    0.000    0.000    0.000    0.000 
#
# Total GULP energy -178738.018369 kJ/mol
# GULP energy per Si atom -5585.563074 kJ/mol
# Density = 2.330648 g / cm^3
# Si number density = 23.359650 Si / 1000 Ang^3
#
#
#
# Elastic Constant Matrix: (Units=GPa)
#
#
# Indices 1 2 3 4 5 6 
#
# 1 180.7280 5.0950 66.7815 0.0000 21.9340 0.0000
# 2 5.0950 91.2189 6.0473 0.0000 1.4958 0.0000
# 3 66.7815 6.0473 105.2858 0.0000 20.2411 0.0000
# 4 0.0000 0.0000 0.0000 18.9944 0.0000 12.5460
# 5 21.9340 1.4958 20.2411 0.0000 42.6498 0.0000
# 6 0.0000 0.0000 0.0000 12.5460 0.0000 -26.5382
#
#
#
# Elastic Compliance Matrix: (Units=1/GPa)
#
#
# Indices 1 2 3 4 5 6 
#
# 1 0.007341 -0.000095 -0.004320 0.000000 -0.001722 0.000000
# 2 -0.000095 0.011006 -0.000558 0.000000 -0.000072 0.000000
# 3 -0.004320 -0.000558 0.013028 0.000000 -0.003942 0.000000
# 4 0.000000 0.000000 0.000000 0.040119 0.000000 0.018967
# 5 -0.001722 -0.000072 -0.003942 0.000000 0.026206 0.000000
# 6 0.000000 0.000000 0.000000 0.018967 0.000000 -0.028715
#
#
# Mechanical properties :
#
#
# Convention : Reuss Voigt Hill
#
# Bulk Modulus (GPa) = 46.66576 59.23114 52.94845
# Shear Modulus (GPa) = 58.08958 26.97512 42.53235
#
# Velocity S-wave (km/s) = 4.99214 3.40188 4.27167
# Velocity P-wave (km/s) = 7.29720 6.39075 6.85896
#
# Compressibility (1/GPa) = 0.02142899
#
# Stress axis : x y z
#
# Youngs Moduli (GPa) = 136.21956 90.85841 76.75893
#
# Poissons Ratio (x) = 0.00867 0.33159
# Poissons Ratio (y) = 0.01300 0.04281
# Poissons Ratio (z) = 0.58845 0.05068
#
# Static dielectric constant tensor:
#      x y z
#    x 1.842420 0.000000 0.020570 
#    y 0.000000 1.901800 0.000000 
#    z 0.020570 0.000000 1.877780 
# 
# From -- ./inp_files/66620.got.cif
#   From: 2010.05.17/outbox.cif.g08.bks.cpg/sg10_34_cif.got.tgz:66620.got - 2010.06.03 11:33:40.
