data_PCOD9141519
_publ_section_title
;
Structure prediction by ZEFSAII (Michael W. Deem and Ramdas Pophale) SiO2 
 PCOD9141519
Probable space group: P 2/M
;
_chemical_formula_sum "Si O2"
_cell_formula_units_Z 26
_cell_length_a 9.060592
_cell_length_b 18.582679
_cell_length_c 8.015195
_cell_angle_alpha 90.000000
_cell_angle_beta 95.106755
_cell_angle_gamma 90.000000
_cell_volume 1344.162155
_symmetry_space_group_name_H-M "P 2/M"
_symmetry_group_IT_number 10
_symmetry_cell_setting 'monoclinic'
loop_
_space_group_symop_operation_xyz
x,y,z
-x,y,-z
-x,-y,-z
x,-y,z
loop_
_atom_site_type_symbol
_atom_site_label
_atom_site_fract_x
_atom_site_fract_y
_atom_site_fract_z
Si Si1 0.500000 0.686659 0.500000
Si Si2 0.602152 0.798553 0.231905
Si Si3 0.403746 0.082142 0.317447
Si Si4 0.199611 0.332296 0.336406
Si Si5 0.331460 0.329291 0.979594
Si Si6 0.931187 0.417444 0.181938
Si Si7 0.838059 0.828618 0.532241
O O1 0.519945 0.740239 0.344449
O O2 0.654822 0.645569 0.541614
O O3 0.493504 0.865762 0.203357
O O4 0.654037 0.752838 0.080268
O O5 0.742050 0.823403 0.354074
O O6 0.500000 0.082868 0.500000
O O7 0.249533 0.119426 0.351175
O O8 0.389049 0.000000 0.261128
O O9 0.259954 0.331436 0.153731
O O10 0.157885 0.252037 0.391705
O O11 0.053872 0.381320 0.313381
O O12 0.219997 0.371865 0.846827
O O13 0.500000 0.358784 0.000000
O O14 0.903086 0.500000 0.224665
O O15 0.000000 0.417224 0.000000
O O16 0.000000 0.853787 0.500000
#
# Coordination Sequence:
#
# PCOD9141519 Si02
#       7
#     2   4   4   4   4   4   4
#     4  10  16  32  54  76 102 134 180 220 256 304
#     4  10  17  32  50  78 103 135 176 221 259 307
#     4   9  16  29  48  73 107 140 172 215 261 308
#     4  10  19  34  54  78 105 139 174 222 266 313
#     4  11  19  31  57  81 102 136 180 221 262 315
#     4   9  20  36  52  77 110 139 172 218 270 314
#     4  10  18  30  50  75 103 139 178 217 261 304
#
# _framework density 19.342903
#
# number of rings (size 3 to 8) (size 9 to 14) (size 15 to 20)
#    0.000    2.154    5.385    0.923    0.000    0.615 
#    0.000    0.385    0.000   15.692    0.000    0.000 
#    0.000   17.231    0.000    0.000    0.000    0.000 
#
# Total GULP energy -145044.856698 kJ/mol
# GULP energy per Si atom -5578.648335 kJ/mol
# Density = 1.929888 g / cm^3
# Si number density = 19.342903 Si / 1000 Ang^3
#
#
#
# Elastic Constant Matrix: (Units=GPa)
#
#
# Indices 1 2 3 4 5 6 
#
# 1 148.2394 74.5179 28.2826 0.0000 26.7572 0.0000
# 2 74.5179 126.3300 28.2841 0.0000 20.3617 0.0000
# 3 28.2826 28.2841 45.6805 0.0000 4.4894 0.0000
# 4 0.0000 0.0000 0.0000 17.0940 0.0000 4.5393
# 5 26.7572 20.3617 4.4894 0.0000 34.4843 0.0000
# 6 0.0000 0.0000 0.0000 4.5393 0.0000 7.8910
#
#
#
# Elastic Compliance Matrix: (Units=1/GPa)
#
#
# Indices 1 2 3 4 5 6 
#
# 1 0.010652 -0.004766 -0.003149 0.000000 -0.005041 0.000000
# 2 -0.004766 0.012159 -0.004290 0.000000 -0.002923 0.000000
# 3 -0.003149 -0.004290 0.026345 0.000000 0.001547 0.000000
# 4 0.000000 0.000000 0.000000 0.069048 0.000000 -0.039720
# 5 -0.005041 -0.002923 0.001547 0.000000 0.034435 0.000000
# 6 0.000000 0.000000 0.000000 -0.039720 0.000000 0.149576
#
#
# Mechanical properties :
#
#
# Convention : Reuss Voigt Hill
#
# Bulk Modulus (GPa) = 40.41062 64.71323 52.56193
# Shear Modulus (GPa) = 14.93101 24.50488 19.71795
#
# Velocity S-wave (km/s) = 2.78134 3.56317 3.19625
# Velocity P-wave (km/s) = 5.59031 7.10329 6.39172
#
# Compressibility (1/GPa) = 0.02474597
#
# Stress axis : x y z
#
# Youngs Moduli (GPa) = 93.87605 82.24595 37.95751
#
# Poissons Ratio (x) = 0.39197 0.11953
# Poissons Ratio (y) = 0.44740 0.16285
# Poissons Ratio (z) = 0.29561 0.35286
#
# Static dielectric constant tensor:
#      x y z
#    x 1.698950 0.000000 0.012970 
#    y 0.000000 1.656520 0.000000 
#    z 0.012970 0.000000 1.731050 
# 
# From -- ./inp_files/43148.got.cif
#   From: 2010.05.17/outbox.cif.g08.bks.cpg/sg10_22_cif.got.tgz:43148.got - 2010.06.03 11:33:40.
