data_PCOD9141745
_publ_section_title
;
Structure prediction by ZEFSAII (Michael W. Deem and Ramdas Pophale) SiO2 
 PCOD9141745
Probable space group: P 2/M
;
_chemical_formula_sum "Si O2"
_cell_formula_units_Z 24
_cell_length_a 16.991387
_cell_length_b 8.636381
_cell_length_c 23.320399
_cell_angle_alpha 90.000000
_cell_angle_beta 156.252658
_cell_angle_gamma 90.000000
_cell_volume 1378.106529
_symmetry_space_group_name_H-M "P 2/M"
_symmetry_group_IT_number 10
_symmetry_cell_setting 'monoclinic'
loop_
_space_group_symop_operation_xyz
x,y,z
-x,y,-z
-x,-y,-z
x,-y,z
loop_
_atom_site_type_symbol
_atom_site_label
_atom_site_fract_x
_atom_site_fract_y
_atom_site_fract_z
Si Si1 0.480304 0.814776 0.918999
Si Si2 0.203230 0.814904 0.287586
Si Si3 0.518950 0.685045 0.425133
Si Si4 0.837955 0.184683 0.563944
Si Si5 0.059373 0.315448 0.604959
Si Si6 0.114662 0.684790 0.849709
O O1 0.274911 0.749281 0.760797
O O2 0.486890 0.000000 0.916332
O O3 0.500000 0.780956 0.000000
O O4 0.663328 0.738407 0.009043
O O5 0.305366 0.750103 0.298401
O O6 0.340526 0.750954 0.430712
O O7 0.991675 0.752625 0.164804
O O8 0.207679 0.000000 0.290700
O O9 0.518510 0.500000 0.427094
O O10 0.627811 0.745010 0.441103
O O11 0.912199 0.236186 0.551521
O O12 0.995806 0.248903 0.715429
O O13 0.832300 0.000000 0.565433
O O14 0.057140 0.500000 0.613429
O O15 0.000000 0.285107 0.500000
O O16 0.097841 0.500000 0.838251
#
# Coordination Sequence:
#
# PCOD9141745 Si02
#       6
#     4   4   4   4   4   4
#     4  11  22  36  56  81 107 140 180 222 268 321
#     4  10  17  27  42  66 101 135 170 213 262 314
#     4  10  17  27  43  66  98 135 173 212 261 315
#     4  11  20  32  50  74 103 138 178 218 266 317
#     4  11  24  40  57  79 107 141 181 224 269 319
#     4  11  20  31  50  75 105 139 176 218 266 315
#
# _framework density 17.415199000000001
#
# number of rings (size 3 to 8) (size 9 to 14) (size 15 to 20)
#    0.000    1.333    1.667   10.000    0.000    2.000 
#    0.000    0.000    0.000    0.000    0.000    1.167 
#    0.000    9.333    0.000    0.000    0.000    0.000 
#
# Total GULP energy -133998.093537 kJ/mol
# GULP energy per Si atom -5583.253897 kJ/mol
# Density = 1.737556 g / cm^3
# Si number density = 17.415199 Si / 1000 Ang^3
#
#
#
# Elastic Constant Matrix: (Units=GPa)
#
#
# Indices 1 2 3 4 5 6 
#
# 1 138.2724 81.0573 56.4076 0.0000 47.2370 0.0000
# 2 81.0573 175.3341 53.7386 0.0000 20.1390 0.0000
# 3 56.4076 53.7386 56.1683 0.0000 17.6507 0.0000
# 4 0.0000 0.0000 0.0000 22.3197 0.0000 8.2084
# 5 47.2370 20.1390 17.6507 0.0000 33.5265 0.0000
# 6 0.0000 0.0000 0.0000 8.2084 0.0000 33.3192
#
#
#
# Elastic Compliance Matrix: (Units=1/GPa)
#
#
# Indices 1 2 3 4 5 6 
#
# 1 0.021755 -0.004166 -0.010803 0.000000 -0.022461 0.000000
# 2 -0.004166 0.008892 -0.005380 0.000000 0.003361 0.000000
# 3 -0.010803 -0.005380 0.033552 0.000000 0.000788 0.000000
# 4 0.000000 0.000000 0.000000 0.049267 0.000000 -0.012137
# 5 -0.022461 0.003361 0.000788 0.000000 0.059040 0.000000
# 6 0.000000 0.000000 0.000000 -0.012137 0.000000 0.033003
#
#
# Mechanical properties :
#
#
# Convention : Reuss Voigt Hill
#
# Bulk Modulus (GPa) = 42.55153 83.57577 63.06365
# Shear Modulus (GPa) = 19.68191 29.73783 24.70987
#
# Velocity S-wave (km/s) = 3.36543 4.13677 3.77087
# Velocity P-wave (km/s) = 6.29191 8.42089 7.43302
#
# Compressibility (1/GPa) = 0.02350092
#
# Stress axis : x y z
#
# Youngs Moduli (GPa) = 45.96709 112.45683 29.80460
#
# Poissons Ratio (x) = 0.46853 0.32198
# Poissons Ratio (y) = 0.19151 0.16034
# Poissons Ratio (z) = 0.49658 0.60498
#
# Static dielectric constant tensor:
#      x y z
#    x 1.637570 0.000000 0.036110 
#    y 0.000000 1.579380 0.000000 
#    z 0.036110 0.000000 1.576870 
# 
# From -- ./inp_files/90066.got.cif
#   From: 2010.05.17/outbox.cif.g08.bks.cpg/sg10_46_cif.got.tgz:90066.got - 2010.06.03 11:33:40.
