data_PCOD9141850
_publ_section_title
;
Structure prediction by ZEFSAII (Michael W. Deem and Ramdas Pophale) SiO2 
 PCOD9141850
Probable space group: P 2/M
;
_chemical_formula_sum "Si O2"
_cell_formula_units_Z 28
_cell_length_a 16.788471
_cell_length_b 7.329929
_cell_length_c 14.481218
_cell_angle_alpha 90.000000
_cell_angle_beta 41.317762
_cell_angle_gamma 90.000000
_cell_volume 1176.560434
_symmetry_space_group_name_H-M "P 2/M"
_symmetry_group_IT_number 10
_symmetry_cell_setting 'monoclinic'
loop_
_space_group_symop_operation_xyz
x,y,z
-x,y,-z
-x,-y,-z
x,-y,z
loop_
_atom_site_type_symbol
_atom_site_label
_atom_site_fract_x
_atom_site_fract_y
_atom_site_fract_z
Si Si1 0.564651 0.223708 0.660341
Si Si2 0.043252 0.707704 0.559934
Si Si3 0.963404 0.221551 0.927462
Si Si4 0.396953 0.221800 0.162278
Si Si5 0.301380 0.221518 0.901640
Si Si6 0.817100 0.792055 0.387211
Si Si7 0.216560 0.219495 0.171797
O O1 0.583673 0.281448 0.750433
O O2 0.429884 0.280503 0.748751
O O3 0.682442 0.286770 0.501918
O O4 0.567261 0.000000 0.656976
O O5 0.079893 0.500000 0.511365
O O6 0.141321 0.794992 0.541402
O O7 0.000000 0.791462 0.500000
O O8 0.917421 0.710520 0.725109
O O9 0.071804 0.289021 0.767107
O O10 0.958673 0.000000 0.919330
O O11 0.826840 0.284801 0.026505
O O12 0.000000 0.261083 0.000000
O O13 0.273538 0.277863 0.219187
O O14 0.398915 0.000000 0.162787
O O15 0.500000 0.276956 0.000000
O O16 0.301224 0.000000 0.896245
O O17 0.297713 0.269534 0.013661
O O18 0.806208 0.000000 0.363613
O O19 0.210040 0.000000 0.177758
#
# Coordination Sequence:
#
# PCOD9141850 Si02
#       7
#     4   4   4   4   4   4   4
#     4   9  16  25  41  70 103 128 160 208 251 290
#     4  11  23  35  47  68 104 142 170 204 255 302
#     4   9  17  30  49  74 104 134 163 206 264 309
#     4   9  14  21  37  66  99 126 158 203 247 284
#     4   9  15  26  45  71 101 129 159 202 255 300
#     4  10  19  33  53  77  99 128 174 217 248 296
#     4  10  17  28  49  72  94 129 176 212 243 290
#
# _framework density 23.798183000000002
#
# number of rings (size 3 to 8) (size 9 to 14) (size 15 to 20)
#    0.000    2.429    2.857    1.286    0.000    2.286 
#    0.000    0.714    0.000    6.000    0.000    0.000 
#    0.000    1.143    0.000    0.000    0.000    0.000 
#
# Total GULP energy -156354.468107 kJ/mol
# GULP energy per Si atom -5584.088147 kJ/mol
# Density = 2.374402 g / cm^3
# Si number density = 23.798183 Si / 1000 Ang^3
#
#
#
# Elastic Constant Matrix: (Units=GPa)
#
#
# Indices 1 2 3 4 5 6 
#
# 1 117.6653 4.4844 84.3094 0.0000 -34.4073 0.0000
# 2 4.4844 91.8350 6.8765 0.0000 -2.7189 0.0000
# 3 84.3094 6.8765 160.0966 0.0000 -48.7969 0.0000
# 4 0.0000 0.0000 0.0000 31.5160 0.0000 -0.2324
# 5 -34.4073 -2.7189 -48.7969 0.0000 43.2012 0.0000
# 6 0.0000 0.0000 0.0000 -0.2324 0.0000 -24.5547
#
#
#
# Elastic Compliance Matrix: (Units=1/GPa)
#
#
# Indices 1 2 3 4 5 6 
#
# 1 0.014168 -0.000104 -0.006129 0.000000 0.004354 0.000000
# 2 -0.000104 0.010927 -0.000351 0.000000 0.000208 0.000000
# 3 -0.006129 -0.000351 0.012192 0.000000 0.008867 0.000000
# 4 0.000000 0.000000 0.000000 0.031728 0.000000 -0.000300
# 5 0.004354 0.000208 0.008867 0.000000 0.036644 0.000000
# 6 0.000000 0.000000 0.000000 -0.000300 0.000000 -0.040722
#
#
# Mechanical properties :
#
#
# Convention : Reuss Voigt Hill
#
# Bulk Modulus (GPa) = 41.46413 62.32637 51.89525
# Shear Modulus (GPa) = 58.04297 28.29427 43.16862
#
# Velocity S-wave (km/s) = 4.94395 3.45182 4.26367
# Velocity P-wave (km/s) = 7.07469 6.49101 6.78912
#
# Compressibility (1/GPa) = 0.02411723
#
# Stress axis : x y z
#
# Youngs Moduli (GPa) = 70.58355 91.51952 82.02218
#
# Poissons Ratio (x) = 0.00951 0.50274
# Poissons Ratio (y) = 0.00734 0.02880
# Poissons Ratio (z) = 0.43263 0.03213
#
# Static dielectric constant tensor:
#      x y z
#    x 1.866830 0.000000 -0.039520 
#    y 0.000000 1.895580 0.000000 
#    z -0.039520 0.000000 1.947930 
# 
# From -- ./inp_files/68616.got.cif
#   From: 2010.05.17/outbox.cif.g08.bks.cpg/sg10_35_cif.got.tgz:68616.got - 2010.06.03 11:33:40.
