data_PCOD9141086
_publ_section_title
;
Structure prediction by ZEFSAII (Michael W. Deem and Ramdas Pophale) SiO2 
 PCOD9141086
Probable space group: C C
;
_chemical_formula_sum "Si O2"
_cell_formula_units_Z 20
_cell_length_a 6.198467
_cell_length_b 31.117557
_cell_length_c 5.547600
_cell_angle_alpha 90.000000
_cell_angle_beta 48.362766
_cell_angle_gamma 90.000000
_cell_volume 799.702659
_symmetry_space_group_name_H-M "C C"
_symmetry_group_IT_number 9
_symmetry_cell_setting 'monoclinic'
loop_
_space_group_symop_operation_xyz
x,y,z
x,-y,1/2+z
1/2+x,1/2+y,z
1/2+x,1/2-y,1/2+z
loop_
_atom_site_type_symbol
_atom_site_label
_atom_site_fract_x
_atom_site_fract_y
_atom_site_fract_z
Si Si1 0.973870 0.278957 0.276750
Si Si2 0.045061 0.328833 0.715710
Si Si3 0.067685 0.113495 0.705043
Si Si4 0.487663 0.535456 0.466911
Si Si5 0.868400 0.548537 0.794935
O O1 0.652011 0.264131 0.581599
O O2 0.088472 0.300413 0.440411
O O3 0.997170 0.306051 0.011488
O O4 0.327309 0.358996 0.520060
O O5 0.746671 0.355098 0.899599
O O6 0.317143 0.090007 0.674626
O O7 0.906273 0.071199 0.723357
O O8 0.645881 0.490657 0.404580
O O9 0.187879 0.529977 0.548528
O O10 0.747626 0.560419 0.143738
#
# Coordination Sequence:
#
# PCOD9141086 Si02
#       5
#     4   4   4   4   4
#     4  12  26  52  82 112 150 194 246 302 384 486
#     4  12  28  47  78 117 152 196 246 319 390 445
#     4  12  28  45  70 109 156 196 254 323 378 443
#     4  12  26  44  71 101 148 205 266 314 375 443
#     4  12  26  44  71 101 148 205 266 314 375 443
#
# _framework density 25.009295000000002
#
# number of rings (size 3 to 8) (size 9 to 14) (size 15 to 20)
#    0.000    0.000    2.000    7.200   11.200    0.000 
#    0.000    0.000    0.000    0.000    0.000    0.000 
#    0.000    0.000    0.000    0.000    0.000    0.000 
#
# Total GULP energy -55818.784768 kJ/mol
# GULP energy per Si atom -5581.878477 kJ/mol
# Density = 2.495237 g / cm^3
# Si number density = 25.009295 Si / 1000 Ang^3
#
#
#
# Elastic Constant Matrix: (Units=GPa)
#
#
# Indices 1 2 3 4 5 6 
#
# 1 58.8901 32.2034 48.9381 0.0000 -17.5407 0.0000
# 2 32.2034 103.1878 48.7473 0.0000 10.4256 0.0000
# 3 48.9381 48.7473 130.8519 0.0000 -5.7392 0.0000
# 4 0.0000 0.0000 0.0000 49.3415 0.0000 5.2426
# 5 -17.5407 10.4256 -5.7392 0.0000 59.5313 0.0000
# 6 0.0000 0.0000 0.0000 5.2426 0.0000 46.3372
#
#
#
# Elastic Compliance Matrix: (Units=1/GPa)
#
#
# Indices 1 2 3 4 5 6 
#
# 1 0.030318 -0.006344 -0.008571 0.000000 0.009218 0.000000
# 2 -0.006344 0.013469 -0.002842 0.000000 -0.004502 0.000000
# 3 -0.008571 -0.002842 0.011868 0.000000 -0.000884 0.000000
# 4 0.000000 0.000000 0.000000 0.020514 0.000000 -0.002321
# 5 0.009218 -0.004502 -0.000884 0.000000 0.020217 0.000000
# 6 0.000000 0.000000 0.000000 -0.002321 0.000000 0.021844
#
#
# Mechanical properties :
#
#
# Convention : Reuss Voigt Hill
#
# Bulk Modulus (GPa) = 49.65354 61.41193 55.53273
# Shear Modulus (GPa) = 31.16089 41.91140 36.53615
#
# Velocity S-wave (km/s) = 3.53366 4.09814 3.82632
# Velocity P-wave (km/s) = 6.04534 6.85579 6.46328
#
# Compressibility (1/GPa) = 0.02013955
#
# Stress axis : x y z
#
# Youngs Moduli (GPa) = 32.98337 74.24685 84.26048
#
# Poissons Ratio (x) = 0.47103 0.72222
# Poissons Ratio (y) = 0.20925 0.23950
# Poissons Ratio (z) = 0.28271 0.21104
#
# Static dielectric constant tensor:
#      x y z
#    x 2.214540 0.000000 0.242990 
#    y 0.000000 2.088040 0.000000 
#    z 0.242990 0.000000 2.150120 
# 
# From -- ./inp_files/319.got.cif
#   From: 2010.05.17/outbox.cif.g08.bks.cpg/sg9_1_cif.got.tgz:319.got - 2010.06.03 20:04:27.
