data_PCOD9141127
_publ_section_title
;
Structure prediction by ZEFSAII (Michael W. Deem and Ramdas Pophale) SiO2 
 PCOD9141127
Probable space group: C C
;
_chemical_formula_sum "Si O2"
_cell_formula_units_Z 16
_cell_length_a 10.253273
_cell_length_b 11.850749
_cell_length_c 7.629662
_cell_angle_alpha 90.000000
_cell_angle_beta 141.512931
_cell_angle_gamma 90.000000
_cell_volume 576.952336
_symmetry_space_group_name_H-M "C C"
_symmetry_group_IT_number 9
_symmetry_cell_setting 'monoclinic'
loop_
_space_group_symop_operation_xyz
x,y,z
x,-y,1/2+z
1/2+x,1/2+y,z
1/2+x,1/2-y,1/2+z
loop_
_atom_site_type_symbol
_atom_site_label
_atom_site_fract_x
_atom_site_fract_y
_atom_site_fract_z
Si Si1 0.784130 0.764781 0.100910
Si Si2 0.849718 0.032448 0.483694
Si Si3 0.710445 0.622263 0.374868
Si Si4 0.122710 0.647821 0.937647
O O1 0.780765 0.684775 0.269378
O O2 0.027711 0.739638 0.276838
O O3 0.819294 0.899739 0.133724
O O4 0.722880 0.918303 0.381001
O O5 0.084155 0.990590 0.705690
O O6 0.759875 0.119377 0.249107
O O7 0.590990 0.722039 0.354773
O O8 0.894726 0.594393 0.703465
#
# Coordination Sequence:
#
# PCOD9141127 Si02
#       4
#     4   4   4   4
#     4  12  28  53  85 123 173 229 288 363 435 519
#     4  12  30  50  85 123 164 235 284 354 452 507
#     4  12  26  54  82 117 179 219 287 369 426 524
#     4  12  26  51  78 121 164 221 291 354 433 524
#
# _framework density 27.731928
#
# number of rings (size 3 to 8) (size 9 to 14) (size 15 to 20)
#    0.000    0.000    5.000    3.000    7.000    2.000 
#    0.000    0.000    0.000    0.000    0.000    0.000 
#    0.000    0.000    0.000    0.000    0.000    0.000 
#
# Total GULP energy -44583.671253 kJ/mol
# GULP energy per Si atom -5572.958907 kJ/mol
# Density = 2.766881 g / cm^3
# Si number density = 27.731928 Si / 1000 Ang^3
#
#
#
# Elastic Constant Matrix: (Units=GPa)
#
#
# Indices 1 2 3 4 5 6 
#
# 1 129.9079 65.9389 55.0066 0.0000 8.7767 0.0000
# 2 65.9389 115.0651 48.1324 0.0000 6.9578 0.0000
# 3 55.0066 48.1324 173.4746 0.0000 31.1109 0.0000
# 4 0.0000 0.0000 0.0000 37.5017 0.0000 13.2263
# 5 8.7767 6.9578 31.1109 0.0000 47.4802 0.0000
# 6 0.0000 0.0000 0.0000 13.2263 0.0000 55.4331
#
#
#
# Elastic Compliance Matrix: (Units=1/GPa)
#
#
# Indices 1 2 3 4 5 6 
#
# 1 0.011466 -0.005712 -0.002063 0.000000 0.000070 0.000000
# 2 -0.005712 0.012684 -0.001772 0.000000 0.000358 0.000000
# 3 -0.002063 -0.001772 0.007700 0.000000 -0.004405 0.000000
# 4 0.000000 0.000000 0.000000 0.029116 0.000000 -0.006947
# 5 0.000070 0.000358 -0.004405 0.000000 0.023882 0.000000
# 6 0.000000 0.000000 0.000000 -0.006947 0.000000 0.019697
#
#
# Mechanical properties :
#
#
# Convention : Reuss Voigt Hill
#
# Bulk Modulus (GPa) = 78.40044 84.06704 81.23374
# Shear Modulus (GPa) = 39.09563 44.70764 41.90164
#
# Velocity S-wave (km/s) = 3.75876 4.01950 3.89131
# Velocity P-wave (km/s) = 6.86804 7.20568 7.03888
#
# Compressibility (1/GPa) = 0.01275503
#
# Stress axis : x y z
#
# Youngs Moduli (GPa) = 87.21497 78.84204 129.86201
#
# Poissons Ratio (x) = 0.45032 0.26796
# Poissons Ratio (y) = 0.49815 0.23016
# Poissons Ratio (z) = 0.17996 0.13974
#
# Static dielectric constant tensor:
#      x y z
#    x 2.359430 0.000000 0.109280 
#    y 0.000000 2.062330 0.000000 
#    z 0.109280 0.000000 2.317090 
# 
# From -- ./inp_files/1503.got.cif
#   From: 2010.05.17/outbox.cif.g08.bks.cpg/sg9_1_cif.got.tgz:1503.got - 2010.06.03 20:04:27.
