data_PCOD9141987
_publ_section_title
;
Structure prediction by ZEFSAII (Michael W. Deem and Ramdas Pophale) SiO2 
 PCOD9141987
Probable space group: P 2/M
;
_chemical_formula_sum "Si O2"
_cell_formula_units_Z 32
_cell_length_a 17.604626
_cell_length_b 19.501668
_cell_length_c 18.332241
_cell_angle_alpha 90.000000
_cell_angle_beta 16.652898
_cell_angle_gamma 90.000000
_cell_volume 1803.638126
_symmetry_space_group_name_H-M "P 2/M"
_symmetry_group_IT_number 10
_symmetry_cell_setting 'monoclinic'
loop_
_space_group_symop_operation_xyz
x,y,z
-x,y,-z
-x,-y,-z
x,-y,z
loop_
_atom_site_type_symbol
_atom_site_label
_atom_site_fract_x
_atom_site_fract_y
_atom_site_fract_z
Si Si1 0.994011 0.856106 0.794289
Si Si2 0.290536 0.876320 0.251129
Si Si3 0.931453 0.427175 0.751135
Si Si4 0.936622 0.278518 0.757094
Si Si5 0.671212 0.425662 0.751628
Si Si6 0.332862 0.724871 0.254075
Si Si7 0.424452 0.918999 0.291966
Si Si8 0.201046 0.079767 0.747726
O O1 0.991720 0.778902 0.766173
O O2 0.172446 0.897484 0.571907
O O3 0.121594 0.870572 0.755208
O O4 0.692470 0.882765 0.072432
O O5 0.285536 0.793181 0.251851
O O6 0.373669 0.896038 0.255821
O O7 0.000000 0.902550 0.500000
O O8 0.500000 0.902240 0.000000
O O9 0.968501 0.500000 0.756331
O O10 0.969966 0.355745 0.756343
O O11 0.134043 0.426424 0.496877
O O12 0.632624 0.426311 0.994966
O O13 0.136042 0.271246 0.504885
O O14 0.635383 0.271925 0.004841
O O15 0.715732 0.500000 0.749210
O O16 0.709423 0.348671 0.747596
O O17 0.461739 0.000000 0.261405
O O18 0.500000 0.090656 0.500000
O O19 0.181331 0.000000 0.740171
O O20 0.000000 0.087502 0.000000
#
# Coordination Sequence:
#
# PCOD9141987 Si02
#       8
#     4   4   4   4   4   4   4   4
#     4  12  21  38  60  83 108 136 174 216 255 307
#     4  12  24  38  55  72  99 133 175 220 272 319
#     4   8  14  23  39  68 100 127 155 196 250 297
#     4  10  17  30  52  74 101 130 166 212 253 295
#     4   8  14  24  43  66  91 123 157 198 250 303
#     4  10  18  33  49  71  98 127 168 212 259 311
#     4  12  25  40  58  79 101 133 176 223 271 314
#     4  10  21  36  54  79 110 141 169 201 250 308
#
# _framework density 17.741917999999998
#
# number of rings (size 3 to 8) (size 9 to 14) (size 15 to 20)
#    0.000    1.750    2.500    3.375    0.000    1.500 
#    0.000    0.000    0.000    0.750    0.000    0.000 
#    0.000    1.000    0.000    0.000    0.000    1.250 
#
# Total GULP energy -178692.927316 kJ/mol
# GULP energy per Si atom -5584.153979 kJ/mol
# Density = 1.770154 g / cm^3
# Si number density = 17.741918 Si / 1000 Ang^3
#
#
#
# Elastic Constant Matrix: (Units=GPa)
#
#
# Indices 1 2 3 4 5 6 
#
# 1 65.9167 21.7921 24.5612 0.0000 -5.6197 0.0000
# 2 21.7921 111.6603 9.7289 0.0000 0.5377 0.0000
# 3 24.5612 9.7289 116.1964 0.0000 -11.9682 0.0000
# 4 0.0000 0.0000 0.0000 17.7529 0.0000 16.5634
# 5 -5.6197 0.5377 -11.9682 0.0000 17.4420 0.0000
# 6 0.0000 0.0000 0.0000 16.5634 0.0000 79.6215
#
#
#
# Elastic Compliance Matrix: (Units=1/GPa)
#
#
# Indices 1 2 3 4 5 6 
#
# 1 0.017695 -0.003202 -0.003094 0.000000 0.003677 0.000000
# 2 -0.003202 0.009613 -0.000285 0.000000 -0.001523 0.000000
# 3 -0.003094 -0.000285 0.009880 0.000000 0.005792 0.000000
# 4 0.000000 0.000000 0.000000 0.069895 0.000000 -0.014540
# 5 0.003677 -0.001523 0.005792 0.000000 0.062539 0.000000
# 6 0.000000 0.000000 0.000000 -0.014540 0.000000 0.015584
#
#
# Mechanical properties :
#
#
# Convention : Reuss Voigt Hill
#
# Bulk Modulus (GPa) = 41.61800 45.10420 43.36110
# Shear Modulus (GPa) = 24.22762 38.80936 31.51849
#
# Velocity S-wave (km/s) = 3.69935 4.68208 4.21943
# Velocity P-wave (km/s) = 6.46184 7.39640 6.94486
#
# Compressibility (1/GPa) = 0.02402807
#
# Stress axis : x y z
#
# Youngs Moduli (GPa) = 56.51207 104.02844 101.21023
#
# Poissons Ratio (x) = 0.33306 0.31310
# Poissons Ratio (y) = 0.18093 0.02885
# Poissons Ratio (z) = 0.17482 0.02965
#
# Static dielectric constant tensor:
#      x y z
#    x 1.558080 0.000000 -0.005310 
#    y 0.000000 1.673390 0.000000 
#    z -0.005310 0.000000 1.627320 
# 
# From -- ./inp_files/67945.got.cif
#   From: 2010.05.17/outbox.cif.g08.bks.cpg/sg10_34_cif.got.tgz:67945.got - 2010.06.03 11:33:40.
