data_PCOD9141272
_publ_section_title
;
Structure prediction by ZEFSAII (Michael W. Deem and Ramdas Pophale) SiO2 
 PCOD9141272
Probable space group: C C
;
_chemical_formula_sum "Si O2"
_cell_formula_units_Z 16
_cell_length_a 9.000000
_cell_length_b 12.000000
_cell_length_c 30.000000
_cell_angle_alpha 90.000000
_cell_angle_beta 30.000000
_cell_angle_gamma 90.000000
_cell_volume 1620.000000
_symmetry_space_group_name_H-M "C C"
_symmetry_group_IT_number 9
_symmetry_cell_setting 'monoclinic'
loop_
_space_group_symop_operation_xyz
x,y,z
x,-y,1/2+z
1/2+x,1/2+y,z
1/2+x,1/2-y,1/2+z
loop_
_atom_site_type_symbol
_atom_site_label
_atom_site_fract_x
_atom_site_fract_y
_atom_site_fract_z
Si Si1 0.339120 0.293747 0.702570
Si Si2 0.252725 0.515898 0.052584
Si Si3 0.778619 0.854905 0.355485
Si Si4 0.199474 0.588985 0.971748
Si Si5 0.907305 0.823563 0.073861
Si Si6 0.041717 0.997717 0.210640
Si Si7 0.754739 0.388149 0.074315
Si Si8 0.563272 0.313871 0.540326
O O1 0.555446 0.201251 0.669154
O O2 0.402362 0.398314 0.719312
O O3 0.451928 0.310242 0.621356
O O4 0.001595 0.248692 0.787754
O O5 0.400793 0.402830 0.032257
O O6 0.366107 0.598452 0.062329
O O7 0.888390 0.513928 0.138678
O O8 0.360615 0.546035 0.974622
O O9 0.869084 0.892740 0.381843
O O10 0.421545 0.832692 0.447128
O O11 0.854519 0.952574 0.300691
O O12 0.059151 0.706814 0.022387
O O13 0.937877 0.503133 0.026114
O O14 0.076231 0.866430 0.074714
O O15 0.043955 0.902043 0.172064
O O16 0.989374 0.296863 0.030810
#
# Coordination Sequence:
#
# PCOD9141272 Si02
#       8
#     4   4   4   4   4   4   4   4
#     4  12  23  47  73  98 145 188 229 297 359 410
#     4  11  22  44  77  97 138 190 234 289 360 419
#     4  12  26  44  65 108 147 182 247 288 346 434
#     4  11  24  44  68 104 139 179 234 289 344 419
#     4  12  21  43  77  99 133 192 230 281 365 411
#     4  11  23  46  67 106 140 183 243 292 349 428
#     4  11  22  45  76  98 138 188 235 290 359 424
#     4  12  23  47  75 104 144 192 234 294 362 417
#
# _framework density 9.8765429999999999
#
# number of rings (size 3 to 8) (size 9 to 14) (size 15 to 20)
#    0.000    0.500    7.500    2.250    0.000    2.000 
#    4.500    0.000    0.000    0.000    0.000    0.000 
#    0.000    0.000    0.000    0.000    0.000    0.000 
#
# Total GULP energy -89177.276620 kJ/mol
# GULP energy per Si atom -5573.579789 kJ/mol
# Density = 0.985406 g / cm^3
# Si number density = 9.876543 Si / 1000 Ang^3
#
#
#
# Elastic Constant Matrix: (Units=GPa)
#
#
# Indices 1 2 3 4 5 6 
#
# 1 210.0089 71.0473 63.4708 0.0155 8.4369 -0.0144
# 2 71.0473 108.8469 28.4921 0.0147 3.3197 -0.0103
# 3 63.4708 28.4921 104.6019 0.0179 12.9081 -0.0286
# 4 0.0155 0.0147 0.0179 21.5165 -0.0154 -0.3816
# 5 8.4369 3.3197 12.9081 -0.0154 34.8883 0.0173
# 6 -0.0144 -0.0103 -0.0286 -0.3816 0.0173 57.7334
#
#
#
# Elastic Compliance Matrix: (Units=1/GPa)
#
#
# Indices 1 2 3 4 5 6 
#
# 1 0.006998 -0.003722 -0.003214 0.000000 -0.000149 0.000000
# 2 -0.003722 0.011872 -0.000992 -0.000004 0.000138 0.000001
# 3 -0.003214 -0.000992 0.012232 -0.000010 -0.003654 0.000006
# 4 0.000000 -0.000004 -0.000010 0.046481 0.000024 0.000307
# 5 -0.000149 0.000138 -0.003654 0.000024 0.030038 -0.000011
# 6 0.000000 0.000001 0.000006 0.000307 -0.000011 0.017323
#
#
# Mechanical properties :
#
#
# Convention : Reuss Voigt Hill
#
# Bulk Modulus (GPa) = 65.59569 83.27534 74.43552
# Shear Modulus (GPa) = 34.27397 40.19081 37.23239
#
# Velocity S-wave (km/s) = 4.17000 4.51561 4.34624
# Velocity P-wave (km/s) = 7.51432 8.33291 7.93418
#
# Compressibility (1/GPa) = 0.01524490
#
# Stress axis : x y z
#
# Youngs Moduli (GPa) = 142.89119 84.22980 81.75550
#
# Poissons Ratio (x) = 0.31351 0.26278
# Poissons Ratio (y) = 0.53185 0.08113
# Poissons Ratio (z) = 0.45929 0.08358
#
# Static dielectric constant tensor:
#      x y z
#    x 1.671770 0.000000 0.027330 
#    y 0.000000 1.833370 0.000000 
#    z 0.027330 0.000000 1.739360 
# 
# From -- ./inp_files/29243.got.cif
#   From: 2010.05.17/outbox.ucp.g08.bks.cvg/sg9_15_cif.got.tgz:29243.got - 2010.06.11 13:03:20.
