data_PCOD9141904
_publ_section_title
;
Structure prediction by ZEFSAII (Michael W. Deem and Ramdas Pophale) SiO2 
 PCOD9141904
Probable space group: P 2/M
;
_chemical_formula_sum "Si O2"
_cell_formula_units_Z 32
_cell_length_a 14.992379
_cell_length_b 7.474149
_cell_length_c 14.641274
_cell_angle_alpha 90.000000
_cell_angle_beta 108.849306
_cell_angle_gamma 90.000000
_cell_volume 1552.647482
_symmetry_space_group_name_H-M "P 2/M"
_symmetry_group_IT_number 10
_symmetry_cell_setting 'monoclinic'
loop_
_space_group_symop_operation_xyz
x,y,z
-x,y,-z
-x,-y,-z
x,-y,z
loop_
_atom_site_type_symbol
_atom_site_label
_atom_site_fract_x
_atom_site_fract_y
_atom_site_fract_z
Si Si1 0.615934 0.281377 0.136961
Si Si2 0.687271 0.786424 0.769165
Si Si3 0.817305 0.216553 0.658584
Si Si4 0.592756 0.286413 0.919876
Si Si5 0.990969 0.205995 0.599390
Si Si6 0.705282 0.784972 0.443550
Si Si7 0.196014 0.295921 0.702743
Si Si8 0.500454 0.218257 0.606398
O O1 0.617349 0.500000 0.143088
O O2 0.513316 0.221035 0.140350
O O3 0.710774 0.217940 0.217910
O O4 0.616341 0.227888 0.030453
O O5 0.778121 0.718937 0.743266
O O6 0.670898 0.755585 0.870510
O O7 0.592017 0.716438 0.689328
O O8 0.687051 0.000000 0.756500
O O9 0.913272 0.283525 0.642996
O O10 0.736169 0.255134 0.556855
O O11 0.826695 0.000000 0.668908
O O12 0.585619 0.500000 0.922291
O O13 0.000000 0.286237 0.500000
O O14 0.094331 0.207808 0.678061
O O15 0.960321 0.000000 0.573699
O O16 0.778024 0.708753 0.395581
O O17 0.599877 0.722405 0.387289
O O18 0.708336 0.000000 0.436046
O O19 0.185216 0.500000 0.730161
O O20 0.500000 0.268423 0.500000
O O21 0.501353 0.000000 0.609240
#
# Coordination Sequence:
#
# PCOD9141904 Si02
#       8
#     4   4   4   4   4   4   4   4
#     4   8  17  34  54  73  97 131 165 197 243 300
#     4  10  18  29  47  74 102 128 159 202 247 282
#     4   9  17  30  48  67  95 132 165 194 232 287
#     4   9  17  34  56  73  95 132 169 195 234 301
#     4  10  19  34  53  70  92 131 176 204 233 291
#     4  10  17  29  47  68  95 133 168 190 225 290
#     4  11  21  32  49  74 100 123 156 211 260 285
#     4   9  15  24  43  68  95 127 162 191 222 276
#
# _framework density 20.609959
#
# number of rings (size 3 to 8) (size 9 to 14) (size 15 to 20)
#    0.000    2.500    2.500    1.875    0.000    0.250 
#    0.000    4.375    0.000    1.500    0.000    5.250 
#    0.000    0.000    0.000    0.000    0.000    0.000 
#
# Total GULP energy -178501.187938 kJ/mol
# GULP energy per Si atom -5578.162123 kJ/mol
# Density = 2.056305 g / cm^3
# Si number density = 20.609959 Si / 1000 Ang^3
#
#
#
# Elastic Constant Matrix: (Units=GPa)
#
#
# Indices 1 2 3 4 5 6 
#
# 1 151.1243 4.6900 47.8315 0.0000 -27.1212 0.0000
# 2 4.6900 55.1761 -1.7428 0.0000 -0.1126 0.0000
# 3 47.8315 -1.7428 67.3620 0.0000 -18.4138 0.0000
# 4 0.0000 0.0000 0.0000 12.9668 0.0000 -3.9233
# 5 -27.1212 -0.1126 -18.4138 0.0000 35.8576 0.0000
# 6 0.0000 0.0000 0.0000 -3.9233 0.0000 10.7012
#
#
#
# Elastic Compliance Matrix: (Units=1/GPa)
#
#
# Indices 1 2 3 4 5 6 
#
# 1 0.009076 -0.000932 -0.005343 0.000000 0.004118 0.000000
# 2 -0.000932 0.018238 0.001113 0.000000 -0.000076 0.000000
# 3 -0.005343 0.001113 0.020432 0.000000 0.006455 0.000000
# 4 0.000000 0.000000 0.000000 0.086742 0.000000 0.031802
# 5 0.004118 -0.000076 0.006455 0.000000 0.034317 0.000000
# 6 0.000000 0.000000 0.000000 0.031802 0.000000 0.105107
#
#
# Mechanical properties :
#
#
# Convention : Reuss Voigt Hill
#
# Bulk Modulus (GPa) = 26.72222 41.69108 34.20665
# Shear Modulus (GPa) = 16.85139 26.76401 21.80770
#
# Velocity S-wave (km/s) = 2.86253 3.60751 3.25640
# Velocity P-wave (km/s) = 4.89073 6.13390 5.54725
#
# Compressibility (1/GPa) = 0.03742204
#
# Stress axis : x y z
#
# Youngs Moduli (GPa) = 110.17904 54.83058 48.94206
#
# Poissons Ratio (x) = 0.05109 0.26150
# Poissons Ratio (y) = 0.10267 -0.05446
# Poissons Ratio (z) = 0.58869 -0.06101
#
# Static dielectric constant tensor:
#      x y z
#    x 1.762590 0.000000 -0.019960 
#    y 0.000000 1.786920 0.000000 
#    z -0.019960 0.000000 1.732500 
# 
# From -- ./inp_files/66193.got.cif
#   From: 2010.05.17/outbox.cif.g08.bks.cpg/sg10_34_cif.got.tgz:66193.got - 2010.06.03 11:33:40.
