data_PCOD9141264
_publ_section_title
;
Structure prediction by ZEFSAII (Michael W. Deem and Ramdas Pophale) SiO2 
 PCOD9141264
Probable space group: C C
;
_chemical_formula_sum "Si O2"
_cell_formula_units_Z 16
_cell_length_a 30.000000
_cell_length_b 12.000000
_cell_length_c 24.000000
_cell_angle_alpha 90.000000
_cell_angle_beta 170.000000
_cell_angle_gamma 90.000000
_cell_volume 1500.320255
_symmetry_space_group_name_H-M "C C"
_symmetry_group_IT_number 9
_symmetry_cell_setting 'monoclinic'
loop_
_space_group_symop_operation_xyz
x,y,z
x,-y,1/2+z
1/2+x,1/2+y,z
1/2+x,1/2-y,1/2+z
loop_
_atom_site_type_symbol
_atom_site_label
_atom_site_fract_x
_atom_site_fract_y
_atom_site_fract_z
Si Si1 0.731590 0.526600 0.883990
Si Si2 0.951138 0.548942 0.805975
Si Si3 0.076912 0.608153 0.171610
Si Si4 0.295092 0.334191 0.820095
Si Si5 0.655655 0.873789 0.975611
Si Si6 0.010153 0.122024 0.804692
Si Si7 0.540965 0.653046 0.227774
Si Si8 0.049569 0.391473 0.191589
O O1 0.560795 0.601549 0.634000
O O2 0.549242 0.439939 0.690539
O O3 0.872094 0.606017 0.100438
O O4 0.957430 0.458108 0.132485
O O5 0.146532 0.463209 0.014870
O O6 0.724395 0.470150 0.552268
O O7 0.818842 0.633960 0.598647
O O8 0.088700 0.623399 0.021771
O O9 0.214768 0.626523 0.282658
O O10 0.289312 0.623617 0.483473
O O11 0.966380 0.482337 0.042439
O O12 0.863245 0.704377 0.908202
O O13 0.651331 0.742223 0.983188
O O14 0.865823 0.896485 0.186151
O O15 0.464447 0.766926 0.102692
O O16 0.340151 0.629876 0.029804
#
# Coordination Sequence:
#
# PCOD9141264 Si02
#       8
#     4   4   4   4   4   4   4   4
#     4  11  21  40  69 101 136 178 243 299 352 419
#     4  11  26  45  64 106 159 185 232 305 382 439
#     4  12  23  44  73 105 139 192 250 300 357 432
#     4  12  26  46  69 110 151 184 235 309 378 443
#     4  11  21  39  73 105 133 188 250 298 347 429
#     4  12  20  42  77 104 137 189 256 302 341 435
#     4  11  23  41  69 103 135 183 245 299 356 425
#     4  12  22  41  72 100 132 185 247 302 345 422
#
# _framework density 10.664389999999999
#
# number of rings (size 3 to 8) (size 9 to 14) (size 15 to 20)
#    0.000    0.500    7.500    2.250    0.000    1.000 
#    4.500    2.500    0.000    0.000    0.000    0.000 
#    0.000    0.000    0.000    0.000    0.000    0.000 
#
# Total GULP energy -89188.267233 kJ/mol
# GULP energy per Si atom -5574.266702 kJ/mol
# Density = 1.064012 g / cm^3
# Si number density = 10.664390 Si / 1000 Ang^3
#
#
#
# Elastic Constant Matrix: (Units=GPa)
#
#
# Indices 1 2 3 4 5 6 
#
# 1 112.3094 46.0153 35.4673 0.0544 24.4425 0.0344
# 2 46.0153 153.5585 49.0616 0.0257 -5.1264 0.0285
# 3 35.4673 49.0616 41.7135 0.0062 0.2020 0.0149
# 4 0.0544 0.0257 0.0062 26.9206 0.0187 2.5460
# 5 24.4425 -5.1264 0.2020 0.0187 27.5655 0.0172
# 6 0.0344 0.0285 0.0149 2.5460 0.0172 35.0877
#
#
#
# Elastic Compliance Matrix: (Units=1/GPa)
#
#
# Indices 1 2 3 4 5 6 
#
# 1 0.016688 -0.001588 -0.012248 -0.000019 -0.015003 -0.000001
# 2 -0.001588 0.010699 -0.011250 -0.000006 0.003480 -0.000004
# 3 -0.012248 -0.011250 0.047578 0.000019 0.008420 -0.000005
# 4 -0.000019 -0.000006 0.000019 0.037403 -0.000008 -0.002714
# 5 -0.015003 0.003480 0.008420 -0.000008 0.050166 -0.000016
# 6 -0.000001 -0.000004 -0.000005 -0.002714 -0.000016 0.028697
#
#
# Mechanical properties :
#
#
# Convention : Reuss Voigt Hill
#
# Bulk Modulus (GPa) = 40.33575 63.18552 51.76064
# Shear Modulus (GPa) = 20.02667 29.71721 24.87194
#
# Velocity S-wave (km/s) = 3.06755 3.73673 3.41856
# Velocity P-wave (km/s) = 5.61240 6.95028 6.31686
#
# Compressibility (1/GPa) = 0.02479190
#
# Stress axis : x y z
#
# Youngs Moduli (GPa) = 59.92355 93.47098 21.01812
#
# Poissons Ratio (x) = 0.14845 0.25744
# Poissons Ratio (y) = 0.09517 0.23645
# Poissons Ratio (z) = 0.73397 1.05151
#
# Static dielectric constant tensor:
#      x y z
#    x 1.790060 -0.000020 0.038830 
#    y -0.000020 1.825950 0.000000 
#    z 0.038830 0.000000 1.800020 
# 
# From -- ./inp_files/31295.got.cif
#   From: 2010.05.17/outbox.ucp.g08.bks.cvg/sg9_16_cif.got.tgz:31295.got - 2010.06.11 13:03:20.
