data_PCOD9141399
_publ_section_title
;
Structure prediction by ZEFSAII (Michael W. Deem and Ramdas Pophale) SiO2 
 PCOD9141399
Probable space group: P 2/M
;
_chemical_formula_sum "Si O2"
_cell_formula_units_Z 28
_cell_length_a 14.392187
_cell_length_b 13.246397
_cell_length_c 15.445508
_cell_angle_alpha 90.000000
_cell_angle_beta 139.776186
_cell_angle_gamma 90.000000
_cell_volume 1901.551298
_symmetry_space_group_name_H-M "P 2/M"
_symmetry_group_IT_number 10
_symmetry_cell_setting 'monoclinic'
loop_
_space_group_symop_operation_xyz
x,y,z
-x,y,-z
-x,-y,-z
x,-y,z
loop_
_atom_site_type_symbol
_atom_site_label
_atom_site_fract_x
_atom_site_fract_y
_atom_site_fract_z
Si Si1 0.940257 0.379425 0.861405
Si Si2 0.561951 0.500000 0.183806
Si Si3 0.735556 0.500000 0.138263
Si Si4 0.463995 0.695407 0.209580
Si Si5 0.735958 0.885571 0.138223
Si Si6 0.562374 0.114404 0.183990
Si Si7 0.833884 0.695139 0.112448
Si Si8 0.609425 0.380243 0.656146
O O1 0.960236 0.500000 0.860882
O O2 0.771403 0.356365 0.741974
O O3 0.031248 0.321577 0.854056
O O4 0.000000 0.357804 0.000000
O O5 0.691518 0.500000 0.207365
O O6 0.552511 0.600312 0.234795
O O7 0.415392 0.500000 0.022232
O O8 0.816847 0.600360 0.165050
O O9 0.544096 0.798535 0.241220
O O10 0.434719 0.679672 0.289611
O O11 0.309541 0.694391 0.050168
O O12 0.685856 0.863614 0.200836
O O13 0.832322 0.798636 0.165306
O O14 0.793519 0.000000 0.174947
O O15 0.587130 0.884949 0.977033
O O16 0.582062 0.000000 0.230811
O O17 0.500000 0.364123 0.500000
O O18 0.608466 0.500000 0.678390
#
# Coordination Sequence:
#
# PCOD9141399 Si02
#       8
#     4   2   2   4   4   4   4   4
#     4  10  18  28  45  64  88 118 150 185 219 263
#     4   9  16  22  34  59  92 113 135 173 228 263
#     4   9  16  22  32  62  92 112 133 177 222 268
#     4  10  16  25  42  62  88 118 145 184 220 259
#     4   8  14  24  38  60  93 123 146 175 215 266
#     4   8  14  24  39  61  89 122 151 175 214 267
#     4  10  16  24  41  64  90 117 145 177 223 262
#     4  10  20  32  45  64  89 119 155 186 217 261
#
# _framework density 14.724819999999999
#
# number of rings (size 3 to 8) (size 9 to 14) (size 15 to 20)
#    0.000    2.714    2.857    1.714    0.000    3.429 
#    0.000    0.000    0.000    1.714    0.000    5.000 
#    0.000    2.286    0.000    0.000    0.000    0.000 
#
# Total GULP energy -155921.154124 kJ/mol
# GULP energy per Si atom -5568.612647 kJ/mol
# Density = 1.469131 g / cm^3
# Si number density = 14.724820 Si / 1000 Ang^3
#
#
#
# Elastic Constant Matrix: (Units=GPa)
#
#
# Indices 1 2 3 4 5 6 
#
# 1 152.7184 95.8826 32.0209 0.0000 -8.8644 0.0000
# 2 95.8826 120.2889 25.3565 0.0000 -9.5668 0.0000
# 3 32.0209 25.3565 28.9899 0.0000 4.4824 0.0000
# 4 0.0000 0.0000 0.0000 7.1019 0.0000 -3.0260
# 5 -8.8644 -9.5668 4.4824 0.0000 11.1267 0.0000
# 6 0.0000 0.0000 0.0000 -3.0260 0.0000 23.6581
#
#
#
# Elastic Compliance Matrix: (Units=1/GPa)
#
#
# Indices 1 2 3 4 5 6 
#
# 1 0.014695 -0.009111 -0.009451 0.000000 0.007681 0.000000
# 2 -0.009111 0.018044 -0.007460 0.000000 0.011261 0.000000
# 3 -0.009451 -0.007460 0.057176 0.000000 -0.036976 0.000000
# 4 0.000000 0.000000 0.000000 0.148925 0.000000 0.019049
# 5 0.007681 0.011261 -0.036976 0.000000 0.120571 0.000000
# 6 0.000000 0.000000 0.000000 0.019049 0.000000 0.044705
#
#
# Mechanical properties :
#
#
# Convention : Reuss Voigt Hill
#
# Bulk Modulus (GPa) = 26.40477 67.61302 47.00889
# Shear Modulus (GPa) = 10.66592 18.29315 14.47954
#
# Velocity S-wave (km/s) = 2.69429 3.52850 3.13923
# Velocity P-wave (km/s) = 5.25833 7.91314 6.71818
#
# Compressibility (1/GPa) = 0.03787195
#
# Stress axis : x y z
#
# Youngs Moduli (GPa) = 68.04813 55.42119 17.48991
#
# Poissons Ratio (x) = 0.50493 0.16529
# Poissons Ratio (y) = 0.61997 0.13048
# Poissons Ratio (z) = 0.64311 0.41344
#
# Static dielectric constant tensor:
#      x y z
#    x 1.476500 0.000000 0.001400 
#    y 0.000000 1.491090 0.000000 
#    z 0.001400 0.000000 1.466270 
# 
# From -- ./inp_files/67164.got.cif
#   From: 2010.05.17/outbox.cif.g08.bks.cpg/sg10_34_cif.got.tgz:67164.got - 2010.06.03 11:33:40.
