data_PCOD9141772
_publ_section_title
;
Structure prediction by ZEFSAII (Michael W. Deem and Ramdas Pophale) SiO2 
 PCOD9141772
Probable space group: P 2/M
;
_chemical_formula_sum "Si O2"
_cell_formula_units_Z 28
_cell_length_a 17.908080
_cell_length_b 15.820572
_cell_length_c 8.220644
_cell_angle_alpha 90.000000
_cell_angle_beta 134.612453
_cell_angle_gamma 90.000000
_cell_volume 1657.982055
_symmetry_space_group_name_H-M "P 2/M"
_symmetry_group_IT_number 10
_symmetry_cell_setting 'monoclinic'
loop_
_space_group_symop_operation_xyz
x,y,z
-x,y,-z
-x,-y,-z
x,-y,z
loop_
_atom_site_type_symbol
_atom_site_label
_atom_site_fract_x
_atom_site_fract_y
_atom_site_fract_z
Si Si1 0.165555 0.096074 0.845856
Si Si2 0.050062 0.357561 0.734702
Si Si3 0.051076 0.095770 0.315575
Si Si4 0.804670 0.409112 0.766806
Si Si5 0.747725 0.737151 0.101150
Si Si6 0.855707 0.261753 0.599029
Si Si7 0.380836 0.595694 0.261007
O O1 0.108844 0.100058 0.581133
O O2 0.253207 0.168679 0.975150
O O3 0.071217 0.111557 0.829766
O O4 0.203212 0.000000 0.925819
O O5 0.144887 0.301181 0.810044
O O6 0.000000 0.401741 0.500000
O O7 0.959279 0.301053 0.673616
O O8 0.102712 0.409949 0.958095
O O9 0.106991 0.167867 0.295576
O O10 0.062604 0.000000 0.272160
O O11 0.805839 0.500000 0.679498
O O12 0.821792 0.326965 0.684466
O O13 0.697092 0.401925 0.703295
O O14 0.767063 0.742273 0.323720
O O15 0.658107 0.671145 0.914546
O O16 0.500000 0.605858 0.500000
O O17 0.368705 0.500000 0.171892
#
# Coordination Sequence:
#
# PCOD9141772 Si02
#       7
#     4   4   4   4   4   4   4
#     4   8  12  21  41  69  97 126 163 194 216 260
#     4   9  17  29  45  65  93 129 162 186 213 265
#     4   8  13  22  40  66  98 135 163 184 216 259
#     4  10  21  33  46  67  93 123 154 189 241 288
#     4   9  16  28  48  72  93 123 160 192 231 274
#     4  10  17  27  45  71 104 127 149 189 228 277
#     4   9  19  37  55  66  81 113 160 207 245 285
#
# _framework density 16.887999000000001
#
# number of rings (size 3 to 8) (size 9 to 14) (size 15 to 20)
#    0.000    3.000    1.429    1.286    0.000    2.000 
#    0.000    3.571    0.000    8.143    0.000    0.000 
#    0.000    4.571    0.000    0.000    0.000    0.000 
#
# Total GULP energy -155871.442622 kJ/mol
# GULP energy per Si atom -5566.837236 kJ/mol
# Density = 1.684956 g / cm^3
# Si number density = 16.887999 Si / 1000 Ang^3
#
#
#
# Elastic Constant Matrix: (Units=GPa)
#
#
# Indices 1 2 3 4 5 6 
#
# 1 18.1610 34.8684 23.8492 0.0000 -4.4872 0.0000
# 2 34.8684 160.5902 53.4654 0.0000 -4.0592 0.0000
# 3 23.8492 53.4654 61.3039 0.0000 8.4841 0.0000
# 4 0.0000 0.0000 0.0000 74.8389 0.0000 -2.9718
# 5 -4.4872 -4.0592 8.4841 0.0000 17.1657 0.0000
# 6 0.0000 0.0000 0.0000 -2.9718 0.0000 19.6813
#
#
#
# Elastic Compliance Matrix: (Units=1/GPa)
#
#
# Indices 1 2 3 4 5 6 
#
# 1 0.226811 -0.018206 -0.085839 0.000000 0.097410 0.000000
# 2 -0.018206 0.010918 -0.002295 0.000000 -0.001043 0.000000
# 3 -0.085839 -0.002295 0.058918 0.000000 -0.052101 0.000000
# 4 0.000000 0.000000 0.000000 0.013443 0.000000 0.002030
# 5 0.097410 -0.001043 -0.052101 0.000000 0.109223 0.000000
# 6 0.000000 0.000000 0.000000 0.002030 0.000000 0.051116
#
#
# Mechanical properties :
#
#
# Convention : Reuss Voigt Hill
#
# Bulk Modulus (GPa) = 11.90950 51.60235 31.75592
# Shear Modulus (GPa) = 7.03139 30.86198 18.94669
#
# Velocity S-wave (km/s) = 2.04269 4.27951 3.35311
# Velocity P-wave (km/s) = 3.55398 7.41895 5.81686
#
# Compressibility (1/GPa) = 0.08396657
#
# Stress axis : x y z
#
# Youngs Moduli (GPa) = 4.40897 91.59542 16.97271
#
# Poissons Ratio (x) = 1.66758 1.45693
# Poissons Ratio (y) = 0.08027 0.03894
# Poissons Ratio (z) = 0.37846 0.21017
#
# Static dielectric constant tensor:
#      x y z
#    x 1.560060 0.000000 -0.038620 
#    y 0.000000 1.642440 0.000000 
#    z -0.038620 0.000000 1.578290 
# 
# From -- ./inp_files/32829.got.cif
#   From: 2010.05.17/outbox.cif.g08.bks.cpg/sg10_17_cif.got.tgz:32829.got - 2010.06.03 11:33:40.
