data_PCOD9141929
_publ_section_title
;
Structure prediction by ZEFSAII (Michael W. Deem and Ramdas Pophale) SiO2 
 PCOD9141929
Probable space group: P 2/M
;
_chemical_formula_sum "Si O2"
_cell_formula_units_Z 16
_cell_length_a 8.063728
_cell_length_b 12.861564
_cell_length_c 7.404866
_cell_angle_alpha 90.000000
_cell_angle_beta 110.763952
_cell_angle_gamma 90.000000
_cell_volume 718.093813
_symmetry_space_group_name_H-M "P 2/M"
_symmetry_group_IT_number 10
_symmetry_cell_setting 'monoclinic'
loop_
_space_group_symop_operation_xyz
x,y,z
-x,y,-z
-x,-y,-z
x,-y,z
loop_
_atom_site_type_symbol
_atom_site_label
_atom_site_fract_x
_atom_site_fract_y
_atom_site_fract_z
Si Si1 0.201233 0.000000 0.129122
Si Si2 0.324254 0.000000 0.557957
Si Si3 0.512806 0.619065 0.283392
Si Si4 0.210159 0.227648 0.127661
Si Si5 0.790801 0.784112 0.441416
O O1 0.184376 0.000000 0.340882
O O2 0.273256 0.888308 0.092361
O O3 0.000000 0.000000 0.000000
O O4 0.500000 0.000000 0.500000
O O5 0.294286 0.893735 0.651000
O O6 0.500000 0.616872 0.500000
O O7 0.525750 0.500000 0.229791
O O8 0.343076 0.678646 0.133277
O O9 0.685847 0.689090 0.313306
O O10 0.233793 0.221929 0.352896
O O11 0.000000 0.241829 0.000000
O O12 0.000000 0.781845 0.500000
#
# Coordination Sequence:
#
# PCOD9141929 Si02
#       5
#     2   2   4   4   4
#     4   8  14  25  44  69  92 114 145 186 232 273
#     4  10  17  29  50  73  95 124 160 192 229 285
#     4   9  18  32  49  69  94 128 167 199 233 284
#     4   9  17  31  51  72  95 127 162 196 236 288
#     4  10  19  31  49  74 100 124 155 199 244 281
#
# _framework density 22.281210999999999
#
# number of rings (size 3 to 8) (size 9 to 14) (size 15 to 20)
#    0.000    2.750    0.000    4.125    0.000    1.000 
#    0.000    1.250    0.000    1.500    0.000   22.750 
#    0.000    0.000    0.000    0.000    0.000    0.000 
#
# Total GULP energy -89183.713048 kJ/mol
# GULP energy per Si atom -5573.982065 kJ/mol
# Density = 2.223050 g / cm^3
# Si number density = 22.281211 Si / 1000 Ang^3
#
#
#
# Elastic Constant Matrix: (Units=GPa)
#
#
# Indices 1 2 3 4 5 6 
#
# 1 101.2573 97.1169 10.5556 0.0000 37.6372 0.0000
# 2 97.1169 281.7289 33.4032 0.0000 48.7465 0.0000
# 3 10.5556 33.4032 79.8493 0.0000 10.4914 0.0000
# 4 0.0000 0.0000 0.0000 74.8998 0.0000 -97.6889
# 5 37.6372 48.7465 10.4914 0.0000 42.4881 0.0000
# 6 0.0000 0.0000 0.0000 -97.6889 0.0000 230.5825
#
#
#
# Elastic Compliance Matrix: (Units=1/GPa)
#
#
# Indices 1 2 3 4 5 6 
#
# 1 0.018236 -0.004444 0.000931 0.000000 -0.011285 0.000000
# 2 -0.004444 0.005631 -0.001485 0.000000 -0.002157 0.000000
# 3 0.000931 -0.001485 0.013339 0.000000 -0.002415 0.000000
# 4 0.000000 0.000000 0.000000 0.029839 0.000000 0.012642
# 5 -0.011285 -0.002157 -0.002415 0.000000 0.036604 0.000000
# 6 0.000000 0.000000 0.000000 0.012642 0.000000 0.009693
#
#
# Mechanical properties :
#
#
# Convention : Reuss Voigt Hill
#
# Bulk Modulus (GPa) = 36.75069 82.77630 59.76349
# Shear Modulus (GPa) = 37.76270 91.04472 64.40371
#
# Velocity S-wave (km/s) = 4.12129 6.39925 5.38216
# Velocity P-wave (km/s) = 6.25912 9.58289 8.09347
#
# Compressibility (1/GPa) = 0.02721038
#
# Stress axis : x y z
#
# Youngs Moduli (GPa) = 54.83766 177.60014 74.96870
#
# Poissons Ratio (x) = 0.78924 -0.06981
# Poissons Ratio (y) = 0.24369 0.11130
# Poissons Ratio (z) = -0.05106 0.26366
#
# Static dielectric constant tensor:
#      x y z
#    x 1.828130 0.000000 -0.078440 
#    y 0.000000 1.888260 0.000000 
#    z -0.078440 0.000000 1.773390 
# 
# From -- ./inp_files/16872.got.cif
#   From: 2010.05.17/outbox.cif.g08.bks.cpg/sg10_9_cif.got.tgz:16872.got - 2010.06.03 11:33:40.
