data_PCOD9141054
_publ_section_title
;
Structure prediction by ZEFSAII (Michael W. Deem and Ramdas Pophale) SiO2 
 PCOD9141054
Probable space group: C C
;
_chemical_formula_sum "Si O2"
_cell_formula_units_Z 28
_cell_length_a 8.867106
_cell_length_b 17.026954
_cell_length_c 11.556078
_cell_angle_alpha 90.000000
_cell_angle_beta 142.063425
_cell_angle_gamma 90.000000
_cell_volume 1072.643159
_symmetry_space_group_name_H-M "C C"
_symmetry_group_IT_number 9
_symmetry_cell_setting 'monoclinic'
loop_
_space_group_symop_operation_xyz
x,y,z
x,-y,1/2+z
1/2+x,1/2+y,z
1/2+x,1/2-y,1/2+z
loop_
_atom_site_type_symbol
_atom_site_label
_atom_site_fract_x
_atom_site_fract_y
_atom_site_fract_z
Si Si1 0.026840 0.637966 0.505760
Si Si2 0.372517 0.694494 0.376879
Si Si3 0.186637 0.940217 0.171277
Si Si4 0.944261 0.813449 0.421305
Si Si5 0.981988 0.143252 0.206854
Si Si6 0.353674 0.140721 0.001351
Si Si7 0.701621 0.996558 0.460882
O O1 0.194123 0.655534 0.716547
O O2 0.163779 0.577177 0.506721
O O3 0.985102 0.721647 0.418088
O O4 0.757016 0.610587 0.376959
O O5 0.585980 0.640944 0.558986
O O6 0.441330 0.705146 0.283852
O O7 0.340811 0.774809 0.426762
O O8 0.121968 0.643791 0.220949
O O9 0.274455 0.922225 0.356477
O O10 0.428871 0.972926 0.254018
O O11 0.941796 0.994446 0.024934
O O12 0.941928 0.821237 0.556678
O O13 0.160347 0.859117 0.488131
O O14 0.790062 0.072636 0.100379
#
# Coordination Sequence:
#
# PCOD9141054 Si02
#       7
#     4   4   4   4   4   4   4
#     4  12  26  48  79 114 162 210 278 333 410 486
#     4  12  28  47  83 116 158 204 276 344 410 484
#     4  12  27  51  79 112 163 209 274 332 418 492
#     4  12  27  48  84 115 160 216 277 339 402 499
#     4  12  30  48  77 123 161 214 267 340 418 495
#     4  12  25  48  83 116 154 210 274 341 410 486
#     4  12  27  54  75 120 164 219 266 339 416 502
#
# _framework density 26.103742
#
# number of rings (size 3 to 8) (size 9 to 14) (size 15 to 20)
#    0.000    0.000    7.143    1.714    6.000    1.143 
#    2.571    0.000    0.000    0.000    0.000    0.000 
#    0.000    0.000    0.000    0.000    0.000    0.000 
#
# Total GULP energy -78526.010343 kJ/mol
# GULP energy per Si atom -5609.000739 kJ/mol
# Density = 2.604433 g / cm^3
# Si number density = 26.103742 Si / 1000 Ang^3
#
#
#
# Elastic Constant Matrix: (Units=GPa)
#
#
# Indices 1 2 3 4 5 6 
#
# 1 130.4645 29.9580 65.6186 0.0004 19.9416 0.0003
# 2 29.9580 95.3354 30.1057 0.0000 7.0533 0.0000
# 3 65.6186 30.1057 164.4832 0.0005 33.1152 0.0005
# 4 0.0004 0.0000 0.0005 39.0294 0.0004 18.1389
# 5 19.9416 7.0533 33.1152 0.0004 60.9273 0.0003
# 6 0.0003 0.0000 0.0005 18.1389 0.0003 34.4542
#
#
#
# Elastic Compliance Matrix: (Units=1/GPa)
#
#
# Indices 1 2 3 4 5 6 
#
# 1 0.010009 -0.001986 -0.003387 0.000000 -0.001205 0.000000
# 2 -0.001986 0.011529 -0.001325 0.000000 0.000036 0.000000
# 3 -0.003387 -0.001325 0.008331 0.000000 -0.003266 0.000000
# 4 0.000000 0.000000 0.000000 0.033921 0.000000 -0.017858
# 5 -0.001205 0.000036 -0.003266 0.000000 0.018579 0.000000
# 6 0.000000 0.000000 0.000000 -0.017858 0.000000 0.038426
#
#
# Mechanical properties :
#
#
# Convention : Reuss Voigt Hill
#
# Bulk Modulus (GPa) = 60.70660 71.29417 66.00039
# Shear Modulus (GPa) = 35.79580 44.52223 40.15902
#
# Velocity S-wave (km/s) = 3.70711 4.13436 3.92655
# Velocity P-wave (km/s) = 6.45213 7.08249 6.77465
#
# Compressibility (1/GPa) = 0.01647267
#
# Stress axis : x y z
#
# Youngs Moduli (GPa) = 99.91406 86.73578 120.03725
#
# Poissons Ratio (x) = 0.17230 0.40652
# Poissons Ratio (y) = 0.19848 0.15904
# Poissons Ratio (z) = 0.33837 0.11492
#
# Static dielectric constant tensor:
#      x y z
#    x 2.050510 0.000000 0.030850 
#    y 0.000000 2.051520 0.000000 
#    z 0.030850 0.000000 2.025390 
# 
# From -- ./inp_files/15449.got.cif
#   From: 2010.05.17/outbox.cif.g08.bks.cpg/sg9_8_cif.got.tgz:15449.got - 2010.06.03 20:04:27.
