data_PCOD9141334
_publ_section_title
;
Structure prediction by ZEFSAII (Michael W. Deem and Ramdas Pophale) SiO2 
 PCOD9141334
Probable space group: P 2/M
;
_chemical_formula_sum "Si O2"
_cell_formula_units_Z 26
_cell_length_a 15.854615
_cell_length_b 22.186409
_cell_length_c 5.343223
_cell_angle_alpha 90.000000
_cell_angle_beta 120.110677
_cell_angle_gamma 90.000000
_cell_volume 1625.890212
_symmetry_space_group_name_H-M "P 2/M"
_symmetry_group_IT_number 10
_symmetry_cell_setting 'monoclinic'
loop_
_space_group_symop_operation_xyz
x,y,z
-x,y,-z
-x,-y,-z
x,-y,z
loop_
_atom_site_type_symbol
_atom_site_label
_atom_site_fract_x
_atom_site_fract_y
_atom_site_fract_z
Si Si1 0.615918 0.377106 0.936633
Si Si2 0.889090 0.072598 0.316874
Si Si3 0.434258 0.000000 0.148486
Si Si4 0.434496 0.758104 0.150178
Si Si5 0.393888 0.571451 0.578668
Si Si6 0.771438 0.927315 0.631142
Si Si7 0.385179 0.120842 0.266628
O O1 0.618373 0.305495 0.967705
O O2 0.657674 0.400921 0.739202
O O3 0.501528 0.397946 0.752889
O O4 0.656787 0.410294 0.239487
O O5 0.823979 0.092859 0.455568
O O6 0.000000 0.095150 0.500000
O O7 0.893006 0.000000 0.349147
O O8 0.842023 0.083802 0.975967
O O9 0.500000 0.000000 0.500000
O O10 0.372301 0.061070 0.077399
O O11 0.500000 0.000000 0.000000
O O12 0.500000 0.749398 0.500000
O O13 0.366764 0.815818 0.105304
O O14 0.500000 0.769785 0.000000
O O15 0.406557 0.500000 0.576164
O O16 0.674406 0.892179 0.570439
O O17 0.751476 0.000000 0.591466
O O18 0.500000 0.123644 0.500000
#
# Coordination Sequence:
#
# PCOD9141334 Si02
#       7
#     4   4   2   4   4   4   4
#     4  10  15  25  35  50  71  92 124 160 207 259
#     4   9  18  32  51  70  87 104 127 164 222 282
#     4  10  20  34  44  58  75 104 145 184 212 246
#     4  11  19  31  41  53  73 108 142 173 206 251
#     4  10  16  23  37  54  70  88 118 168 224 254
#     4  10  19  32  48  68  88 109 135 174 218 263
#     4  10  22  34  47  63  86 118 150 183 216 256
#
# _framework density 15.991239999999999
#
# number of rings (size 3 to 8) (size 9 to 14) (size 15 to 20)
#    0.000    2.000    3.846    3.231    0.000    6.769 
#    0.000    0.000    0.000    0.000    0.000    0.000 
#    0.000    0.000    0.000    0.000    0.000    0.000 
#
# Total GULP energy -144947.335982 kJ/mol
# GULP energy per Si atom -5574.897538 kJ/mol
# Density = 1.595484 g / cm^3
# Si number density = 15.991240 Si / 1000 Ang^3
#
#
#
# Elastic Constant Matrix: (Units=GPa)
#
#
# Indices 1 2 3 4 5 6 
#
# 1 77.8174 17.3871 38.3159 0.0000 -15.9912 0.0000
# 2 17.3871 110.9056 5.7622 0.0000 -10.1143 0.0000
# 3 38.3159 5.7622 64.0375 0.0000 -25.3214 0.0000
# 4 0.0000 0.0000 0.0000 11.3350 0.0000 -8.9805
# 5 -15.9912 -10.1143 -25.3214 0.0000 35.4227 0.0000
# 6 0.0000 0.0000 0.0000 -8.9805 0.0000 6.6913
#
#
#
# Elastic Compliance Matrix: (Units=1/GPa)
#
#
# Indices 1 2 3 4 5 6 
#
# 1 0.018822 -0.002385 -0.011092 0.000000 -0.000113 0.000000
# 2 -0.002385 0.009564 0.001701 0.000000 0.002870 0.000000
# 3 -0.011092 0.001701 0.028315 0.000000 0.015719 0.000000
# 4 0.000000 0.000000 0.000000 -1.392866 0.000000 -1.869398
# 5 -0.000113 0.002870 0.015719 0.000000 0.040236 0.000000
# 6 0.000000 0.000000 0.000000 -1.869398 0.000000 -2.359516
#
#
# Mechanical properties :
#
#
# Convention : Reuss Voigt Hill
#
# Bulk Modulus (GPa) = 30.16581 41.74341 35.95461
# Shear Modulus (GPa) = -1.38089 23.44283 11.03097
#
# Velocity S-wave (km/s) = -0.93027 3.83296 2.62928
# Velocity P-wave (km/s) = 4.21320 6.76383 5.63473
#
# Compressibility (1/GPa) = 0.03315012
#
# Stress axis : x y z
#
# Youngs Moduli (GPa) = 53.13055 104.55962 35.31724
#
# Poissons Ratio (x) = 0.24935 0.39173
# Poissons Ratio (y) = 0.12670 -0.06008
# Poissons Ratio (z) = 0.58930 -0.17789
#
# Static dielectric constant tensor:
#      x y z
#    x 1.560190 0.000000 -0.034670 
#    y 0.000000 1.556110 0.000000 
#    z -0.034670 0.000000 1.688720 
# 
# From -- ./inp_files/9998.got.cif
#   From: 2010.05.17/outbox.cif.g08.bks.cpg/sg10_5_cif.got.tgz:9998.got - 2010.06.03 11:33:40.
