data_PCOD9141976
_publ_section_title
;
Structure prediction by ZEFSAII (Michael W. Deem and Ramdas Pophale) SiO2 
 PCOD9141976
Probable space group: P 2/M
;
_chemical_formula_sum "Si O2"
_cell_formula_units_Z 26
_cell_length_a 9.617309
_cell_length_b 7.462492
_cell_length_c 23.177494
_cell_angle_alpha 90.000000
_cell_angle_beta 143.624151
_cell_angle_gamma 90.000000
_cell_volume 986.544960
_symmetry_space_group_name_H-M "P 2/M"
_symmetry_group_IT_number 10
_symmetry_cell_setting 'monoclinic'
loop_
_space_group_symop_operation_xyz
x,y,z
-x,y,-z
-x,-y,-z
x,-y,z
loop_
_atom_site_type_symbol
_atom_site_label
_atom_site_fract_x
_atom_site_fract_y
_atom_site_fract_z
Si Si1 0.062768 0.780631 0.894071
Si Si2 0.231766 0.282325 0.399792
Si Si3 0.117626 0.294450 0.483465
Si Si4 0.197600 0.791861 0.818286
Si Si5 0.000000 0.744278 0.000000
Si Si6 0.474699 0.784665 0.307430
Si Si7 0.541010 0.796812 0.204743
O O1 0.214046 0.723193 0.889237
O O2 0.085045 0.689307 0.963698
O O3 0.797531 0.743679 0.785786
O O4 0.089214 0.000000 0.911985
O O5 0.500000 0.224456 0.500000
O O6 0.231978 0.500000 0.398050
O O7 0.097834 0.219962 0.413257
O O8 0.072250 0.216837 0.293980
O O9 0.040838 0.500000 0.455076
O O10 0.390514 0.292741 0.593175
O O11 0.000000 0.205837 0.500000
O O12 0.348544 0.711973 0.815841
O O13 0.268898 0.000000 0.847009
O O14 0.741820 0.811455 0.894661
O O15 0.582156 0.717556 0.282146
O O16 0.496442 0.000000 0.316374
O O17 0.629693 0.000000 0.236484
#
# Coordination Sequence:
#
# PCOD9141976 Si02
#       7
#     4   4   4   4   2   4   4
#     4   9  17  29  47  71  99 127 158 197 242 291
#     4  10  21  36  52  71  98 134 172 202 239 297
#     4  10  20  32  47  69  95 124 163 205 240 282
#     4  10  20  32  48  76 105 127 161 209 250 284
#     4  10  17  30  50  74 105 136 159 194 251 300
#     4   9  17  30  47  68  94 127 163 197 240 290
#     4   9  17  29  47  72 103 133 163 200 244 296
#
# _framework density 26.354600000000001
#
# number of rings (size 3 to 8) (size 9 to 14) (size 15 to 20)
#    0.000    2.462    0.000    4.154    0.000    1.846 
#    0.000    2.308    0.000    0.000    0.000   20.462 
#    0.000    0.000    0.000    0.000    0.000    0.000 
#
# Total GULP energy -144990.054197 kJ/mol
# GULP energy per Si atom -5576.540546 kJ/mol
# Density = 2.629462 g / cm^3
# Si number density = 26.354600 Si / 1000 Ang^3
#
#
#
# Elastic Constant Matrix: (Units=GPa)
#
#
# Indices 1 2 3 4 5 6 
#
# 1 177.3646 8.8682 38.3541 0.0000 -53.5468 0.0000
# 2 8.8682 78.6286 6.4676 0.0000 -2.5883 0.0000
# 3 38.3541 6.4676 113.2263 0.0000 -20.1783 0.0000
# 4 0.0000 0.0000 0.0000 162.3655 0.0000 10.1371
# 5 -53.5468 -2.5883 -20.1783 0.0000 69.9145 0.0000
# 6 0.0000 0.0000 0.0000 10.1371 0.0000 -14.1921
#
#
#
# Elastic Compliance Matrix: (Units=1/GPa)
#
#
# Indices 1 2 3 4 5 6 
#
# 1 0.007630 -0.000553 -0.001597 0.000000 0.005362 0.000000
# 2 -0.000553 0.012823 -0.000565 0.000000 -0.000112 0.000000
# 3 -0.001597 -0.000565 0.009681 0.000000 0.001550 0.000000
# 4 0.000000 0.000000 0.000000 0.005896 0.000000 0.004211
# 5 0.005362 -0.000112 0.001550 0.000000 0.018853 0.000000
# 6 0.000000 0.000000 0.000000 0.004211 0.000000 -0.067454
#
#
# Mechanical properties :
#
#
# Convention : Reuss Voigt Hill
#
# Bulk Modulus (GPa) = 40.47888 52.95548 46.71718
# Shear Modulus (GPa) = 4563.59981 64.65288 2314.12635
#
# Velocity S-wave (km/s) = 41.65781 4.95834 29.66444
# Velocity P-wave (km/s) = 48.26203 7.27443 34.51189
#
# Compressibility (1/GPa) = 0.02470424
#
# Stress axis : x y z
#
# Youngs Moduli (GPa) = 131.06061 77.98390 103.29029
#
# Poissons Ratio (x) = 0.04310 0.16500
# Poissons Ratio (y) = 0.07243 0.05838
# Poissons Ratio (z) = 0.20936 0.04407
#
# Static dielectric constant tensor:
#      x y z
#    x 2.156830 0.000000 0.040900 
#    y 0.000000 2.004530 0.000000 
#    z 0.040900 0.000000 2.016390 
# 
# From -- ./inp_files/82651.got.cif
#   From: 2010.05.17/outbox.cif.g08.bks.cpg/sg10_42_cif.got.tgz:82651.got - 2010.06.03 11:33:40.
