data_PCOD9141752
_publ_section_title
;
Structure prediction by ZEFSAII (Michael W. Deem and Ramdas Pophale) SiO2 
 PCOD9141752
Probable space group: P 2/M
;
_chemical_formula_sum "Si O2"
_cell_formula_units_Z 32
_cell_length_a 18.398589
_cell_length_b 13.668214
_cell_length_c 18.629439
_cell_angle_alpha 90.000000
_cell_angle_beta 156.494843
_cell_angle_gamma 90.000000
_cell_volume 1868.467874
_symmetry_space_group_name_H-M "P 2/M"
_symmetry_group_IT_number 10
_symmetry_cell_setting 'monoclinic'
loop_
_space_group_symop_operation_xyz
x,y,z
-x,y,-z
-x,-y,-z
x,-y,z
loop_
_atom_site_type_symbol
_atom_site_label
_atom_site_fract_x
_atom_site_fract_y
_atom_site_fract_z
Si Si1 0.433628 0.886333 0.048533
Si Si2 0.764897 0.611911 0.185773
Si Si3 0.882483 0.612637 0.722694
Si Si4 0.700520 0.611951 0.859870
Si Si5 0.212280 0.188980 0.716760
Si Si6 0.471031 0.302070 0.156797
Si Si7 0.289053 0.611504 0.289764
Si Si8 0.167584 0.384883 0.483997
O O1 0.629416 0.855747 0.190686
O O2 0.414587 0.809921 0.095550
O O3 0.435019 0.000000 0.067243
O O4 0.269610 0.863090 0.844021
O O5 0.735472 0.500000 0.183782
O O6 0.748240 0.696201 0.230420
O O7 0.969518 0.620561 0.339939
O O8 0.634005 0.637262 0.000108
O O9 0.813686 0.500000 0.661054
O O10 0.806724 0.658391 0.727641
O O11 0.837987 0.650946 0.603660
O O12 0.098909 0.609537 0.925214
O O13 0.634382 0.500000 0.790616
O O14 0.577326 0.662268 0.807459
O O15 0.719922 0.656050 0.797776
O O16 0.000000 0.176158 0.500000
O O17 0.684522 0.321683 0.340986
O O18 0.500000 0.605250 0.500000
O O19 0.212584 0.500000 0.213105
O O20 0.220490 0.500000 0.532825
#
# Coordination Sequence:
#
# PCOD9141752 Si02
#       8
#     4   4   4   4   4   4   4   4
#     4  10  23  40  56  76  97 118 157 212 258 298
#     4  10  20  33  48  73 107 135 162 193 227 280
#     4   9  16  26  40  62  95 136 172 201 230 267
#     4  10  17  27  43  64  97 135 166 199 237 279
#     4  10  20  37  59  79  99 128 158 192 242 296
#     4  11  20  33  51  70  95 132 169 201 246 293
#     4   9  16  24  36  60  93 132 176 205 226 265
#     4  10  18  29  47  70 101 138 169 197 233 281
#
# _framework density 17.126331
#
# number of rings (size 3 to 8) (size 9 to 14) (size 15 to 20)
#    0.000    2.125    1.250    3.750    0.000    4.750 
#    0.000    6.250    0.000    0.000    0.000    0.000 
#    0.000    6.500    0.000    0.000    0.000    0.250 
#
# Total GULP energy -178366.143887 kJ/mol
# GULP energy per Si atom -5573.941996 kJ/mol
# Density = 1.708735 g / cm^3
# Si number density = 17.126331 Si / 1000 Ang^3
#
#
#
# Elastic Constant Matrix: (Units=GPa)
#
#
# Indices 1 2 3 4 5 6 
#
# 1 48.8824 12.5870 -3.3770 0.0000 -2.1331 0.0000
# 2 12.5870 79.5118 15.4987 0.0000 -3.0165 0.0000
# 3 -3.3770 15.4987 101.8854 0.0000 0.7614 0.0000
# 4 0.0000 0.0000 0.0000 9.4527 0.0000 -1.5931
# 5 -2.1331 -3.0165 0.7614 0.0000 11.9651 0.0000
# 6 0.0000 0.0000 0.0000 -1.5931 0.0000 7.4407
#
#
#
# Elastic Compliance Matrix: (Units=1/GPa)
#
#
# Indices 1 2 3 4 5 6 
#
# 1 0.021581 -0.003548 0.001234 0.000000 0.002875 0.000000
# 2 -0.003548 0.013684 -0.002221 0.000000 0.002959 0.000000
# 3 0.001234 -0.002221 0.010201 0.000000 -0.000989 0.000000
# 4 0.000000 0.000000 0.000000 0.109751 0.000000 0.023499
# 5 0.002875 0.002959 -0.000989 0.000000 0.084898 0.000000
# 6 0.000000 0.000000 0.000000 0.023499 0.000000 0.139427
#
#
# Mechanical properties :
#
#
# Convention : Reuss Voigt Hill
#
# Bulk Modulus (GPa) = 27.47619 31.07744 29.27682
# Shear Modulus (GPa) = 12.47677 19.47642 15.97659
#
# Velocity S-wave (km/s) = 2.70203 3.37593 3.05760
# Velocity P-wave (km/s) = 5.08062 5.77765 5.44031
#
# Compressibility (1/GPa) = 0.03639515
#
# Stress axis : x y z
#
# Youngs Moduli (GPa) = 46.33609 73.08023 98.02846
#
# Poissons Ratio (x) = 0.25927 -0.12092
# Poissons Ratio (y) = 0.16439 0.21774
# Poissons Ratio (z) = -0.05716 0.16233
#
# Static dielectric constant tensor:
#      x y z
#    x 1.639220 0.000000 0.004310 
#    y 0.000000 1.562920 0.000000 
#    z 0.004310 0.000000 1.611140 
# 
# From -- ./inp_files/86314.got.cif
#   From: 2010.05.17/outbox.cif.g08.bks.cpg/sg10_44_cif.got.tgz:86314.got - 2010.06.03 11:33:40.
