data_PCOD9141233
_publ_section_title
;
Structure prediction by ZEFSAII (Michael W. Deem and Ramdas Pophale) SiO2 
 PCOD9141233
Probable space group: C C
;
_chemical_formula_sum "Si O2"
_cell_formula_units_Z 16
_cell_length_a 15.000000
_cell_length_b 15.000000
_cell_length_c 21.000000
_cell_angle_alpha 90.000000
_cell_angle_beta 20.000000
_cell_angle_gamma 90.000000
_cell_volume 1616.045177
_symmetry_space_group_name_H-M "C C"
_symmetry_group_IT_number 9
_symmetry_cell_setting 'monoclinic'
loop_
_space_group_symop_operation_xyz
x,y,z
x,-y,1/2+z
1/2+x,1/2+y,z
1/2+x,1/2-y,1/2+z
loop_
_atom_site_type_symbol
_atom_site_label
_atom_site_fract_x
_atom_site_fract_y
_atom_site_fract_z
Si Si1 0.675880 0.909442 0.686130
Si Si2 0.319447 0.342590 0.249403
Si Si3 0.621545 0.508510 0.595347
Si Si4 0.301418 0.155910 0.330641
Si Si5 0.042590 0.849057 0.554405
Si Si6 0.027385 0.928024 0.899518
Si Si7 0.238913 0.117169 0.126382
Si Si8 0.585460 0.218302 0.652365
O O1 0.550003 0.857645 0.709733
O O2 0.822503 0.855204 0.645450
O O3 0.864801 0.984739 0.529101
O O4 0.415567 0.955849 0.889248
O O5 0.412619 0.413868 0.238031
O O6 0.313450 0.248279 0.286213
O O7 0.041342 0.366856 0.407523
O O8 0.545323 0.343585 0.046143
O O9 0.545313 0.444079 0.588080
O O10 0.612690 0.452642 0.664399
O O11 0.221609 0.088201 0.328507
O O12 0.318310 0.835692 0.335242
O O13 0.057578 0.775595 0.603792
O O14 0.211090 0.923192 0.714650
O O15 0.817789 0.850741 0.017016
O O16 0.102748 0.209966 0.198629
#
# Coordination Sequence:
#
# PCOD9141233 Si02
#       8
#     4   4   4   4   4   4   4   4
#     4  11  24  44  65  93 136 179 213 271 345 398
#     4  11  23  41  63  95 128 171 221 273 329 393
#     4  10  22  41  66  91 134 172 218 269 337 396
#     4  11  25  40  68  94 130 172 226 273 332 397
#     4  11  23  43  66  98 132 175 217 273 333 401
#     4  12  23  40  67  99 129 170 223 273 327 396
#     4  11  23  39  65  98 126 167 220 282 322 393
#     4  11  23  40  66  96 127 166 224 268 325 394
#
# _framework density 9.9007129999999997
#
# number of rings (size 3 to 8) (size 9 to 14) (size 15 to 20)
#    0.000    1.000    3.750    3.750    1.750    4.000 
#    0.000    1.250    0.000    0.000    0.000    0.000 
#    0.000    0.000    0.000    0.000    0.000    0.000 
#
# Total GULP energy -89117.388064 kJ/mol
# GULP energy per Si atom -5569.836754 kJ/mol
# Density = 0.987818 g / cm^3
# Si number density = 9.900713 Si / 1000 Ang^3
#
#
#
# Elastic Constant Matrix: (Units=GPa)
#
#
# Indices 1 2 3 4 5 6 
#
# 1 110.7608 -21.6130 13.4404 -0.1390 -5.4104 -0.3077
# 2 -21.6130 -8.3536 -9.2969 -0.4295 13.7815 -0.2169
# 3 13.4404 -9.2969 28.7955 -0.0551 -12.9339 -0.5805
# 4 -0.1390 -0.4295 -0.0551 23.1524 0.1417 -11.3436
# 5 -5.4104 13.7815 -12.9339 0.1417 23.1317 0.3586
# 6 -0.3077 -0.2169 -0.5805 -11.3436 0.3586 36.1549
#
#
#
# Elastic Compliance Matrix: (Units=1/GPa)
#
#
# Indices 1 2 3 4 5 6 
#
# 1 0.008126 -0.008572 -0.004560 -0.000233 0.004462 -0.000173
# 2 -0.008572 -0.050804 0.000372 -0.001759 0.028501 -0.001206
# 3 -0.004560 0.000372 0.048614 0.000207 0.025884 0.000552
# 4 -0.000233 -0.001759 0.000207 0.050986 0.000549 0.015982
# 5 0.004462 0.028501 0.025884 0.000549 0.041757 0.000383
# 6 -0.000173 -0.001206 0.000552 0.015982 0.000383 0.032670
#
#
# Mechanical properties :
#
#
# Convention : Reuss Voigt Hill
#
# Bulk Modulus (GPa) = -51.06445 10.69598 -20.18424
# Shear Modulus (GPa) = 33.25770 26.39928 29.82849
#
# Velocity S-wave (km/s) = 4.10269 3.65526 3.88542
# Velocity P-wave (km/s) = 1.84431 4.81954 3.14853
#
# Compressibility (1/GPa) = -0.01958310
#
# Stress axis : x y z
#
# Youngs Moduli (GPa) = 123.05642 -19.68358 20.57018
#
# Poissons Ratio (x) = -0.16873 0.09381
# Poissons Ratio (y) = 1.05484 -0.00766
# Poissons Ratio (z) = 0.56117 0.00733
#
# Static dielectric constant tensor:
#      x y z
#    x 1.708670 0.000070 0.030440 
#    y 0.000070 1.724430 0.000050 
#    z 0.030440 0.000050 1.708600 
# 
# From -- ./inp_files/9616.got.cif
#   From: 2010.05.17/outbox.ucp.g08.bks.cvg/sg9_5_cif.got.tgz:9616.got - 2010.06.11 13:03:20.
