data_PCOD9141075
_publ_section_title
;
Structure prediction by ZEFSAII (Michael W. Deem and Ramdas Pophale) SiO2 
 PCOD9141075
Probable space group: C C
;
_chemical_formula_sum "Si O2"
_cell_formula_units_Z 32
_cell_length_a 15.573651
_cell_length_b 11.245910
_cell_length_c 9.712120
_cell_angle_alpha 90.000000
_cell_angle_beta 128.581378
_cell_angle_gamma 90.000000
_cell_volume 1329.695146
_symmetry_space_group_name_H-M "C C"
_symmetry_group_IT_number 9
_symmetry_cell_setting 'monoclinic'
loop_
_space_group_symop_operation_xyz
x,y,z
x,-y,1/2+z
1/2+x,1/2+y,z
1/2+x,1/2-y,1/2+z
loop_
_atom_site_type_symbol
_atom_site_label
_atom_site_fract_x
_atom_site_fract_y
_atom_site_fract_z
Si Si1 0.977090 0.384042 0.556320
Si Si2 0.915241 0.454847 0.211950
Si Si3 0.696451 0.590378 0.637373
Si Si4 0.915813 0.884042 0.995042
Si Si5 0.477662 0.454847 0.774370
Si Si6 0.196451 0.289471 0.873007
Si Si7 0.946452 0.750000 0.544617
Si Si8 0.696451 0.687037 0.177777
O O1 0.975511 0.465850 0.419118
O O2 0.899065 0.430068 0.600855
O O3 0.946451 0.250000 0.482516
O O4 0.092546 0.372959 0.745057
O O5 0.800959 0.400024 0.145027
O O6 0.971690 0.362340 0.167413
O O7 0.591944 0.599976 0.436010
O O8 0.696451 0.690044 0.753131
O O9 0.696451 0.456036 0.694845
O O10 0.917392 0.965848 0.860997
O O11 0.800356 0.872959 0.952865
O O12 0.993837 0.930067 0.195627
O O13 0.421213 0.362340 0.616935
O O14 0.196452 0.228929 0.020226
O O15 0.823704 0.724319 0.353680
O O16 0.069199 0.775680 0.599175
#
# Coordination Sequence:
#
# PCOD9141075 Si02
#       8
#     4   4   4   4   4   4   4   4
#     4  12  27  50  76 117 158 209 269 337 408 482
#     4  12  27  49  84 114 164 212 275 343 411 491
#     4  12  25  50  82 116 148 229 281 335 394 503
#     4  12  27  50  76 117 158 209 269 337 408 482
#     4  12  27  49  84 114 164 212 275 343 411 491
#     4  12  28  49  80 112 168 214 271 341 420 491
#     4  12  28  52  78 126 164 214 284 340 418 498
#     4  12  31  45  84 124 164 215 284 344 412 498
#
# _framework density 24.065667000000001
#
# number of rings (size 3 to 8) (size 9 to 14) (size 15 to 20)
#    0.000    0.000    3.750    3.750   12.250    3.000 
#    0.000    0.000    0.000    0.000    0.000    0.000 
#    0.000    0.000    0.000    0.000    0.000    0.000 
#
# Total GULP energy -89364.680348 kJ/mol
# GULP energy per Si atom -5585.292522 kJ/mol
# Density = 2.401089 g / cm^3
# Si number density = 24.065667 Si / 1000 Ang^3
#
#
#
# Elastic Constant Matrix: (Units=GPa)
#
#
# Indices 1 2 3 4 5 6 
#
# 1 135.8889 21.1760 53.2022 0.0000 -17.9741 0.0000
# 2 21.1760 55.2383 38.1232 0.0000 -20.0334 0.0000
# 3 53.2022 38.1232 165.4726 0.0000 -16.9992 0.0000
# 4 0.0000 0.0000 0.0000 40.5553 0.0000 -2.9556
# 5 -17.9741 -20.0334 -16.9992 0.0000 47.7932 0.0000
# 6 0.0000 0.0000 0.0000 -2.9556 0.0000 38.0552
#
#
#
# Elastic Compliance Matrix: (Units=1/GPa)
#
#
# Indices 1 2 3 4 5 6 
#
# 1 0.008705 -0.000968 -0.002367 0.000000 0.002026 0.000000
# 2 -0.000968 0.024609 -0.004500 0.000000 0.008350 0.000000
# 3 -0.002367 -0.004500 0.007843 0.000000 0.000013 0.000000
# 4 0.000000 0.000000 0.000000 0.024798 0.000000 0.001926
# 5 0.002026 0.008350 0.000013 0.000000 0.025190 0.000000
# 6 0.000000 0.000000 0.000000 0.001926 0.000000 0.026427
#
#
# Mechanical properties :
#
#
# Convention : Reuss Voigt Hill
#
# Bulk Modulus (GPa) = 39.24071 64.62252 51.93161
# Shear Modulus (GPa) = 35.27606 41.55397 38.41501
#
# Velocity S-wave (km/s) = 3.83276 4.15986 3.99965
# Velocity P-wave (km/s) = 5.99398 7.06989 6.55405
#
# Compressibility (1/GPa) = 0.02548374
#
# Stress axis : x y z
#
# Youngs Moduli (GPa) = 114.88047 40.63525 127.50791
#
# Poissons Ratio (x) = 0.03935 0.30187
# Poissons Ratio (y) = 0.11125 0.57385
# Poissons Ratio (z) = 0.27198 0.18288
#
# Static dielectric constant tensor:
#      x y z
#    x 1.970440 0.000000 0.056860 
#    y 0.000000 1.959910 0.000000 
#    z 0.056860 0.000000 1.922340 
# 
# From -- ./inp_files/9325.got.cif
#   From: 2010.05.17/outbox.cif.g08.bks.cpg/sg9_5_cif.got.tgz:9325.got - 2010.06.03 20:04:27.
