data_PCOD9141170
_publ_section_title
;
Structure prediction by ZEFSAII (Michael W. Deem and Ramdas Pophale) SiO2 
 PCOD9141170
Probable space group: C C
;
_chemical_formula_sum "Si O2"
_cell_formula_units_Z 28
_cell_length_a 11.146768
_cell_length_b 12.116973
_cell_length_c 8.113830
_cell_angle_alpha 90.000000
_cell_angle_beta 99.269302
_cell_angle_gamma 90.000000
_cell_volume 1081.585129
_symmetry_space_group_name_H-M "C C"
_symmetry_group_IT_number 9
_symmetry_cell_setting 'monoclinic'
loop_
_space_group_symop_operation_xyz
x,y,z
x,-y,1/2+z
1/2+x,1/2+y,z
1/2+x,1/2-y,1/2+z
loop_
_atom_site_type_symbol
_atom_site_label
_atom_site_fract_x
_atom_site_fract_y
_atom_site_fract_z
Si Si1 0.902350 0.668847 0.243770
Si Si2 0.666634 0.867470 0.782771
Si Si3 0.073067 0.726375 0.743061
Si Si4 0.256462 0.429358 0.453696
Si Si5 0.693150 0.553691 0.364252
Si Si6 0.014556 0.141081 0.932683
Si Si7 0.321388 0.847642 0.346817
O O1 0.812390 0.637154 0.374660
O O2 0.952300 0.796034 0.263835
O O3 0.027827 0.604033 0.291544
O O4 0.848450 0.645524 0.049928
O O5 0.683075 0.904396 0.599857
O O6 0.719370 0.744597 0.797315
O O7 0.752154 0.943259 0.909988
O O8 0.182661 0.642480 0.802789
O O9 0.096814 0.847580 0.825739
O O10 0.070913 0.759363 0.551531
O O11 0.946427 0.680204 0.783078
O O12 0.395902 0.397630 0.504819
O O13 0.608390 0.459880 0.436762
O O14 0.761490 0.460431 0.265035
#
# Coordination Sequence:
#
# PCOD9141170 Si02
#       7
#     4   4   4   4   4   4   4
#     4  12  28  48  80 114 158 211 263 334 402 485
#     4  12  28  50  78 114 158 212 270 335 407 486
#     4  12  27  52  78 115 161 209 274 334 401 486
#     4  12  28  50  78 114 158 212 270 335 407 486
#     4  12  28  48  78 120 162 212 262 328 412 480
#     4  12  28  48  80 114 158 211 263 334 402 485
#     4  12  27  52  78 115 161 209 274 334 401 486
#
# _framework density 25.887930000000001
#
# number of rings (size 3 to 8) (size 9 to 14) (size 15 to 20)
#    0.000    0.000    5.714    2.571    4.000    6.857 
#    0.000    0.000    0.000    0.000    0.000    0.000 
#    0.000    0.000    0.000    0.000    0.000    0.000 
#
# Total GULP energy -78091.572937 kJ/mol
# GULP energy per Si atom -5577.969495 kJ/mol
# Density = 2.582901 g / cm^3
# Si number density = 25.887930 Si / 1000 Ang^3
#
#
#
# Elastic Constant Matrix: (Units=GPa)
#
#
# Indices 1 2 3 4 5 6 
#
# 1 184.3018 22.3280 15.8086 0.0000 -25.2191 0.0000
# 2 22.3280 127.8644 3.1073 0.0000 11.9527 0.0000
# 3 15.8086 3.1073 50.3734 0.0000 0.3685 0.0000
# 4 0.0000 0.0000 0.0000 29.1093 0.0000 -3.8926
# 5 -25.2191 11.9527 0.3685 0.0000 20.6448 0.0000
# 6 0.0000 0.0000 0.0000 -3.8926 0.0000 59.6066
#
#
#
# Elastic Compliance Matrix: (Units=1/GPa)
#
#
# Indices 1 2 3 4 5 6 
#
# 1 0.007272 -0.002167 -0.002223 0.000000 0.010177 0.000000
# 2 -0.002167 0.008926 0.000187 0.000000 -0.007818 0.000000
# 3 -0.002223 0.000187 0.020561 0.000000 -0.003190 0.000000
# 4 0.000000 0.000000 0.000000 0.034656 0.000000 0.002263
# 5 0.010177 -0.007818 -0.003190 0.000000 0.065454 0.000000
# 6 0.000000 0.000000 0.000000 0.002263 0.000000 0.016924
#
#
# Mechanical properties :
#
#
# Convention : Reuss Voigt Hill
#
# Bulk Modulus (GPa) = 35.27100 49.44747 42.35923
# Shear Modulus (GPa) = 29.12902 43.29185 36.21044
#
# Velocity S-wave (km/s) = 3.35803 4.09379 3.74403
# Velocity P-wave (km/s) = 5.35624 6.44108 5.92355
#
# Compressibility (1/GPa) = 0.02835191
#
# Stress axis : x y z
#
# Youngs Moduli (GPa) = 137.51907 112.03819 48.63535
#
# Poissons Ratio (x) = 0.24280 0.10811
# Poissons Ratio (y) = 0.29803 -0.00908
# Poissons Ratio (z) = 0.30568 -0.02092
#
# Static dielectric constant tensor:
#      x y z
#    x 2.025440 0.000000 0.014840 
#    y 0.000000 2.131990 0.000000 
#    z 0.014840 0.000000 2.205290 
# 
# From -- ./inp_files/6997.got.cif
#   From: 2010.05.17/outbox.cif.g08.bks.cpg/sg9_4_cif.got.tgz:6997.got - 2010.06.03 20:04:27.
