data_PCOD9141498
_publ_section_title
;
Structure prediction by ZEFSAII (Michael W. Deem and Ramdas Pophale) SiO2 
 PCOD9141498
Probable space group: P 2/M
;
_chemical_formula_sum "Si O2"
_cell_formula_units_Z 30
_cell_length_a 15.583117
_cell_length_b 7.607535
_cell_length_c 11.472978
_cell_angle_alpha 90.000000
_cell_angle_beta 69.775975
_cell_angle_gamma 90.000000
_cell_volume 1276.257931
_symmetry_space_group_name_H-M "P 2/M"
_symmetry_group_IT_number 10
_symmetry_cell_setting 'monoclinic'
loop_
_space_group_symop_operation_xyz
x,y,z
-x,y,-z
-x,-y,-z
x,-y,z
loop_
_atom_site_type_symbol
_atom_site_label
_atom_site_fract_x
_atom_site_fract_y
_atom_site_fract_z
Si Si1 0.226469 0.292572 0.402790
Si Si2 0.500000 0.750005 0.000000
Si Si3 0.034573 0.784282 0.856232
Si Si4 0.216448 0.204201 0.658993
Si Si5 0.433906 0.293417 0.271570
Si Si6 0.606768 0.792783 0.317335
Si Si7 0.680182 0.211403 0.023512
Si Si8 0.140654 0.789047 0.195607
O O1 0.230320 0.500000 0.420105
O O2 0.186773 0.211875 0.538932
O O3 0.331520 0.230633 0.341053
O O4 0.171469 0.258365 0.310865
O O5 0.524937 0.812973 0.857362
O O6 0.602152 0.689143 0.987071
O O7 0.135418 0.720145 0.775447
O O8 0.958096 0.725742 0.799582
O O9 0.037950 0.000000 0.852825
O O10 0.000000 0.733543 0.000000
O O11 0.318970 0.279273 0.626087
O O12 0.225790 0.000000 0.689452
O O13 0.432787 0.500000 0.236982
O O14 0.505446 0.280636 0.344057
O O15 0.591913 0.000000 0.344129
O O16 0.660314 0.764772 0.168995
O O17 0.779429 0.266047 0.931797
O O18 0.669424 0.000000 0.004072
O O19 0.137974 0.000000 0.190586
#
# Coordination Sequence:
#
# PCOD9141498 Si02
#       8
#     4   2   4   4   4   4   4   4
#     4  11  24  40  55  78 115 157 191 229 278 331
#     4  10  16  30  50  76 109 144 187 222 275 322
#     4   9  18  35  64  94 117 140 178 234 288 334
#     4  10  21  39  60  84 112 147 189 233 280 335
#     4  10  21  35  53  78 110 150 193 232 277 331
#     4   9  19  34  55  82 112 144 184 234 285 333
#     4   9  16  27  49  82 114 140 173 224 281 329
#     4  10  19  34  58  87 114 147 187 228 276 335
#
# _framework density 23.506221
#
# number of rings (size 3 to 8) (size 9 to 14) (size 15 to 20)
#    0.000    2.267    1.333    1.600    0.000    6.400 
#    0.000    6.000    0.000    3.200    0.000    0.000 
#    0.000    0.000    0.000    0.000    0.000    0.000 
#
# Total GULP energy -167328.767877 kJ/mol
# GULP energy per Si atom -5577.625596 kJ/mol
# Density = 2.345272 g / cm^3
# Si number density = 23.506221 Si / 1000 Ang^3
#
#
#
# Elastic Constant Matrix: (Units=GPa)
#
#
# Indices 1 2 3 4 5 6 
#
# 1 142.0350 8.1174 33.6843 0.0000 9.7032 0.0000
# 2 8.1174 60.1769 -5.5067 0.0000 -5.0012 0.0000
# 3 33.6843 -5.5067 71.5385 0.0000 2.6205 0.0000
# 4 0.0000 0.0000 0.0000 81.6666 0.0000 -20.4244
# 5 9.7032 -5.0012 2.6205 0.0000 34.7159 0.0000
# 6 0.0000 0.0000 0.0000 -20.4244 0.0000 18.1232
#
#
#
# Elastic Compliance Matrix: (Units=1/GPa)
#
#
# Indices 1 2 3 4 5 6 
#
# 1 0.008216 -0.001653 -0.003914 0.000000 -0.002239 0.000000
# 2 -0.001653 0.017256 0.002004 0.000000 0.002797 0.000000
# 3 -0.003914 0.002004 0.015969 0.000000 0.000177 0.000000
# 4 0.000000 0.000000 0.000000 0.017051 0.000000 0.019216
# 5 -0.002239 0.002797 0.000177 0.000000 0.029821 0.000000
# 6 0.000000 0.000000 0.000000 0.019216 0.000000 0.076834
#
#
# Mechanical properties :
#
#
# Convention : Reuss Voigt Hill
#
# Bulk Modulus (GPa) = 29.14018 38.48229 33.81123
# Shear Modulus (GPa) = 27.21681 42.73150 34.97416
#
# Velocity S-wave (km/s) = 3.40642 4.26829 3.86147
# Velocity P-wave (km/s) = 5.28160 6.37947 5.85632
#
# Compressibility (1/GPa) = 0.03431688
#
# Stress axis : x y z
#
# Youngs Moduli (GPa) = 121.71231 57.94962 62.62102
#
# Poissons Ratio (x) = 0.09576 0.24509
# Poissons Ratio (y) = 0.20113 -0.12549
# Poissons Ratio (z) = 0.47636 -0.11613
#
# Static dielectric constant tensor:
#      x y z
#    x 1.902990 0.000000 -0.002000 
#    y 0.000000 1.975410 0.000000 
#    z -0.002000 0.000000 1.870800 
# 
# From -- ./inp_files/49764.got.cif
#   From: 2010.05.17/outbox.cif.g08.bks.cpg/sg10_25_cif.got.tgz:49764.got - 2010.06.03 11:33:40.
