data_PCOD9141505
_publ_section_title
;
Structure prediction by ZEFSAII (Michael W. Deem and Ramdas Pophale) SiO2 
 PCOD9141505
Probable space group: P 2/M
;
_chemical_formula_sum "Si O2"
_cell_formula_units_Z 30
_cell_length_a 18.379482
_cell_length_b 16.791336
_cell_length_c 8.666369
_cell_angle_alpha 90.000000
_cell_angle_beta 142.913776
_cell_angle_gamma 90.000000
_cell_volume 1612.815457
_symmetry_space_group_name_H-M "P 2/M"
_symmetry_group_IT_number 10
_symmetry_cell_setting 'monoclinic'
loop_
_space_group_symop_operation_xyz
x,y,z
-x,y,-z
-x,-y,-z
x,-y,z
loop_
_atom_site_type_symbol
_atom_site_label
_atom_site_fract_x
_atom_site_fract_y
_atom_site_fract_z
Si Si1 0.670928 0.204539 0.925837
Si Si2 0.124039 0.907803 0.807607
Si Si3 0.237351 0.635993 0.758299
Si Si4 0.000000 0.350498 0.500000
Si Si5 0.409583 0.243871 0.558923
Si Si6 0.194452 0.267379 0.395378
Si Si7 0.956906 0.765865 0.143959
Si Si8 0.499665 0.587531 0.814540
O O1 0.538732 0.199540 0.780290
O O2 0.645839 0.225956 0.703218
O O3 0.759643 0.129308 0.081321
O O4 0.736935 0.278016 0.120075
O O5 0.103743 0.849421 0.918010
O O6 0.000000 0.900438 0.500000
O O7 0.142291 0.000000 0.876126
O O8 0.115706 0.603797 0.629299
O O9 0.220383 0.656927 0.548198
O O10 0.359292 0.588520 0.990896
O O11 0.961839 0.290980 0.298864
O O12 0.317442 0.227272 0.543509
O O13 0.437749 0.338329 0.625010
O O14 0.093773 0.218562 0.319973
O O15 0.120292 0.281732 0.113185
O O16 0.447183 0.500000 0.695237
O O17 0.500000 0.601809 0.000000
#
# Coordination Sequence:
#
# PCOD9141505 Si02
#       8
#     4   4   4   2   4   4   4   4
#     4  10  20  34  55  78 110 137 189 228 266 317
#     4  11  20  34  55  80 111 145 180 221 279 332
#     4  10  18  31  52  80 103 142 178 228 268 318
#     4  10  16  30  54  74 106 132 186 228 268 300
#     4  10  19  35  56  80 106 142 181 233 261 318
#     4  10  18  29  53  78 107 133 190 219 272 307
#     4  10  18  31  51  80 106 137 179 241 257 320
#     4  10  20  34  52  81 113 142 176 217 275 333
#
# _framework density 18.601012999999998
#
# number of rings (size 3 to 8) (size 9 to 14) (size 15 to 20)
#    0.000    1.867    4.667    0.800    0.000    0.000 
#    0.000    8.333    0.000    0.800    0.000   22.400 
#    0.000    0.000    0.000    0.000    0.000    0.000 
#
# Total GULP energy -167073.269445 kJ/mol
# GULP energy per Si atom -5569.108982 kJ/mol
# Density = 1.855868 g / cm^3
# Si number density = 18.601013 Si / 1000 Ang^3
#
#
#
# Elastic Constant Matrix: (Units=GPa)
#
#
# Indices 1 2 3 4 5 6 
#
# 1 120.6392 2.2437 25.0880 0.0000 32.8983 0.0000
# 2 2.2437 61.4936 20.1263 0.0000 6.5293 0.0000
# 3 25.0880 20.1263 72.9980 0.0000 8.2576 0.0000
# 4 0.0000 0.0000 0.0000 11.6661 0.0000 1.0455
# 5 32.8983 6.5293 8.2576 0.0000 38.6998 0.0000
# 6 0.0000 0.0000 0.0000 1.0455 0.0000 3.0788
#
#
#
# Elastic Compliance Matrix: (Units=1/GPa)
#
#
# Indices 1 2 3 4 5 6 
#
# 1 0.011505 0.001671 -0.003358 0.000000 -0.009346 0.000000
# 2 0.001671 0.018272 -0.005229 0.000000 -0.003388 0.000000
# 3 -0.003358 -0.005229 0.016265 0.000000 0.000266 0.000000
# 4 0.000000 0.000000 0.000000 0.088409 0.000000 -0.030022
# 5 -0.009346 -0.003388 0.000266 0.000000 0.034300 0.000000
# 6 0.000000 0.000000 0.000000 -0.030022 0.000000 0.334994
#
#
# Mechanical properties :
#
#
# Convention : Reuss Voigt Hill
#
# Bulk Modulus (GPa) = 31.04517 38.89411 34.96964
# Shear Modulus (GPa) = 9.46411 24.53380 16.99895
#
# Velocity S-wave (km/s) = 2.25810 3.63567 3.02631
# Velocity P-wave (km/s) = 4.85025 6.21122 5.57244
#
# Compressibility (1/GPa) = 0.03221113
#
# Stress axis : x y z
#
# Youngs Moduli (GPa) = 86.91907 54.72860 61.48336
#
# Poissons Ratio (x) = -0.09148 0.20644
# Poissons Ratio (y) = -0.14528 0.32150
# Poissons Ratio (z) = 0.29185 0.28618
#
# Static dielectric constant tensor:
#      x y z
#    x 1.721830 0.000000 0.031180 
#    y 0.000000 1.595420 0.000000 
#    z 0.031180 0.000000 1.691490 
# 
# From -- ./inp_files/32991.got.cif
#   From: 2010.05.17/outbox.cif.g08.bks.cpg/sg10_17_cif.got.tgz:32991.got - 2010.06.03 11:33:40.
