data_PCOD9141710
_publ_section_title
;
Structure prediction by ZEFSAII (Michael W. Deem and Ramdas Pophale) SiO2 
 PCOD9141710
Probable space group: P 2/M
;
_chemical_formula_sum "Si O2"
_cell_formula_units_Z 24
_cell_length_a 12.249784
_cell_length_b 7.510168
_cell_length_c 22.067271
_cell_angle_alpha 90.000000
_cell_angle_beta 141.911477
_cell_angle_gamma 90.000000
_cell_volume 1252.351257
_symmetry_space_group_name_H-M "P 2/M"
_symmetry_group_IT_number 10
_symmetry_cell_setting 'monoclinic'
loop_
_space_group_symop_operation_xyz
x,y,z
-x,y,-z
-x,-y,-z
x,-y,z
loop_
_atom_site_type_symbol
_atom_site_label
_atom_site_fract_x
_atom_site_fract_y
_atom_site_fract_z
Si Si1 0.608564 0.209763 0.362384
Si Si2 0.584558 0.294555 0.599184
Si Si3 0.955888 0.214752 0.715200
Si Si4 0.047048 0.216709 0.423707
Si Si5 0.638230 0.216092 0.246999
Si Si6 0.639034 0.217944 0.111154
O O1 0.485838 0.223630 0.367705
O O2 0.800137 0.284121 0.465798
O O3 0.545984 0.277129 0.269116
O O4 0.636649 0.000000 0.364991
O O5 0.500000 0.214259 0.500000
O O6 0.531792 0.500000 0.576445
O O7 0.796106 0.278593 0.686807
O O8 0.909739 0.269412 0.626249
O O9 0.158256 0.272074 0.814684
O O10 0.955155 0.000000 0.716897
O O11 0.844665 0.265042 0.346574
O O12 0.049700 0.000000 0.426934
O O13 0.590592 0.277747 0.158419
O O14 0.625481 0.000000 0.237266
O O15 0.639409 0.000000 0.111389
O O16 0.500000 0.276586 0.000000
#
# Coordination Sequence:
#
# PCOD9141710 Si02
#       6
#     4   4   4   4   4   4
#     4  10  17  26  44  65  89 121 154 184 213 261
#     4  11  22  32  42  60  92 128 157 187 223 261
#     4   9  16  28  47  69  90 118 155 184 215 265
#     4   8  13  22  39  64  90 113 142 182 217 253
#     4   8  14  23  39  67  94 116 144 178 224 273
#     4   8  14  26  47  75 100 114 134 184 241 273
#
# _framework density 19.163952999999999
#
# number of rings (size 3 to 8) (size 9 to 14) (size 15 to 20)
#    0.000    3.000    1.667    3.000    0.000    2.667 
#    0.000    0.000    0.000    7.500    0.000    7.000 
#    0.000    0.000    0.000    0.000    0.000    0.000 
#
# Total GULP energy -133684.055117 kJ/mol
# GULP energy per Si atom -5570.168963 kJ/mol
# Density = 1.912034 g / cm^3
# Si number density = 19.163953 Si / 1000 Ang^3
#
#
#
# Elastic Constant Matrix: (Units=GPa)
#
#
# Indices 1 2 3 4 5 6 
#
# 1 122.6599 -4.9908 77.5823 0.0000 -33.7678 0.0000
# 2 -4.9908 45.1821 4.7064 0.0000 -3.2249 0.0000
# 3 77.5823 4.7064 134.7196 0.0000 -26.9739 0.0000
# 4 0.0000 0.0000 0.0000 -16.4473 0.0000 -87.5135
# 5 -33.7678 -3.2249 -26.9739 0.0000 21.9578 0.0000
# 6 0.0000 0.0000 0.0000 -87.5135 0.0000 -504.9850
#
#
#
# Elastic Compliance Matrix: (Units=1/GPa)
#
#
# Indices 1 2 3 4 5 6 
#
# 1 0.017996 0.004112 -0.006426 0.000000 0.020386 0.000000
# 2 0.004112 0.023310 -0.001632 0.000000 0.007742 0.000000
# 3 -0.006426 -0.001632 0.012140 0.000000 0.004791 0.000000
# 4 0.000000 0.000000 0.000000 -0.780451 0.000000 0.135252
# 5 0.020386 0.007742 0.004791 0.000000 0.083916 0.000000
# 6 0.000000 0.000000 0.000000 0.135252 0.000000 -0.025419
#
#
# Mechanical properties :
#
#
# Convention : Reuss Voigt Hill
#
# Bulk Modulus (GPa) = 21.95192 50.79527 36.37360
# Shear Modulus (GPa) = -7.74674 -84.87735 -46.31204
#
# Velocity S-wave (km/s) = -2.01274 -6.66230 -4.92125
# Velocity P-wave (km/s) = 2.46539 5.71126 3.64282
#
# Compressibility (1/GPa) = 0.04555410
#
# Stress axis : x y z
#
# Youngs Moduli (GPa) = 55.56662 42.90091 82.37496
#
# Poissons Ratio (x) = -0.17642 0.52931
# Poissons Ratio (y) = -0.22850 0.13446
# Poissons Ratio (z) = 0.35705 0.07003
#
# Static dielectric constant tensor:
#      x y z
#    x 1.705000 0.000000 -0.029500 
#    y 0.000000 1.721490 0.000000 
#    z -0.029500 0.000000 1.657810 
# 
# From -- ./inp_files/48509.got.cif
#   From: 2010.05.17/outbox.cif.g08.bks.cpg/sg10_25_cif.got.tgz:48509.got - 2010.06.03 11:33:40.
