data_PCOD9141015
_publ_section_title
;
Structure prediction by ZEFSAII (Michael W. Deem and Ramdas Pophale) SiO2 
 PCOD9141015
Probable space group: C C
;
_chemical_formula_sum "Si O2"
_cell_formula_units_Z 32
_cell_length_a 5.199722
_cell_length_b 26.777479
_cell_length_c 8.589308
_cell_angle_alpha 90.000000
_cell_angle_beta 90.832106
_cell_angle_gamma 90.000000
_cell_volume 1195.810016
_symmetry_space_group_name_H-M "C C"
_symmetry_group_IT_number 9
_symmetry_cell_setting 'monoclinic'
loop_
_space_group_symop_operation_xyz
x,y,z
x,-y,1/2+z
1/2+x,1/2+y,z
1/2+x,1/2-y,1/2+z
loop_
_atom_site_type_symbol
_atom_site_label
_atom_site_fract_x
_atom_site_fract_y
_atom_site_fract_z
Si Si1 0.870030 0.256513 0.376220
Si Si2 0.161270 0.496947 0.932402
Si Si3 0.525799 0.418327 0.601375
Si Si4 0.665845 0.119882 0.339720
Si Si5 0.581917 0.601176 0.772922
Si Si6 0.299057 0.005216 0.686639
Si Si7 0.072017 0.651983 0.671285
Si Si8 0.851459 0.293096 0.737077
O O1 0.977401 0.300242 0.264146
O O2 0.834596 0.275332 0.555005
O O3 0.595706 0.238216 0.307221
O O4 0.102112 0.217596 0.342814
O O5 0.211911 0.437896 0.901653
O O6 0.065611 0.519613 0.768626
O O7 0.878948 0.495522 0.009439
O O8 0.338331 0.537086 0.025283
O O9 0.665858 0.395607 0.453345
O O10 0.711885 0.449250 0.714835
O O11 0.361539 0.379777 0.697131
O O12 0.684772 0.152394 0.498021
O O13 0.423551 0.148556 0.258998
O O14 0.581300 0.543503 0.726328
O O15 0.807386 0.620986 0.664352
O O16 0.310120 0.627661 0.763583
#
# Coordination Sequence:
#
# PCOD9141015 Si02
#       8
#     4   4   4   4   4   4   4   4
#     4  12  27  55  84 119 160 205 252 326 408 467
#     4  12  25  47  69 105 152 206 255 319 381 450
#     4  12  27  45  69 106 152 203 258 318 383 452
#     4  12  27  47  75 114 156 203 267 319 382 465
#     4  12  26  45  70 106 149 199 259 313 378 462
#     4  12  25  42  71  97 148 204 254 317 384 447
#     4  12  27  47  78 112 152 199 254 318 389 468
#     4  12  28  52  84 117 159 203 261 322 395 479
#
# _framework density 26.760100999999999
#
# number of rings (size 3 to 8) (size 9 to 14) (size 15 to 20)
#    0.000    0.000    3.750    6.000    1.750    4.000 
#    0.000    0.000    0.000    0.000    0.000    0.000 
#    0.000    0.000    0.000    0.000    0.000    0.000 
#
# Total GULP energy -89405.713507 kJ/mol
# GULP energy per Si atom -5587.857094 kJ/mol
# Density = 2.669919 g / cm^3
# Si number density = 26.760101 Si / 1000 Ang^3
#
#
#
# Elastic Constant Matrix: (Units=GPa)
#
#
# Indices 1 2 3 4 5 6 
#
# 1 133.0883 29.0586 40.6409 0.0000 -10.0207 0.0000
# 2 29.0586 100.6524 34.6397 0.0000 7.4772 0.0000
# 3 40.6409 34.6397 115.9249 0.0000 -5.5629 0.0000
# 4 0.0000 0.0000 0.0000 43.7699 0.0000 1.0555
# 5 -10.0207 7.4772 -5.5629 0.0000 53.2793 0.0000
# 6 0.0000 0.0000 0.0000 1.0555 0.0000 57.2012
#
#
#
# Elastic Compliance Matrix: (Units=1/GPa)
#
#
# Indices 1 2 3 4 5 6 
#
# 1 0.008785 -0.001812 -0.002459 0.000000 0.001650 0.000000
# 2 -0.001812 0.011645 -0.002954 0.000000 -0.002283 0.000000
# 3 -0.002459 -0.002954 0.010421 0.000000 0.001040 0.000000
# 4 0.000000 0.000000 0.000000 0.022857 0.000000 -0.000422
# 5 0.001650 -0.002283 0.001040 0.000000 0.019508 0.000000
# 6 0.000000 0.000000 0.000000 -0.000422 0.000000 0.017490
#
#
# Mechanical properties :
#
#
# Convention : Reuss Voigt Hill
#
# Bulk Modulus (GPa) = 60.97618 62.03821 61.50720
# Shear Modulus (GPa) = 45.19887 47.20516 46.20202
#
# Velocity S-wave (km/s) = 4.11425 4.20457 4.15966
# Velocity P-wave (km/s) = 6.73833 6.84139 6.79006
#
# Compressibility (1/GPa) = 0.01639985
#
# Stress axis : x y z
#
# Youngs Moduli (GPa) = 113.83493 85.87673 95.96149
#
# Poissons Ratio (x) = 0.15565 0.23597
# Poissons Ratio (y) = 0.20632 0.28344
# Poissons Ratio (z) = 0.27992 0.25365
#
# Static dielectric constant tensor:
#      x y z
#    x 2.083000 0.000000 0.063590 
#    y 0.000000 2.211930 0.000000 
#    z 0.063590 0.000000 2.095810 
# 
# From -- ./inp_files/4371.got.cif
#   From: 2010.05.17/outbox.cif.g08.bks.cpg/sg9_3_cif.got.tgz:4371.got - 2010.06.03 20:04:27.
