data_PCOD9141260
_publ_section_title
;
Structure prediction by ZEFSAII (Michael W. Deem and Ramdas Pophale) SiO2 
 PCOD9141260
Probable space group: C C
;
_chemical_formula_sum "Si O2"
_cell_formula_units_Z 16
_cell_length_a 12.000000
_cell_length_b 18.000000
_cell_length_c 15.000000
_cell_angle_alpha 90.000000
_cell_angle_beta 150.000000
_cell_angle_gamma 90.000000
_cell_volume 1620.000000
_symmetry_space_group_name_H-M "C C"
_symmetry_group_IT_number 9
_symmetry_cell_setting 'monoclinic'
loop_
_space_group_symop_operation_xyz
x,y,z
x,-y,1/2+z
1/2+x,1/2+y,z
1/2+x,1/2-y,1/2+z
loop_
_atom_site_type_symbol
_atom_site_label
_atom_site_fract_x
_atom_site_fract_y
_atom_site_fract_z
Si Si1 0.815240 0.072936 0.636030
Si Si2 0.641972 0.304327 0.663537
Si Si3 0.795215 0.353086 0.464329
Si Si4 0.898327 0.645138 0.681624
Si Si5 0.027053 0.817706 0.782636
Si Si6 0.574218 0.090606 0.981870
Si Si7 0.570566 0.813970 0.832626
Si Si8 0.717894 0.858693 0.259343
O O1 0.727269 0.126549 0.494075
O O2 0.746120 0.100989 0.686247
O O3 0.084335 0.089402 0.823386
O O4 0.694919 0.991038 0.552134
O O5 0.631304 0.337394 0.756765
O O6 0.592654 0.217932 0.647380
O O7 0.452543 0.338991 0.469189
O O8 0.872379 0.302977 0.768359
O O9 0.687582 0.266913 0.389547
O O10 0.942157 0.383117 0.481077
O O11 0.954555 0.347477 0.662802
O O12 0.673008 0.654820 0.468037
O O13 0.997155 0.728349 0.766879
O O14 0.068356 0.604097 0.731855
O O15 0.905832 0.604404 0.781800
O O16 0.783752 0.853807 0.618008
#
# Coordination Sequence:
#
# PCOD9141260 Si02
#       8
#     4   4   4   4   4   4   4   4
#     4  12  27  47  71 107 150 191 250 316 378 433
#     4  11  18  37  72 111 129 173 242 314 349 424
#     4  12  27  47  77 109 145 203 258 307 372 462
#     4  11  22  43  72 103 142 194 241 302 365 447
#     4  11  22  41  74 105 143 186 247 303 368 448
#     4  12  30  47  68 111 156 196 244 313 385 447
#     4  12  23  45  79 109 141 196 256 310 366 450
#     4  11  19  37  69 105 140 173 238 301 365 421
#
# _framework density 9.8765429999999999
#
# number of rings (size 3 to 8) (size 9 to 14) (size 15 to 20)
#    0.000    0.500    6.250    3.750    1.750    5.000 
#    0.000    0.000    0.000    0.000    0.000    0.000 
#    0.000    0.000    0.000    0.000    0.000    0.000 
#
# Total GULP energy -89238.963722 kJ/mol
# GULP energy per Si atom -5577.435233 kJ/mol
# Density = 0.985406 g / cm^3
# Si number density = 9.876543 Si / 1000 Ang^3
#
#
#
# Elastic Constant Matrix: (Units=GPa)
#
#
# Indices 1 2 3 4 5 6 
#
# 1 157.8540 39.6796 46.5441 -0.0284 -14.4990 -0.0041
# 2 39.6796 85.9194 32.2712 -0.0792 -9.2719 -0.0232
# 3 46.5441 32.2712 141.5430 -0.1077 -29.8417 -0.0374
# 4 -0.0284 -0.0792 -0.1077 26.3854 -0.0263 -0.8582
# 5 -14.4990 -9.2719 -29.8417 -0.0263 46.6015 -0.0038
# 6 -0.0041 -0.0232 -0.0374 -0.8582 -0.0038 23.8426
#
#
#
# Elastic Compliance Matrix: (Units=1/GPa)
#
#
# Indices 1 2 3 4 5 6 
#
# 1 0.007608 -0.002793 -0.001715 -0.000007 0.000713 -0.000004
# 2 -0.002793 0.013778 -0.002114 0.000031 0.000519 0.000011
# 3 -0.001715 -0.002114 0.009144 0.000034 0.004902 0.000014
# 4 -0.000007 0.000031 0.000034 0.037944 0.000048 0.001366
# 5 0.000713 0.000519 0.004902 0.000048 0.024923 0.000014
# 6 -0.000004 0.000011 0.000014 0.001366 0.000014 0.041991
#
#
# Mechanical properties :
#
#
# Convention : Reuss Voigt Hill
#
# Bulk Modulus (GPa) = 57.84089 69.14514 63.49301
# Shear Modulus (GPa) = 32.38482 37.15400 34.76941
#
# Velocity S-wave (km/s) = 4.05344 4.34166 4.20003
# Velocity P-wave (km/s) = 7.15910 7.75978 7.46548
#
# Compressibility (1/GPa) = 0.01728881
#
# Stress axis : x y z
#
# Youngs Moduli (GPa) = 131.43990 72.57728 109.35923
#
# Poissons Ratio (x) = 0.20268 0.18752
# Poissons Ratio (y) = 0.36705 0.23115
# Poissons Ratio (z) = 0.22538 0.15341
#
# Static dielectric constant tensor:
#      x y z
#    x 1.724500 0.000000 0.012070 
#    y 0.000000 1.716040 0.000000 
#    z 0.012070 0.000000 1.728720 
# 
# From -- ./inp_files/25024.got.cif
#   From: 2010.05.17/outbox.ucp.g08.bks.cvg/sg9_13_cif.got.tgz:25024.got - 2010.06.11 13:03:20.
