data_PCOD9141392
_publ_section_title
;
Structure prediction by ZEFSAII (Michael W. Deem and Ramdas Pophale) SiO2 
 PCOD9141392
Probable space group: P 2/M
;
_chemical_formula_sum "Si O2"
_cell_formula_units_Z 32
_cell_length_a 13.524013
_cell_length_b 31.313357
_cell_length_c 13.454495
_cell_angle_alpha 90.000000
_cell_angle_beta 158.006658
_cell_angle_gamma 90.000000
_cell_volume 2133.796985
_symmetry_space_group_name_H-M "P 2/M"
_symmetry_group_IT_number 10
_symmetry_cell_setting 'monoclinic'
loop_
_space_group_symop_operation_xyz
x,y,z
-x,y,-z
-x,-y,-z
x,-y,z
loop_
_atom_site_type_symbol
_atom_site_label
_atom_site_fract_x
_atom_site_fract_y
_atom_site_fract_z
Si Si1 0.465361 0.096579 0.087469
Si Si2 0.282628 0.183499 0.712211
Si Si3 0.567972 0.319102 0.944913
Si Si4 0.620848 0.589045 0.905130
Si Si5 0.283823 0.549523 0.213561
Si Si6 0.070098 0.550209 0.453565
Si Si7 0.037082 0.951344 0.414128
Si Si8 0.069869 0.731018 0.448056
O O1 0.571529 0.144239 0.205465
O O2 0.664700 0.063603 0.323799
O O3 0.500000 0.093256 0.000000
O O4 0.166503 0.081938 0.824290
O O5 0.194693 0.221772 0.557763
O O6 0.000000 0.169677 0.500000
O O7 0.500000 0.197614 0.000000
O O8 0.658961 0.363414 0.982505
O O9 0.300070 0.302872 0.644459
O O10 0.500000 0.324267 0.000000
O O11 0.797421 0.283667 0.145254
O O12 0.679485 0.580941 0.844476
O O13 0.321361 0.575527 0.648179
O O14 0.818876 0.559005 0.151091
O O15 0.500000 0.556545 0.500000
O O16 0.312397 0.500000 0.204765
O O17 0.000000 0.553669 0.000000
O O18 0.133296 0.500000 0.514046
O O19 0.000000 0.564040 0.500000
O O20 0.000000 0.950230 0.500000
O O21 0.985561 0.000000 0.335179
O O22 0.000000 0.729315 0.500000
#
# Coordination Sequence:
#
# PCOD9141392 Si02
#       8
#     4   4   4   4   4   4   4   4
#     4   9  15  21  29  41  54  73 106 143 179 226
#     4  10  16  24  36  48  63  86 118 153 186 221
#     4  10  19  30  44  63  86 109 133 157 191 243
#     4  12  22  35  53  71  93 120 145 174 209 245
#     4  10  21  37  55  73  91 113 145 181 212 241
#     4  11  22  34  49  71  97 122 146 169 198 241
#     4   9  15  21  27  36  53  75  99 135 186 237
#     4   9  17  28  40  55  76 102 127 155 189 228
#
# _framework density 14.996741
#
# number of rings (size 3 to 8) (size 9 to 14) (size 15 to 20)
#    0.000    2.000    0.000    7.875    0.000    4.500 
#    0.000    0.000    0.000    0.000    0.000    0.000 
#    0.000    0.000    0.000    0.000    0.000    0.000 
#
# Total GULP energy -178280.327527 kJ/mol
# GULP energy per Si atom -5571.260235 kJ/mol
# Density = 1.496261 g / cm^3
# Si number density = 14.996741 Si / 1000 Ang^3
#
#
#
# Elastic Constant Matrix: (Units=GPa)
#
#
# Indices 1 2 3 4 5 6 
#
# 1 33.7905 21.8241 18.8209 0.0000 -1.9213 0.0000
# 2 21.8241 71.3220 21.5201 0.0000 0.9141 0.0000
# 3 18.8209 21.5201 67.0787 0.0000 9.2786 0.0000
# 4 0.0000 0.0000 0.0000 51.0193 0.0000 22.2243
# 5 -1.9213 0.9141 9.2786 0.0000 9.3212 0.0000
# 6 0.0000 0.0000 0.0000 22.2243 0.0000 11.6743
#
#
#
# Elastic Compliance Matrix: (Units=1/GPa)
#
#
# Indices 1 2 3 4 5 6 
#
# 1 0.044219 -0.010122 -0.012243 0.000000 0.022294 0.000000
# 2 -0.010122 0.017969 -0.002774 0.000000 -0.001087 0.000000
# 3 -0.012243 -0.002774 0.022665 0.000000 -0.024813 0.000000
# 4 0.000000 0.000000 0.000000 0.114799 0.000000 -0.218543
# 5 0.022294 -0.001087 -0.024813 0.000000 0.136683 0.000000
# 6 0.000000 0.000000 0.000000 -0.218543 0.000000 0.501699
#
#
# Mechanical properties :
#
#
# Convention : Reuss Voigt Hill
#
# Bulk Modulus (GPa) = 28.92387 32.94681 30.93534
# Shear Modulus (GPa) = 5.55655 21.73805 13.64730
#
# Velocity S-wave (km/s) = 1.92697 3.81138 3.01992
# Velocity P-wave (km/s) = 4.92743 6.43318 5.72999
#
# Compressibility (1/GPa) = 0.03457352
#
# Stress axis : x y z
#
# Youngs Moduli (GPa) = 22.61491 55.65047 44.12002
#
# Poissons Ratio (x) = 0.56330 0.54017
# Poissons Ratio (y) = 0.22891 0.12241
# Poissons Ratio (z) = 0.27688 0.15440
#
# Static dielectric constant tensor:
#      x y z
#    x 1.455200 0.000000 0.010850 
#    y 0.000000 1.553600 0.000000 
#    z 0.010850 0.000000 1.521750 
# 
# From -- ./inp_files/68060.got.cif
#   From: 2010.05.17/outbox.cif.g08.bks.cpg/sg10_35_cif.got.tgz:68060.got - 2010.06.03 11:33:40.
