data_PCOD9141866
_publ_section_title
;
Structure prediction by ZEFSAII (Michael W. Deem and Ramdas Pophale) SiO2 
 PCOD9141866
Probable space group: P 2/M
;
_chemical_formula_sum "Si O2"
_cell_formula_units_Z 30
_cell_length_a 11.786713
_cell_length_b 10.646848
_cell_length_c 12.164931
_cell_angle_alpha 90.000000
_cell_angle_beta 85.696205
_cell_angle_gamma 90.000000
_cell_volume 1522.288772
_symmetry_space_group_name_H-M "P 2/M"
_symmetry_group_IT_number 10
_symmetry_cell_setting 'monoclinic'
loop_
_space_group_symop_operation_xyz
x,y,z
-x,y,-z
-x,-y,-z
x,-y,z
loop_
_atom_site_type_symbol
_atom_site_label
_atom_site_fract_x
_atom_site_fract_y
_atom_site_fract_z
Si Si1 0.621576 0.863427 0.267888
Si Si2 0.742067 0.648499 0.862802
Si Si3 0.877966 0.350040 0.049608
Si Si4 0.500000 0.794246 0.500000
Si Si5 0.505260 0.350611 0.133596
Si Si6 0.077104 0.350038 0.340260
Si Si7 0.276799 0.640230 0.483318
Si Si8 0.163920 0.726365 0.700089
O O1 0.550958 0.859655 0.387635
O O2 0.586278 0.745696 0.192914
O O3 0.754625 0.845813 0.290006
O O4 0.603144 0.000000 0.216661
O O5 0.720765 0.500000 0.878154
O O6 0.622842 0.691542 0.822596
O O7 0.850614 0.661527 0.776755
O O8 0.778500 0.701161 0.978266
O O9 0.880581 0.500000 0.032271
O O10 0.856957 0.327672 0.177874
O O11 0.000000 0.300532 0.000000
O O12 0.393477 0.713241 0.464819
O O13 0.528739 0.500000 0.156380
O O14 0.500000 0.340478 0.000000
O O15 0.048417 0.500000 0.357539
O O16 0.167350 0.309618 0.425826
O O17 0.962063 0.271098 0.342459
O O18 0.294045 0.500000 0.439336
O O19 0.239287 0.641678 0.612992
#
# Coordination Sequence:
#
# PCOD9141866 Si02
#       8
#     4   4   4   2   4   4   4   4
#     4  11  25  43  63  85 117 162 209 256 306 363
#     4   9  17  29  49  79 116 151 185 231 285 346
#     4  10  17  28  49  81 117 152 186 224 279 347
#     4  10  22  40  62  84 115 160 211 256 299 360
#     4  10  21  38  61  93 128 157 195 251 307 360
#     4  10  18  30  49  80 119 154 188 233 294 359
#     4  10  20  32  53  87 123 153 189 244 306 360
#     4  11  21  33  52  77 110 154 199 240 288 351
#
# _framework density 19.707169
#
# number of rings (size 3 to 8) (size 9 to 14) (size 15 to 20)
#    0.000    1.867    1.333    3.600    0.000    7.200 
#    0.000    0.000    0.000   10.000    0.000    0.000 
#    0.000    0.000    0.000    0.000    0.000    0.000 
#
# Total GULP energy -167164.234024 kJ/mol
# GULP energy per Si atom -5572.141134 kJ/mol
# Density = 1.966231 g / cm^3
# Si number density = 19.707169 Si / 1000 Ang^3
#
#
#
# Elastic Constant Matrix: (Units=GPa)
#
#
# Indices 1 2 3 4 5 6 
#
# 1 148.1269 48.8400 35.6437 0.0000 2.9404 0.0000
# 2 48.8400 69.8006 15.8783 0.0000 13.6008 0.0000
# 3 35.6437 15.8783 73.2853 0.0000 15.4219 0.0000
# 4 0.0000 0.0000 0.0000 -1.0751 0.0000 7.4767
# 5 2.9404 13.6008 15.4219 0.0000 27.4968 0.0000
# 6 0.0000 0.0000 0.0000 7.4767 0.0000 1.4491
#
#
#
# Elastic Compliance Matrix: (Units=1/GPa)
#
#
# Indices 1 2 3 4 5 6 
#
# 1 0.009994 -0.006937 -0.004371 0.000000 0.004814 0.000000
# 2 -0.006937 0.020938 0.000976 0.000000 -0.010162 0.000000
# 3 -0.004371 0.000976 0.017646 0.000000 -0.009912 0.000000
# 4 0.000000 0.000000 0.000000 -0.025219 0.000000 0.130122
# 5 0.004814 -0.010162 -0.009912 0.000000 0.046439 0.000000
# 6 0.000000 0.000000 0.000000 0.130122 0.000000 0.018710
#
#
# Mechanical properties :
#
#
# Convention : Reuss Voigt Hill
#
# Bulk Modulus (GPa) = 35.82391 54.65964 45.24177
# Shear Modulus (GPa) = 42.20199 18.29754 30.24977
#
# Velocity S-wave (km/s) = 4.63260 3.05039 3.92211
# Velocity P-wave (km/s) = 6.84341 6.34055 6.59678
#
# Compressibility (1/GPa) = 0.02791432
#
# Stress axis : x y z
#
# Youngs Moduli (GPa) = 100.05599 47.75902 56.67116
#
# Poissons Ratio (x) = 0.33130 0.24771
# Poissons Ratio (y) = 0.69407 -0.05530
# Poissons Ratio (z) = 0.43735 -0.04660
#
# Static dielectric constant tensor:
#      x y z
#    x 1.761030 0.000000 0.010390 
#    y 0.000000 1.661920 0.000000 
#    z 0.010390 0.000000 1.743430 
# 
# From -- ./inp_files/46629.got.cif
#   From: 2010.05.17/outbox.cif.g08.bks.cpg/sg10_24_cif.got.tgz:46629.got - 2010.06.03 11:33:40.
