data_PCOD9141428
_publ_section_title
;
Structure prediction by ZEFSAII (Michael W. Deem and Ramdas Pophale) SiO2 
 PCOD9141428
Probable space group: P 2/M
;
_chemical_formula_sum "Si O2"
_cell_formula_units_Z 32
_cell_length_a 12.627244
_cell_length_b 14.485261
_cell_length_c 17.292457
_cell_angle_alpha 90.000000
_cell_angle_beta 145.744707
_cell_angle_gamma 90.000000
_cell_volume 1780.362392
_symmetry_space_group_name_H-M "P 2/M"
_symmetry_group_IT_number 10
_symmetry_cell_setting 'monoclinic'
loop_
_space_group_symop_operation_xyz
x,y,z
-x,y,-z
-x,-y,-z
x,-y,z
loop_
_atom_site_type_symbol
_atom_site_label
_atom_site_fract_x
_atom_site_fract_y
_atom_site_fract_z
Si Si1 0.780488 0.703656 0.845466
Si Si2 0.055323 0.302794 0.768107
Si Si3 0.085611 0.103739 0.843005
Si Si4 0.516317 0.101439 0.103766
Si Si5 0.636135 0.299317 0.158171
Si Si6 0.173734 0.099978 0.164167
Si Si7 0.720813 0.608481 0.645757
Si Si8 0.672220 0.391141 0.936574
O O1 0.712736 0.808465 0.788847
O O2 0.766913 0.647588 0.758158
O O3 0.686068 0.653117 0.860391
O O4 0.000000 0.710301 0.000000
O O5 0.060105 0.191625 0.773510
O O6 0.848944 0.340663 0.659702
O O7 0.164169 0.329357 0.755704
O O8 0.179312 0.341044 0.915796
O O9 0.930663 0.112199 0.816579
O O10 0.072107 0.000000 0.801296
O O11 0.300921 0.111354 0.003839
O O12 0.628335 0.195364 0.188045
O O13 0.587954 0.000000 0.171611
O O14 0.500000 0.097770 0.000000
O O15 0.532715 0.369271 0.152393
O O16 0.500000 0.295082 0.000000
O O17 0.271987 0.000000 0.222091
O O18 0.000000 0.094322 0.000000
O O19 0.500000 0.622291 0.500000
O O20 0.763449 0.500000 0.668453
O O21 0.711625 0.500000 0.958677
#
# Coordination Sequence:
#
# PCOD9141428 Si02
#       8
#     4   4   4   4   4   4   4   4
#     4  11  20  34  56  78 106 137 176 221 268 315
#     4  11  18  33  50  73 105 139 173 215 264 319
#     4  10  16  25  43  67 100 139 170 204 258 320
#     4   9  14  22  37  62  98 135 166 200 249 313
#     4   9  18  28  43  70 104 136 170 209 265 313
#     4   9  17  27  43  71 104 138 170 203 259 320
#     4  11  24  39  56  78 104 139 181 225 272 318
#     4  11  21  31  47  74 104 136 175 219 265 312
#
# _framework density 17.973870000000002
#
# number of rings (size 3 to 8) (size 9 to 14) (size 15 to 20)
#    0.000    1.875    6.250    1.500    0.000    3.250 
#    0.000    0.000    0.000    2.250    0.000    2.625 
#    0.000    0.000    0.000    3.375    0.000    0.125 
#
# Total GULP energy -178275.000624 kJ/mol
# GULP energy per Si atom -5571.093770 kJ/mol
# Density = 1.793296 g / cm^3
# Si number density = 17.973870 Si / 1000 Ang^3
#
#
#
# Elastic Constant Matrix: (Units=GPa)
#
#
# Indices 1 2 3 4 5 6 
#
# 1 72.0287 55.4894 8.6602 0.0000 17.3196 0.0000
# 2 55.4894 112.3994 26.8327 0.0000 20.4309 0.0000
# 3 8.6602 26.8327 16.4726 0.0000 6.3083 0.0000
# 4 0.0000 0.0000 0.0000 -9.2384 0.0000 6.1894
# 5 17.3196 20.4309 6.3083 0.0000 13.7513 0.0000
# 6 0.0000 0.0000 0.0000 6.1894 0.0000 19.7747
#
#
#
# Elastic Compliance Matrix: (Units=1/GPa)
#
#
# Indices 1 2 3 4 5 6 
#
# 1 0.027607 -0.013359 0.015724 0.000000 -0.022136 0.000000
# 2 -0.013359 0.023245 -0.029186 0.000000 -0.004321 0.000000
# 3 0.015724 -0.029186 0.110346 0.000000 -0.027062 0.000000
# 4 0.000000 0.000000 0.000000 -0.089480 0.000000 0.028007
# 5 -0.022136 -0.004321 -0.027062 0.000000 0.119435 0.000000
# 6 0.000000 0.000000 0.000000 0.028007 0.000000 0.041804
#
#
# Mechanical properties :
#
#
# Convention : Reuss Voigt Hill
#
# Bulk Modulus (GPa) = 9.29749 42.54057 25.91903
# Shear Modulus (GPa) = 15.50624 12.18542 13.84583
#
# Velocity S-wave (km/s) = 2.94038 2.60658 2.77850
# Velocity P-wave (km/s) = 4.08800 5.72524 4.97444
#
# Compressibility (1/GPa) = 0.10755594
#
# Stress axis : x y z
#
# Youngs Moduli (GPa) = 36.22258 43.01972 9.06239
#
# Poissons Ratio (x) = 0.57471 -0.14250
# Poissons Ratio (y) = 0.48391 0.26450
# Poissons Ratio (z) = -0.56958 1.25559
#
# Static dielectric constant tensor:
#      x y z
#    x 1.647500 0.000000 0.027630 
#    y 0.000000 1.672790 0.000000 
#    z 0.027630 0.000000 1.594960 
# 
# From -- ./inp_files/77051.got.cif
#   From: 2010.05.17/outbox.cif.g08.bks.cpg/sg10_39_cif.got.tgz:77051.got - 2010.06.03 11:33:40.
