data_PCOD9141435
_publ_section_title
;
Structure prediction by ZEFSAII (Michael W. Deem and Ramdas Pophale) SiO2 
 PCOD9141435
Probable space group: P 2/M
;
_chemical_formula_sum "Si O2"
_cell_formula_units_Z 16
_cell_length_a 14.411280
_cell_length_b 5.514486
_cell_length_c 12.014713
_cell_angle_alpha 90.000000
_cell_angle_beta 95.809263
_cell_angle_gamma 90.000000
_cell_volume 949.915268
_symmetry_space_group_name_H-M "P 2/M"
_symmetry_group_IT_number 10
_symmetry_cell_setting 'monoclinic'
loop_
_space_group_symop_operation_xyz
x,y,z
-x,y,-z
-x,-y,-z
x,-y,z
loop_
_atom_site_type_symbol
_atom_site_label
_atom_site_fract_x
_atom_site_fract_y
_atom_site_fract_z
Si Si1 0.209413 0.500000 0.542011
Si Si2 0.588031 0.500000 0.430637
Si Si3 0.610220 0.500000 0.989125
Si Si4 0.801355 0.000000 0.210593
Si Si5 0.108425 0.000000 0.541101
Si Si6 0.591214 0.000000 0.291897
Si Si7 0.571834 0.000000 0.905458
Si Si8 0.765396 0.500000 0.182487
O O1 0.310826 0.500000 0.499116
O O2 0.155599 0.747921 0.507561
O O3 0.228472 0.500000 0.680664
O O4 0.500000 0.500000 0.500000
O O5 0.587581 0.750634 0.360860
O O6 0.663862 0.500000 0.113331
O O7 0.500000 0.500000 0.000000
O O8 0.628712 0.249940 0.925629
O O9 0.869155 0.000000 0.324469
O O10 0.691921 0.000000 0.240282
O O11 0.812556 0.748018 0.150006
O O12 0.000000 0.000000 0.500000
O O13 0.499010 0.000000 0.205551
O O14 0.500000 0.000000 0.000000
#
# Coordination Sequence:
#
# PCOD9141435 Si02
#       8
#     2   2   2   2   2   2   2   2
#     4  10  19  32  46  63  89 121 152 195 225 267
#     4  12  23  34  50  65  84 125 176 207 223 246
#     4  10  17  24  35  61  82 106 154 175 203 274
#     4  10  16  27  43  59  80 121 144 178 229 263
#     4  10  18  29  46  67  86 111 150 189 236 288
#     4  12  19  35  46  61  94 119 158 207 223 260
#     4  10  20  25  42  63  84 115 150 185 224 274
#     4  10  16  26  42  57  86 120 145 183 215 256
#
# _framework density 16.843606999999999
#
# number of rings (size 3 to 8) (size 9 to 14) (size 15 to 20)
#    0.000    1.500    5.000    5.250    0.000    0.000 
#    0.000    0.000    0.000    0.000    0.000    0.000 
#    0.000    0.000    0.000    0.000    0.000  457.500 
#
# Total GULP energy -89068.872873 kJ/mol
# GULP energy per Si atom -5566.804555 kJ/mol
# Density = 1.680527 g / cm^3
# Si number density = 16.843607 Si / 1000 Ang^3
#
#
#
# Elastic Constant Matrix: (Units=GPa)
#
#
# Indices 1 2 3 4 5 6 
#
# 1 82.0581 46.2823 25.9186 0.0000 20.7844 0.0000
# 2 46.2823 212.5663 29.9727 0.0000 11.8021 0.0000
# 3 25.9186 29.9727 22.6107 0.0000 15.6118 0.0000
# 4 0.0000 0.0000 0.0000 17.9925 0.0000 9.6906
# 5 20.7844 11.8021 15.6118 0.0000 19.4548 0.0000
# 6 0.0000 0.0000 0.0000 9.6906 0.0000 16.0445
#
#
#
# Elastic Compliance Matrix: (Units=1/GPa)
#
#
# Indices 1 2 3 4 5 6 
#
# 1 0.019987 -0.001817 -0.014621 0.000000 -0.008518 0.000000
# 2 -0.001817 0.006273 -0.011091 0.000000 0.007036 0.000000
# 3 -0.014621 -0.011091 0.135129 0.000000 -0.086088 0.000000
# 4 0.000000 0.000000 0.000000 0.082376 0.000000 -0.049753
# 5 -0.008518 0.007036 -0.086088 0.000000 0.125316 0.000000
# 6 0.000000 0.000000 0.000000 -0.049753 0.000000 0.092377
#
#
# Mechanical properties :
#
#
# Convention : Reuss Voigt Hill
#
# Bulk Modulus (GPa) = 9.40450 57.95358 33.67904
# Shear Modulus (GPa) = 9.05864 25.03581 17.04723
#
# Velocity S-wave (km/s) = 2.32159 3.85953 3.18479
# Velocity P-wave (km/s) = 3.57518 7.37176 5.79330
#
# Compressibility (1/GPa) = 0.10633206
#
# Stress axis : x y z
#
# Youngs Moduli (GPa) = 50.03239 159.40653 7.40033
#
# Poissons Ratio (x) = 0.28969 0.10820
# Poissons Ratio (y) = 0.09092 0.08207
# Poissons Ratio (z) = 0.73152 1.76790
#
# Static dielectric constant tensor:
#      x y z
#    x 1.533970 0.000000 0.028240 
#    y 0.000000 1.755870 0.000000 
#    z 0.028240 0.000000 1.582260 
# 
# From -- ./inp_files/43852.got.cif
#   From: 2010.05.17/outbox.cif.g08.bks.cpg/sg10_22_cif.got.tgz:43852.got - 2010.06.03 11:33:40.
