data_PCOD9141426
_publ_section_title
;
Structure prediction by ZEFSAII (Michael W. Deem and Ramdas Pophale) SiO2 
 PCOD9141426
Probable space group: P 2/M
;
_chemical_formula_sum "Si O2"
_cell_formula_units_Z 17
_cell_length_a 7.521738
_cell_length_b 19.329001
_cell_length_c 5.394102
_cell_angle_alpha 90.000000
_cell_angle_beta 121.500164
_cell_angle_gamma 90.000000
_cell_volume 668.669924
_symmetry_space_group_name_H-M "P 2/M"
_symmetry_group_IT_number 10
_symmetry_cell_setting 'monoclinic'
loop_
_space_group_symop_operation_xyz
x,y,z
-x,y,-z
-x,-y,-z
x,-y,z
loop_
_atom_site_type_symbol
_atom_site_label
_atom_site_fract_x
_atom_site_fract_y
_atom_site_fract_z
Si Si1 0.735270 0.132344 0.020162
Si Si2 0.249767 0.716722 0.173130
Si Si3 0.788505 0.920424 0.562378
Si Si4 0.500000 0.500000 0.000000
Si Si5 0.747929 0.634247 0.322766
O O1 0.669065 0.119534 0.256021
O O2 0.988117 0.118457 0.243154
O O3 0.686918 0.206717 0.866048
O O4 0.692883 0.079859 0.766434
O O5 0.304192 0.684975 0.482720
O O6 0.300830 0.667722 0.979448
O O7 0.000000 0.720452 0.000000
O O8 0.812475 0.000000 0.502668
O O9 0.633112 0.560995 0.245166
O O10 0.000000 0.624068 0.500000
#
# Coordination Sequence:
#
# PCOD9141426 Si02
#       5
#     4   4   4   1   4
#     4  10  16  25  42  63 107 156 198 242 292 342
#     4  10  19  35  55  86 114 154 211 242 293 364
#     4  10  17  23  37  69 108 163 205 235 301 355
#     4  12  26  50  68  92 128 158 184 266 308 356
#     4  10  24  40  66  92 119 155 205 241 301 378
#
# _framework density 25.423604000000001
#
# number of rings (size 3 to 8) (size 9 to 14) (size 15 to 20)
#    0.000    1.882    2.353    5.294    6.588    2.824 
#    0.000    3.529    0.000    0.000    0.000    0.000 
#    0.000    0.000    0.000  122.824    0.000    0.000 
#
# Total GULP energy -94789.966062 kJ/mol
# GULP energy per Si atom -5575.880357 kJ/mol
# Density = 2.536574 g / cm^3
# Si number density = 25.423604 Si / 1000 Ang^3
#
#
#
# Elastic Constant Matrix: (Units=GPa)
#
#
# Indices 1 2 3 4 5 6 
#
# 1 106.7653 33.1223 35.7447 0.0000 -35.6513 0.0000
# 2 33.1223 251.1988 84.5587 0.0000 -25.2580 0.0000
# 3 35.7447 84.5587 246.2283 0.0000 -23.1506 0.0000
# 4 0.0000 0.0000 0.0000 38.2173 0.0000 20.9253
# 5 -35.6513 -25.2580 -23.1506 0.0000 59.6919 0.0000
# 6 0.0000 0.0000 0.0000 20.9253 0.0000 4.5221
#
#
#
# Elastic Compliance Matrix: (Units=1/GPa)
#
#
# Indices 1 2 3 4 5 6 
#
# 1 0.012066 -0.000619 -0.000920 0.000000 0.006588 0.000000
# 2 -0.000619 0.004641 -0.001405 0.000000 0.001049 0.000000
# 3 -0.000920 -0.001405 0.004743 0.000000 0.000696 0.000000
# 4 0.000000 0.000000 0.000000 -0.017061 0.000000 0.078949
# 5 0.006588 0.001049 0.000696 0.000000 0.021401 0.000000
# 6 0.000000 0.000000 0.000000 0.078949 0.000000 -0.144190
#
#
# Mechanical properties :
#
#
# Convention : Reuss Voigt Hill
#
# Bulk Modulus (GPa) = 64.25896 101.22711 82.74304
# Shear Modulus (GPa) = -46.58736 50.53738 1.97501
#
# Velocity S-wave (km/s) = -4.28535 4.46333 0.88234
# Velocity P-wave (km/s) = 0.91899 8.15257 5.80125
#
# Compressibility (1/GPa) = 0.01556203
#
# Stress axis : x y z
#
# Youngs Moduli (GPa) = 82.87655 215.46727 210.84690
#
# Poissons Ratio (x) = 0.13338 0.19390
# Poissons Ratio (y) = 0.05130 0.29631
# Poissons Ratio (z) = 0.07622 0.30280
#
# Static dielectric constant tensor:
#      x y z
#    x 3.248830 0.000000 0.153570 
#    y 0.000000 1.925920 0.000000 
#    z 0.153570 0.000000 2.029470 
# 
# From -- ./inp_files/4249.got.cif
#   From: 2010.05.17/outbox.cif.g08.bks.cpg/sg10_3_cif.got.tgz:4249.got - 2010.06.03 11:33:40.
