data_PCOD9141952
_publ_section_title
;
Structure prediction by ZEFSAII (Michael W. Deem and Ramdas Pophale) SiO2 
 PCOD9141952
Probable space group: P 2/M
;
_chemical_formula_sum "Si O2"
_cell_formula_units_Z 32
_cell_length_a 18.635682
_cell_length_b 18.437595
_cell_length_c 13.584991
_cell_angle_alpha 90.000000
_cell_angle_beta 157.095801
_cell_angle_gamma 90.000000
_cell_volume 1816.653996
_symmetry_space_group_name_H-M "P 2/M"
_symmetry_group_IT_number 10
_symmetry_cell_setting 'monoclinic'
loop_
_space_group_symop_operation_xyz
x,y,z
-x,y,-z
-x,-y,-z
x,-y,z
loop_
_atom_site_type_symbol
_atom_site_label
_atom_site_fract_x
_atom_site_fract_y
_atom_site_fract_z
Si Si1 0.584092 0.315098 0.902166
Si Si2 0.731227 0.777393 0.384119
Si Si3 0.959960 0.348628 0.706705
Si Si4 0.784161 0.187727 0.221598
Si Si5 0.285701 0.415757 0.212109
Si Si6 0.291126 0.584974 0.440122
Si Si7 0.289016 0.416166 0.775633
Si Si8 0.529118 0.918843 0.154732
O O1 0.428939 0.275448 0.775807
O O2 0.463039 0.359987 0.671497
O O3 0.726263 0.248773 0.068870
O O4 0.697528 0.374712 0.105369
O O5 0.914052 0.736601 0.650758
O O6 0.732271 0.783751 0.266796
O O7 0.685721 0.857522 0.366830
O O8 0.852520 0.391252 0.658085
O O9 0.860165 0.378419 0.483010
O O10 0.171246 0.367931 0.991613
O O11 0.000000 0.173367 0.500000
O O12 0.659552 0.117210 0.044815
O O13 0.500000 0.399324 0.500000
O O14 0.271174 0.500000 0.163076
O O15 0.211430 0.408981 0.229916
O O16 0.344232 0.500000 0.522142
O O17 0.242568 0.500000 0.726925
O O18 0.500000 0.412147 0.000000
O O19 0.565973 0.000000 0.237683
O O20 0.500000 0.923196 0.000000
#
# Coordination Sequence:
#
# PCOD9141952 Si02
#       8
#     4   4   4   4   4   4   4   4
#     4  10  17  30  45  64  93 121 153 194 238 280
#     4   9  17  29  46  67  92 119 152 184 234 271
#     4  11  19  30  51  69  89 116 158 203 237 278
#     4  10  18  27  41  64  96 127 155 184 222 273
#     4  10  22  37  47  60  90 127 160 200 247 282
#     4  10  19  31  49  67  84 112 159 210 243 275
#     4  11  17  24  44  70  90 115 151 198 241 276
#     4   8  15  28  46  65  91 124 152 180 219 273
#
# _framework density 17.614802000000001
#
# number of rings (size 3 to 8) (size 9 to 14) (size 15 to 20)
#    0.000    2.125    3.750    3.000    0.000    2.250 
#    0.000    0.000    0.000    0.750    0.000    0.000 
#    0.000   18.500    0.000    0.000    0.000   13.625 
#
# Total GULP energy -178321.518505 kJ/mol
# GULP energy per Si atom -5572.547453 kJ/mol
# Density = 1.757471 g / cm^3
# Si number density = 17.614802 Si / 1000 Ang^3
#
#
#
# Elastic Constant Matrix: (Units=GPa)
#
#
# Indices 1 2 3 4 5 6 
#
# 1 19.2717 4.8305 5.6212 0.0000 0.4472 0.0000
# 2 4.8305 144.1894 55.6373 0.0000 -0.4075 0.0000
# 3 5.6212 55.6373 108.8796 0.0000 -0.7520 0.0000
# 4 0.0000 0.0000 0.0000 15.1420 0.0000 0.0607
# 5 0.4472 -0.4075 -0.7520 0.0000 20.0634 0.0000
# 6 0.0000 0.0000 0.0000 0.0607 0.0000 4.2937
#
#
#
# Elastic Compliance Matrix: (Units=1/GPa)
#
#
# Indices 1 2 3 4 5 6 
#
# 1 0.052808 -0.000894 -0.002279 0.000000 -0.001281 0.000000
# 2 -0.000894 0.008654 -0.004376 0.000000 0.000032 0.000000
# 3 -0.002279 -0.004376 0.011541 0.000000 0.000394 0.000000
# 4 0.000000 0.000000 0.000000 0.066045 0.000000 -0.000933
# 5 -0.001281 0.000032 0.000394 0.000000 0.049886 0.000000
# 6 0.000000 0.000000 0.000000 -0.000933 0.000000 0.232912
#
#
# Mechanical properties :
#
#
# Convention : Reuss Voigt Hill
#
# Bulk Modulus (GPa) = 17.26910 44.94652 31.10781
# Shear Modulus (GPa) = 10.95905 21.64992 16.30449
#
# Velocity S-wave (km/s) = 2.49700 3.50962 3.04569
# Velocity P-wave (km/s) = 4.25892 6.48035 5.48331
#
# Compressibility (1/GPa) = 0.05790689
#
# Stress axis : x y z
#
# Youngs Moduli (GPa) = 18.93653 115.55660 86.64907
#
# Poissons Ratio (x) = 0.10325 0.19744
# Poissons Ratio (y) = 0.01692 0.37915
# Poissons Ratio (z) = 0.04315 0.50564
#
# Static dielectric constant tensor:
#      x y z
#    x 1.685360 0.000000 0.075740 
#    y 0.000000 1.609740 0.000000 
#    z 0.075740 0.000000 1.645640 
# 
# From -- ./inp_files/70837.got.cif
#   From: 2010.05.17/outbox.cif.g08.bks.cpg/sg10_36_cif.got.tgz:70837.got - 2010.06.03 11:33:40.
