data_PCOD9141230
_publ_section_title
;
Structure prediction by ZEFSAII (Michael W. Deem and Ramdas Pophale) SiO2 
 PCOD9141230
Probable space group: C C
;
_chemical_formula_sum "Si O2"
_cell_formula_units_Z 16
_cell_length_a 18.000000
_cell_length_b 12.000000
_cell_length_c 15.000000
_cell_angle_alpha 90.000000
_cell_angle_beta 30.000000
_cell_angle_gamma 90.000000
_cell_volume 1620.000000
_symmetry_space_group_name_H-M "C C"
_symmetry_group_IT_number 9
_symmetry_cell_setting 'monoclinic'
loop_
_space_group_symop_operation_xyz
x,y,z
x,-y,1/2+z
1/2+x,1/2+y,z
1/2+x,1/2-y,1/2+z
loop_
_atom_site_type_symbol
_atom_site_label
_atom_site_fract_x
_atom_site_fract_y
_atom_site_fract_z
Si Si1 0.517330 0.500386 0.121630
Si Si2 0.533106 0.111469 0.696699
Si Si3 0.464694 0.507105 0.889828
Si Si4 0.300697 0.628684 0.212340
Si Si5 0.525528 0.987897 0.522171
Si Si6 0.749714 0.701007 0.899638
Si Si7 0.205950 0.910996 0.770342
Si Si8 0.196094 0.657468 0.711801
O O1 0.480845 0.473964 0.264988
O O2 0.379806 0.549368 0.205892
O O3 0.637149 0.600237 0.003277
O O4 0.596664 0.411686 0.971906
O O5 0.657585 0.194976 0.530818
O O6 0.375043 0.168780 0.840534
O O7 0.581825 0.113926 0.751023
O O8 0.523689 0.008421 0.632955
O O9 0.618851 0.481922 0.783358
O O10 0.383692 0.603907 0.032712
O O11 0.352758 0.401693 0.022950
O O12 0.126795 0.593716 0.384508
O O13 0.315191 0.752582 0.238309
O O14 0.362323 0.963182 0.647167
O O15 0.628249 0.890175 0.374790
O O16 0.219352 0.788710 0.709641
#
# Coordination Sequence:
#
# PCOD9141230 Si02
#       8
#     4   4   4   4   4   4   4   4
#     4  11  21  38  62  93 129 168 213 274 330 382
#     4  11  23  37  66  97 128 170 220 274 321 389
#     4  10  22  39  60  88 127 175 213 265 328 396
#     4   9  21  39  58  87 128 174 211 266 328 389
#     4  10  22  40  60  93 133 169 213 274 327 381
#     4  11  20  35  62  95 126 163 219 270 317 381
#     4  11  23  36  63  96 133 167 220 272 325 389
#     4  11  24  40  65  95 130 174 219 267 326 393
#
# _framework density 9.8765429999999999
#
# number of rings (size 3 to 8) (size 9 to 14) (size 15 to 20)
#    0.000    1.500    2.500    3.000    5.250    0.000 
#    0.000    0.000    2.750    9.000    0.000    0.000 
#    0.000    0.000    0.000    0.000    0.000    0.000 
#
# Total GULP energy -89110.866119 kJ/mol
# GULP energy per Si atom -5569.429132 kJ/mol
# Density = 0.985406 g / cm^3
# Si number density = 9.876543 Si / 1000 Ang^3
#
#
#
# Elastic Constant Matrix: (Units=GPa)
#
#
# Indices 1 2 3 4 5 6 
#
# 1 154.0230 31.1512 46.9294 0.0000 3.7035 0.0000
# 2 31.1512 47.6651 22.4217 0.0000 6.7480 0.0000
# 3 46.9294 22.4217 94.3193 0.0000 5.1496 0.0000
# 4 0.0000 0.0000 0.0000 34.5799 0.0000 0.9624
# 5 3.7035 6.7480 5.1496 0.0000 61.6269 0.0000
# 6 0.0000 0.0000 0.0000 0.9624 0.0000 30.2933
#
#
#
# Elastic Compliance Matrix: (Units=1/GPa)
#
#
# Indices 1 2 3 4 5 6 
#
# 1 0.008251 -0.003923 -0.003184 0.000000 0.000200 0.000000
# 2 -0.003923 0.025767 -0.004051 0.000000 -0.002247 0.000000
# 3 -0.003184 -0.004051 0.013175 0.000000 -0.000466 0.000000
# 4 0.000000 0.000000 0.000000 0.028944 0.000000 -0.000919
# 5 0.000200 -0.002247 -0.000466 0.000000 0.016500 0.000000
# 6 0.000000 0.000000 0.000000 -0.000919 0.000000 0.033040
#
#
# Mechanical properties :
#
#
# Convention : Reuss Voigt Hill
#
# Bulk Modulus (GPa) = 40.19617 55.22353 47.70985
# Shear Modulus (GPa) = 31.99284 38.33370 35.16327
#
# Velocity S-wave (km/s) = 4.02884 4.41005 4.22375
# Velocity P-wave (km/s) = 6.48348 7.34500 6.92765
#
# Compressibility (1/GPa) = 0.02487799
#
# Stress axis : x y z
#
# Youngs Moduli (GPa) = 121.19350 38.80889 75.90257
#
# Poissons Ratio (x) = 0.15225 0.24166
# Poissons Ratio (y) = 0.47547 0.30746
# Poissons Ratio (z) = 0.38585 0.15720
#
# Static dielectric constant tensor:
#      x y z
#    x 1.727810 0.000000 0.015820 
#    y 0.000000 1.734700 0.000000 
#    z 0.015820 0.000000 1.787800 
# 
# From -- ./inp_files/9688.got.cif
#   From: 2010.05.17/outbox.ucp.g08.bks.cvg/sg9_5_cif.got.tgz:9688.got - 2010.06.11 13:03:20.
