data_PCOD9141686
_publ_section_title
;
Structure prediction by ZEFSAII (Michael W. Deem and Ramdas Pophale) SiO2 
 PCOD9141686
Probable space group: P 2/M
;
_chemical_formula_sum "Si O2"
_cell_formula_units_Z 28
_cell_length_a 18.929156
_cell_length_b 8.713887
_cell_length_c 26.258952
_cell_angle_alpha 90.000000
_cell_angle_beta 157.342601
_cell_angle_gamma 90.000000
_cell_volume 1668.512228
_symmetry_space_group_name_H-M "P 2/M"
_symmetry_group_IT_number 10
_symmetry_cell_setting 'monoclinic'
loop_
_space_group_symop_operation_xyz
x,y,z
-x,y,-z
-x,-y,-z
x,-y,z
loop_
_atom_site_type_symbol
_atom_site_label
_atom_site_fract_x
_atom_site_fract_y
_atom_site_fract_z
Si Si1 0.215933 0.316913 0.813514
Si Si2 0.462929 0.815990 0.900290
Si Si3 0.239372 0.183308 0.202434
Si Si4 0.149578 0.682380 0.033713
Si Si5 0.435483 0.683651 0.514489
Si Si6 0.961652 0.183799 0.724634
Si Si7 0.716106 0.816548 0.979872
O O1 0.215928 0.500000 0.812419
O O2 0.274775 0.250813 0.797650
O O3 0.034262 0.253218 0.719660
O O4 0.376778 0.255812 0.957991
O O5 0.465417 0.000000 0.908372
O O6 0.530886 0.781492 0.888396
O O7 0.231753 0.241477 0.139205
O O8 0.419070 0.242156 0.350362
O O9 0.227671 0.000000 0.196004
O O10 0.058029 0.253689 0.108267
O O11 0.143706 0.500000 0.036151
O O12 0.258871 0.729334 0.056076
O O13 0.500000 0.718984 0.500000
O O14 0.434711 0.500000 0.520226
O O15 0.233790 0.749257 0.390194
O O16 0.112546 0.221021 0.868710
O O17 0.954965 0.000000 0.716055
O O18 0.721727 0.000000 0.974656
#
# Coordination Sequence:
#
# PCOD9141686 Si02
#       7
#     4   4   4   4   4   4   4
#     4  10  17  26  42  65  95 128 163 202 244 290
#     4   9  16  27  43  64  94 129 163 200 242 292
#     4  11  22  37  55  72  96 130 167 202 241 292
#     4  11  21  34  53  75 100 127 161 206 250 289
#     4  11  23  37  53  75 102 129 161 203 247 289
#     4  10  20  33  49  70  99 135 170 201 240 293
#     4   9  18  31  48  72 101 132 166 202 243 293
#
# _framework density 16.781417999999999
#
# number of rings (size 3 to 8) (size 9 to 14) (size 15 to 20)
#    0.000    1.857    0.000    8.571    0.000    6.857 
#    0.000    0.000    0.000    0.000    0.000    1.000 
#    0.000    8.000    0.000    0.000    0.000    0.000 
#
# Total GULP energy -156238.897233 kJ/mol
# GULP energy per Si atom -5579.960615 kJ/mol
# Density = 1.674322 g / cm^3
# Si number density = 16.781418 Si / 1000 Ang^3
#
#
#
# Elastic Constant Matrix: (Units=GPa)
#
#
# Indices 1 2 3 4 5 6 
#
# 1 129.4305 56.7571 34.9712 0.0000 32.3883 0.0000
# 2 56.7571 99.0420 27.6775 0.0000 14.3998 0.0000
# 3 34.9712 27.6775 48.4872 0.0000 15.7146 0.0000
# 4 0.0000 0.0000 0.0000 21.8416 0.0000 0.6402
# 5 32.3883 14.3998 15.7146 0.0000 22.7986 0.0000
# 6 0.0000 0.0000 0.0000 0.6402 0.0000 30.7521
#
#
#
# Elastic Compliance Matrix: (Units=1/GPa)
#
#
# Indices 1 2 3 4 5 6 
#
# 1 0.014730 -0.005478 -0.002365 0.000000 -0.015836 0.000000
# 2 -0.005478 0.014295 -0.004900 0.000000 0.002130 0.000000
# 3 -0.002365 -0.004900 0.029661 0.000000 -0.013991 0.000000
# 4 0.000000 0.000000 0.000000 0.045812 0.000000 -0.000954
# 5 -0.015836 0.002130 -0.013991 0.000000 0.074657 0.000000
# 6 0.000000 0.000000 0.000000 -0.000954 0.000000 0.032538
#
#
# Mechanical properties :
#
#
# Convention : Reuss Voigt Hill
#
# Bulk Modulus (GPa) = 30.11894 57.30790 43.71342
# Shear Modulus (GPa) = 20.14142 25.58206 22.86174
#
# Velocity S-wave (km/s) = 3.46818 3.90863 3.69497
# Velocity P-wave (km/s) = 5.83305 7.38875 6.65650
#
# Compressibility (1/GPa) = 0.03320170
#
# Stress axis : x y z
#
# Youngs Moduli (GPa) = 67.88889 69.95246 33.71485
#
# Poissons Ratio (x) = 0.38320 0.07972
# Poissons Ratio (y) = 0.37189 0.16519
# Poissons Ratio (z) = 0.16053 0.34274
#
# Static dielectric constant tensor:
#      x y z
#    x 1.600060 0.000000 0.023500 
#    y 0.000000 1.556390 0.000000 
#    z 0.023500 0.000000 1.550990 
# 
# From -- ./inp_files/95627.got.cif
#   From: 2010.05.17/outbox.cif.g08.bks.cpg/sg10_48_cif.got.tgz:95627.got - 2010.06.03 11:33:40.
