data_PCOD9141724
_publ_section_title
;
Structure prediction by ZEFSAII (Michael W. Deem and Ramdas Pophale) SiO2 
 PCOD9141724
Probable space group: P 2/M
;
_chemical_formula_sum "Si O2"
_cell_formula_units_Z 32
_cell_length_a 18.108873
_cell_length_b 7.916584
_cell_length_c 24.600848
_cell_angle_alpha 90.000000
_cell_angle_beta 31.419889
_cell_angle_gamma 90.000000
_cell_volume 1838.535240
_symmetry_space_group_name_H-M "P 2/M"
_symmetry_group_IT_number 10
_symmetry_cell_setting 'monoclinic'
loop_
_space_group_symop_operation_xyz
x,y,z
-x,y,-z
-x,-y,-z
x,-y,z
loop_
_atom_site_type_symbol
_atom_site_label
_atom_site_fract_x
_atom_site_fract_y
_atom_site_fract_z
Si Si1 0.387592 0.203793 0.304135
Si Si2 0.933211 0.206596 0.483951
Si Si3 0.674884 0.700412 0.174552
Si Si4 0.831082 0.206679 0.748317
Si Si5 0.244305 0.200218 0.086303
Si Si6 0.100194 0.199604 0.888196
Si Si7 0.123140 0.302160 0.049868
Si Si8 0.551663 0.206628 0.857219
O O1 0.229524 0.262417 0.417748
O O2 0.512483 0.256592 0.265879
O O3 0.427535 0.262034 0.218088
O O4 0.384628 0.000000 0.304649
O O5 0.000000 0.257016 0.500000
O O6 0.034862 0.263330 0.371351
O O7 0.932853 0.000000 0.484060
O O8 0.692589 0.500000 0.163820
O O9 0.743714 0.766335 0.187138
O O10 0.767415 0.768730 0.064782
O O11 0.822676 0.266174 0.815786
O O12 0.686357 0.255922 0.808542
O O13 0.835569 0.000000 0.745015
O O14 0.152241 0.225016 0.090147
O O15 0.261921 0.000000 0.083491
O O16 0.402186 0.267627 0.974817
O O17 0.034063 0.276113 0.875407
O O18 0.079567 0.000000 0.897077
O O19 0.000000 0.267932 0.000000
O O20 0.151657 0.500000 0.036913
O O21 0.549004 0.000000 0.858389
#
# Coordination Sequence:
#
# PCOD9141724 Si02
#       8
#     4   4   4   4   4   4   4   4
#     4  10  17  26  45  68  90 119 156 195 232 272
#     4   9  15  25  42  66  92 117 152 200 244 273
#     4  10  19  30  44  65  95 125 152 184 226 276
#     4   9  16  26  41  65  92 120 156 199 240 272
#     4  10  18  27  43  66  93 122 156 194 230 273
#     4   9  17  29  47  69  93 120 151 185 222 269
#     4  10  19  30  44  64  94 127 154 181 223 276
#     4   9  15  24  40  64  91 118 152 194 235 270
#
# _framework density 17.405159999999999
#
# number of rings (size 3 to 8) (size 9 to 14) (size 15 to 20)
#    0.000    2.500    2.500    1.500    0.000    4.000 
#    0.000    0.000    0.000    3.375    0.000    0.875 
#    0.000    7.000    0.000    0.000    0.000    0.000 
#
# Total GULP energy -178403.429335 kJ/mol
# GULP energy per Si atom -5575.107167 kJ/mol
# Density = 1.736555 g / cm^3
# Si number density = 17.405160 Si / 1000 Ang^3
#
#
#
# Elastic Constant Matrix: (Units=GPa)
#
#
# Indices 1 2 3 4 5 6 
#
# 1 97.2124 -9.0088 72.8171 0.0000 -15.5066 0.0000
# 2 -9.0088 14.2196 5.5897 0.0000 2.2926 0.0000
# 3 72.8171 5.5897 119.2945 0.0000 1.9656 0.0000
# 4 0.0000 0.0000 0.0000 0.1590 0.0000 15.7561
# 5 -15.5066 2.2926 1.9656 0.0000 22.5036 0.0000
# 6 0.0000 0.0000 0.0000 15.7561 0.0000 -68.4744
#
#
#
# Elastic Compliance Matrix: (Units=1/GPa)
#
#
# Indices 1 2 3 4 5 6 
#
# 1 0.031367 0.024617 -0.020644 0.000000 0.020910 0.000000
# 2 0.024617 0.092087 -0.019494 0.000000 0.009284 0.000000
# 3 -0.020644 -0.019494 0.022131 0.000000 -0.014173 0.000000
# 4 0.000000 0.000000 0.000000 0.264234 0.000000 0.060801
# 5 0.020910 0.009284 -0.014173 0.000000 0.059138 0.000000
# 6 0.000000 0.000000 0.000000 0.060801 0.000000 -0.000614
#
#
# Mechanical properties :
#
#
# Convention : Reuss Voigt Hill
#
# Bulk Modulus (GPa) = 8.73040 41.05805 24.89423
# Shear Modulus (GPa) = 9.30116 1.59287 5.44701
#
# Velocity S-wave (km/s) = 2.31420 0.95768 1.77097
# Velocity P-wave (km/s) = 3.48820 4.98635 4.30298
#
# Compressibility (1/GPa) = 0.11454222
#
# Stress axis : x y z
#
# Youngs Moduli (GPa) = 31.88060 10.85924 45.18585
#
# Poissons Ratio (x) = -0.26732 0.93283
# Poissons Ratio (y) = -0.78479 0.88084
# Poissons Ratio (z) = 0.65815 0.21169
#
# Static dielectric constant tensor:
#      x y z
#    x 1.594180 0.000000 -0.007460 
#    y 0.000000 1.617070 0.000000 
#    z -0.007460 0.000000 1.588980 
# 
# From -- ./inp_files/52792.got.cif
#   From: 2010.05.17/outbox.cif.g08.bks.cpg/sg10_27_cif.got.tgz:52792.got - 2010.06.03 11:33:40.
