data_PCOD9141120
_publ_section_title
;
Structure prediction by ZEFSAII (Michael W. Deem and Ramdas Pophale) SiO2 
 PCOD9141120
Probable space group: C C
;
_chemical_formula_sum "Si O2"
_cell_formula_units_Z 32
_cell_length_a 26.562197
_cell_length_b 8.635179
_cell_length_c 8.664507
_cell_angle_alpha 90.000000
_cell_angle_beta 142.078275
_cell_angle_gamma 90.000000
_cell_volume 1221.407818
_symmetry_space_group_name_H-M "C C"
_symmetry_group_IT_number 9
_symmetry_cell_setting 'monoclinic'
loop_
_space_group_symop_operation_xyz
x,y,z
x,-y,1/2+z
1/2+x,1/2+y,z
1/2+x,1/2-y,1/2+z
loop_
_atom_site_type_symbol
_atom_site_label
_atom_site_fract_x
_atom_site_fract_y
_atom_site_fract_z
Si Si1 0.910150 0.858949 0.225840
Si Si2 0.066513 0.800732 0.183795
Si Si3 0.145538 0.061537 0.584272
Si Si4 0.124733 0.451713 0.008296
Si Si5 0.801437 0.137867 0.937686
Si Si6 0.895362 0.674908 0.889256
Si Si7 0.077335 0.275154 0.206749
Si Si8 0.805740 0.356698 0.667156
O O1 0.844564 0.795700 0.186691
O O2 0.000803 0.842639 0.514681
O O3 0.910515 0.727377 0.097996
O O4 0.877688 0.022951 0.085609
O O5 0.080867 0.876287 0.054106
O O6 0.120255 0.648181 0.339154
O O7 0.104627 0.909039 0.411914
O O8 0.975756 0.734950 0.993377
O O9 0.152551 0.171532 0.450488
O O10 0.229379 0.077143 0.884067
O O11 0.221497 0.468604 0.260237
O O12 0.091986 0.360605 0.079471
O O13 0.071600 0.598986 0.830464
O O14 0.787652 0.287034 0.792769
O O15 0.822256 0.219716 0.148642
O O16 0.871631 0.495711 0.826266
#
# Coordination Sequence:
#
# PCOD9141120 Si02
#       8
#     4   4   4   4   4   4   4   4
#     4  12  28  48  78 118 162 217 269 340 413 497
#     4  12  26  50  80 116 161 214 273 339 402 489
#     4  12  28  50  83 120 159 214 280 337 410 485
#     4  12  26  50  80 116 158 215 273 337 406 484
#     4  12  28  50  81 117 164 214 276 339 416 494
#     4  12  28  49  78 113 167 215 269 337 418 491
#     4  12  28  50  81 120 161 213 274 338 407 492
#     4  12  28  51  79 120 164 214 268 347 416 492
#
# _framework density 26.199276000000001
#
# number of rings (size 3 to 8) (size 9 to 14) (size 15 to 20)
#    0.000    0.000    2.500    6.000   10.500    0.000 
#    0.000    0.000    0.000    0.000    0.000    0.000 
#    0.000    0.000    0.000    0.000    0.000    0.000 
#
# Total GULP energy -89499.265778 kJ/mol
# GULP energy per Si atom -5593.704111 kJ/mol
# Density = 2.613965 g / cm^3
# Si number density = 26.199276 Si / 1000 Ang^3
#
#
#
# Elastic Constant Matrix: (Units=GPa)
#
#
# Indices 1 2 3 4 5 6 
#
# 1 79.1915 17.4100 39.3200 0.0000 4.7458 0.0000
# 2 17.4100 131.9064 66.9656 0.0000 -0.6779 0.0000
# 3 39.3200 66.9656 160.5373 0.0000 10.5973 0.0000
# 4 0.0000 0.0000 0.0000 51.8874 0.0000 -7.6701
# 5 4.7458 -0.6779 10.5973 0.0000 37.1873 0.0000
# 6 0.0000 0.0000 0.0000 -7.6701 0.0000 37.2774
#
#
#
# Elastic Compliance Matrix: (Units=1/GPa)
#
#
# Indices 1 2 3 4 5 6 
#
# 1 0.014406 -0.000183 -0.003394 0.000000 -0.000874 0.000000
# 2 -0.000183 0.009687 -0.004086 0.000000 0.001364 0.000000
# 3 -0.003394 -0.004086 0.008909 0.000000 -0.002180 0.000000
# 4 0.000000 0.000000 0.000000 0.019877 0.000000 0.004090
# 5 -0.000874 0.001364 -0.002180 0.000000 0.027649 0.000000
# 6 0.000000 0.000000 0.000000 0.004090 0.000000 0.027667
#
#
# Mechanical properties :
#
#
# Convention : Reuss Voigt Hill
#
# Bulk Modulus (GPa) = 56.57711 68.78071 62.67891
# Shear Modulus (GPa) = 38.63642 41.79972 40.21807
#
# Velocity S-wave (km/s) = 3.84437 3.99865 3.92226
# Velocity P-wave (km/s) = 6.43019 6.90136 6.66994
#
# Compressibility (1/GPa) = 0.01767499
#
# Stress axis : x y z
#
# Youngs Moduli (GPa) = 69.41764 103.23571 112.24911
#
# Poissons Ratio (x) = 0.01885 0.38102
# Poissons Ratio (y) = 0.01267 0.45864
# Poissons Ratio (z) = 0.23563 0.42181
#
# Static dielectric constant tensor:
#      x y z
#    x 2.090410 0.000000 0.042740 
#    y 0.000000 2.135720 0.000000 
#    z 0.042740 0.000000 2.037920 
# 
# From -- ./inp_files/12451.got.cif
#   From: 2010.05.17/outbox.cif.g08.bks.cpg/sg9_7_cif.got.tgz:12451.got - 2010.06.03 20:04:27.
