data_PCOD9141166
_publ_section_title
;
Structure prediction by ZEFSAII (Michael W. Deem and Ramdas Pophale) SiO2 
 PCOD9141166
Probable space group: C C
;
_chemical_formula_sum "Si O2"
_cell_formula_units_Z 24
_cell_length_a 14.135070
_cell_length_b 8.190024
_cell_length_c 21.234743
_cell_angle_alpha 90.000000
_cell_angle_beta 21.312817
_cell_angle_gamma 90.000000
_cell_volume 893.483093
_symmetry_space_group_name_H-M "C C"
_symmetry_group_IT_number 9
_symmetry_cell_setting 'monoclinic'
loop_
_space_group_symop_operation_xyz
x,y,z
x,-y,1/2+z
1/2+x,1/2+y,z
1/2+x,1/2-y,1/2+z
loop_
_atom_site_type_symbol
_atom_site_label
_atom_site_fract_x
_atom_site_fract_y
_atom_site_fract_z
Si Si1 0.122740 0.650852 0.976190
Si Si2 0.280330 0.331624 0.940546
Si Si3 0.485152 0.824332 0.681270
Si Si4 0.814666 0.636315 0.041336
Si Si5 0.588125 0.374781 0.451356
Si Si6 0.537963 0.807404 0.855194
O O1 0.101145 0.477378 0.024600
O O2 0.411994 0.712448 0.785762
O O3 0.961775 0.756578 0.125931
O O4 0.018803 0.651298 0.970879
O O5 0.558576 0.380144 0.741769
O O6 0.281189 0.285943 0.013172
O O7 0.205230 0.177089 0.945598
O O8 0.807352 0.828258 0.484639
O O9 0.256938 0.962613 0.830834
O O10 0.889069 0.478039 0.955658
O O11 0.643941 0.251827 0.358197
O O12 0.278375 0.351378 0.659105
#
# Coordination Sequence:
#
# PCOD9141166 Si02
#       6
#     4   4   4   4   4   4
#     4  12  27  51  79 127 170 225 294 371 441 540
#     4  12  27  52  81 121 170 227 296 365 442 537
#     4  12  29  49  85 123 171 228 298 364 455 534
#     4  12  28  50  83 120 166 230 290 361 451 531
#     4  12  29  52  85 123 174 234 289 376 449 533
#     4  12  28  54  83 128 175 228 299 369 452 543
#
# _framework density 26.861169
#
# number of rings (size 3 to 8) (size 9 to 14) (size 15 to 20)
#    0.000    0.000    3.333    5.000    9.333    1.333 
#    0.000    0.000    0.000    0.000    0.000    0.000 
#    0.000    0.000    0.000    0.000    0.000    0.000 
#
# Total GULP energy -66945.158283 kJ/mol
# GULP energy per Si atom -5578.763190 kJ/mol
# Density = 2.680003 g / cm^3
# Si number density = 26.861169 Si / 1000 Ang^3
#
#
#
# Elastic Constant Matrix: (Units=GPa)
#
#
# Indices 1 2 3 4 5 6 
#
# 1 135.4338 45.9967 42.0449 -0.0011 26.2966 0.0026
# 2 45.9967 90.8327 55.6791 0.0102 0.7270 0.0049
# 3 42.0449 55.6791 242.7401 0.0052 39.0299 0.0213
# 4 -0.0011 0.0102 0.0052 39.1812 0.0209 -1.0087
# 5 26.2966 0.7270 39.0299 0.0209 43.7990 -0.0031
# 6 0.0026 0.0049 0.0213 -1.0087 -0.0031 41.5486
#
#
#
# Elastic Compliance Matrix: (Units=1/GPa)
#
#
# Indices 1 2 3 4 5 6 
#
# 1 0.010381 -0.005532 0.000535 0.000005 -0.006618 -0.000001
# 2 -0.005532 0.016061 -0.003755 -0.000007 0.006401 0.000001
# 3 0.000535 -0.003755 0.005754 0.000003 -0.005387 -0.000003
# 4 0.000005 -0.000007 0.000003 0.025538 -0.000018 0.000620
# 5 -0.006618 0.006401 -0.005387 -0.000018 0.031499 0.000004
# 6 -0.000001 0.000001 -0.000003 0.000620 0.000004 0.024083
#
#
# Mechanical properties :
#
#
# Convention : Reuss Voigt Hill
#
# Bulk Modulus (GPa) = 68.06158 84.04977 76.05568
# Shear Modulus (GPa) = 36.84086 46.59150 41.71618
#
# Velocity S-wave (km/s) = 3.70743 4.16929 3.94512
# Velocity P-wave (km/s) = 6.61211 7.38482 7.00913
#
# Compressibility (1/GPa) = 0.01469258
#
# Stress axis : x y z
#
# Youngs Moduli (GPa) = 96.32681 62.26226 173.77879
#
# Poissons Ratio (x) = 0.34442 -0.09293
# Poissons Ratio (y) = 0.53286 0.65255
# Poissons Ratio (z) = -0.05151 0.23380
#
# Static dielectric constant tensor:
#      x y z
#    x 2.240210 0.000000 -0.069790 
#    y 0.000000 2.545410 -0.000010 
#    z -0.069790 -0.000010 2.513000 
# 
# From -- ./inp_files/33640.got.cif
#   From: 2010.05.17/outbox.cif.g08.bks.cpg/sg9_17_cif.got.tgz:33640.got - 2010.06.03 20:04:27.
