data_PCOD9141085
_publ_section_title
;
Structure prediction by ZEFSAII (Michael W. Deem and Ramdas Pophale) SiO2 
 PCOD9141085
Probable space group: C C
;
_chemical_formula_sum "Si O2"
_cell_formula_units_Z 20
_cell_length_a 5.413284
_cell_length_b 30.887488
_cell_length_c 4.926379
_cell_angle_alpha 90.000000
_cell_angle_beta 99.096489
_cell_angle_gamma 90.000000
_cell_volume 813.344772
_symmetry_space_group_name_H-M "C C"
_symmetry_group_IT_number 9
_symmetry_cell_setting 'monoclinic'
loop_
_space_group_symop_operation_xyz
x,y,z
x,-y,1/2+z
1/2+x,1/2+y,z
1/2+x,1/2-y,1/2+z
loop_
_atom_site_type_symbol
_atom_site_label
_atom_site_fract_x
_atom_site_fract_y
_atom_site_fract_z
Si Si1 0.662870 0.862273 0.195600
Si Si2 0.809802 0.695815 0.338361
Si Si3 0.017116 0.787163 0.292594
Si Si4 0.760006 0.918474 0.732860
Si Si5 0.767108 0.471200 0.819861
O O1 0.660131 0.893689 0.450017
O O2 0.782229 0.817202 0.312599
O O3 0.418277 0.847301 0.989320
O O4 0.822978 0.885158 0.986575
O O5 0.579178 0.709905 0.487121
O O6 0.989423 0.737708 0.377255
O O7 0.732722 0.691545 0.013943
O O8 0.527877 0.947221 0.800256
O O9 0.013879 0.944555 0.714912
O O10 0.762080 0.513795 0.630292
#
# Coordination Sequence:
#
# PCOD9141085 Si02
#       5
#     4   4   4   4   4
#     4  12  28  45  69 108 152 190 246 316 361 429
#     4  12  26  44  69  98 143 199 258 303 361 427
#     4  12  26  44  69  98 143 199 258 303 361 427
#     4  12  28  47  78 116 149 190 239 310 380 427
#     4  12  26  52  81 110 147 190 239 292 373 478
#
# _framework density 24.58982
#
# number of rings (size 3 to 8) (size 9 to 14) (size 15 to 20)
#    0.000    0.000    2.000    7.200   11.200    0.000 
#    0.000    0.000    0.000    0.000    0.000    0.000 
#    0.000    0.000    0.000    0.000    0.000    0.000 
#
# Total GULP energy -56019.680202 kJ/mol
# GULP energy per Si atom -5601.968020 kJ/mol
# Density = 2.453385 g / cm^3
# Si number density = 24.589820 Si / 1000 Ang^3
#
#
#
# Elastic Constant Matrix: (Units=GPa)
#
#
# Indices 1 2 3 4 5 6 
#
# 1 113.1316 29.9173 -2.3837 0.0000 -2.1766 0.0000
# 2 29.9173 62.9260 14.1367 0.0000 3.7852 0.0000
# 3 -2.3837 14.1367 95.7533 0.0000 -3.3050 0.0000
# 4 0.0000 0.0000 0.0000 35.0713 0.0000 3.0569
# 5 -2.1766 3.7852 -3.3050 0.0000 36.9427 0.0000
# 6 0.0000 0.0000 0.0000 3.0569 0.0000 34.2866
#
#
#
# Elastic Compliance Matrix: (Units=1/GPa)
#
#
# Indices 1 2 3 4 5 6 
#
# 1 0.010258 -0.005190 0.001064 0.000000 0.001231 0.000000
# 2 -0.005190 0.019198 -0.003051 0.000000 -0.002546 0.000000
# 3 0.001064 -0.003051 0.010967 0.000000 0.001357 0.000000
# 4 0.000000 0.000000 0.000000 0.028737 0.000000 -0.002562
# 5 0.001231 -0.002546 0.001357 0.000000 0.027524 0.000000
# 6 0.000000 0.000000 0.000000 -0.002562 0.000000 0.029394
#
#
# Mechanical properties :
#
#
# Convention : Reuss Voigt Hill
#
# Bulk Modulus (GPa) = 38.36073 39.46130 38.91102
# Shear Modulus (GPa) = 33.52960 36.60282 35.06621
#
# Velocity S-wave (km/s) = 3.69664 3.86234 3.78040
# Velocity P-wave (km/s) = 5.81845 5.99774 5.90877
#
# Compressibility (1/GPa) = 0.02606832
#
# Stress axis : x y z
#
# Youngs Moduli (GPa) = 97.48606 52.08906 91.18001
#
# Poissons Ratio (x) = 0.27035 -0.09703
# Poissons Ratio (y) = 0.50596 0.27823
# Poissons Ratio (z) = -0.10374 0.15894
#
# Static dielectric constant tensor:
#      x y z
#    x 2.011710 0.000000 0.053400 
#    y 0.000000 1.945480 0.000000 
#    z 0.053400 0.000000 1.898850 
# 
# From -- ./inp_files/231.got.cif
#   From: 2010.05.17/outbox.cif.g08.bks.cpg/sg9_1_cif.got.tgz:231.got - 2010.06.03 20:04:27.
