data_PCOD9141638
_publ_section_title
;
Structure prediction by ZEFSAII (Michael W. Deem and Ramdas Pophale) SiO2 
 PCOD9141638
Probable space group: P 2/M
;
_chemical_formula_sum "Si O2"
_cell_formula_units_Z 32
_cell_length_a 28.832177
_cell_length_b 8.759109
_cell_length_c 21.132607
_cell_angle_alpha 90.000000
_cell_angle_beta 159.033584
_cell_angle_gamma 90.000000
_cell_volume 1909.659183
_symmetry_space_group_name_H-M "P 2/M"
_symmetry_group_IT_number 10
_symmetry_cell_setting 'monoclinic'
loop_
_space_group_symop_operation_xyz
x,y,z
-x,y,-z
-x,-y,-z
x,-y,z
loop_
_atom_site_type_symbol
_atom_site_label
_atom_site_fract_x
_atom_site_fract_y
_atom_site_fract_z
Si Si1 0.027905 0.682729 0.442524
Si Si2 0.871626 0.817500 0.993737
Si Si3 0.074827 0.684378 0.159668
Si Si4 0.376263 0.315854 0.082112
Si Si5 0.800921 0.818102 0.242802
Si Si6 0.390928 0.816053 0.411181
Si Si7 0.152163 0.682841 0.897725
Si Si8 0.628173 0.316038 0.476283
O O1 0.030192 0.500000 0.453177
O O2 0.159606 0.753031 0.638172
O O3 0.912898 0.750835 0.339462
O O4 0.978551 0.717059 0.308980
O O5 0.849244 0.762165 0.036570
O O6 0.997732 0.747576 0.121427
O O7 0.878925 0.000000 0.002088
O O8 0.748434 0.769815 0.794124
O O9 0.072120 0.500000 0.157852
O O10 0.224572 0.734774 0.349075
O O11 0.000000 0.732956 0.000000
O O12 0.368661 0.500000 0.065763
O O13 0.519530 0.270846 0.286998
O O14 0.328618 0.240462 0.956307
O O15 0.274368 0.274091 0.008592
O O16 0.806730 0.000000 0.250853
O O17 0.500000 0.769437 0.500000
O O18 0.412267 0.744901 0.506699
O O19 0.393995 0.000000 0.420338
O O20 0.158913 0.500000 0.915018
O O21 0.628436 0.500000 0.478756
#
# Coordination Sequence:
#
# PCOD9141638 Si02
#       8
#     4   4   4   4   4   4   4   4
#     4   9  16  28  45  66  96 133 167 199 237 280
#     4  11  22  33  49  71  96 128 162 199 245 294
#     4  10  20  36  55  72  92 120 162 213 252 285
#     4   9  18  32  48  70 100 130 163 200 243 292
#     4  10  17  25  42  69  99 132 165 195 235 286
#     4  10  21  34  47  68  99 130 157 191 241 295
#     4   9  18  31  48  70  98 130 161 199 240 283
#     4  10  20  34  53  73  91 123 166 206 245 285
#
# _framework density 16.756917000000001
#
# number of rings (size 3 to 8) (size 9 to 14) (size 15 to 20)
#    0.000    2.250    1.250    4.125    0.000    4.500 
#    0.000    0.000    0.000    0.000    0.000    0.875 
#    0.000    7.000    0.000    0.000    0.000    0.000 
#
# Total GULP energy -178416.927333 kJ/mol
# GULP energy per Si atom -5575.528979 kJ/mol
# Density = 1.671878 g / cm^3
# Si number density = 16.756917 Si / 1000 Ang^3
#
#
#
# Elastic Constant Matrix: (Units=GPa)
#
#
# Indices 1 2 3 4 5 6 
#
# 1 10.7535 7.9710 26.5514 0.0000 -2.1742 0.0000
# 2 7.9710 27.9422 30.8187 0.0000 -9.5208 0.0000
# 3 26.5514 30.8187 131.1500 0.0000 -16.0627 0.0000
# 4 0.0000 0.0000 0.0000 8.6088 0.0000 1.4723
# 5 -2.1742 -9.5208 -16.0627 0.0000 31.8217 0.0000
# 6 0.0000 0.0000 0.0000 1.4723 0.0000 35.9703
#
#
#
# Elastic Compliance Matrix: (Units=1/GPa)
#
#
# Indices 1 2 3 4 5 6 
#
# 1 0.194274 -0.019227 -0.036125 0.000000 -0.010714 0.000000
# 2 -0.019227 0.052938 -0.007215 0.000000 0.010883 0.000000
# 3 -0.036125 -0.007215 0.017126 0.000000 0.004018 0.000000
# 4 0.000000 0.000000 0.000000 0.116979 0.000000 -0.004788
# 5 -0.010714 0.010883 0.004018 0.000000 0.035977 0.000000
# 6 0.000000 0.000000 0.000000 -0.004788 0.000000 0.027997
#
#
# Mechanical properties :
#
#
# Convention : Reuss Voigt Hill
#
# Bulk Modulus (GPa) = 7.18359 33.39196 20.28778
# Shear Modulus (GPa) = 8.10602 22.24714 15.17658
#
# Velocity S-wave (km/s) = 2.20180 3.64763 3.01273
# Velocity P-wave (km/s) = 3.28027 6.14091 4.92295
#
# Compressibility (1/GPa) = 0.13920613
#
# Stress axis : x y z
#
# Youngs Moduli (GPa) = 5.14737 18.88987 58.39142
#
# Poissons Ratio (x) = 0.36319 2.10939
# Poissons Ratio (y) = 0.09897 0.42127
# Poissons Ratio (z) = 0.18595 0.13628
#
# Static dielectric constant tensor:
#      x y z
#    x 1.534130 0.000000 -0.022870 
#    y 0.000000 1.556310 0.000000 
#    z -0.022870 0.000000 1.609560 
# 
# From -- ./inp_files/54845.got.cif
#   From: 2010.05.17/outbox.cif.g08.bks.cpg/sg10_28_cif.got.tgz:54845.got - 2010.06.03 11:33:40.
