data_PCOD9141216
_publ_section_title
;
Structure prediction by ZEFSAII (Michael W. Deem and Ramdas Pophale) SiO2 
 PCOD9141216
Probable space group: C C
;
_chemical_formula_sum "Si O2"
_cell_formula_units_Z 16
_cell_length_a 12.000000
_cell_length_b 9.000000
_cell_length_c 30.000000
_cell_angle_alpha 90.000000
_cell_angle_beta 150.000000
_cell_angle_gamma 90.000000
_cell_volume 1620.000000
_symmetry_space_group_name_H-M "C C"
_symmetry_group_IT_number 9
_symmetry_cell_setting 'monoclinic'
loop_
_space_group_symop_operation_xyz
x,y,z
x,-y,1/2+z
1/2+x,1/2+y,z
1/2+x,1/2-y,1/2+z
loop_
_atom_site_type_symbol
_atom_site_label
_atom_site_fract_x
_atom_site_fract_y
_atom_site_fract_z
Si Si1 0.301620 0.608513 0.311520
Si Si2 0.432929 0.936125 0.243846
Si Si3 0.932208 0.547770 0.937935
Si Si4 0.084318 0.394898 0.082908
Si Si5 0.438870 0.422715 0.759495
Si Si6 0.038395 0.432248 0.380254
Si Si7 0.166514 0.875039 0.005234
Si Si8 0.077447 0.064201 0.062366
O O1 0.316980 0.563985 0.265347
O O2 0.377720 0.785835 0.333476
O O3 0.504572 0.552403 0.412327
O O4 0.091823 0.534456 0.265389
O O5 0.478637 0.755227 0.262119
O O6 0.465267 0.990337 0.306274
O O7 0.183318 0.968484 0.139506
O O8 0.665397 0.520120 0.841795
O O9 0.013602 0.480164 0.918373
O O10 0.992155 0.467120 0.005130
O O11 0.053385 0.713143 0.979465
O O12 0.277276 0.502059 0.167719
O O13 0.169635 0.231111 0.099323
O O14 0.901051 0.369081 0.059455
O O15 0.307555 0.412144 0.468778
O O16 0.156834 0.978142 0.045458
#
# Coordination Sequence:
#
# PCOD9141216 Si02
#       8
#     4   4   4   4   4   4   4   4
#     4  10  20  45  72  94 136 180 224 286 338 400
#     4  11  24  46  71 101 141 182 228 287 347 408
#     4  11  24  48  69  98 144 180 228 286 341 411
#     4  12  25  47  68 103 142 176 232 292 334 412
#     4  11  25  45  70 105 139 181 232 282 346 412
#     4  10  23  44  68 100 137 177 233 278 336 413
#     4  11  23  46  72  97 139 182 225 285 347 402
#     4  12  24  45  72 102 138 184 228 282 347 410
#
# _framework density 9.8765429999999999
#
# number of rings (size 3 to 8) (size 9 to 14) (size 15 to 20)
#    0.000    1.000    5.000    2.250    3.500    1.000 
#   13.500    0.000    0.000    0.000    0.000    0.000 
#    0.000    0.000    0.000    0.000    0.000    0.000 
#
# Total GULP energy -89078.399370 kJ/mol
# GULP energy per Si atom -5567.399961 kJ/mol
# Density = 0.985406 g / cm^3
# Si number density = 9.876543 Si / 1000 Ang^3
#
#
#
# Elastic Constant Matrix: (Units=GPa)
#
#
# Indices 1 2 3 4 5 6 
#
# 1 151.4618 51.4977 40.5882 0.0000 -17.6827 0.0000
# 2 51.4977 93.2330 32.7113 0.0000 3.8648 0.0000
# 3 40.5882 32.7113 123.0310 0.0000 -21.9515 0.0000
# 4 0.0000 0.0000 0.0000 29.4503 0.0000 1.0548
# 5 -17.6827 3.8648 -21.9515 0.0000 37.5641 0.0000
# 6 0.0000 0.0000 0.0000 1.0548 0.0000 28.2714
#
#
#
# Elastic Compliance Matrix: (Units=1/GPa)
#
#
# Indices 1 2 3 4 5 6 
#
# 1 0.008973 -0.004799 -0.000941 0.000000 0.004168 0.000000
# 2 -0.004799 0.014801 -0.003379 0.000000 -0.005756 0.000000
# 3 -0.000941 -0.003379 0.010405 0.000000 0.005985 0.000000
# 4 0.000000 0.000000 0.000000 0.034001 0.000000 -0.001269
# 5 0.004168 -0.005756 0.005985 0.000000 0.032673 0.000000
# 6 0.000000 0.000000 0.000000 -0.001269 0.000000 0.035419
#
#
# Mechanical properties :
#
#
# Convention : Reuss Voigt Hill
#
# Bulk Modulus (GPa) = 62.73159 68.59114 65.66136
# Shear Modulus (GPa) = 31.28500 35.25240 33.26870
#
# Velocity S-wave (km/s) = 3.98402 4.22910 4.10839
# Velocity P-wave (km/s) = 7.27943 7.65811 7.47117
#
# Compressibility (1/GPa) = 0.01594093
#
# Stress axis : x y z
#
# Youngs Moduli (GPa) = 111.45093 67.56463 96.11110
#
# Poissons Ratio (x) = 0.32423 0.09040
# Poissons Ratio (y) = 0.53483 0.32477
# Poissons Ratio (z) = 0.10482 0.22831
#
# Static dielectric constant tensor:
#      x y z
#    x 1.718260 0.000000 0.005800 
#    y 0.000000 1.730910 0.000000 
#    z 0.005800 0.000000 1.735220 
# 
# From -- ./inp_files/29915.got.cif
#   From: 2010.05.17/outbox.ucp.g08.bks.cvg/sg9_15_cif.got.tgz:29915.got - 2010.06.11 13:03:20.
