data_PCOD9141696
_publ_section_title
;
Structure prediction by ZEFSAII (Michael W. Deem and Ramdas Pophale) SiO2 
 PCOD9141696
Probable space group: P 2/M
;
_chemical_formula_sum "Si O2"
_cell_formula_units_Z 22
_cell_length_a 5.591213
_cell_length_b 19.020575
_cell_length_c 11.585738
_cell_angle_alpha 90.000000
_cell_angle_beta 70.296807
_cell_angle_gamma 90.000000
_cell_volume 1159.982541
_symmetry_space_group_name_H-M "P 2/M"
_symmetry_group_IT_number 10
_symmetry_cell_setting 'monoclinic'
loop_
_space_group_symop_operation_xyz
x,y,z
-x,y,-z
-x,-y,-z
x,-y,z
loop_
_atom_site_type_symbol
_atom_site_label
_atom_site_fract_x
_atom_site_fract_y
_atom_site_fract_z
Si Si1 0.456909 0.205253 0.868285
Si Si2 0.858281 0.417286 0.872629
Si Si3 0.190187 0.076459 0.199887
Si Si4 0.622911 0.636161 0.151681
Si Si5 0.217385 0.917953 0.548710
Si Si6 0.000000 0.120846 0.000000
O O1 0.650114 0.145413 0.794078
O O2 0.451394 0.282826 0.818525
O O3 0.500000 0.212932 0.000000
O O4 0.181589 0.171516 0.898733
O O5 0.868873 0.500000 0.897676
O O6 0.644034 0.405093 0.810215
O O7 0.144458 0.389525 0.805951
O O8 0.747175 0.376925 0.003668
O O9 0.916184 0.081269 0.305198
O O10 0.159317 0.078098 0.066826
O O11 0.301102 0.000000 0.216256
O O12 0.500000 0.886753 0.500000
O O13 0.000000 0.887250 0.500000
O O14 0.247308 0.000000 0.507072
#
# Coordination Sequence:
#
# PCOD9141696 Si02
#       6
#     4   4   4   4   4   2
#     4  10  20  32  45  64  95 135 169 206 251 303
#     4  10  17  26  43  63  84 117 167 210 237 273
#     4  10  22  35  51  73  98 130 176 224 265 308
#     4  10  17  27  42  59  89 119 160 205 234 291
#     4   9  19  36  57  76  94 120 161 218 274 316
#     4  10  21  32  50  68  99 134 176 210 259 308
#
# _framework density 18.965803000000001
#
# number of rings (size 3 to 8) (size 9 to 14) (size 15 to 20)
#    0.000    2.182    1.818    4.091    5.091    4.000 
#    0.000    0.000    0.000    0.000    0.000    0.000 
#    0.000    0.000    0.000    0.000    0.000   30.909 
#
# Total GULP energy -122485.011736 kJ/mol
# GULP energy per Si atom -5567.500533 kJ/mol
# Density = 1.892264 g / cm^3
# Si number density = 18.965803 Si / 1000 Ang^3
#
#
#
# Elastic Constant Matrix: (Units=GPa)
#
#
# Indices 1 2 3 4 5 6 
#
# 1 152.9685 48.7499 7.3828 0.0000 -15.6297 0.0000
# 2 48.7499 136.0711 12.5109 0.0000 -14.4504 0.0000
# 3 7.3828 12.5109 24.1918 0.0000 -2.3044 0.0000
# 4 0.0000 0.0000 0.0000 -3.6302 0.0000 -8.0013
# 5 -15.6297 -14.4504 -2.3044 0.0000 19.1633 0.0000
# 6 0.0000 0.0000 0.0000 -8.0013 0.0000 20.1899
#
#
#
# Elastic Compliance Matrix: (Units=1/GPa)
#
#
# Indices 1 2 3 4 5 6 
#
# 1 0.007748 -0.002221 -0.000783 0.000000 0.004551 0.000000
# 2 -0.002221 0.008947 -0.003520 0.000000 0.004513 0.000000
# 3 -0.000783 -0.003520 0.043581 0.000000 0.001948 0.000000
# 4 0.000000 0.000000 0.000000 -0.147035 0.000000 -0.058270
# 5 0.004551 0.004513 0.001948 0.000000 0.059532 0.000000
# 6 0.000000 0.000000 0.000000 -0.058270 0.000000 0.026437
#
#
# Mechanical properties :
#
#
# Convention : Reuss Voigt Hill
#
# Bulk Modulus (GPa) = 21.17282 50.05763 35.61523
# Shear Modulus (GPa) = 178.57516 23.45046 101.01281
#
# Velocity S-wave (km/s) = 9.71395 3.52015 7.30590
# Velocity P-wave (km/s) = 11.70480 6.55537 9.48618
#
# Compressibility (1/GPa) = 0.04723035
#
# Stress axis : x y z
#
# Youngs Moduli (GPa) = 129.07069 111.76313 22.94584
#
# Poissons Ratio (x) = 0.24817 0.01796
# Poissons Ratio (y) = 0.28661 0.08076
# Poissons Ratio (z) = 0.10101 0.39337
#
# Static dielectric constant tensor:
#      x y z
#    x 1.767580 0.000000 0.025700 
#    y 0.000000 1.664090 0.000000 
#    z 0.025700 0.000000 1.673220 
# 
# From -- ./inp_files/7160.got.cif
#   From: 2010.05.17/outbox.cif.g08.bks.cpg/sg10_4_cif.got.tgz:7160.got - 2010.06.03 11:33:40.
