data_PCOD9141326
_publ_section_title
;
Structure prediction by ZEFSAII (Michael W. Deem and Ramdas Pophale) SiO2 
 PCOD9141326
Probable space group: P 2/M
;
_chemical_formula_sum "Si O2"
_cell_formula_units_Z 24
_cell_length_a 7.695960
_cell_length_b 18.806581
_cell_length_c 8.509739
_cell_angle_alpha 90.000000
_cell_angle_beta 120.915108
_cell_angle_gamma 90.000000
_cell_volume 1056.672666
_symmetry_space_group_name_H-M "P 2/M"
_symmetry_group_IT_number 10
_symmetry_cell_setting 'monoclinic'
loop_
_space_group_symop_operation_xyz
x,y,z
-x,y,-z
-x,-y,-z
x,-y,z
loop_
_atom_site_type_symbol
_atom_site_label
_atom_site_fract_x
_atom_site_fract_y
_atom_site_fract_z
Si Si1 0.074185 0.420451 0.711668
Si Si2 0.341604 0.422887 0.286621
Si Si3 0.247288 0.082723 0.630283
Si Si4 0.215696 0.692234 0.005961
Si Si5 0.752580 0.145023 0.038002
Si Si6 0.792546 0.914767 0.731615
O O1 0.168200 0.500000 0.759856
O O2 0.878599 0.423295 0.734758
O O3 0.000000 0.408470 0.500000
O O4 0.195058 0.354345 0.838156
O O5 0.500000 0.418738 0.500000
O O6 0.365843 0.500000 0.217255
O O7 0.356779 0.355899 0.181489
O O8 0.315610 0.123181 0.818852
O O9 0.307758 0.104997 0.481808
O O10 0.000000 0.086399 0.500000
O O11 0.299026 0.000000 0.676603
O O12 0.281241 0.771983 0.005405
O O13 0.000000 0.696901 0.000000
O O14 0.993779 0.126554 0.161818
O O15 0.689502 0.102968 0.850227
O O16 0.828912 0.000000 0.742564
#
# Coordination Sequence:
#
# PCOD9141326 Si02
#       6
#     4   4   4   4   4   4
#     4   9  18  32  50  74 100 127 160 203 250 297
#     4   9  18  34  54  71  93 131 172 206 243 295
#     4   8  14  22  33  51  79 120 158 189 233 286
#     4  10  18  29  44  69  96 125 161 200 250 302
#     4  10  15  23  35  57  86 121 153 192 245 295
#     4   9  15  23  35  53  84 124 159 194 239 291
#
# _framework density 22.712804999999999
#
# number of rings (size 3 to 8) (size 9 to 14) (size 15 to 20)
#    0.000    2.833    1.667    3.500    0.000    4.000 
#    0.000    0.833    0.000    4.000    0.000    0.000 
#    0.000    6.000    0.000    3.667    0.667    0.000 
#
# Total GULP energy -134003.569201 kJ/mol
# GULP energy per Si atom -5583.482050 kJ/mol
# Density = 2.266111 g / cm^3
# Si number density = 22.712805 Si / 1000 Ang^3
#
#
#
# Elastic Constant Matrix: (Units=GPa)
#
#
# Indices 1 2 3 4 5 6 
#
# 1 85.7980 12.7490 15.4694 0.0000 -23.6670 0.0000
# 2 12.7490 166.6152 91.5955 0.0000 -22.1349 0.0000
# 3 15.4694 91.5955 182.1279 0.0000 -40.7820 0.0000
# 4 0.0000 0.0000 0.0000 63.5986 0.0000 -16.4057
# 5 -23.6670 -22.1349 -40.7820 0.0000 32.4224 0.0000
# 6 0.0000 0.0000 0.0000 -16.4057 0.0000 9.7344
#
#
#
# Elastic Compliance Matrix: (Units=1/GPa)
#
#
# Indices 1 2 3 4 5 6 
#
# 1 0.014958 -0.000442 0.001850 0.000000 0.012944 0.000000
# 2 -0.000442 0.008316 -0.004101 0.000000 0.000197 0.000000
# 3 0.001850 -0.004101 0.009844 0.000000 0.010933 0.000000
# 4 0.000000 0.000000 0.000000 0.027817 0.000000 0.046881
# 5 0.012944 0.000197 0.010933 0.000000 0.054178 0.000000
# 6 0.000000 0.000000 0.000000 0.046881 0.000000 0.181740
#
#
# Mechanical properties :
#
#
# Convention : Reuss Voigt Hill
#
# Bulk Modulus (GPa) = 36.05801 74.90764 55.48282
# Shear Modulus (GPa) = 16.05225 42.13289 29.09257
#
# Velocity S-wave (km/s) = 2.66136 4.31168 3.58283
# Velocity P-wave (km/s) = 5.03526 7.60522 6.44954
#
# Compressibility (1/GPa) = 0.02773309
#
# Stress axis : x y z
#
# Youngs Moduli (GPa) = 66.85392 120.24758 101.58501
#
# Poissons Ratio (x) = 0.05316 -0.18797
# Poissons Ratio (y) = 0.02956 0.41658
# Poissons Ratio (z) = -0.12370 0.49311
#
# Static dielectric constant tensor:
#      x y z
#    x 1.974420 0.000000 0.026470 
#    y 0.000000 1.768300 0.000000 
#    z 0.026470 0.000000 1.849910 
# 
# From -- ./inp_files/25743.got.cif
#   From: 2010.05.17/outbox.cif.g08.bks.cpg/sg10_13_cif.got.tgz:25743.got - 2010.06.03 11:33:40.
