data_PCOD9141799
_publ_section_title
;
Structure prediction by ZEFSAII (Michael W. Deem and Ramdas Pophale) SiO2 
 PCOD9141799
Probable space group: P 2/M
;
_chemical_formula_sum "Si O2"
_cell_formula_units_Z 28
_cell_length_a 8.428188
_cell_length_b 15.989849
_cell_length_c 13.011658
_cell_angle_alpha 90.000000
_cell_angle_beta 48.762890
_cell_angle_gamma 90.000000
_cell_volume 1318.627711
_symmetry_space_group_name_H-M "P 2/M"
_symmetry_group_IT_number 10
_symmetry_cell_setting 'monoclinic'
loop_
_space_group_symop_operation_xyz
x,y,z
-x,y,-z
-x,-y,-z
x,-y,z
loop_
_atom_site_type_symbol
_atom_site_label
_atom_site_fract_x
_atom_site_fract_y
_atom_site_fract_z
Si Si1 0.685531 0.405206 0.676526
Si Si2 0.271482 0.398078 0.564064
Si Si3 0.238263 0.639624 0.913726
Si Si4 0.832531 0.398721 0.832039
Si Si5 0.691455 0.168431 0.151822
Si Si6 0.653314 0.099297 0.834478
Si Si7 0.992216 0.100058 0.840607
O O1 0.768134 0.500000 0.647550
O O2 0.770427 0.368291 0.534475
O O3 0.431231 0.408231 0.779267
O O4 0.742222 0.367214 0.762194
O O5 0.500000 0.367806 0.500000
O O6 0.279193 0.500000 0.555764
O O7 0.080799 0.378053 0.721012
O O8 0.260498 0.733849 0.866475
O O9 0.269791 0.638159 0.023144
O O10 0.000000 0.607163 0.000000
O O11 0.804757 0.500000 0.850678
O O12 0.456319 0.147281 0.213110
O O13 0.778430 0.131198 0.221479
O O14 0.837235 0.129741 0.998690
O O15 0.880733 0.127809 0.781862
O O16 0.660272 0.000000 0.806942
O O17 0.500000 0.107638 0.000000
O O18 0.991089 0.000000 0.840417
#
# Coordination Sequence:
#
# PCOD9141799 Si02
#       7
#     4   4   4   4   4   4   4
#     4  10  21  36  53  72  95 127 168 211 253 298
#     4   9  17  33  57  77  91 115 159 212 253 292
#     4  12  23  33  44  70 104 138 167 199 254 306
#     4  10  21  36  53  72  95 127 168 211 253 298
#     4  10  17  28  39  60  94 130 163 199 242 296
#     4   8  14  23  40  61  81 118 166 202 237 283
#     4   9  15  26  43  61  84 122 167 203 235 284
#
# _framework density 21.234195
#
# number of rings (size 3 to 8) (size 9 to 14) (size 15 to 20)
#    0.000    2.286    1.429    4.714    0.000    8.571 
#    0.000    0.000    0.000    0.000    0.000    0.000 
#    0.000    0.000    0.000   16.714    0.000   99.429 
#
# Total GULP energy -156170.226127 kJ/mol
# GULP energy per Si atom -5577.508076 kJ/mol
# Density = 2.118587 g / cm^3
# Si number density = 21.234195 Si / 1000 Ang^3
#
#
#
# Elastic Constant Matrix: (Units=GPa)
#
#
# Indices 1 2 3 4 5 6 
#
# 1 128.9599 18.0950 -1.7070 0.0000 6.3508 0.0000
# 2 18.0950 40.8363 -2.5952 0.0000 -0.5747 0.0000
# 3 -1.7070 -2.5952 53.0424 0.0000 -4.5253 0.0000
# 4 0.0000 0.0000 0.0000 5.9399 0.0000 12.7395
# 5 6.3508 -0.5747 -4.5253 0.0000 24.3485 0.0000
# 6 0.0000 0.0000 0.0000 12.7395 0.0000 29.4732
#
#
#
# Elastic Compliance Matrix: (Units=1/GPa)
#
#
# Indices 1 2 3 4 5 6 
#
# 1 0.008393 -0.003759 -0.000110 0.000000 -0.002298 0.000000
# 2 -0.003759 0.026263 0.001321 0.000000 0.001846 0.000000
# 3 -0.000110 0.001321 0.019224 0.000000 0.003633 0.000000
# 4 0.000000 0.000000 0.000000 2.307539 0.000000 -0.997412
# 5 -0.002298 0.001846 0.003633 0.000000 0.042389 0.000000
# 6 0.000000 0.000000 0.000000 -0.997412 0.000000 0.465051
#
#
# Mechanical properties :
#
#
# Convention : Reuss Voigt Hill
#
# Bulk Modulus (GPa) = 20.49730 27.82492 24.16111
# Shear Modulus (GPa) = 1.72997 25.88869 13.80933
#
# Velocity S-wave (km/s) = 0.90359 3.49549 2.55293
# Velocity P-wave (km/s) = 3.28063 5.42435 4.48253
#
# Compressibility (1/GPa) = 0.04878690
#
# Stress axis : x y z
#
# Youngs Moduli (GPa) = 119.14031 38.07573 52.01867
#
# Poissons Ratio (x) = 0.14311 0.00571
# Poissons Ratio (y) = 0.44780 -0.06874
# Poissons Ratio (z) = 0.01309 -0.05032
#
# Static dielectric constant tensor:
#      x y z
#    x 1.920570 0.000000 0.020520 
#    y 0.000000 1.735640 0.000000 
#    z 0.020520 0.000000 1.727290 
# 
# From -- ./inp_files/42891.got.cif
#   From: 2010.05.17/outbox.cif.g08.bks.cpg/sg10_22_cif.got.tgz:42891.got - 2010.06.03 11:33:40.
