data_PCOD9141701
_publ_section_title
;
Structure prediction by ZEFSAII (Michael W. Deem and Ramdas Pophale) SiO2 
 PCOD9141701
Probable space group: P 2/M
;
_chemical_formula_sum "Si O2"
_cell_formula_units_Z 32
_cell_length_a 26.965196
_cell_length_b 13.207692
_cell_length_c 5.278501
_cell_angle_alpha 90.000000
_cell_angle_beta 89.097117
_cell_angle_gamma 90.000000
_cell_volume 1879.694182
_symmetry_space_group_name_H-M "P 2/M"
_symmetry_group_IT_number 10
_symmetry_cell_setting 'monoclinic'
loop_
_space_group_symop_operation_xyz
x,y,z
-x,y,-z
-x,-y,-z
x,-y,z
loop_
_atom_site_type_symbol
_atom_site_label
_atom_site_fract_x
_atom_site_fract_y
_atom_site_fract_z
Si Si1 0.383033 0.622711 0.519147
Si Si2 0.786154 0.112524 0.474808
Si Si3 0.731248 0.321828 0.488015
Si Si4 0.843493 0.826025 0.969210
Si Si5 0.442954 0.376856 0.014284
Si Si6 0.941034 0.738954 0.016006
Si Si7 0.940438 0.612499 0.514940
Si Si8 0.789170 0.613596 0.982690
O O1 0.379867 0.500000 0.519205
O O2 0.327371 0.663424 0.514210
O O3 0.414661 0.653791 0.271335
O O4 0.411966 0.653983 0.770235
O O5 0.746884 0.203846 0.486437
O O6 0.821931 0.128722 0.713047
O O7 0.764452 0.000000 0.486530
O O8 0.817360 0.125534 0.214607
O O9 0.754670 0.371095 0.738421
O O10 0.756500 0.371411 0.238547
O O11 0.902784 0.830160 0.982150
O O12 0.827563 0.706841 0.974691
O O13 0.444149 0.500000 0.013858
O O14 0.500000 0.342571 0.000000
O O15 0.930504 0.662120 0.785815
O O16 0.927862 0.685262 0.282893
O O17 0.000000 0.762476 0.000000
O O18 0.918668 0.500000 0.490329
O O19 0.000000 0.603150 0.500000
O O20 0.810486 0.500000 0.978342
#
# Coordination Sequence:
#
# PCOD9141701 Si02
#       8
#     4   4   4   4   4   4   4   4
#     4  10  17  26  43  65  95 131 162 199 238 274
#     4  10  21  39  59  74  95 123 156 207 257 300
#     4  10  20  32  49  74  97 124 167 203 245 299
#     4  10  21  35  53  77  96 125 164 190 238 304
#     4   9  17  27  39  60  94 137 176 200 223 262
#     4  10  19  32  49  69  97 127 157 200 241 277
#     4   9  17  28  43  65  94 130 165 191 220 262
#     4  10  19  31  46  68 102 132 155 191 235 291
#
# _framework density 17.024044
#
# number of rings (size 3 to 8) (size 9 to 14) (size 15 to 20)
#    0.000    2.250    0.000    3.750    0.000    5.000 
#    0.000    0.000    0.000    2.250    0.000    0.000 
#    0.000    3.000    0.000    0.000    0.000    0.000 
#
# Total GULP energy -178534.253728 kJ/mol
# GULP energy per Si atom -5579.195429 kJ/mol
# Density = 1.698530 g / cm^3
# Si number density = 17.024044 Si / 1000 Ang^3
#
#
#
# Elastic Constant Matrix: (Units=GPa)
#
#
# Indices 1 2 3 4 5 6 
#
# 1 75.7543 6.9713 21.9572 0.0000 7.7705 0.0000
# 2 6.9713 68.2642 11.8618 0.0000 1.6347 0.0000
# 3 21.9572 11.8618 102.8422 0.0000 22.4248 0.0000
# 4 0.0000 0.0000 0.0000 8.7178 0.0000 -12.3946
# 5 7.7705 1.6347 22.4248 0.0000 11.9630 0.0000
# 6 0.0000 0.0000 0.0000 -12.3946 0.0000 19.3031
#
#
#
# Elastic Compliance Matrix: (Units=1/GPa)
#
#
# Indices 1 2 3 4 5 6 
#
# 1 0.014397 -0.001044 -0.001599 0.000000 -0.006212 0.000000
# 2 -0.001044 0.015053 -0.002051 0.000000 0.002465 0.000000
# 3 -0.001599 -0.002051 0.016937 0.000000 -0.030429 0.000000
# 4 0.000000 0.000000 0.000000 1.317273 0.000000 0.845829
# 5 -0.006212 0.002465 -0.030429 0.000000 0.144328 0.000000
# 6 0.000000 0.000000 0.000000 0.845829 0.000000 0.594917
#
#
# Mechanical properties :
#
#
# Convention : Reuss Voigt Hill
#
# Bulk Modulus (GPa) = 27.02748 36.49346 31.76047
# Shear Modulus (GPa) = 2.35336 21.73482 12.04409
#
# Velocity S-wave (km/s) = 1.17702 3.57699 2.66273
# Velocity P-wave (km/s) = 4.21399 6.20828 5.30568
#
# Compressibility (1/GPa) = 0.03699938
#
# Stress axis : x y z
#
# Youngs Moduli (GPa) = 69.45773 66.43244 59.04364
#
# Poissons Ratio (x) = 0.06933 0.09441
# Poissons Ratio (y) = 0.07249 0.12110
# Poissons Ratio (z) = 0.11107 0.13625
#
# Static dielectric constant tensor:
#      x y z
#    x 1.547120 0.000000 0.020640 
#    y 0.000000 1.565710 0.000000 
#    z 0.020640 0.000000 1.557710 
# 
# From -- ./inp_files/8134.got.cif
#   From: 2010.05.17/outbox.cif.g08.bks.cpg/sg10_5_cif.got.tgz:8134.got - 2010.06.03 11:33:40.
