data_PCOD9141975
_publ_section_title
;
Structure prediction by ZEFSAII (Michael W. Deem and Ramdas Pophale) SiO2 
 PCOD9141975
Probable space group: P 2/M
;
_chemical_formula_sum "Si O2"
_cell_formula_units_Z 28
_cell_length_a 18.316239
_cell_length_b 7.606492
_cell_length_c 21.510591
_cell_angle_alpha 90.000000
_cell_angle_beta 152.771345
_cell_angle_gamma 90.000000
_cell_volume 1371.212227
_symmetry_space_group_name_H-M "P 2/M"
_symmetry_group_IT_number 10
_symmetry_cell_setting 'monoclinic'
loop_
_space_group_symop_operation_xyz
x,y,z
-x,y,-z
-x,-y,-z
x,-y,z
loop_
_atom_site_type_symbol
_atom_site_label
_atom_site_fract_x
_atom_site_fract_y
_atom_site_fract_z
Si Si1 0.071383 0.712087 0.383549
Si Si2 0.410080 0.199456 0.603643
Si Si3 0.350883 0.699603 0.422549
Si Si4 0.757094 0.714247 0.206338
Si Si5 0.486117 0.285718 0.088597
Si Si6 0.989796 0.284824 0.805434
Si Si7 0.338025 0.712331 0.105242
O O1 0.071892 0.500000 0.385553
O O2 0.937249 0.774236 0.330309
O O3 0.017648 0.765346 0.273045
O O4 0.253868 0.769781 0.528018
O O5 0.390513 0.308310 0.525890
O O6 0.567312 0.235495 0.761875
O O7 0.407931 0.000000 0.580625
O O8 0.500000 0.783839 0.500000
O O9 0.336770 0.500000 0.387023
O O10 0.173072 0.778013 0.285503
O O11 0.760562 0.500000 0.210797
O O12 0.656498 0.772556 0.190142
O O13 0.648722 0.761333 0.064367
O O14 0.488568 0.500000 0.091909
O O15 0.434155 0.224891 0.117009
O O16 0.986277 0.500000 0.803264
O O17 0.155312 0.227759 0.960990
O O18 0.335833 0.500000 0.101210
#
# Coordination Sequence:
#
# PCOD9141975 Si02
#       7
#     4   4   4   4   4   4   4
#     4   9  15  29  51  73  96 127 168 213 252 295
#     4  11  23  35  48  70 102 137 168 201 240 289
#     4   9  18  36  61  84 102 122 154 197 244 297
#     4   8  12  21  42  74 102 121 156 212 264 297
#     4   8  13  21  41  74 103 125 154 206 264 298
#     4   8  14  26  50  79  99 121 159 201 240 286
#     4  10  17  30  50  73 101 133 166 203 246 294
#
# _framework density 20.419886999999999
#
# number of rings (size 3 to 8) (size 9 to 14) (size 15 to 20)
#    0.000    3.000    1.429    3.000    0.000    0.286 
#    0.000    4.286    0.000    9.429    0.000    2.000 
#    0.000    0.000    0.000    0.000    0.000    0.000 
#
# Total GULP energy -156083.477094 kJ/mol
# GULP energy per Si atom -5574.409896 kJ/mol
# Density = 2.037341 g / cm^3
# Si number density = 20.419887 Si / 1000 Ang^3
#
#
#
# Elastic Constant Matrix: (Units=GPa)
#
#
# Indices 1 2 3 4 5 6 
#
# 1 90.0291 1.7337 48.4895 0.0000 40.9367 0.0000
# 2 1.7337 48.6834 3.7291 0.0000 5.3098 0.0000
# 3 48.4895 3.7291 133.5549 0.0000 28.7643 0.0000
# 4 0.0000 0.0000 0.0000 1355.0547 0.0000 788.5551
# 5 40.9367 5.3098 28.7643 0.0000 34.1276 0.0000
# 6 0.0000 0.0000 0.0000 788.5551 0.0000 347.3461
#
#
#
# Elastic Compliance Matrix: (Units=1/GPa)
#
#
# Indices 1 2 3 4 5 6 
#
# 1 0.025837 0.002451 -0.003289 0.000000 -0.028601 0.000000
# 2 0.002451 0.021130 -0.000169 0.000000 -0.006085 0.000000
# 3 -0.003289 -0.000169 0.009568 0.000000 -0.004093 0.000000
# 4 0.000000 0.000000 0.000000 -0.002298 0.000000 0.005217
# 5 -0.028601 -0.006085 -0.004093 0.000000 0.068005 0.000000
# 6 0.000000 0.000000 0.000000 0.005217 0.000000 -0.008965
#
#
# Mechanical properties :
#
#
# Convention : Reuss Voigt Hill
#
# Bulk Modulus (GPa) = 18.34170 42.24133 30.29152
# Shear Modulus (GPa) = 37.46311 361.86002 199.66156
#
# Velocity S-wave (km/s) = 4.28791 13.32645 9.89900
# Velocity P-wave (km/s) = 5.78936 16.04754 12.06318
#
# Compressibility (1/GPa) = 0.05452057
#
# Stress axis : x y z
#
# Youngs Moduli (GPa) = 38.70459 47.32553 104.51627
#
# Poissons Ratio (x) = -0.11601 0.34376
# Poissons Ratio (y) = -0.09488 0.01770
# Poissons Ratio (z) = 0.12730 0.00802
#
# Static dielectric constant tensor:
#      x y z
#    x 1.727810 0.000000 0.045660 
#    y 0.000000 1.769960 0.000000 
#    z 0.045660 0.000000 1.710800 
# 
# From -- ./inp_files/85616.got.cif
#   From: 2010.05.17/outbox.cif.g08.bks.cpg/sg10_43_cif.got.tgz:85616.got - 2010.06.03 11:33:40.
