data_PCOD9141878
_publ_section_title
;
Structure prediction by ZEFSAII (Michael W. Deem and Ramdas Pophale) SiO2 
 PCOD9141878
Probable space group: P 2/M
;
_chemical_formula_sum "Si O2"
_cell_formula_units_Z 22
_cell_length_a 11.285356
_cell_length_b 7.764042
_cell_length_c 12.035123
_cell_angle_alpha 90.000000
_cell_angle_beta 72.378241
_cell_angle_gamma 90.000000
_cell_volume 1005.034803
_symmetry_space_group_name_H-M "P 2/M"
_symmetry_group_IT_number 10
_symmetry_cell_setting 'monoclinic'
loop_
_space_group_symop_operation_xyz
x,y,z
-x,y,-z
-x,-y,-z
x,-y,z
loop_
_atom_site_type_symbol
_atom_site_label
_atom_site_fract_x
_atom_site_fract_y
_atom_site_fract_z
Si Si1 0.829988 0.701487 0.233906
Si Si2 0.587283 0.290933 0.177771
Si Si3 0.882108 0.799357 0.466755
Si Si4 0.304492 0.290770 0.292078
Si Si5 0.000000 0.756089 0.000000
Si Si6 0.248724 0.303262 0.067268
O O1 0.851307 0.500000 0.193511
O O2 0.687977 0.746664 0.244814
O O3 0.859449 0.715814 0.354223
O O4 0.918139 0.814104 0.129490
O O5 0.582377 0.500000 0.171015
O O6 0.448056 0.235250 0.241644
O O7 0.649143 0.224981 0.045374
O O8 0.765508 0.781174 0.581594
O O9 0.000000 0.725352 0.500000
O O10 0.907042 0.000000 0.437706
O O11 0.298353 0.500000 0.303784
O O12 0.240877 0.232472 0.193892
O O13 0.118543 0.690252 0.039111
O O14 0.290536 0.500000 0.072818
#
# Coordination Sequence:
#
# PCOD9141878 Si02
#       6
#     4   4   4   4   2   4
#     4  10  19  34  57  82 108 136 171 214 259 310
#     4   8  16  30  51  83 114 135 164 215 267 305
#     4  11  25  41  53  71 104 141 176 218 265 309
#     4  10  19  33  56  81 105 139 179 213 253 309
#     4  10  17  28  51  84 111 132 167 218 263 298
#     4   9  15  25  47  80 113 138 166 210 261 308
#
# _framework density 21.889790000000001
#
# number of rings (size 3 to 8) (size 9 to 14) (size 15 to 20)
#    0.000    2.364    0.000    4.909    0.000    5.818 
#    0.000    5.000    0.000    6.545    0.000    0.000 
#    0.000    0.000    0.000    0.000    0.000    0.000 
#
# Total GULP energy -122533.789719 kJ/mol
# GULP energy per Si atom -5569.717714 kJ/mol
# Density = 2.183997 g / cm^3
# Si number density = 21.889790 Si / 1000 Ang^3
#
#
#
# Elastic Constant Matrix: (Units=GPa)
#
#
# Indices 1 2 3 4 5 6 
#
# 1 105.0431 11.0327 73.8731 0.0000 2.8356 0.0000
# 2 11.0327 45.5614 8.2617 0.0000 5.4485 0.0000
# 3 73.8731 8.2617 158.8139 0.0000 20.7499 0.0000
# 4 0.0000 0.0000 0.0000 508.9241 0.0000 23.1149
# 5 2.8356 5.4485 20.7499 0.0000 40.9751 0.0000
# 6 0.0000 0.0000 0.0000 23.1149 0.0000 2.0687
#
#
#
# Elastic Compliance Matrix: (Units=1/GPa)
#
#
# Indices 1 2 3 4 5 6 
#
# 1 0.014696 -0.002624 -0.007081 0.000000 0.002918 0.000000
# 2 -0.002624 0.022873 0.000433 0.000000 -0.003079 0.000000
# 3 -0.007081 0.000433 0.010185 0.000000 -0.004725 0.000000
# 4 0.000000 0.000000 0.000000 0.003990 0.000000 -0.044578
# 5 0.002918 -0.003079 -0.004725 0.000000 0.027006 0.000000
# 6 0.000000 0.000000 0.000000 -0.044578 0.000000 0.981486
#
#
# Mechanical properties :
#
#
# Convention : Reuss Voigt Hill
#
# Bulk Modulus (GPa) = 34.23279 55.08371 44.65825
# Shear Modulus (GPa) = 4.59341 124.81032 64.70186
#
# Velocity S-wave (km/s) = 1.45017 7.55919 5.44263
# Velocity P-wave (km/s) = 4.29844 10.07012 7.74222
#
# Compressibility (1/GPa) = 0.02921176
#
# Stress axis : x y z
#
# Youngs Moduli (GPa) = 68.04385 43.71878 98.18120
#
# Poissons Ratio (x) = 0.11470 0.69520
# Poissons Ratio (y) = 0.17853 -0.04250
# Poissons Ratio (z) = 0.48181 -0.01892
#
# Static dielectric constant tensor:
#      x y z
#    x 1.779010 0.000000 0.004870 
#    y 0.000000 1.862440 0.000000 
#    z 0.004870 0.000000 1.763060 
# 
# From -- ./inp_files/45060.got.cif
#   From: 2010.05.17/outbox.cif.g08.bks.cpg/sg10_23_cif.got.tgz:45060.got - 2010.06.03 11:33:40.
