data_PCOD9141359
_publ_section_title
;
Structure prediction by ZEFSAII (Michael W. Deem and Ramdas Pophale) SiO2 
 PCOD9141359
Probable space group: P 2/M
;
_chemical_formula_sum "Si O2"
_cell_formula_units_Z 28
_cell_length_a 6.857206
_cell_length_b 7.890264
_cell_length_c 19.492767
_cell_angle_alpha 90.000000
_cell_angle_beta 91.175687
_cell_angle_gamma 90.000000
_cell_volume 1054.437361
_symmetry_space_group_name_H-M "P 2/M"
_symmetry_group_IT_number 10
_symmetry_cell_setting 'monoclinic'
loop_
_space_group_symop_operation_xyz
x,y,z
-x,y,-z
-x,-y,-z
x,-y,z
loop_
_atom_site_type_symbol
_atom_site_label
_atom_site_fract_x
_atom_site_fract_y
_atom_site_fract_z
Si Si1 0.226191 0.295620 0.014853
Si Si2 0.329893 0.303115 0.871479
Si Si3 0.108424 0.803971 0.153786
Si Si4 0.926877 0.186075 0.423267
Si Si5 0.478846 0.309631 0.577199
Si Si6 0.614855 0.293956 0.276214
Si Si7 0.078575 0.699887 0.299095
O O1 0.237793 0.500000 0.012785
O O2 0.256045 0.241981 0.093688
O O3 0.343772 0.231720 0.949040
O O4 0.000000 0.244793 0.000000
O O5 0.391348 0.500000 0.874715
O O6 0.092602 0.300819 0.857871
O O7 0.414865 0.226893 0.801734
O O8 0.176768 0.769068 0.231561
O O9 0.056673 0.000000 0.147027
O O10 0.756367 0.320824 0.420552
O O11 0.106094 0.226276 0.374825
O O12 0.000000 0.180817 0.500000
O O13 0.845852 0.000000 0.405210
O O14 0.500000 0.229494 0.500000
O O15 0.564616 0.500000 0.574528
O O16 0.503369 0.238921 0.656270
O O17 0.592626 0.500000 0.273851
O O18 0.846317 0.259130 0.288663
O O19 0.105552 0.500000 0.299844
#
# Coordination Sequence:
#
# PCOD9141359 Si02
#       7
#     4   4   4   4   4   4   4
#     4   8  13  20  28  39  59  90 128 164 197 238
#     4   8  13  21  31  42  61  94 132 165 199 243
#     4  10  16  20  29  46  68  93 124 163 205 246
#     4  10  20  32  46  66  90 114 143 181 224 266
#     4   9  17  29  46  67  89 116 151 185 216 257
#     4   7  11  21  36  52  70  95 130 170 206 240
#     4   9  16  27  41  54  72 101 136 170 205 250
#
# _framework density 26.554447
#
# number of rings (size 3 to 8) (size 9 to 14) (size 15 to 20)
#    0.000    3.286    0.000    4.714    0.000    4.000 
#    0.000    0.000    0.000    0.000    0.000    0.000 
#    0.000    0.000    0.000    1.286    0.000   29.143 
#
# Total GULP energy -156175.506276 kJ/mol
# GULP energy per Si atom -5577.696653 kJ/mol
# Density = 2.649401 g / cm^3
# Si number density = 26.554447 Si / 1000 Ang^3
#
#
#
# Elastic Constant Matrix: (Units=GPa)
#
#
# Indices 1 2 3 4 5 6 
#
# 1 91.8290 -2.3389 45.6133 0.0000 -39.5326 0.0000
# 2 -2.3389 73.1116 18.7247 0.0000 1.7881 0.0000
# 3 45.6133 18.7247 332.1477 0.0000 -57.8101 0.0000
# 4 0.0000 0.0000 0.0000 -211.9608 0.0000 112.1348
# 5 -39.5326 1.7881 -57.8101 0.0000 48.0949 0.0000
# 6 0.0000 0.0000 0.0000 112.1348 0.0000 -60.6813
#
#
#
# Elastic Compliance Matrix: (Units=1/GPa)
#
#
# Indices 1 2 3 4 5 6 
#
# 1 0.016860 0.000170 0.000109 0.000000 0.013983 0.000000
# 2 0.000170 0.014010 -0.001112 0.000000 -0.001718 0.000000
# 3 0.000109 -0.001112 0.003896 0.000000 0.004814 0.000000
# 4 0.000000 0.000000 0.000000 -0.210808 0.000000 -0.389559
# 5 0.013983 -0.001718 0.004814 0.000000 0.038136 0.000000
# 6 0.000000 0.000000 0.000000 -0.389559 0.000000 -0.736357
#
#
# Mechanical properties :
#
#
# Convention : Reuss Voigt Hill
#
# Bulk Modulus (GPa) = 30.21306 69.00962 49.61134
# Shear Modulus (GPa) = -5.80340 -15.90349 -10.85345
#
# Velocity S-wave (km/s) = -1.47994 -2.44990 -2.02389
# Velocity P-wave (km/s) = 2.91242 4.24755 3.64170
#
# Compressibility (1/GPa) = 0.03309827
#
# Stress axis : x y z
#
# Youngs Moduli (GPa) = 59.31342 71.37754 256.64856
#
# Poissons Ratio (x) = -0.01210 -0.02792
# Poissons Ratio (y) = -0.01005 0.28544
# Poissons Ratio (z) = -0.00645 0.07938
#
# Static dielectric constant tensor:
#      x y z
#    x 2.213820 0.000000 0.088190 
#    y 0.000000 1.983040 0.000000 
#    z 0.088190 0.000000 2.288960 
# 
# From -- ./inp_files/75740.got.cif
#   From: 2010.05.17/outbox.cif.g08.bks.cpg/sg10_38_cif.got.tgz:75740.got - 2010.06.03 11:33:40.
