data_PCOD9141066
_publ_section_title
;
Structure prediction by ZEFSAII (Michael W. Deem and Ramdas Pophale) SiO2 
 PCOD9141066
Probable space group: C C
;
_chemical_formula_sum "Si O2"
_cell_formula_units_Z 20
_cell_length_a 4.887850
_cell_length_b 24.036135
_cell_length_c 8.077630
_cell_angle_alpha 90.000000
_cell_angle_beta 123.060032
_cell_angle_gamma 90.000000
_cell_volume 795.356841
_symmetry_space_group_name_H-M "C C"
_symmetry_group_IT_number 9
_symmetry_cell_setting 'monoclinic'
loop_
_space_group_symop_operation_xyz
x,y,z
x,-y,1/2+z
1/2+x,1/2+y,z
1/2+x,1/2-y,1/2+z
loop_
_atom_site_type_symbol
_atom_site_label
_atom_site_fract_x
_atom_site_fract_y
_atom_site_fract_z
Si Si1 0.994850 0.444092 0.056090
Si Si2 0.729312 0.208185 0.506439
Si Si3 0.616097 0.329589 0.451790
Si Si4 0.063402 0.840337 0.802511
Si Si5 0.753154 0.559763 0.834526
O O1 0.974260 0.434782 0.245835
O O2 0.379680 0.443083 0.144444
O O3 0.847543 0.503690 0.960089
O O4 0.769081 0.397047 0.897930
O O5 0.879454 0.180923 0.718898
O O6 0.833026 0.172231 0.381451
O O7 0.826566 0.272636 0.523201
O O8 0.342072 0.207229 0.402178
O O9 0.791031 0.387304 0.466104
O O10 0.449861 0.336949 0.575597
#
# Coordination Sequence:
#
# PCOD9141066 Si02
#       5
#     4   4   4   4   4
#     4  12  25  50  74 112 152 198 255 318 378 460
#     4  12  28  46  74 110 151 197 252 306 376 452
#     4  12  27  49  77 110 153 203 246 315 374 452
#     4  12  27  48  75 107 152 196 249 314 376 442
#     4  12  27  47  78 109 156 196 258 313 384 450
#
# _framework density 25.145945999999999
#
# number of rings (size 3 to 8) (size 9 to 14) (size 15 to 20)
#    0.000    0.000    6.000    2.400    2.800    6.400 
#    0.000    0.000    0.000    0.000    0.000    0.000 
#    0.000    0.000    0.000    0.000    0.000    0.000 
#
# Total GULP energy -56060.340536 kJ/mol
# GULP energy per Si atom -5606.034054 kJ/mol
# Density = 2.508871 g / cm^3
# Si number density = 25.145946 Si / 1000 Ang^3
#
#
#
# Elastic Constant Matrix: (Units=GPa)
#
#
# Indices 1 2 3 4 5 6 
#
# 1 78.0668 3.6816 25.9889 0.0000 -14.8916 0.0000
# 2 3.6816 184.8924 43.0796 0.0000 -5.5705 0.0000
# 3 25.9889 43.0796 152.0434 0.0000 -39.8540 0.0000
# 4 0.0000 0.0000 0.0000 58.4198 0.0000 -1.3548
# 5 -14.8916 -5.5705 -39.8540 0.0000 46.2400 0.0000
# 6 0.0000 0.0000 0.0000 -1.3548 0.0000 34.1435
#
#
#
# Elastic Compliance Matrix: (Units=1/GPa)
#
#
# Indices 1 2 3 4 5 6 
#
# 1 0.013934 0.000194 -0.001620 0.000000 0.003114 0.000000
# 2 0.000194 0.005824 -0.001916 0.000000 -0.000887 0.000000
# 3 -0.001620 -0.001916 0.009301 0.000000 0.007264 0.000000
# 4 0.000000 0.000000 0.000000 0.017133 0.000000 0.000680
# 5 0.003114 -0.000887 0.007264 0.000000 0.028783 0.000000
# 6 0.000000 0.000000 0.000000 0.000680 0.000000 0.029315
#
#
# Mechanical properties :
#
#
# Convention : Reuss Voigt Hill
#
# Bulk Modulus (GPa) = 44.69418 62.27810 53.48614
# Shear Modulus (GPa) = 42.21781 50.57749 46.39765
#
# Velocity S-wave (km/s) = 4.10190 4.48968 4.30016
# Velocity P-wave (km/s) = 6.34402 7.19004 6.78024
#
# Compressibility (1/GPa) = 0.02237428
#
# Stress axis : x y z
#
# Youngs Moduli (GPa) = 71.76751 171.69216 107.51644
#
# Poissons Ratio (x) = -0.03329 0.17422
# Poissons Ratio (y) = -0.01392 0.20600
# Poissons Ratio (z) = 0.11629 0.32896
#
# Static dielectric constant tensor:
#      x y z
#    x 1.917870 0.000000 0.043520 
#    y 0.000000 1.989420 0.000000 
#    z 0.043520 0.000000 1.974460 
# 
# From -- ./inp_files/3740.got.cif
#   From: 2010.05.17/outbox.cif.g08.bks.cpg/sg9_2_cif.got.tgz:3740.got - 2010.06.03 20:04:27.
