data_PCOD9141340
_publ_section_title
;
Structure prediction by ZEFSAII (Michael W. Deem and Ramdas Pophale) SiO2 
 PCOD9141340
Probable space group: P 2/M
;
_chemical_formula_sum "Si O2"
_cell_formula_units_Z 26
_cell_length_a 25.877758
_cell_length_b 7.600948
_cell_length_c 12.174318
_cell_angle_alpha 90.000000
_cell_angle_beta 29.643943
_cell_angle_gamma 90.000000
_cell_volume 1184.406266
_symmetry_space_group_name_H-M "P 2/M"
_symmetry_group_IT_number 10
_symmetry_cell_setting 'monoclinic'
loop_
_space_group_symop_operation_xyz
x,y,z
-x,y,-z
-x,-y,-z
x,-y,z
loop_
_atom_site_type_symbol
_atom_site_label
_atom_site_fract_x
_atom_site_fract_y
_atom_site_fract_z
Si Si1 0.310140 0.286175 0.588415
Si Si2 0.512746 0.284203 0.349971
Si Si3 0.090878 0.695690 0.067059
Si Si4 0.290518 0.703088 0.150965
Si Si5 0.071570 0.199474 0.462883
Si Si6 0.000000 0.249882 0.000000
Si Si7 0.223158 0.282490 0.514629
O O1 0.306638 0.500000 0.599344
O O2 0.414667 0.229754 0.456007
O O3 0.294993 0.242976 0.487800
O O4 0.206253 0.225153 0.844769
O O5 0.500000 0.227096 0.500000
O O6 0.513986 0.500000 0.350690
O O7 0.618455 0.222676 0.094306
O O8 0.097177 0.500000 0.104639
O O9 0.004728 0.800296 0.291997
O O10 0.051147 0.675602 0.016110
O O11 0.319588 0.500000 0.115494
O O12 0.179529 0.710789 0.294586
O O13 0.271831 0.774047 0.308554
O O14 0.000000 0.279991 0.500000
O O15 0.097931 0.000000 0.381149
O O16 0.111066 0.190985 0.741668
O O17 0.205202 0.500000 0.544443
#
# Coordination Sequence:
#
# PCOD9141340 Si02
#       7
#     4   4   4   4   4   2   4
#     4   8  16  28  47  78 112 142 167 211 269 311
#     4   9  18  31  47  76 113 138 171 225 271 306
#     4  10  18  31  57  83 108 141 177 215 265 327
#     4  10  20  34  57  81 102 138 183 222 264 323
#     4  11  25  40  52  73 110 146 178 226 275 318
#     4  10  15  26  49  82 117 136 165 218 265 314
#     4   9  15  25  45  75 108 138 170 210 259 313
#
# _framework density 21.951927000000001
#
# number of rings (size 3 to 8) (size 9 to 14) (size 15 to 20)
#    0.000    2.462    1.538    2.769    2.154    1.846 
#    0.000    3.462    0.000    1.385    0.000    1.077 
#    0.000    0.000    0.000    0.000    0.000    0.000 
#
# Total GULP energy -144793.865693 kJ/mol
# GULP energy per Si atom -5568.994834 kJ/mol
# Density = 2.190196 g / cm^3
# Si number density = 21.951927 Si / 1000 Ang^3
#
#
#
# Elastic Constant Matrix: (Units=GPa)
#
#
# Indices 1 2 3 4 5 6 
#
# 1 156.7819 2.3809 109.0856 0.0000 -7.4134 0.0000
# 2 2.3809 48.5930 9.9268 0.0000 4.5331 0.0000
# 3 109.0856 9.9268 207.0849 0.0000 -2.1797 0.0000
# 4 0.0000 0.0000 0.0000 6.7615 0.0000 10.2220
# 5 -7.4134 4.5331 -2.1797 0.0000 30.4060 0.0000
# 6 0.0000 0.0000 0.0000 10.2220 0.0000 -25.7183
#
#
#
# Elastic Compliance Matrix: (Units=1/GPa)
#
#
# Indices 1 2 3 4 5 6 
#
# 1 0.010209 0.000407 -0.005376 0.000000 0.002043 0.000000
# 2 0.000407 0.021109 -0.001260 0.000000 -0.003138 0.000000
# 3 -0.005376 -0.001260 0.007715 0.000000 -0.000570 0.000000
# 4 0.000000 0.000000 0.000000 0.092385 0.000000 0.036719
# 5 0.002043 -0.003138 -0.000570 0.000000 0.033813 0.000000
# 6 0.000000 0.000000 0.000000 0.036719 0.000000 -0.024288
#
#
# Mechanical properties :
#
#
# Convention : Reuss Voigt Hill
#
# Bulk Modulus (GPa) = 37.62586 72.80516 55.21551
# Shear Modulus (GPa) = 30.81511 21.69427 26.25469
#
# Velocity S-wave (km/s) = 3.75074 3.14707 3.46209
# Velocity P-wave (km/s) = 5.99455 6.81492 6.41786
#
# Compressibility (1/GPa) = 0.02657747
#
# Stress axis : x y z
#
# Youngs Moduli (GPa) = 97.95163 47.37280 129.61520
#
# Poissons Ratio (x) = -0.01930 0.69679
# Poissons Ratio (y) = -0.03991 0.16325
# Poissons Ratio (z) = 0.52657 0.05967
#
# Static dielectric constant tensor:
#      x y z
#    x 1.775050 0.000000 0.026830 
#    y 0.000000 1.737380 0.000000 
#    z 0.026830 0.000000 1.801600 
# 
# From -- ./inp_files/57434.got.cif
#   From: 2010.05.17/outbox.cif.g08.bks.cpg/sg10_29_cif.got.tgz:57434.got - 2010.06.03 11:33:40.
