data_PCOD9141757
_publ_section_title
;
Structure prediction by ZEFSAII (Michael W. Deem and Ramdas Pophale) SiO2 
 PCOD9141757
Probable space group: P 2/M
;
_chemical_formula_sum "Si O2"
_cell_formula_units_Z 28
_cell_length_a 21.171204
_cell_length_b 7.302831
_cell_length_c 10.173295
_cell_angle_alpha 90.000000
_cell_angle_beta 140.098287
_cell_angle_gamma 90.000000
_cell_volume 1008.966006
_symmetry_space_group_name_H-M "P 2/M"
_symmetry_group_IT_number 10
_symmetry_cell_setting 'monoclinic'
loop_
_space_group_symop_operation_xyz
x,y,z
-x,y,-z
-x,-y,-z
x,-y,z
loop_
_atom_site_type_symbol
_atom_site_label
_atom_site_fract_x
_atom_site_fract_y
_atom_site_fract_z
Si Si1 0.570132 0.275204 0.494244
Si Si2 0.011818 0.216393 0.811840
Si Si3 0.120196 0.717399 0.634526
Si Si4 0.269547 0.721337 0.069048
Si Si5 0.383226 0.710781 0.702431
Si Si6 0.160529 0.221919 0.260762
Si Si7 0.670884 0.278857 0.112335
O O1 0.500000 0.218381 0.500000
O O2 0.566373 0.500000 0.484605
O O3 0.557505 0.210393 0.325833
O O4 0.678545 0.215113 0.717424
O O5 0.976489 0.245594 0.604546
O O6 0.921622 0.279653 0.762074
O O7 0.015911 0.000000 0.833910
O O8 0.112297 0.283923 0.043225
O O9 0.119406 0.500000 0.649642
O O10 0.833889 0.790411 0.154219
O O11 0.212722 0.768635 0.687783
O O12 0.265754 0.500000 0.070570
O O13 0.342759 0.766602 0.062359
O O14 0.415176 0.500000 0.764179
O O15 0.268339 0.709706 0.473371
O O16 0.385615 0.792405 0.851724
O O17 0.166400 0.000000 0.271559
O O18 0.663744 0.500000 0.105879
#
# Coordination Sequence:
#
# PCOD9141757 Si02
#       7
#     4   4   4   4   4   4   4
#     4   9  17  28  43  65  91 115 140 176 221 264
#     4   9  16  25  39  63  92 117 145 178 212 255
#     4   8  13  23  41  60  84 114 144 174 209 247
#     4   7  12  24  41  59  84 116 143 168 212 263
#     4  10  17  27  44  66  88 111 147 186 214 248
#     4   9  17  27  39  60  92 122 142 172 221 262
#     4   7  12  22  38  60  84 109 139 176 211 243
#
# _framework density 27.751182
#
# number of rings (size 3 to 8) (size 9 to 14) (size 15 to 20)
#    0.857    2.714    1.429    0.857    0.000    0.571 
#    0.000    2.143    0.000    6.429    0.000    6.000 
#    0.000    3.429    0.000    0.000    0.000    0.000 
#
# Total GULP energy -156207.243430 kJ/mol
# GULP energy per Si atom -5578.830122 kJ/mol
# Density = 2.768802 g / cm^3
# Si number density = 27.751182 Si / 1000 Ang^3
#
#
#
# Elastic Constant Matrix: (Units=GPa)
#
#
# Indices 1 2 3 4 5 6 
#
# 1 97.4393 -1.7003 52.2355 0.0000 -10.9002 0.0000
# 2 -1.7003 121.7660 -0.2563 0.0000 -0.6600 0.0000
# 3 52.2355 -0.2563 178.8618 0.0000 -28.1374 0.0000
# 4 0.0000 0.0000 0.0000 -61.7909 0.0000 -12.6627
# 5 -10.9002 -0.6600 -28.1374 0.0000 62.7115 0.0000
# 6 0.0000 0.0000 0.0000 -12.6627 0.0000 -9.8996
#
#
#
# Elastic Compliance Matrix: (Units=1/GPa)
#
#
# Indices 1 2 3 4 5 6 
#
# 1 0.012189 0.000166 -0.003471 0.000000 0.000563 0.000000
# 2 0.000166 0.008215 -0.000020 0.000000 0.000106 0.000000
# 3 -0.003471 -0.000020 0.007004 0.000000 0.002539 0.000000
# 4 0.000000 0.000000 0.000000 -0.021933 0.000000 0.028054
# 5 0.000563 0.000106 0.002539 0.000000 0.017184 0.000000
# 6 0.000000 0.000000 0.000000 0.028054 0.000000 -0.136899
#
#
# Mechanical properties :
#
#
# Convention : Reuss Voigt Hill
#
# Bulk Modulus (GPa) = 48.17260 55.40276 51.78768
# Shear Modulus (GPa) = -49.66785 21.39007 -14.13889
#
# Velocity S-wave (km/s) = -4.23514 2.77931 -2.25963
# Velocity P-wave (km/s) = 2.55319 5.50516 3.44877
#
# Compressibility (1/GPa) = 0.02075869
#
# Stress axis : x y z
#
# Youngs Moduli (GPa) = 82.03821 121.72370 142.77566
#
# Poissons Ratio (x) = -0.02020 0.49558
# Poissons Ratio (y) = -0.01362 0.00285
# Poissons Ratio (z) = 0.28476 0.00243
#
# Static dielectric constant tensor:
#      x y z
#    x 2.250810 0.000000 0.032230 
#    y 0.000000 2.028250 0.000000 
#    z 0.032230 0.000000 2.190980 
# 
# From -- ./inp_files/55574.got.cif
#   From: 2010.05.17/outbox.cif.g08.bks.cpg/sg10_28_cif.got.tgz:55574.got - 2010.06.03 11:33:40.
