data_PCOD9141317
_publ_section_title
;
Structure prediction by ZEFSAII (Michael W. Deem and Ramdas Pophale) SiO2 
 PCOD9141317
Probable space group: P 2/M
;
_chemical_formula_sum "Si O2"
_cell_formula_units_Z 20
_cell_length_a 12.731420
_cell_length_b 12.280328
_cell_length_c 10.855585
_cell_angle_alpha 90.000000
_cell_angle_beta 34.480316
_cell_angle_gamma 90.000000
_cell_volume 960.839616
_symmetry_space_group_name_H-M "P 2/M"
_symmetry_group_IT_number 10
_symmetry_cell_setting 'monoclinic'
loop_
_space_group_symop_operation_xyz
x,y,z
-x,y,-z
-x,-y,-z
x,-y,z
loop_
_atom_site_type_symbol
_atom_site_label
_atom_site_fract_x
_atom_site_fract_y
_atom_site_fract_z
Si Si1 0.849848 0.000000 0.528792
Si Si2 0.093643 0.000000 0.047769
Si Si3 0.094338 0.375070 0.621780
Si Si4 0.261353 0.780182 0.993630
Si Si5 0.456414 0.619019 0.399785
Si Si6 0.777738 0.217560 0.691416
O O1 0.735957 0.110694 0.652749
O O2 0.000000 0.000000 0.500000
O O3 0.945659 0.000000 0.303523
O O4 0.209768 0.889890 0.968574
O O5 0.000000 0.000000 0.000000
O O6 0.038562 0.500000 0.651840
O O7 0.236771 0.369570 0.596355
O O8 0.223759 0.328338 0.384969
O O9 0.920984 0.297771 0.819187
O O10 0.312671 0.795397 0.088240
O O11 0.426072 0.714368 0.773032
O O12 0.500000 0.617249 0.500000
O O13 0.506994 0.500000 0.296050
O O14 0.000000 0.212383 0.500000
#
# Coordination Sequence:
#
# PCOD9141317 Si02
#       6
#     2   2   4   4   4   4
#     4  10  14  36  57  85 123 160 202 258 303 367
#     4  12  24  36  64 100 124 165 216 255 313 378
#     4  10  21  37  62  94 122 158 208 259 312 372
#     4  11  22  40  63  91 123 163 207 261 316 372
#     4  10  24  42  60  86 126 171 211 256 312 378
#     4   9  17  32  62  89 118 162 204 252 315 371
#
# _framework density 20.815127
#
# number of rings (size 3 to 8) (size 9 to 14) (size 15 to 20)
#    0.000    1.800    6.000    0.600    2.800    5.200 
#    0.000    7.500    0.000    2.400    0.000    0.000 
#    0.000    0.000    0.000    0.000    0.000    0.000 
#
# Total GULP energy -111426.593419 kJ/mol
# GULP energy per Si atom -5571.329671 kJ/mol
# Density = 2.076775 g / cm^3
# Si number density = 20.815127 Si / 1000 Ang^3
#
#
#
# Elastic Constant Matrix: (Units=GPa)
#
#
# Indices 1 2 3 4 5 6 
#
# 1 61.2163 14.5502 0.9013 0.0000 4.3317 0.0000
# 2 14.5502 142.3628 25.1585 0.0000 -13.4462 0.0000
# 3 0.9013 25.1585 51.9587 0.0000 -0.4849 0.0000
# 4 0.0000 0.0000 0.0000 30.7057 0.0000 -5.9948
# 5 4.3317 -13.4462 -0.4849 0.0000 18.4231 0.0000
# 6 0.0000 0.0000 0.0000 -5.9948 0.0000 12.6723
#
#
#
# Elastic Compliance Matrix: (Units=1/GPa)
#
#
# Indices 1 2 3 4 5 6 
#
# 1 0.017325 -0.002473 0.000842 0.000000 -0.005856 0.000000
# 2 -0.002473 0.008638 -0.004076 0.000000 0.006778 0.000000
# 3 0.000842 -0.004076 0.021181 0.000000 -0.002616 0.000000
# 4 0.000000 0.000000 0.000000 0.035881 0.000000 0.016974
# 5 -0.005856 0.006778 -0.002616 0.000000 0.060535 0.000000
# 6 0.000000 0.000000 0.000000 0.016974 0.000000 0.086942
#
#
# Mechanical properties :
#
#
# Convention : Reuss Voigt Hill
#
# Bulk Modulus (GPa) = 27.98768 37.41755 32.70262
# Shear Modulus (GPa) = 19.69859 26.68874 23.19367
#
# Velocity S-wave (km/s) = 3.07963 3.58464 3.34169
# Velocity P-wave (km/s) = 5.11083 5.92858 5.53482
#
# Compressibility (1/GPa) = 0.03573000
#
# Stress axis : x y z
#
# Youngs Moduli (GPa) = 57.71939 115.77309 47.21271
#
# Poissons Ratio (x) = 0.28627 -0.03976
# Poissons Ratio (y) = 0.14272 0.19245
# Poissons Ratio (z) = -0.04860 0.47191
#
# Static dielectric constant tensor:
#      x y z
#    x 1.853620 0.000000 0.046890 
#    y 0.000000 1.889860 0.000000 
#    z 0.046890 0.000000 1.810800 
# 
# From -- ./inp_files/50984.got.cif
#   From: 2010.05.17/outbox.cif.g08.bks.cpg/sg10_26_cif.got.tgz:50984.got - 2010.06.03 11:33:40.
