data_PCOD9141391
_publ_section_title
;
Structure prediction by ZEFSAII (Michael W. Deem and Ramdas Pophale) SiO2 
 PCOD9141391
Probable space group: P 2/M
;
_chemical_formula_sum "Si O2"
_cell_formula_units_Z 22
_cell_length_a 5.472956
_cell_length_b 24.725166
_cell_length_c 7.854027
_cell_angle_alpha 90.000000
_cell_angle_beta 56.590380
_cell_angle_gamma 90.000000
_cell_volume 887.182186
_symmetry_space_group_name_H-M "P 2/M"
_symmetry_group_IT_number 10
_symmetry_cell_setting 'monoclinic'
loop_
_space_group_symop_operation_xyz
x,y,z
-x,y,-z
-x,-y,-z
x,-y,z
loop_
_atom_site_type_symbol
_atom_site_label
_atom_site_fract_x
_atom_site_fract_y
_atom_site_fract_z
Si Si1 0.143639 0.785167 0.764370
Si Si2 0.554250 0.620106 0.247386
Si Si3 0.355251 0.940701 0.367585
Si Si4 0.934440 0.336408 0.775375
Si Si5 0.640406 0.500000 0.133036
Si Si6 0.643495 0.174642 0.768082
O O1 0.486741 0.789839 0.681083
O O2 0.026452 0.725423 0.768647
O O3 0.988914 0.821778 0.680079
O O4 0.000000 0.802321 0.000000
O O5 0.263800 0.653031 0.312153
O O6 0.523239 0.555777 0.255207
O O7 0.762067 0.632386 0.326038
O O8 0.748638 0.639873 0.006907
O O9 0.500000 0.936324 0.500000
O O10 0.445767 0.887087 0.232810
O O11 0.000000 0.940570 0.500000
O O12 0.447237 0.000000 0.264437
O O13 0.500000 0.500000 0.000000
O O14 0.000000 0.500000 0.000000
O O15 0.500000 0.194347 0.000000
#
# Coordination Sequence:
#
# PCOD9141391 Si02
#       6
#     4   4   4   4   2   4
#     4  10  18  28  44  65  99 126 158 202 257 295
#     4  10  17  22  34  47  72 109 160 209 245 282
#     4  10  21  39  61  80 103 137 173 204 244 308
#     4  10  16  24  35  51  73 114 153 193 248 285
#     4  12  16  24  28  46  68 102 154 226 250 264
#     4  10  21  33  51  80 106 131 162 213 262 287
#
# _framework density 24.797611
#
# number of rings (size 3 to 8) (size 9 to 14) (size 15 to 20)
#    0.000    1.818    5.455    2.182    5.091    0.364 
#    0.000    0.000    0.000    6.545    0.000    0.000 
#    0.000    0.000    0.000    0.000    0.000    0.000 
#
# Total GULP energy -122889.922201 kJ/mol
# GULP energy per Si atom -5585.905555 kJ/mol
# Density = 2.474117 g / cm^3
# Si number density = 24.797611 Si / 1000 Ang^3
#
#
#
# Elastic Constant Matrix: (Units=GPa)
#
#
# Indices 1 2 3 4 5 6 
#
# 1 264.6860 51.5363 44.4025 0.0000 30.1505 0.0000
# 2 51.5363 178.9099 0.9099 0.0000 23.4023 0.0000
# 3 44.4025 0.9099 45.9824 0.0000 14.1708 0.0000
# 4 0.0000 0.0000 0.0000 9.0263 0.0000 18.8103
# 5 30.1505 23.4023 14.1708 0.0000 63.2835 0.0000
# 6 0.0000 0.0000 0.0000 18.8103 0.0000 60.7117
#
#
#
# Elastic Compliance Matrix: (Units=1/GPa)
#
#
# Indices 1 2 3 4 5 6 
#
# 1 0.004861 -0.001265 -0.004404 0.000000 -0.000862 0.000000
# 2 -0.001265 0.006218 0.001742 0.000000 -0.002087 0.000000
# 3 -0.004404 0.001742 0.027409 0.000000 -0.004684 0.000000
# 4 0.000000 0.000000 0.000000 0.312663 0.000000 -0.096872
# 5 -0.000862 -0.002087 -0.004684 0.000000 0.018033 0.000000
# 6 0.000000 0.000000 0.000000 -0.096872 0.000000 0.046485
#
#
# Mechanical properties :
#
#
# Convention : Reuss Voigt Hill
#
# Bulk Modulus (GPa) = 32.64358 75.91953 54.28156
# Shear Modulus (GPa) = 11.52779 52.78628 32.15703
#
# Velocity S-wave (km/s) = 2.15844 4.61877 3.60499
# Velocity P-wave (km/s) = 4.40504 7.68936 6.26620
#
# Compressibility (1/GPa) = 0.03063390
#
# Stress axis : x y z
#
# Youngs Moduli (GPa) = 205.70501 160.82513 36.48482
#
# Poissons Ratio (x) = 0.20347 0.16066
# Poissons Ratio (y) = 0.26025 -0.06355
# Poissons Ratio (z) = 0.90583 -0.28011
#
# Static dielectric constant tensor:
#      x y z
#    x 2.035390 0.000000 -0.058140 
#    y 0.000000 1.923610 0.000000 
#    z -0.058140 0.000000 2.008160 
# 
# From -- ./inp_files/15546.got.cif
#   From: 2010.05.17/outbox.cif.g08.bks.cpg/sg10_8_cif.got.tgz:15546.got - 2010.06.03 11:33:40.
