data_PCOD9141716
_publ_section_title
;
Structure prediction by ZEFSAII (Michael W. Deem and Ramdas Pophale) SiO2 
 PCOD9141716
Probable space group: P 2/M
;
_chemical_formula_sum "Si O2"
_cell_formula_units_Z 32
_cell_length_a 18.830174
_cell_length_b 8.105975
_cell_length_c 22.525101
_cell_angle_alpha 90.000000
_cell_angle_beta 147.470210
_cell_angle_gamma 90.000000
_cell_volume 1848.830524
_symmetry_space_group_name_H-M "P 2/M"
_symmetry_group_IT_number 10
_symmetry_cell_setting 'monoclinic'
loop_
_space_group_symop_operation_xyz
x,y,z
-x,y,-z
-x,-y,-z
x,-y,z
loop_
_atom_site_type_symbol
_atom_site_label
_atom_site_fract_x
_atom_site_fract_y
_atom_site_fract_z
Si Si1 0.963290 0.689445 0.389875
Si Si2 0.916172 0.701653 0.999253
Si Si3 0.629707 0.701609 0.626138
Si Si4 0.092942 0.699464 0.233664
Si Si5 0.087853 0.803243 0.365260
Si Si6 0.349554 0.198932 0.620188
Si Si7 0.373386 0.300819 0.239390
Si Si8 0.210077 0.810130 0.635263
O O1 0.000696 0.500000 0.425902
O O2 0.828802 0.722647 0.330841
O O3 0.975686 0.729983 0.329495
O O4 0.076668 0.798575 0.501185
O O5 0.917502 0.500000 0.999771
O O6 0.987351 0.755192 0.109910
O O7 0.764396 0.755390 0.886654
O O8 0.000000 0.752029 0.000000
O O9 0.500000 0.756665 0.500000
O O10 0.630156 0.500000 0.626580
O O11 0.763032 0.754754 0.687540
O O12 0.626278 0.755295 0.691910
O O13 0.092349 0.500000 0.233027
O O14 0.071035 0.755827 0.285235
O O15 0.230533 0.744760 0.492350
O O16 0.084512 0.000000 0.368241
O O17 0.492573 0.247865 0.697949
O O18 0.317636 0.258673 0.664781
O O19 0.341892 0.000000 0.616667
O O20 0.371173 0.500000 0.238314
O O21 0.239418 0.000000 0.669203
#
# Coordination Sequence:
#
# PCOD9141716 Si02
#       8
#     4   4   4   4   4   4   4   4
#     4  10  17  26  44  70  96 124 161 197 230 274
#     4   9  16  30  50  71  92 119 157 203 250 287
#     4   9  16  25  41  67  93 118 152 192 233 278
#     4  10  18  30  49  69  92 121 159 203 240 282
#     4  10  20  33  46  65  98 132 160 192 240 292
#     4   9  19  32  45  65  97 132 159 191 234 283
#     4  10  18  29  48  70  92 122 160 200 240 283
#     4   9  16  28  44  64  96 134 162 187 231 283
#
# _framework density 17.308240000000001
#
# number of rings (size 3 to 8) (size 9 to 14) (size 15 to 20)
#    0.000    2.500    1.250    4.125    0.000    4.000 
#    0.000    1.250    0.000    3.000    0.000    0.875 
#    0.000    7.000    0.000    0.000    0.000    0.000 
#
# Total GULP energy -178346.053925 kJ/mol
# GULP energy per Si atom -5573.314185 kJ/mol
# Density = 1.726885 g / cm^3
# Si number density = 17.308240 Si / 1000 Ang^3
#
#
#
# Elastic Constant Matrix: (Units=GPa)
#
#
# Indices 1 2 3 4 5 6 
#
# 1 192.1789 15.9962 75.6258 0.0000 -4.7294 0.0000
# 2 15.9962 20.6011 12.6284 0.0000 -1.4856 0.0000
# 3 75.6258 12.6284 103.8790 0.0000 -15.7293 0.0000
# 4 0.0000 0.0000 0.0000 15.0998 0.0000 7.1638
# 5 -4.7294 -1.4856 -15.7293 0.0000 4.7795 0.0000
# 6 0.0000 0.0000 0.0000 7.1638 0.0000 41.2207
#
#
#
# Elastic Compliance Matrix: (Units=1/GPa)
#
#
# Indices 1 2 3 4 5 6 
#
# 1 0.008575 -0.002532 -0.009506 0.000000 -0.023587 0.000000
# 2 -0.002532 0.053407 -0.005014 0.000000 -0.002405 0.000000
# 3 -0.009506 -0.005014 0.030889 0.000000 0.090691 0.000000
# 4 0.000000 0.000000 0.000000 0.072177 0.000000 -0.012544
# 5 -0.023587 -0.002405 0.090691 0.000000 0.483605 0.000000
# 6 0.000000 0.000000 0.000000 -0.012544 0.000000 0.026440
#
#
# Mechanical properties :
#
#
# Convention : Reuss Voigt Hill
#
# Bulk Modulus (GPa) = 17.01627 58.35110 37.68368
# Shear Modulus (GPa) = 6.86074 26.38057 16.62065
#
# Velocity S-wave (km/s) = 1.99310 3.90829 3.10219
# Velocity P-wave (km/s) = 3.89221 7.35883 5.88649
#
# Compressibility (1/GPa) = 0.05876729
#
# Stress axis : x y z
#
# Youngs Moduli (GPa) = 116.62305 18.72425 32.37370
#
# Poissons Ratio (x) = 0.04740 0.30775
# Poissons Ratio (y) = 0.29524 0.16232
# Poissons Ratio (z) = 1.10865 0.09388
#
# Static dielectric constant tensor:
#      x y z
#    x 1.615400 0.000000 0.005370 
#    y 0.000000 1.614650 0.000000 
#    z 0.005370 0.000000 1.563490 
# 
# From -- ./inp_files/52786.got.cif
#   From: 2010.05.17/outbox.cif.g08.bks.cpg/sg10_27_cif.got.tgz:52786.got - 2010.06.03 11:33:40.
