data_PCOD9141989
_publ_section_title
;
Structure prediction by ZEFSAII (Michael W. Deem and Ramdas Pophale) SiO2 
 PCOD9141989
Probable space group: P 2/M
;
_chemical_formula_sum "Si O2"
_cell_formula_units_Z 32
_cell_length_a 14.704251
_cell_length_b 7.462048
_cell_length_c 25.374744
_cell_angle_alpha 90.000000
_cell_angle_beta 30.192776
_cell_angle_gamma 90.000000
_cell_volume 1400.211778
_symmetry_space_group_name_H-M "P 2/M"
_symmetry_group_IT_number 10
_symmetry_cell_setting 'monoclinic'
loop_
_space_group_symop_operation_xyz
x,y,z
-x,y,-z
-x,-y,-z
x,-y,z
loop_
_atom_site_type_symbol
_atom_site_label
_atom_site_fract_x
_atom_site_fract_y
_atom_site_fract_z
Si Si1 0.924274 0.793917 0.482923
Si Si2 0.011189 0.785286 0.165575
Si Si3 0.553228 0.784284 0.201345
Si Si4 0.065751 0.218455 0.023862
Si Si5 0.465044 0.218587 0.359369
Si Si6 0.567374 0.285320 0.023110
Si Si7 0.630489 0.780564 0.387783
Si Si8 0.279843 0.705245 0.253020
O O1 0.740015 0.720333 0.550185
O O2 0.000000 0.713675 0.500000
O O3 0.085702 0.792317 0.359638
O O4 0.877511 0.000000 0.519753
O O5 0.980106 0.720009 0.121090
O O6 0.841058 0.723219 0.285468
O O7 0.998487 0.000000 0.170557
O O8 0.218947 0.749051 0.076597
O O9 0.572680 0.730753 0.252350
O O10 0.377105 0.713161 0.261090
O O11 0.543415 0.000000 0.205542
O O12 0.723911 0.731038 0.081077
O O13 0.050703 0.000000 0.030652
O O14 0.000000 0.280997 0.000000
O O15 0.548880 0.277631 0.372350
O O16 0.467496 0.000000 0.360679
O O17 0.550222 0.500000 0.032949
O O18 0.427234 0.217344 0.138140
O O19 0.500000 0.220287 0.000000
O O20 0.500000 0.720522 0.500000
O O21 0.628653 0.000000 0.389655
O O22 0.244935 0.500000 0.255873
#
# Coordination Sequence:
#
# PCOD9141989 Si02
#       8
#     4   4   4   4   4   4   4   4
#     4  10  19  33  54  80 110 147 184 219 266 327
#     4  10  19  33  57  86 109 137 183 229 269 318
#     4  10  17  30  52  75 105 139 175 219 266 322
#     4   9  16  26  47  80 110 136 172 220 270 321
#     4   9  17  30  50  75 106 145 181 211 260 327
#     4  10  23  42  59  76 107 151 189 224 277 338
#     4   9  18  32  51  80 115 143 171 218 273 317
#     4  11  22  35  53  77 106 141 181 227 277 322
#
# _framework density 22.853686
#
# number of rings (size 3 to 8) (size 9 to 14) (size 15 to 20)
#    0.000    2.250    2.500    1.125    0.000    5.000 
#    0.000    1.250    0.000    4.875    0.000    0.000 
#    0.000    0.000    0.000    0.000    0.000    0.000 
#
# Total GULP energy -178604.276513 kJ/mol
# GULP energy per Si atom -5581.383641 kJ/mol
# Density = 2.280167 g / cm^3
# Si number density = 22.853686 Si / 1000 Ang^3
#
#
#
# Elastic Constant Matrix: (Units=GPa)
#
#
# Indices 1 2 3 4 5 6 
#
# 1 97.6117 -3.4253 56.5411 0.0000 8.3649 0.0000
# 2 -3.4253 63.0413 3.2687 0.0000 1.7966 0.0000
# 3 56.5411 3.2687 181.7401 0.0000 6.7981 0.0000
# 4 0.0000 0.0000 0.0000 -7.6119 0.0000 -1.2883
# 5 8.3649 1.7966 6.7981 0.0000 33.4708 0.0000
# 6 0.0000 0.0000 0.0000 -1.2883 0.0000 10.0822
#
#
#
# Elastic Compliance Matrix: (Units=1/GPa)
#
#
# Indices 1 2 3 4 5 6 
#
# 1 0.012741 0.000964 -0.003890 0.000000 -0.002446 0.000000
# 2 0.000964 0.015972 -0.000550 0.000000 -0.000986 0.000000
# 3 -0.003890 -0.000550 0.006736 0.000000 -0.000366 0.000000
# 4 0.000000 0.000000 0.000000 -0.128593 0.000000 -0.016432
# 5 -0.002446 -0.000986 -0.000366 0.000000 0.030615 0.000000
# 6 0.000000 0.000000 0.000000 -0.016432 0.000000 0.097085
#
#
# Mechanical properties :
#
#
# Convention : Reuss Voigt Hill
#
# Bulk Modulus (GPa) = 35.09212 50.57358 42.83285
# Shear Modulus (GPa) = 98.02400 26.25547 62.13973
#
# Velocity S-wave (km/s) = 6.55630 3.39315 5.22008
# Velocity P-wave (km/s) = 8.52654 6.12606 7.42397
#
# Compressibility (1/GPa) = 0.02849642
#
# Stress axis : x y z
#
# Youngs Moduli (GPa) = 78.48540 62.61108 148.45364
#
# Poissons Ratio (x) = -0.06034 0.57745
# Poissons Ratio (y) = -0.07563 0.08168
# Poissons Ratio (z) = 0.30529 0.03445
#
# Static dielectric constant tensor:
#      x y z
#    x 1.834990 0.000000 -0.007600 
#    y 0.000000 1.905710 0.000000 
#    z -0.007600 0.000000 1.869820 
# 
# From -- ./inp_files/66607.got.cif
#   From: 2010.05.17/outbox.cif.g08.bks.cpg/sg10_34_cif.got.tgz:66607.got - 2010.06.03 11:33:40.
