data_PCOD9141824
_publ_section_title
;
Structure prediction by ZEFSAII (Michael W. Deem and Ramdas Pophale) SiO2 
 PCOD9141824
Probable space group: P 2/M
;
_chemical_formula_sum "Si O2"
_cell_formula_units_Z 32
_cell_length_a 13.769423
_cell_length_b 19.269604
_cell_length_c 13.769424
_cell_angle_alpha 90.000000
_cell_angle_beta 147.412853
_cell_angle_gamma 90.000000
_cell_volume 1967.686778
_symmetry_space_group_name_H-M "P 2/M"
_symmetry_group_IT_number 10
_symmetry_cell_setting 'monoclinic'
loop_
_space_group_symop_operation_xyz
x,y,z
-x,y,-z
-x,-y,-z
x,-y,z
loop_
_atom_site_type_symbol
_atom_site_label
_atom_site_fract_x
_atom_site_fract_y
_atom_site_fract_z
Si Si1 0.599318 0.420923 0.984778
Si Si2 0.242501 0.182651 0.362090
Si Si3 0.211188 0.420308 0.211187
Si Si4 0.112485 0.668036 0.308244
Si Si5 0.637910 0.182651 0.757499
Si Si6 0.984778 0.579078 0.599318
Si Si7 0.938564 0.079035 0.061436
Si Si8 0.308244 0.331964 0.112485
O O1 0.541383 0.500000 0.911968
O O2 0.581026 0.368898 0.879798
O O3 0.500000 0.399744 0.000000
O O4 0.811794 0.423755 0.188207
O O5 0.185570 0.254194 0.364412
O O6 0.435602 0.159277 0.564398
O O7 0.268607 0.197836 0.268607
O O8 0.091884 0.123685 0.243966
O O9 0.269354 0.500000 0.269354
O O10 0.214694 0.379015 0.314926
O O11 0.314926 0.379015 0.214694
O O12 0.000000 0.421358 0.000000
O O13 0.120202 0.631101 0.418974
O O14 0.902350 0.670557 0.097650
O O15 0.635588 0.254194 0.814430
O O16 0.756034 0.123685 0.908116
O O17 0.911968 0.500000 0.541383
O O18 0.000000 0.600257 0.500000
O O19 0.919952 0.000000 0.080049
O O20 0.000000 0.075874 0.000000
#
# Coordination Sequence:
#
# PCOD9141824 Si02
#       8
#     4   4   4   4   4   4   4   4
#     4   9  18  31  46  65  90 126 170 213 255 295
#     4  10  19  30  47  71 100 132 164 197 242 291
#     4   9  16  24  41  67  89 119 165 208 245 290
#     4  10  17  28  47  66  93 129 165 205 249 295
#     4  10  19  30  47  71 100 132 164 197 242 291
#     4   9  18  31  46  65  90 126 170 213 255 295
#     4   9  18  32  50  70  98 134 166 196 236 289
#     4  10  17  28  47  66  93 129 165 205 249 295
#
# _framework density 16.262751000000002
#
# number of rings (size 3 to 8) (size 9 to 14) (size 15 to 20)
#    0.000    2.500    2.500    0.750    0.000    4.500 
#    0.000    2.500    0.000    3.000    0.000    0.000 
#    0.000    1.000    0.500    0.000    0.000    0.000 
#
# Total GULP energy -178491.776545 kJ/mol
# GULP energy per Si atom -5577.868017 kJ/mol
# Density = 1.622574 g / cm^3
# Si number density = 16.262751 Si / 1000 Ang^3
#
#
#
# Elastic Constant Matrix: (Units=GPa)
#
#
# Indices 1 2 3 4 5 6 
#
# 1 86.3859 63.9614 30.0883 0.0000 -7.4659 0.0000
# 2 63.9614 147.1945 46.8197 0.0000 -4.9484 0.0000
# 3 30.0883 46.8197 57.9241 0.0000 -0.7503 0.0000
# 4 0.0000 0.0000 0.0000 2.2792 0.0000 -3.4329
# 5 -7.4659 -4.9484 -0.7503 0.0000 17.1561 0.0000
# 6 0.0000 0.0000 0.0000 -3.4329 0.0000 14.1711
#
#
#
# Elastic Compliance Matrix: (Units=1/GPa)
#
#
# Indices 1 2 3 4 5 6 
#
# 1 0.018314 -0.006403 -0.004260 0.000000 0.005937 0.000000
# 2 -0.006403 0.011477 -0.005947 0.000000 0.000264 0.000000
# 3 -0.004260 -0.005947 0.024251 0.000000 -0.002509 0.000000
# 4 0.000000 0.000000 0.000000 0.690811 0.000000 0.167346
# 5 0.005937 0.000264 -0.002509 0.000000 0.060838 0.000000
# 6 0.000000 0.000000 0.000000 0.167346 0.000000 0.111105
#
#
# Mechanical properties :
#
#
# Convention : Reuss Voigt Hill
#
# Bulk Modulus (GPa) = 48.02914 63.69371 55.86142
# Shear Modulus (GPa) = 5.22489 16.76362 10.99425
#
# Velocity S-wave (km/s) = 1.79437 3.21409 2.60290
# Velocity P-wave (km/s) = 5.82154 7.28177 6.59221
#
# Compressibility (1/GPa) = 0.02082070
#
# Stress axis : x y z
#
# Youngs Moduli (GPa) = 54.60259 87.13287 41.23480
#
# Poissons Ratio (x) = 0.55795 0.17568
# Poissons Ratio (y) = 0.34964 0.24522
# Poissons Ratio (z) = 0.23263 0.51817
#
# Static dielectric constant tensor:
#      x y z
#    x 1.532030 0.000000 0.017250 
#    y 0.000000 1.521670 0.000000 
#    z 0.017250 0.000000 1.591790 
# 
# From -- ./inp_files/67748.got.cif
#   From: 2010.05.17/outbox.cif.g08.bks.cpg/sg10_34_cif.got.tgz:67748.got - 2010.06.03 11:33:40.
