data_PCOD9141594
_publ_section_title
;
Structure prediction by ZEFSAII (Michael W. Deem and Ramdas Pophale) SiO2 
 PCOD9141594
Probable space group: P 2/M
;
_chemical_formula_sum "Si O2"
_cell_formula_units_Z 32
_cell_length_a 35.449215
_cell_length_b 8.884188
_cell_length_c 23.594828
_cell_angle_alpha 90.000000
_cell_angle_beta 162.988180
_cell_angle_gamma 90.000000
_cell_volume 2174.049656
_symmetry_space_group_name_H-M "P 2/M"
_symmetry_group_IT_number 10
_symmetry_cell_setting 'monoclinic'
loop_
_space_group_symop_operation_xyz
x,y,z
-x,y,-z
-x,-y,-z
x,-y,z
loop_
_atom_site_type_symbol
_atom_site_label
_atom_site_fract_x
_atom_site_fract_y
_atom_site_fract_z
Si Si1 0.569268 0.680287 0.180550
Si Si2 0.009279 0.318930 0.946999
Si Si3 0.186430 0.180192 0.422215
Si Si4 0.329818 0.180960 0.793415
Si Si5 0.472938 0.824957 0.393410
Si Si6 0.939832 0.820372 0.637101
Si Si7 0.209828 0.320614 0.036241
Si Si8 0.737226 0.680576 0.756931
O O1 0.566832 0.500000 0.174934
O O2 0.673990 0.740442 0.375552
O O3 0.623167 0.748541 0.198751
O O4 0.424641 0.746853 0.975996
O O5 0.994895 0.500000 0.918975
O O6 0.900255 0.236869 0.753838
O O7 0.000000 0.284568 0.000000
O O8 0.148702 0.276546 0.121702
O O9 0.111554 0.220351 0.373438
O O10 0.202580 0.000000 0.445187
O O11 0.177272 0.213945 0.574353
O O12 0.346379 0.000000 0.815489
O O13 0.500000 0.810737 0.500000
O O14 0.336422 0.744897 0.187829
O O15 0.598408 0.752142 0.545239
O O16 0.463623 0.000000 0.366121
O O17 0.959348 0.000000 0.664970
O O18 0.074330 0.740138 0.819132
O O19 0.212972 0.500000 0.038251
O O20 0.220352 0.275642 0.118099
O O21 0.723515 0.500000 0.736669
#
# Coordination Sequence:
#
# PCOD9141594 Si02
#       8
#     4   4   4   4   4   4   4   4
#     4  10  17  25  39  56  75 101 136 172 205 244
#     4  10  20  33  47  63  83 107 138 178 219 254
#     4  10  19  30  43  57  77 106 139 175 212 249
#     4   9  16  26  37  54  79 106 135 167 203 240
#     4   9  17  27  40  57  77 102 132 167 204 245
#     4   9  17  26  38  56  80 109 137 168 202 241
#     4  10  17  25  40  59  80 106 136 170 203 243
#     4   9  17  29  42  58  78 103 134 170 209 248
#
# _framework density 14.719075999999999
#
# number of rings (size 3 to 8) (size 9 to 14) (size 15 to 20)
#    0.000    2.500    1.250    4.125    0.000    5.250 
#    0.000    0.000    0.000    0.000    0.000    0.000 
#    0.000    0.000    0.000    1.125    0.000   21.750 
#
# Total GULP energy -178222.473554 kJ/mol
# GULP energy per Si atom -5569.452299 kJ/mol
# Density = 1.468557 g / cm^3
# Si number density = 14.719076 Si / 1000 Ang^3
#
#
#
# Elastic Constant Matrix: (Units=GPa)
#
#
# Indices 1 2 3 4 5 6 
#
# 1 33.9607 18.5684 36.8150 0.0000 3.9299 0.0000
# 2 18.5684 56.8973 64.5506 0.0000 1.8922 0.0000
# 3 36.8150 64.5506 167.5159 0.0000 9.2710 0.0000
# 4 0.0000 0.0000 0.0000 45.8048 0.0000 -6.0405
# 5 3.9299 1.8922 9.2710 0.0000 11.2024 0.0000
# 6 0.0000 0.0000 0.0000 -6.0405 0.0000 12.9041
#
#
#
# Elastic Compliance Matrix: (Units=1/GPa)
#
#
# Indices 1 2 3 4 5 6 
#
# 1 0.040249 -0.005931 -0.006114 0.000000 -0.008058 0.000000
# 2 -0.005931 0.032361 -0.011506 0.000000 0.006137 0.000000
# 3 -0.006114 -0.011506 0.012074 0.000000 -0.005904 0.000000
# 4 0.000000 0.000000 0.000000 0.023268 0.000000 0.010892
# 5 -0.008058 0.006137 -0.005904 0.000000 0.095943 0.000000
# 6 0.000000 0.000000 0.000000 0.010892 0.000000 0.082594
#
#
# Mechanical properties :
#
#
# Convention : Reuss Voigt Hill
#
# Bulk Modulus (GPa) = 26.60879 55.36022 40.98451
# Shear Modulus (GPa) = 14.44595 23.21158 18.82877
#
# Velocity S-wave (km/s) = 3.13620 3.97542 3.58048
# Velocity P-wave (km/s) = 5.58850 7.66582 6.70806
#
# Compressibility (1/GPa) = 0.03758157
#
# Stress axis : x y z
#
# Youngs Moduli (GPa) = 24.84532 30.90159 82.82352
#
# Poissons Ratio (x) = 0.18326 0.50641
# Poissons Ratio (y) = 0.14735 0.95298
# Poissons Ratio (z) = 0.15191 0.35556
#
# Static dielectric constant tensor:
#      x y z
#    x 1.451150 0.000000 -0.000620 
#    y 0.000000 1.488620 0.000000 
#    z -0.000620 0.000000 1.526640 
# 
# From -- ./inp_files/70040.got.cif
#   From: 2010.05.17/outbox.cif.g08.bks.cpg/sg10_36_cif.got.tgz:70040.got - 2010.06.03 11:33:40.
