data_PCOD9141397
_publ_section_title
;
Structure prediction by ZEFSAII (Michael W. Deem and Ramdas Pophale) SiO2 
 PCOD9141397
Probable space group: P 2/M
;
_chemical_formula_sum "Si O2"
_cell_formula_units_Z 20
_cell_length_a 8.463623
_cell_length_b 14.150202
_cell_length_c 12.877449
_cell_angle_alpha 90.000000
_cell_angle_beta 146.900798
_cell_angle_gamma 90.000000
_cell_volume 842.196138
_symmetry_space_group_name_H-M "P 2/M"
_symmetry_group_IT_number 10
_symmetry_cell_setting 'monoclinic'
loop_
_space_group_symop_operation_xyz
x,y,z
-x,y,-z
-x,-y,-z
x,-y,z
loop_
_atom_site_type_symbol
_atom_site_label
_atom_site_fract_x
_atom_site_fract_y
_atom_site_fract_z
Si Si1 0.216195 0.000000 0.718393
Si Si2 0.341489 0.601618 0.702822
Si Si3 0.197666 0.398920 0.210604
Si Si4 0.156060 0.000000 0.280516
Si Si5 0.344434 0.804503 0.718775
Si Si6 0.720282 0.193698 0.716177
O O1 0.385352 0.099062 0.804825
O O2 0.000000 0.000000 0.500000
O O3 0.020437 0.000000 0.711355
O O4 0.438297 0.500000 0.801340
O O5 0.483853 0.606980 0.665916
O O6 0.412470 0.699608 0.799777
O O7 0.000000 0.598480 0.500000
O O8 0.171476 0.500000 0.253489
O O9 0.130730 0.295714 0.217748
O O10 0.000000 0.404727 0.000000
O O11 0.500000 0.000000 0.500000
O O12 0.096840 0.097905 0.188944
O O13 0.539615 0.810696 0.723045
O O14 0.000000 0.801926 0.500000
O O15 0.500000 0.190139 0.500000
#
# Coordination Sequence:
#
# PCOD9141397 Si02
#       6
#     2   4   4   2   4   4
#     4  10  16  24  40  62  91 125 158 192 239 294
#     4   8  14  25  43  68  93 117 153 201 242 280
#     4   9  18  32  49  72 103 136 167 203 252 307
#     4  10  18  28  43  68 104 133 161 208 261 300
#     4   9  15  24  40  64  92 122 156 194 236 287
#     4  10  18  29  47  73 102 130 165 210 256 297
#
# _framework density 23.747436
#
# number of rings (size 3 to 8) (size 9 to 14) (size 15 to 20)
#    0.000    2.800    0.000    5.400    0.000    0.400 
#    0.000    0.500    0.000    3.600    0.000   56.000 
#    0.000  148.800    0.000    0.000    0.000    0.000 
#
# Total GULP energy -111453.178225 kJ/mol
# GULP energy per Si atom -5572.658911 kJ/mol
# Density = 2.369339 g / cm^3
# Si number density = 23.747436 Si / 1000 Ang^3
#
#
#
# Elastic Constant Matrix: (Units=GPa)
#
#
# Indices 1 2 3 4 5 6 
#
# 1 89.7852 52.8421 12.6047 0.0000 12.6113 0.0000
# 2 52.8421 355.7470 7.9790 0.0000 -3.6183 0.0000
# 3 12.6047 7.9790 43.8099 0.0000 9.8058 0.0000
# 4 0.0000 0.0000 0.0000 -47.5268 0.0000 -52.5499
# 5 12.6113 -3.6183 9.8058 0.0000 20.0903 0.0000
# 6 0.0000 0.0000 0.0000 -52.5499 0.0000 -29.8006
#
#
#
# Elastic Compliance Matrix: (Units=1/GPa)
#
#
# Indices 1 2 3 4 5 6 
#
# 1 0.013758 -0.002087 -0.001752 0.000000 -0.008157 0.000000
# 2 -0.002087 0.003152 -0.000442 0.000000 0.002094 0.000000
# 3 -0.001752 -0.000442 0.026025 0.000000 -0.011682 0.000000
# 4 0.000000 0.000000 0.000000 0.022154 0.000000 -0.039066
# 5 -0.008157 0.002094 -0.011682 0.000000 0.060974 0.000000
# 6 0.000000 0.000000 0.000000 -0.039066 0.000000 0.035331
#
#
# Mechanical properties :
#
#
# Convention : Reuss Voigt Hill
#
# Bulk Modulus (GPa) = 29.09376 70.68818 49.89097
# Shear Modulus (GPa) = 27.56095 16.28035 21.92065
#
# Velocity S-wave (km/s) = 3.41043 2.62117 3.04151
# Velocity P-wave (km/s) = 5.27124 6.24435 5.77832
#
# Compressibility (1/GPa) = 0.03437164
#
# Stress axis : x y z
#
# Youngs Moduli (GPa) = 72.68584 317.23543 38.42394
#
# Poissons Ratio (x) = 0.66214 0.06734
# Poissons Ratio (y) = 0.15171 0.01699
# Poissons Ratio (z) = 0.12738 0.14029
#
# Static dielectric constant tensor:
#      x y z
#    x 1.843950 0.000000 0.042780 
#    y 0.000000 2.085380 0.000000 
#    z 0.042780 0.000000 1.903920 
# 
# From -- ./inp_files/61459.got.cif
#   From: 2010.05.17/outbox.cif.g08.bks.cpg/sg10_31_cif.got.tgz:61459.got - 2010.06.03 11:33:40.
