data_PCOD9141499
_publ_section_title
;
Structure prediction by ZEFSAII (Michael W. Deem and Ramdas Pophale) SiO2 
 PCOD9141499
Probable space group: P 2/M
;
_chemical_formula_sum "Si O2"
_cell_formula_units_Z 30
_cell_length_a 14.352052
_cell_length_b 9.475888
_cell_length_c 24.780981
_cell_angle_alpha 90.000000
_cell_angle_beta 27.887286
_cell_angle_gamma 90.000000
_cell_volume 1576.344258
_symmetry_space_group_name_H-M "P 2/M"
_symmetry_group_IT_number 10
_symmetry_cell_setting 'monoclinic'
loop_
_space_group_symop_operation_xyz
x,y,z
-x,y,-z
-x,-y,-z
x,-y,z
loop_
_atom_site_type_symbol
_atom_site_label
_atom_site_fract_x
_atom_site_fract_y
_atom_site_fract_z
Si Si1 0.979319 0.830764 0.866872
Si Si2 0.599154 0.653999 0.067774
Si Si3 0.192455 0.338688 0.342078
Si Si4 0.589308 0.665849 0.658634
Si Si5 0.196495 0.831992 0.863410
Si Si6 0.500000 0.740761 0.000000
Si Si7 0.949399 0.835088 0.762887
Si Si8 0.873199 0.829972 0.441096
O O1 0.015396 0.776017 0.787427
O O2 0.138000 0.796523 0.831533
O O3 0.965619 0.000000 0.871764
O O4 0.764648 0.770763 0.993516
O O5 0.684527 0.500000 0.037041
O O6 0.399625 0.672927 0.203669
O O7 0.540931 0.659180 0.034432
O O8 0.115441 0.500000 0.372975
O O9 0.251215 0.322630 0.374286
O O10 0.046658 0.222988 0.392392
O O11 0.561778 0.500000 0.661512
O O12 0.384872 0.738179 0.782390
O O13 0.676385 0.752725 0.563589
O O14 0.241832 0.000000 0.844141
O O15 0.000000 0.806540 0.000000
O O16 0.291298 0.821731 0.116846
O O17 0.056170 0.779707 0.654572
O O18 0.998036 0.000000 0.738747
O O19 0.853245 0.000000 0.452455
#
# Coordination Sequence:
#
# PCOD9141499 Si02
#       8
#     4   4   4   4   4   2   4   4
#     4   9  19  35  55  80 113 147 181 227 279 330
#     4  10  19  30  49  80 113 145 182 222 269 323
#     4  10  21  37  54  78 114 151 185 223 273 333
#     4  11  24  40  59  81 110 150 188 227 279 336
#     4  10  21  39  63  89 113 140 181 234 283 324
#     4  10  16  30  50  76 111 150 183 224 265 324
#     4   9  18  32  53  81 112 147 186 225 274 330
#     4  11  22  37  57  83 112 147 189 232 274 324
#
# _framework density 19.031375000000001
#
# number of rings (size 3 to 8) (size 9 to 14) (size 15 to 20)
#    0.000    2.000    1.333    2.400    0.000    4.533 
#    0.000    1.333    0.000    4.000    0.000    0.000 
#    0.000    0.000    0.000    0.000    0.000    0.000 
#
# Total GULP energy -167316.651149 kJ/mol
# GULP energy per Si atom -5577.221705 kJ/mol
# Density = 1.898806 g / cm^3
# Si number density = 19.031375 Si / 1000 Ang^3
#
#
#
# Elastic Constant Matrix: (Units=GPa)
#
#
# Indices 1 2 3 4 5 6 
#
# 1 57.8548 29.3914 19.7226 0.0000 4.8407 0.0000
# 2 29.3914 57.7480 33.8189 0.0000 3.5266 0.0000
# 3 19.7226 33.8189 85.5142 0.0000 24.5833 0.0000
# 4 0.0000 0.0000 0.0000 19.3144 0.0000 1.4913
# 5 4.8407 3.5266 24.5833 0.0000 29.3676 0.0000
# 6 0.0000 0.0000 0.0000 1.4913 0.0000 15.7697
#
#
#
# Elastic Compliance Matrix: (Units=1/GPa)
#
#
# Indices 1 2 3 4 5 6 
#
# 1 0.023487 -0.011763 -0.000077 0.000000 -0.002395 0.000000
# 2 -0.011763 0.029336 -0.011106 0.000000 0.007713 0.000000
# 3 -0.000077 -0.011106 0.020698 0.000000 -0.015979 0.000000
# 4 0.000000 0.000000 0.000000 0.052156 0.000000 -0.004932
# 5 -0.002395 0.007713 -0.015979 0.000000 0.046896 0.000000
# 6 0.000000 0.000000 0.000000 -0.004932 0.000000 0.063879
#
#
# Mechanical properties :
#
#
# Convention : Reuss Voigt Hill
#
# Bulk Modulus (GPa) = 36.19289 40.77585 38.48437
# Shear Modulus (GPa) = 17.14956 20.76928 18.95942
#
# Velocity S-wave (km/s) = 3.00512 3.30709 3.15972
# Velocity P-wave (km/s) = 5.57672 6.00455 5.79458
#
# Compressibility (1/GPa) = 0.02762974
#
# Stress axis : x y z
#
# Youngs Moduli (GPa) = 42.57706 34.08723 48.31483
#
# Poissons Ratio (x) = 0.40096 0.00370
# Poissons Ratio (y) = 0.50082 0.53660
# Poissons Ratio (z) = 0.00326 0.37858
#
# Static dielectric constant tensor:
#      x y z
#    x 1.683690 0.000000 0.033330 
#    y 0.000000 1.642090 0.000000 
#    z 0.033330 0.000000 1.673680 
# 
# From -- ./inp_files/93045.got.cif
#   From: 2010.05.17/outbox.cif.g08.bks.cpg/sg10_47_cif.got.tgz:93045.got - 2010.06.03 11:33:40.
