data_PCOD9141422
_publ_section_title
;
Structure prediction by ZEFSAII (Michael W. Deem and Ramdas Pophale) SiO2 
 PCOD9141422
Probable space group: P 2/M
;
_chemical_formula_sum "Si O2"
_cell_formula_units_Z 20
_cell_length_a 6.866845
_cell_length_b 22.725252
_cell_length_c 5.487256
_cell_angle_alpha 90.000000
_cell_angle_beta 77.915549
_cell_angle_gamma 90.000000
_cell_volume 837.315271
_symmetry_space_group_name_H-M "P 2/M"
_symmetry_group_IT_number 10
_symmetry_cell_setting 'monoclinic'
loop_
_space_group_symop_operation_xyz
x,y,z
-x,y,-z
-x,-y,-z
x,-y,z
loop_
_atom_site_type_symbol
_atom_site_label
_atom_site_fract_x
_atom_site_fract_y
_atom_site_fract_z
Si Si1 0.292082 0.930581 0.293325
Si Si2 0.762888 0.626894 0.073139
Si Si3 0.253444 0.883521 0.804372
Si Si4 0.375350 0.757903 0.784636
Si Si5 0.756823 0.432428 0.574863
O O1 0.192550 0.916855 0.576695
O O2 0.507156 0.898243 0.247765
O O3 0.325168 0.000000 0.259965
O O4 0.183703 0.906329 0.083398
O O5 0.721164 0.694740 0.142667
O O6 0.691589 0.589016 0.324145
O O7 0.693064 0.607646 0.821428
O O8 0.000000 0.618233 0.000000
O O9 0.230542 0.813593 0.789253
O O10 0.500000 0.754776 0.500000
O O11 0.500000 0.770330 0.000000
O O12 0.701055 0.500000 0.635529
O O13 0.000000 0.430317 0.500000
#
# Coordination Sequence:
#
# PCOD9141422 Si02
#       5
#     4   4   4   4   4
#     4  10  16  25  41  63  96 124 156 210 258 288
#     4  10  21  35  55  82 105 131 172 214 252 300
#     4  10  16  27  39  63  92 130 158 195 245 305
#     4  12  21  35  52  72 107 144 172 203 248 315
#     4   9  17  33  57  81 102 128 168 218 260 295
#
# _framework density 23.885866
#
# number of rings (size 3 to 8) (size 9 to 14) (size 15 to 20)
#    0.000    1.800    4.000    4.800    0.000    2.400 
#    0.000    0.000    0.000   12.000    0.000    0.000 
#    0.000    8.800    0.000    0.000    0.000    0.000 
#
# Total GULP energy -111898.105134 kJ/mol
# GULP energy per Si atom -5594.905257 kJ/mol
# Density = 2.383150 g / cm^3
# Si number density = 23.885866 Si / 1000 Ang^3
#
#
#
# Elastic Constant Matrix: (Units=GPa)
#
#
# Indices 1 2 3 4 5 6 
#
# 1 61.8756 -13.7430 39.4254 0.0000 12.0062 0.0000
# 2 -13.7430 173.2251 71.9142 0.0000 0.7744 0.0000
# 3 39.4254 71.9142 247.0446 0.0000 15.1938 0.0000
# 4 0.0000 0.0000 0.0000 93.5741 0.0000 -181.0852
# 5 12.0062 0.7744 15.1938 0.0000 52.1035 0.0000
# 6 0.0000 0.0000 0.0000 -181.0852 0.0000 855.8720
#
#
#
# Elastic Compliance Matrix: (Units=1/GPa)
#
#
# Indices 1 2 3 4 5 6 
#
# 1 0.020068 0.003239 -0.003929 0.000000 -0.003527 0.000000
# 2 0.003239 0.007100 -0.002578 0.000000 -0.000100 0.000000
# 3 -0.003929 -0.002578 0.005465 0.000000 -0.000650 0.000000
# 4 0.000000 0.000000 0.000000 0.018096 0.000000 0.003829
# 5 -0.003527 -0.000100 -0.000650 0.000000 0.020196 0.000000
# 6 0.000000 0.000000 0.000000 0.003829 0.000000 0.001978
#
#
# Mechanical properties :
#
#
# Convention : Reuss Voigt Hill
#
# Bulk Modulus (GPa) = 38.31542 75.25983 56.78763
# Shear Modulus (GPa) = 56.72836 225.94649 141.33743
#
# Velocity S-wave (km/s) = 4.87866 9.73651 7.70068
# Velocity P-wave (km/s) = 6.91455 12.56885 10.14364
#
# Compressibility (1/GPa) = 0.02609915
#
# Stress axis : x y z
#
# Youngs Moduli (GPa) = 49.82963 140.83845 182.97822
#
# Poissons Ratio (x) = -0.45616 0.71885
# Poissons Ratio (y) = -0.16139 0.47165
# Poissons Ratio (z) = 0.19576 0.36303
#
# Static dielectric constant tensor:
#      x y z
#    x 1.987700 0.000000 -0.038050 
#    y 0.000000 1.812940 0.000000 
#    z -0.038050 0.000000 1.864170 
# 
# From -- ./inp_files/4697.got.cif
#   From: 2010.05.17/outbox.cif.g08.bks.cpg/sg10_3_cif.got.tgz:4697.got - 2010.06.03 11:33:40.
