data_PCOD9141768
_publ_section_title
;
Structure prediction by ZEFSAII (Michael W. Deem and Ramdas Pophale) SiO2 
 PCOD9141768
Probable space group: P 2/M
;
_chemical_formula_sum "Si O2"
_cell_formula_units_Z 32
_cell_length_a 20.973924
_cell_length_b 9.307399
_cell_length_c 22.255352
_cell_angle_alpha 90.000000
_cell_angle_beta 25.857083
_cell_angle_gamma 90.000000
_cell_volume 1894.769209
_symmetry_space_group_name_H-M "P 2/M"
_symmetry_group_IT_number 10
_symmetry_cell_setting 'monoclinic'
loop_
_space_group_symop_operation_xyz
x,y,z
-x,y,-z
-x,-y,-z
x,-y,z
loop_
_atom_site_type_symbol
_atom_site_label
_atom_site_fract_x
_atom_site_fract_y
_atom_site_fract_z
Si Si1 0.457245 0.825364 0.470164
Si Si2 0.846026 0.172757 0.334245
Si Si3 0.697682 0.830495 0.585202
Si Si4 0.691099 0.669090 0.950391
Si Si5 0.387401 0.828867 0.782137
Si Si6 0.322493 0.834608 0.156895
Si Si7 0.342404 0.669854 0.260183
Si Si8 0.852772 0.671654 0.937836
O O1 0.500000 0.773784 0.500000
O O2 0.294895 0.785453 0.586073
O O3 0.568785 0.784204 0.322560
O O4 0.458769 0.000000 0.469660
O O5 0.804179 0.203666 0.439219
O O6 0.989371 0.256104 0.193278
O O7 0.865314 0.000000 0.312933
O O8 0.533777 0.807927 0.698026
O O9 0.718462 0.738482 0.627239
O O10 0.711314 0.000000 0.587483
O O11 0.707465 0.500000 0.922690
O O12 0.733799 0.760880 0.856088
O O13 0.783405 0.704086 0.931117
O O14 0.519001 0.692715 0.110488
O O15 0.355604 0.000000 0.809725
O O16 0.255842 0.740162 0.921495
O O17 0.285586 0.747501 0.248349
O O18 0.277549 0.000000 0.199622
O O19 0.500000 0.830994 0.000000
O O20 0.316027 0.500000 0.279971
O O21 0.859863 0.500000 0.938238
#
# Coordination Sequence:
#
# PCOD9141768 Si02
#       8
#     4   4   4   4   4   4   4   4
#     4   8  15  32  58  83 104 129 167 211 249 290
#     4   9  19  34  52  76 103 132 166 207 253 298
#     4   9  17  30  48  71  98 126 164 212 256 298
#     4   9  18  30  43  64  95 130 165 202 248 297
#     4   9  17  30  52  78 101 129 166 209 252 292
#     4   9  17  27  41  65  94 125 163 207 253 298
#     4  10  17  27  45  68  96 128 164 206 252 300
#     4  11  21  33  49  73 105 138 169 205 247 298
#
# _framework density 16.888598999999999
#
# number of rings (size 3 to 8) (size 9 to 14) (size 15 to 20)
#    0.000    2.750    1.250    2.625    0.000    3.500 
#    0.000    2.500    0.000    6.000    0.000    5.250 
#    0.000    0.000    0.000    0.000    0.000    0.000 
#
# Total GULP energy -178403.146240 kJ/mol
# GULP energy per Si atom -5575.098320 kJ/mol
# Density = 1.685016 g / cm^3
# Si number density = 16.888599 Si / 1000 Ang^3
#
#
#
# Elastic Constant Matrix: (Units=GPa)
#
#
# Indices 1 2 3 4 5 6 
#
# 1 105.3485 53.9110 63.5947 0.0000 27.3324 0.0000
# 2 53.9110 53.9163 56.9185 0.0000 13.7755 0.0000
# 3 63.5947 56.9185 111.2215 0.0000 10.4570 0.0000
# 4 0.0000 0.0000 0.0000 -1.1752 0.0000 -2.8373
# 5 27.3324 13.7755 10.4570 0.0000 22.8926 0.0000
# 6 0.0000 0.0000 0.0000 -2.8373 0.0000 16.5192
#
#
#
# Elastic Compliance Matrix: (Units=1/GPa)
#
#
# Indices 1 2 3 4 5 6 
#
# 1 0.024911 -0.015208 -0.004728 0.000000 -0.018431 0.000000
# 2 -0.015208 0.055691 -0.019185 0.000000 -0.006591 0.000000
# 3 -0.004728 -0.019185 0.020789 0.000000 0.007693 0.000000
# 4 0.000000 0.000000 0.000000 -0.601484 0.000000 -0.103308
# 5 -0.018431 -0.006591 0.007693 0.000000 0.066140 0.000000
# 6 0.000000 0.000000 0.000000 -0.103308 0.000000 0.042792
#
#
# Mechanical properties :
#
#
# Convention : Reuss Voigt Hill
#
# Bulk Modulus (GPa) = 43.19818 68.81499 56.00658
# Shear Modulus (GPa) = -16.38252 14.05145 -1.16553
#
# Velocity S-wave (km/s) = -3.11792 2.88758 -0.83164
# Velocity P-wave (km/s) = 3.55977 7.20780 5.68438
#
# Compressibility (1/GPa) = 0.02314912
#
# Stress axis : x y z
#
# Youngs Moduli (GPa) = 40.14331 17.95625 48.10223
#
# Poissons Ratio (x) = 0.27308 0.22742
# Poissons Ratio (y) = 0.61051 0.92283
# Poissons Ratio (z) = 0.18979 0.34449
#
# Static dielectric constant tensor:
#      x y z
#    x 1.562240 0.000000 0.004850 
#    y 0.000000 1.555310 0.000000 
#    z 0.004850 0.000000 1.554740 
# 
# From -- ./inp_files/86093.got.cif
#   From: 2010.05.17/outbox.cif.g08.bks.cpg/sg10_44_cif.got.tgz:86093.got - 2010.06.03 11:33:40.
