data_PCOD9141371
_publ_section_title
;
Structure prediction by ZEFSAII (Michael W. Deem and Ramdas Pophale) SiO2 
 PCOD9141371
Probable space group: P 2/M
;
_chemical_formula_sum "Si O2"
_cell_formula_units_Z 10
_cell_length_a 11.442753
_cell_length_b 11.224824
_cell_length_c 7.923940
_cell_angle_alpha 90.000000
_cell_angle_beta 23.105831
_cell_angle_gamma 90.000000
_cell_volume 399.405687
_symmetry_space_group_name_H-M "P 2/M"
_symmetry_group_IT_number 10
_symmetry_cell_setting 'monoclinic'
loop_
_space_group_symop_operation_xyz
x,y,z
-x,y,-z
-x,-y,-z
x,-y,z
loop_
_atom_site_type_symbol
_atom_site_label
_atom_site_fract_x
_atom_site_fract_y
_atom_site_fract_z
Si Si1 0.722863 0.745168 0.042821
Si Si2 0.853483 0.500000 0.005031
Si Si3 0.782074 0.134006 0.452825
O O1 0.500000 0.754905 0.500000
O O2 0.895916 0.620197 0.841070
O O3 0.487162 0.772603 0.209480
O O4 0.983152 0.841150 0.712174
O O5 0.500000 0.500000 0.500000
O O6 0.000000 0.500000 0.000000
O O7 0.662531 0.000000 0.612756
O O8 0.000000 0.144748 0.000000
#
# Coordination Sequence:
#
# PCOD9141371 Si02
#       3
#     4   2   4
#     4   9  15  21  27  33  38  44  50  55  61  66
#     4  10  16  22  28  32  38  44  50  56  60  66
#     4   9  15  21  27  33  39  44  49  55  61  67
#
# _framework density 25.037199999999999
#
# number of rings (size 3 to 8) (size 9 to 14) (size 15 to 20)
#    0.000    2.800    0.000    7.200    0.000    4.800 
#    0.000    0.000    0.000    0.000    0.000    0.000 
#    0.000    0.000    0.000    0.000    0.000    0.000 
#
# Total GULP energy -55752.565304 kJ/mol
# GULP energy per Si atom -5575.256530 kJ/mol
# Density = 2.498021 g / cm^3
# Si number density = 25.037200 Si / 1000 Ang^3
#
#
#
# Elastic Constant Matrix: (Units=GPa)
#
#
# Indices 1 2 3 4 5 6 
#
# 1 147.5497 47.3336 64.2305 0.0000 -38.1592 0.0000
# 2 47.3336 124.9901 25.7344 0.0000 -47.3375 0.0000
# 3 64.2305 25.7344 87.8428 0.0000 -13.9913 0.0000
# 4 0.0000 0.0000 0.0000 0.8145 0.0000 -38.8791
# 5 -38.1592 -47.3375 -13.9913 0.0000 67.5040 0.0000
# 6 0.0000 0.0000 0.0000 -38.8791 0.0000 4.9786
#
#
#
# Elastic Compliance Matrix: (Units=1/GPa)
#
#
# Indices 1 2 3 4 5 6 
#
# 1 0.011428 -0.001289 -0.007336 0.000000 0.004036 0.000000
# 2 -0.001289 0.011405 -0.001283 0.000000 0.007003 0.000000
# 3 -0.007336 -0.001283 0.016877 0.000000 -0.001549 0.000000
# 4 0.000000 0.000000 0.000000 -0.003302 0.000000 -0.025790
# 5 0.004036 0.007003 -0.001549 0.000000 0.021686 0.000000
# 6 0.000000 0.000000 0.000000 -0.025790 0.000000 -0.000540
#
#
# Mechanical properties :
#
#
# Convention : Reuss Voigt Hill
#
# Bulk Modulus (GPa) = 50.26511 70.55330 60.40920
# Shear Modulus (GPa) = 59.52342 29.53171 44.52756
#
# Velocity S-wave (km/s) = 4.88115 3.43813 4.22175
# Velocity P-wave (km/s) = 7.20328 6.63337 6.92419
#
# Compressibility (1/GPa) = 0.01989451
#
# Stress axis : x y z
#
# Youngs Moduli (GPa) = 87.50518 87.67764 59.25194
#
# Poissons Ratio (x) = 0.11301 0.43465
# Poissons Ratio (y) = 0.11279 0.07604
# Poissons Ratio (z) = 0.64191 0.11252
#
# Static dielectric constant tensor:
#      x y z
#    x 2.033360 0.000000 0.092050 
#    y 0.000000 2.113020 0.000000 
#    z 0.092050 0.000000 1.817350 
# 
# From -- ./inp_files/22625.got.cif
#   From: 2010.05.17/outbox.cif.g08.bks.cpg/sg10_12_cif.got.tgz:22625.got - 2010.06.03 11:33:40.
