data_PCOD9141052
_publ_section_title
;
Structure prediction by ZEFSAII (Michael W. Deem and Ramdas Pophale) SiO2 
 PCOD9141052
Probable space group: C C
;
_chemical_formula_sum "Si O2"
_cell_formula_units_Z 28
_cell_length_a 14.694247
_cell_length_b 12.168093
_cell_length_c 7.984327
_cell_angle_alpha 90.000000
_cell_angle_beta 116.919504
_cell_angle_gamma 90.000000
_cell_volume 1272.914994
_symmetry_space_group_name_H-M "C C"
_symmetry_group_IT_number 9
_symmetry_cell_setting 'monoclinic'
loop_
_space_group_symop_operation_xyz
x,y,z
x,-y,1/2+z
1/2+x,1/2+y,z
1/2+x,1/2-y,1/2+z
loop_
_atom_site_type_symbol
_atom_site_label
_atom_site_fract_x
_atom_site_fract_y
_atom_site_fract_z
Si Si1 0.126200 0.330974 0.286520
Si Si2 0.959364 0.511108 0.164578
Si Si3 0.413187 0.390096 0.798458
Si Si4 0.853769 0.110642 0.880760
Si Si5 0.011658 0.731668 0.366377
Si Si6 0.842235 0.357691 0.282638
Si Si7 0.610759 0.684688 0.607940
O O1 0.244634 0.343823 0.343756
O O2 0.113081 0.272543 0.455911
O O3 0.066481 0.447285 0.238819
O O4 0.076312 0.264303 0.091069
O O5 0.877889 0.416049 0.141702
O O6 0.973678 0.606613 0.314434
O O7 0.913606 0.580674 0.974549
O O8 0.342368 0.489156 0.798010
O O9 0.419317 0.396056 0.604662
O O10 0.369337 0.270677 0.806504
O O11 0.522714 0.399406 0.977905
O O12 0.915207 0.187519 0.803917
O O13 0.076786 0.762478 0.255968
O O14 0.722404 0.367695 0.214384
#
# Coordination Sequence:
#
# PCOD9141052 Si02
#       7
#     4   4   4   4   4   4   4
#     4  12  27  50  79 112 154 208 261 324 385 467
#     4  12  25  48  77 112 154 197 265 321 380 466
#     4  12  26  49  73 112 158 198 263 323 375 471
#     4  12  29  48  78 110 159 204 261 323 393 457
#     4  12  27  49  76 114 152 205 262 319 386 473
#     4  12  27  47  78 113 154 200 256 325 388 458
#     4  12  27  51  77 111 157 202 258 321 393 458
#
# _framework density 21.996756000000001
#
# number of rings (size 3 to 8) (size 9 to 14) (size 15 to 20)
#    0.000    0.000    7.143    0.857    6.000    2.286 
#    0.000    0.000    0.000    0.000    0.000    0.000 
#    0.000    0.000    0.000    0.000    0.000    0.000 
#
# Total GULP energy -78336.197372 kJ/mol
# GULP energy per Si atom -5595.442669 kJ/mol
# Density = 2.194669 g / cm^3
# Si number density = 21.996756 Si / 1000 Ang^3
#
#
#
# Elastic Constant Matrix: (Units=GPa)
#
#
# Indices 1 2 3 4 5 6 
#
# 1 139.2028 48.4491 29.6950 0.0000 -7.3159 0.0000
# 2 48.4491 77.3909 32.0815 0.0000 -11.0886 0.0000
# 3 29.6950 32.0815 79.3681 0.0000 -21.0913 0.0000
# 4 0.0000 0.0000 0.0000 31.5251 0.0000 -7.4088
# 5 -7.3159 -11.0886 -21.0913 0.0000 32.5037 0.0000
# 6 0.0000 0.0000 0.0000 -7.4088 0.0000 35.5995
#
#
#
# Elastic Compliance Matrix: (Units=1/GPa)
#
#
# Indices 1 2 3 4 5 6 
#
# 1 0.009318 -0.005299 -0.001531 0.000000 -0.000704 0.000000
# 2 -0.005299 0.018595 -0.005033 0.000000 0.001885 0.000000
# 3 -0.001531 -0.005033 0.017713 0.000000 0.009432 0.000000
# 4 0.000000 0.000000 0.000000 0.033352 0.000000 0.006941
# 5 -0.000704 0.001885 0.009432 0.000000 0.037371 0.000000
# 6 0.000000 0.000000 0.000000 0.006941 0.000000 0.029535
#
#
# Mechanical properties :
#
#
# Convention : Reuss Voigt Hill
#
# Bulk Modulus (GPa) = 45.66264 57.37921 51.52092
# Shear Modulus (GPa) = 28.26279 32.30807 30.28543
#
# Velocity S-wave (km/s) = 3.58839 3.83661 3.71457
# Velocity P-wave (km/s) = 6.16219 6.76520 6.47072
#
# Compressibility (1/GPa) = 0.02189974
#
# Stress axis : x y z
#
# Youngs Moduli (GPa) = 107.32097 53.77676 56.45477
#
# Poissons Ratio (x) = 0.28498 0.08645
# Poissons Ratio (y) = 0.56874 0.28412
# Poissons Ratio (z) = 0.16434 0.27064
#
# Static dielectric constant tensor:
#      x y z
#    x 1.801870 0.000000 -0.050220 
#    y 0.000000 1.803390 0.000000 
#    z -0.050220 0.000000 1.878160 
# 
# From -- ./inp_files/9038.got.cif
#   From: 2010.05.17/outbox.cif.g08.bks.cpg/sg9_5_cif.got.tgz:9038.got - 2010.06.03 20:04:27.
