data_PCOD9141795
_publ_section_title
;
Structure prediction by ZEFSAII (Michael W. Deem and Ramdas Pophale) SiO2 
 PCOD9141795
Probable space group: P 2/M
;
_chemical_formula_sum "Si O2"
_cell_formula_units_Z 20
_cell_length_a 16.962873
_cell_length_b 8.766160
_cell_length_c 15.178201
_cell_angle_alpha 90.000000
_cell_angle_beta 24.885607
_cell_angle_gamma 90.000000
_cell_volume 949.758164
_symmetry_space_group_name_H-M "P 2/M"
_symmetry_group_IT_number 10
_symmetry_cell_setting 'monoclinic'
loop_
_space_group_symop_operation_xyz
x,y,z
-x,y,-z
-x,-y,-z
x,-y,z
loop_
_atom_site_type_symbol
_atom_site_label
_atom_site_fract_x
_atom_site_fract_y
_atom_site_fract_z
Si Si1 0.119206 0.819284 0.082101
Si Si2 0.566544 0.681367 0.336015
Si Si3 0.170992 0.183080 0.225906
Si Si4 0.683922 0.181381 0.564302
Si Si5 0.751593 0.681983 0.677432
O O1 0.217537 0.785499 0.076923
O O2 0.899913 0.786455 0.317615
O O3 0.139107 0.000000 0.045976
O O4 0.221224 0.727771 0.902200
O O5 0.500000 0.731536 0.500000
O O6 0.544723 0.500000 0.352281
O O7 0.443158 0.759787 0.385705
O O8 0.294898 0.251727 0.178771
O O9 0.964148 0.255952 0.446868
O O10 0.158717 0.000000 0.248688
O O11 0.647808 0.258202 0.695684
O O12 0.663857 0.000000 0.595972
O O13 0.747457 0.500000 0.685026
#
# Coordination Sequence:
#
# PCOD9141795 Si02
#       5
#     4   4   4   4   4
#     4   9  20  38  61  87 114 151 194 236 282 333
#     4  11  25  42  60  85 116 148 185 237 297 349
#     4   9  16  29  50  79 115 153 193 231 273 329
#     4  10  21  39  62  86 115 152 194 237 282 337
#     4  10  17  27  49  82 117 152 189 229 279 334
#
# _framework density 21.057991000000001
#
# number of rings (size 3 to 8) (size 9 to 14) (size 15 to 20)
#    0.000    2.200    0.000    6.000    0.000    7.200 
#    0.000    5.000    0.000    6.000    0.000    0.000 
#    0.000    0.000    0.000    0.000    0.000    0.000 
#
# Total GULP energy -111749.794498 kJ/mol
# GULP energy per Si atom -5587.489725 kJ/mol
# Density = 2.101006 g / cm^3
# Si number density = 21.057991 Si / 1000 Ang^3
#
#
#
# Elastic Constant Matrix: (Units=GPa)
#
#
# Indices 1 2 3 4 5 6 
#
# 1 82.5935 27.9730 35.8544 0.0000 9.5594 0.0000
# 2 27.9730 77.9801 43.9403 0.0000 14.3022 0.0000
# 3 35.8544 43.9403 92.8090 0.0000 26.3656 0.0000
# 4 0.0000 0.0000 0.0000 12.2532 0.0000 4.6433
# 5 9.5594 14.3022 26.3656 0.0000 34.7341 0.0000
# 6 0.0000 0.0000 0.0000 4.6433 0.0000 38.9858
#
#
#
# Elastic Compliance Matrix: (Units=1/GPa)
#
#
# Indices 1 2 3 4 5 6 
#
# 1 0.015017 -0.002906 -0.004579 0.000000 0.000539 0.000000
# 2 -0.002906 0.018089 -0.007080 0.000000 -0.001275 0.000000
# 3 -0.004579 -0.007080 0.018753 0.000000 -0.010060 0.000000
# 4 0.000000 0.000000 0.000000 0.085469 0.000000 -0.010180
# 5 0.000539 -0.001275 -0.010060 0.000000 0.036803 0.000000
# 6 0.000000 0.000000 0.000000 -0.010180 0.000000 0.026863
#
#
# Mechanical properties :
#
#
# Convention : Reuss Voigt Hill
#
# Bulk Modulus (GPa) = 43.99242 52.10199 48.04721
# Shear Modulus (GPa) = 21.03499 26.90228 23.96863
#
# Velocity S-wave (km/s) = 3.16398 3.57814 3.37741
# Velocity P-wave (km/s) = 5.85526 6.47044 6.17052
#
# Compressibility (1/GPa) = 0.02273119
#
# Stress axis : x y z
#
# Youngs Moduli (GPa) = 66.59160 55.28185 53.32346
#
# Poissons Ratio (x) = 0.16063 0.24416
# Poissons Ratio (y) = 0.19349 0.37751
# Poissons Ratio (z) = 0.30492 0.39137
#
# Static dielectric constant tensor:
#      x y z
#    x 1.766300 0.000000 -0.024930 
#    y 0.000000 1.692700 0.000000 
#    z -0.024930 0.000000 1.812620 
# 
# From -- ./inp_files/26667.got.cif
#   From: 2010.05.17/outbox.cif.g08.bks.cpg/sg10_14_cif.got.tgz:26667.got - 2010.06.03 11:33:40.
