data_PCOD9141649
_publ_section_title
;
Structure prediction by ZEFSAII (Michael W. Deem and Ramdas Pophale) SiO2 
 PCOD9141649
Probable space group: P 2/M
;
_chemical_formula_sum "Si O2"
_cell_formula_units_Z 28
_cell_length_a 13.789085
_cell_length_b 15.941231
_cell_length_c 9.930462
_cell_angle_alpha 90.000000
_cell_angle_beta 33.291285
_cell_angle_gamma 90.000000
_cell_volume 1198.164840
_symmetry_space_group_name_H-M "P 2/M"
_symmetry_group_IT_number 10
_symmetry_cell_setting 'monoclinic'
loop_
_space_group_symop_operation_xyz
x,y,z
-x,y,-z
-x,-y,-z
x,-y,z
loop_
_atom_site_type_symbol
_atom_site_label
_atom_site_fract_x
_atom_site_fract_y
_atom_site_fract_z
Si Si1 0.242388 0.406780 0.691788
Si Si2 0.711188 0.906148 0.223503
Si Si3 0.791095 0.219517 0.360028
Si Si4 0.203050 0.412769 0.312748
Si Si5 0.834140 0.229556 0.592515
Si Si6 0.650899 0.623423 0.142470
Si Si7 0.620744 0.808207 0.086215
O O1 0.180387 0.500000 0.719990
O O2 0.172336 0.316845 0.720104
O O3 0.233301 0.405179 0.865455
O O4 0.450202 0.398143 0.413399
O O5 0.500000 0.903165 0.500000
O O6 0.802272 0.838372 0.215354
O O7 0.707950 0.881762 0.070948
O O8 0.776172 0.000000 0.173419
O O9 0.890098 0.195266 0.382648
O O10 0.588976 0.202269 0.647382
O O11 0.241782 0.500000 0.341270
O O12 0.231242 0.325838 0.355705
O O13 0.000000 0.413252 0.500000
O O14 0.309754 0.411285 0.050161
O O15 0.000000 0.231975 0.500000
O O16 0.683065 0.188439 0.859999
O O17 0.684749 0.721977 0.082292
#
# Coordination Sequence:
#
# PCOD9141649 Si02
#       7
#     4   4   4   4   4   4   4
#     4  10  17  25  45  76 109 136 168 218 271 313
#     4   9  17  33  59  86 108 131 167 218 270 317
#     4  10  19  33  53  82 108 135 177 220 261 311
#     4   9  17  29  46  65  94 141 190 219 248 303
#     4  10  21  35  52  73 106 147 178 214 265 311
#     4   9  15  27  45  73 105 136 170 216 268 315
#     4   9  17  33  56  79 105 136 172 215 264 315
#
# _framework density 23.369071999999999
#
# number of rings (size 3 to 8) (size 9 to 14) (size 15 to 20)
#    0.000    2.571    1.429    2.143    0.000    0.571 
#    0.000    1.429    0.000   11.143    0.000    6.000 
#    0.000    0.000    0.000    0.000    0.000    0.000 
#
# Total GULP energy -156248.080904 kJ/mol
# GULP energy per Si atom -5580.288604 kJ/mol
# Density = 2.331588 g / cm^3
# Si number density = 23.369072 Si / 1000 Ang^3
#
#
#
# Elastic Constant Matrix: (Units=GPa)
#
#
# Indices 1 2 3 4 5 6 
#
# 1 86.5449 36.2258 28.0790 0.0000 23.2286 0.0000
# 2 36.2258 98.9919 2.0425 0.0000 13.7206 0.0000
# 3 28.0790 2.0425 62.4544 0.0000 -1.9757 0.0000
# 4 0.0000 0.0000 0.0000 5.2250 0.0000 -8.0923
# 5 23.2286 13.7206 -1.9757 0.0000 37.6704 0.0000
# 6 0.0000 0.0000 0.0000 -8.0923 0.0000 -39.4270
#
#
#
# Elastic Compliance Matrix: (Units=1/GPa)
#
#
# Indices 1 2 3 4 5 6 
#
# 1 0.019611 -0.005529 -0.008970 0.000000 -0.010549 0.000000
# 2 -0.005529 0.012212 0.002057 0.000000 -0.000930 0.000000
# 3 -0.008970 0.002057 0.020162 0.000000 0.005839 0.000000
# 4 0.000000 0.000000 0.000000 0.145224 0.000000 -0.029807
# 5 -0.010549 -0.000930 0.005839 0.000000 0.033696 0.000000
# 6 0.000000 0.000000 0.000000 -0.029807 0.000000 -0.019246
#
#
# Mechanical properties :
#
#
# Convention : Reuss Voigt Hill
#
# Bulk Modulus (GPa) = 36.89960 42.29844 39.59902
# Shear Modulus (GPa) = 20.36033 12.80326 16.58179
#
# Velocity S-wave (km/s) = 2.95490 2.34321 2.66665
# Velocity P-wave (km/s) = 5.24081 5.04582 5.14424
#
# Compressibility (1/GPa) = 0.02710056
#
# Stress axis : x y z
#
# Youngs Moduli (GPa) = 50.99279 81.88821 49.59874
#
# Poissons Ratio (x) = 0.45278 0.44488
# Poissons Ratio (y) = 0.28195 -0.10203
# Poissons Ratio (z) = 0.45739 -0.16845
#
# Static dielectric constant tensor:
#      x y z
#    x 1.921660 0.000000 -0.049390 
#    y 0.000000 1.903720 0.000000 
#    z -0.049390 0.000000 1.917960 
# 
# From -- ./inp_files/30082.got.cif
#   From: 2010.05.17/outbox.cif.g08.bks.cpg/sg10_16_cif.got.tgz:30082.got - 2010.06.03 11:33:40.
