data_PCOD9141345
_publ_section_title
;
Structure prediction by ZEFSAII (Michael W. Deem and Ramdas Pophale) SiO2 
 PCOD9141345
Probable space group: P 2/M
;
_chemical_formula_sum "Si O2"
_cell_formula_units_Z 22
_cell_length_a 13.429392
_cell_length_b 14.648641
_cell_length_c 8.510398
_cell_angle_alpha 90.000000
_cell_angle_beta 44.156346
_cell_angle_gamma 90.000000
_cell_volume 1166.268846
_symmetry_space_group_name_H-M "P 2/M"
_symmetry_group_IT_number 10
_symmetry_cell_setting 'monoclinic'
loop_
_space_group_symop_operation_xyz
x,y,z
-x,y,-z
-x,-y,-z
x,-y,z
loop_
_atom_site_type_symbol
_atom_site_label
_atom_site_fract_x
_atom_site_fract_y
_atom_site_fract_z
Si Si1 0.933393 0.604698 0.897811
Si Si2 0.828343 0.103096 0.670975
Si Si3 0.282712 0.902342 0.851107
Si Si4 0.835587 0.263957 0.432506
Si Si5 0.658041 0.296521 0.336893
Si Si6 0.000000 0.860782 0.000000
O O1 0.912776 0.500000 0.874062
O O2 0.051306 0.655948 0.656458
O O3 0.782234 0.656295 0.091472
O O4 0.000000 0.605074 0.000000
O O5 0.785345 0.192282 0.620255
O O6 0.000000 0.108677 0.500000
O O7 0.800498 0.000000 0.634515
O O8 0.752674 0.107324 0.924996
O O9 0.347953 0.809229 0.711523
O O10 0.357659 0.000000 0.744115
O O11 0.131392 0.909109 0.932462
O O12 0.711273 0.299447 0.457772
O O13 0.932516 0.201342 0.210096
O O14 0.500000 0.336811 0.500000
#
# Coordination Sequence:
#
# PCOD9141345 Si02
#       6
#     4   4   4   4   4   2
#     4   9  16  31  53  77 101 124 158 208 255 299
#     4  10  18  28  47  75 103 132 167 204 246 293
#     4  10  19  30  47  71 102 135 165 202 243 287
#     4  10  17  32  50  76 100 130 163 205 251 293
#     4  10  20  34  50  72 100 133 171 205 244 294
#     4  10  15  28  47  74  98 128 161 202 239 286
#
# _framework density 18.863574
#
# number of rings (size 3 to 8) (size 9 to 14) (size 15 to 20)
#    0.000    2.182    6.364    0.273    0.000    3.636 
#    0.000    0.909    0.000    7.091    0.000    0.000 
#    0.000   11.636    0.000    0.000    0.000    0.000 
#
# Total GULP energy -122470.073453 kJ/mol
# GULP energy per Si atom -5566.821521 kJ/mol
# Density = 1.882064 g / cm^3
# Si number density = 18.863574 Si / 1000 Ang^3
#
#
#
# Elastic Constant Matrix: (Units=GPa)
#
#
# Indices 1 2 3 4 5 6 
#
# 1 52.1888 41.4686 41.6678 0.0000 -18.4402 0.0000
# 2 41.4686 122.0285 29.8859 0.0000 -2.4839 0.0000
# 3 41.6678 29.8859 46.4814 0.0000 -9.8973 0.0000
# 4 0.0000 0.0000 0.0000 67.7267 0.0000 -107.6763
# 5 -18.4402 -2.4839 -9.8973 0.0000 25.4592 0.0000
# 6 0.0000 0.0000 0.0000 -107.6763 0.0000 239.2110
#
#
#
# Elastic Compliance Matrix: (Units=1/GPa)
#
#
# Indices 1 2 3 4 5 6 
#
# 1 0.120108 -0.019124 -0.084219 0.000000 0.052389 0.000000
# 2 -0.019124 0.012833 0.006770 0.000000 -0.009967 0.000000
# 3 -0.084219 0.006770 0.087013 0.000000 -0.026513 0.000000
# 4 0.000000 0.000000 0.000000 0.051926 0.000000 0.023373
# 5 0.052389 -0.009967 -0.026513 0.000000 0.065945 0.000000
# 6 0.000000 0.000000 0.000000 0.023373 0.000000 0.014701
#
#
# Mechanical properties :
#
#
# Convention : Reuss Voigt Hill
#
# Bulk Modulus (GPa) = 37.30153 49.63813 43.46983
# Shear Modulus (GPa) = 9.01540 73.65782 41.33661
#
# Velocity S-wave (km/s) = 2.18852 6.25559 4.68626
# Velocity P-wave (km/s) = 5.11893 8.86273 7.23711
#
# Compressibility (1/GPa) = 0.02680855
#
# Stress axis : x y z
#
# Youngs Moduli (GPa) = 8.32583 77.92640 11.49253
#
# Poissons Ratio (x) = 1.49023 0.96789
# Poissons Ratio (y) = 0.15922 -0.07780
# Poissons Ratio (z) = 0.70119 -0.52755
#
# Static dielectric constant tensor:
#      x y z
#    x 1.693570 0.000000 -0.011410 
#    y 0.000000 1.721450 0.000000 
#    z -0.011410 0.000000 1.683670 
# 
# From -- ./inp_files/28792.got.cif
#   From: 2010.05.17/outbox.cif.g08.bks.cpg/sg10_15_cif.got.tgz:28792.got - 2010.06.03 11:33:40.
