data_PCOD9141545
_publ_section_title
;
Structure prediction by ZEFSAII (Michael W. Deem and Ramdas Pophale) SiO2 
 PCOD9141545
Probable space group: P 2/M
;
_chemical_formula_sum "Si O2"
_cell_formula_units_Z 24
_cell_length_a 21.194414
_cell_length_b 7.724620
_cell_length_c 7.169307
_cell_angle_alpha 90.000000
_cell_angle_beta 126.747321
_cell_angle_gamma 90.000000
_cell_volume 940.504737
_symmetry_space_group_name_H-M "P 2/M"
_symmetry_group_IT_number 10
_symmetry_cell_setting 'monoclinic'
loop_
_space_group_symop_operation_xyz
x,y,z
-x,y,-z
-x,-y,-z
x,-y,z
loop_
_atom_site_type_symbol
_atom_site_label
_atom_site_fract_x
_atom_site_fract_y
_atom_site_fract_z
Si Si1 0.912166 0.699896 0.874741
Si Si2 0.427173 0.289438 0.629073
Si Si3 0.739993 0.301256 0.584310
Si Si4 0.752233 0.194077 0.022395
Si Si5 0.916472 0.303399 0.325037
Si Si6 0.405643 0.293000 0.147563
O O1 0.915501 0.500000 0.810430
O O2 0.907453 0.691090 0.088556
O O3 0.824992 0.774381 0.670814
O O4 0.000000 0.777998 0.000000
O O5 0.426884 0.500000 0.649997
O O6 0.348651 0.225835 0.595508
O O7 0.417008 0.253305 0.389033
O O8 0.516908 0.229739 0.823643
O O9 0.738831 0.500000 0.513983
O O10 0.744489 0.307857 0.821308
O O11 0.837584 0.220838 0.261133
O O12 0.746265 0.000000 0.940434
O O13 0.682169 0.228059 0.041910
O O14 0.921165 0.500000 0.405257
O O15 0.000000 0.214379 0.500000
O O16 0.404623 0.500000 0.126350
#
# Coordination Sequence:
#
# PCOD9141545 Si02
#       6
#     4   4   4   4   4   4
#     4   8  13  22  39  61  79  95 121 158 191 217
#     4   7  10  17  31  47  63  91 127 154 175 213
#     4   8  13  23  36  49  70 100 129 152 181 225
#     4  10  17  23  33  51  74  97 122 154 192 224
#     4   9  17  29  43  56  73 101 132 155 180 222
#     4   8  12  20  32  45  65  94 126 153 180 220
#
# _framework density 25.518215000000001
#
# number of rings (size 3 to 8) (size 9 to 14) (size 15 to 20)
#    0.000    3.667    0.000    4.500    0.000    0.333 
#    0.000    6.667    0.000    8.000    0.000    0.000 
#    0.000    1.333    0.000   17.000    0.000   14.667 
#
# Total GULP energy -133667.852798 kJ/mol
# GULP energy per Si atom -5569.493867 kJ/mol
# Density = 2.546013 g / cm^3
# Si number density = 25.518215 Si / 1000 Ang^3
#
#
#
# Elastic Constant Matrix: (Units=GPa)
#
#
# Indices 1 2 3 4 5 6 
#
# 1 167.5169 3.5794 97.9258 0.0000 57.8274 0.0000
# 2 3.5794 53.9774 11.0058 0.0000 11.2423 0.0000
# 3 97.9258 11.0058 129.4126 0.0000 88.9671 0.0000
# 4 0.0000 0.0000 0.0000 238.4325 0.0000 182.5392
# 5 57.8274 11.2423 88.9671 0.0000 102.3830 0.0000
# 6 0.0000 0.0000 0.0000 182.5392 0.0000 128.2608
#
#
#
# Elastic Compliance Matrix: (Units=1/GPa)
#
#
# Indices 1 2 3 4 5 6 
#
# 1 0.010996 0.000814 -0.010081 0.000000 0.002460 0.000000
# 2 0.000814 0.019031 -0.001196 0.000000 -0.001510 0.000000
# 3 -0.010081 -0.001196 0.028445 0.000000 -0.018893 0.000000
# 4 0.000000 0.000000 0.000000 -0.046827 0.000000 0.066644
# 5 0.002460 -0.001510 -0.018893 0.000000 0.024961 0.000000
# 6 0.000000 0.000000 0.000000 0.066644 0.000000 -0.087051
#
#
# Mechanical properties :
#
#
# Convention : Reuss Voigt Hill
#
# Bulk Modulus (GPa) = 26.63465 63.99210 45.31337
# Shear Modulus (GPa) = -294.06405 109.70831 -92.17787
#
# Velocity S-wave (km/s) = -10.74649 6.56395 -6.01671
# Velocity P-wave (km/s) = 11.98009 9.08729 5.52014
#
# Compressibility (1/GPa) = 0.03754508
#
# Stress axis : x y z
#
# Youngs Moduli (GPa) = 90.94168 52.54667 35.15516
#
# Poissons Ratio (x) = -0.04277 0.35440
# Poissons Ratio (y) = -0.07402 0.04206
# Poissons Ratio (z) = 0.91678 0.06287
#
# Static dielectric constant tensor:
#      x y z
#    x 2.116450 0.000000 -0.001240 
#    y 0.000000 1.925930 0.000000 
#    z -0.001240 0.000000 2.241830 
# 
# From -- ./inp_files/52385.got.cif
#   From: 2010.05.17/outbox.cif.g08.bks.cpg/sg10_27_cif.got.tgz:52385.got - 2010.06.03 11:33:40.
