data_PCOD9141780
_publ_section_title
;
Structure prediction by ZEFSAII (Michael W. Deem and Ramdas Pophale) SiO2 
 PCOD9141780
Probable space group: P 2/M
;
_chemical_formula_sum "Si O2"
_cell_formula_units_Z 28
_cell_length_a 8.556305
_cell_length_b 15.740275
_cell_length_c 13.321801
_cell_angle_alpha 90.000000
_cell_angle_beta 48.660820
_cell_angle_gamma 90.000000
_cell_volume 1347.079067
_symmetry_space_group_name_H-M "P 2/M"
_symmetry_group_IT_number 10
_symmetry_cell_setting 'monoclinic'
loop_
_space_group_symop_operation_xyz
x,y,z
-x,y,-z
-x,-y,-z
x,-y,z
loop_
_atom_site_type_symbol
_atom_site_label
_atom_site_fract_x
_atom_site_fract_y
_atom_site_fract_z
Si Si1 0.652615 0.759303 0.283078
Si Si2 0.713265 0.903464 0.087978
Si Si3 0.063813 0.406054 0.855559
Si Si4 0.752257 0.910729 0.715814
Si Si5 0.231399 0.726395 0.378718
Si Si6 0.987801 0.151608 0.790551
Si Si7 0.270125 0.323859 0.140419
O O1 0.690792 0.821648 0.170558
O O2 0.782698 0.672845 0.222899
O O3 0.414116 0.728610 0.383710
O O4 0.773487 0.817563 0.312717
O O5 0.480803 0.904640 0.138115
O O6 0.735571 0.000000 0.121673
O O7 0.900162 0.887185 0.931330
O O8 0.152918 0.500000 0.798976
O O9 0.872238 0.390940 0.859563
O O10 0.000000 0.402937 0.000000
O O11 0.784685 0.826486 0.639290
O O12 0.924705 0.908993 0.727971
O O13 0.758126 0.000000 0.656217
O O14 0.292345 0.675640 0.251728
O O15 0.000000 0.695860 0.500000
O O16 0.845607 0.235094 0.834100
O O17 0.500000 0.324861 0.000000
#
# Coordination Sequence:
#
# PCOD9141780 Si02
#       7
#     4   4   4   4   4   4   4
#     4  10  20  34  51  75 110 146 185 234 283 331
#     4  10  18  27  45  75 111 149 185 224 276 334
#     4  10  20  35  58  88 119 149 181 226 287 345
#     4   9  18  31  47  72 106 146 192 236 276 326
#     4  10  21  38  59  79 106 152 198 234 282 339
#     4  10  17  27  46  73 107 146 184 228 282 329
#     4  10  19  34  57  84 113 147 188 231 275 330
#
# _framework density 20.785713999999999
#
# number of rings (size 3 to 8) (size 9 to 14) (size 15 to 20)
#    0.000    2.143    0.000    6.429    0.000    3.429 
#    0.000    7.143    0.000    3.429    0.000    0.000 
#    0.000    0.000    0.000    0.000    0.000    0.000 
#
# Total GULP energy -155917.983780 kJ/mol
# GULP energy per Si atom -5568.499421 kJ/mol
# Density = 2.073841 g / cm^3
# Si number density = 20.785714 Si / 1000 Ang^3
#
#
#
# Elastic Constant Matrix: (Units=GPa)
#
#
# Indices 1 2 3 4 5 6 
#
# 1 111.9801 21.5229 25.2225 0.0000 -40.1425 0.0000
# 2 21.5229 81.1341 -12.8922 0.0000 -2.4221 0.0000
# 3 25.2225 -12.8922 61.2520 0.0000 -29.2372 0.0000
# 4 0.0000 0.0000 0.0000 3.1220 0.0000 -4.7013
# 5 -40.1425 -2.4221 -29.2372 0.0000 28.4448 0.0000
# 6 0.0000 0.0000 0.0000 -4.7013 0.0000 3.5366
#
#
#
# Elastic Compliance Matrix: (Units=1/GPa)
#
#
# Indices 1 2 3 4 5 6 
#
# 1 0.021898 -0.003045 0.009755 0.000000 0.040671 0.000000
# 2 -0.003045 0.014058 0.005365 0.000000 0.002415 0.000000
# 3 0.009755 0.005365 0.039711 0.000000 0.055041 0.000000
# 4 0.000000 0.000000 0.000000 -0.319729 0.000000 -0.425028
# 5 0.040671 0.002415 0.055041 0.000000 0.149332 0.000000
# 6 0.000000 0.000000 0.000000 -0.425028 0.000000 -0.282247
#
#
# Mechanical properties :
#
#
# Convention : Reuss Voigt Hill
#
# Bulk Modulus (GPa) = 10.01827 35.78587 22.90207
# Shear Modulus (GPa) = -13.59223 21.72153 4.06465
#
# Velocity S-wave (km/s) = -2.55996 3.23619 1.39991
# Velocity P-wave (km/s) = 1.97677 5.58729 3.69528
#
# Compressibility (1/GPa) = 0.09981764
#
# Stress axis : x y z
#
# Youngs Moduli (GPa) = 45.66693 71.13599 25.18221
#
# Poissons Ratio (x) = 0.21659 -0.24566
# Poissons Ratio (y) = 0.13904 -0.13511
# Poissons Ratio (z) = -0.44549 -0.38167
#
# Static dielectric constant tensor:
#      x y z
#    x 1.856130 0.000000 -0.008510 
#    y 0.000000 1.723990 0.000000 
#    z -0.008510 0.000000 1.773630 
# 
# From -- ./inp_files/62292.got.cif
#   From: 2010.05.17/outbox.cif.g08.bks.cpg/sg10_32_cif.got.tgz:62292.got - 2010.06.03 11:33:40.
