data_PCOD9141645
_publ_section_title
;
Structure prediction by ZEFSAII (Michael W. Deem and Ramdas Pophale) SiO2 
 PCOD9141645
Probable space group: P 2/M
;
_chemical_formula_sum "Si O2"
_cell_formula_units_Z 32
_cell_length_a 16.976903
_cell_length_b 13.045239
_cell_length_c 9.318577
_cell_angle_alpha 90.000000
_cell_angle_beta 64.375035
_cell_angle_gamma 90.000000
_cell_volume 1860.781096
_symmetry_space_group_name_H-M "P 2/M"
_symmetry_group_IT_number 10
_symmetry_cell_setting 'monoclinic'
loop_
_space_group_symop_operation_xyz
x,y,z
-x,y,-z
-x,-y,-z
x,-y,z
loop_
_atom_site_type_symbol
_atom_site_label
_atom_site_fract_x
_atom_site_fract_y
_atom_site_fract_z
Si Si1 0.642576 0.830800 0.922685
Si Si2 0.700428 0.800651 0.307862
Si Si3 0.532286 0.882496 0.273462
Si Si4 0.907622 0.125153 0.636982
Si Si5 0.570520 0.323109 0.552049
Si Si6 0.402535 0.387341 0.142303
Si Si7 0.809432 0.119093 0.983146
Si Si8 0.256441 0.882239 0.415736
O O1 0.644202 0.708453 0.897132
O O2 0.725756 0.874273 0.942999
O O3 0.657390 0.873022 0.751594
O O4 0.561017 0.861946 0.085708
O O5 0.622585 0.866420 0.293302
O O6 0.654542 0.693903 0.384680
O O7 0.727983 0.839649 0.440801
O O8 0.781728 0.810027 0.136945
O O9 0.470179 0.789760 0.373662
O O10 0.502074 0.000000 0.316571
O O11 0.888732 0.151987 0.817870
O O12 0.826719 0.163779 0.603319
O O13 0.000000 0.157624 0.500000
O O14 0.905359 0.000000 0.637787
O O15 0.500000 0.372474 0.500000
O O16 0.590594 0.371873 0.690532
O O17 0.364769 0.500000 0.142793
O O18 0.500000 0.385119 0.000000
O O19 0.819755 0.000000 0.020538
O O20 0.236092 0.000000 0.449489
#
# Coordination Sequence:
#
# PCOD9141645 Si02
#       8
#     4   4   4   4   4   4   4   4
#     4  10  17  31  46  63  85 114 153 193 231 266
#     4  10  18  28  42  62  93 118 150 187 221 265
#     4  10  19  30  43  62  93 123 152 185 229 272
#     4   8  15  28  43  62  92 129 161 182 205 251
#     4  10  21  34  46  64  88 120 153 189 235 278
#     4  11  22  37  50  62  82 114 160 208 242 268
#     4   9  17  29  47  68  96 126 148 176 224 272
#     4  10  17  25  44  69  91 119 153 185 223 267
#
# _framework density 17.197078999999999
#
# number of rings (size 3 to 8) (size 9 to 14) (size 15 to 20)
#    0.000    2.250    2.500    3.750    0.000    3.500 
#    0.000    1.250    0.000    3.000    0.000    0.000 
#    0.000    8.000    0.000    4.500    0.000    0.500 
#
# Total GULP energy -178167.758703 kJ/mol
# GULP energy per Si atom -5567.742459 kJ/mol
# Density = 1.715794 g / cm^3
# Si number density = 17.197079 Si / 1000 Ang^3
#
#
#
# Elastic Constant Matrix: (Units=GPa)
#
#
# Indices 1 2 3 4 5 6 
#
# 1 31.8320 -1.4396 29.4872 0.0000 -1.1674 0.0000
# 2 -1.4396 43.9802 -6.8586 0.0000 0.7378 0.0000
# 3 29.4872 -6.8586 141.3205 0.0000 -3.1818 0.0000
# 4 0.0000 0.0000 0.0000 -0.4190 0.0000 -0.8688
# 5 -1.1674 0.7378 -3.1818 0.0000 27.5649 0.0000
# 6 0.0000 0.0000 0.0000 -0.8688 0.0000 2.3066
#
#
#
# Elastic Compliance Matrix: (Units=1/GPa)
#
#
# Indices 1 2 3 4 5 6 
#
# 1 0.038956 -0.000002 -0.008112 0.000000 0.000714 0.000000
# 2 -0.000002 0.022917 0.001102 0.000000 -0.000486 0.000000
# 3 -0.008112 0.001102 0.008837 0.000000 0.000647 0.000000
# 4 0.000000 0.000000 0.000000 -1.339941 0.000000 -0.504712
# 5 0.000714 -0.000486 0.000647 0.000000 0.036396 0.000000
# 6 0.000000 0.000000 0.000000 -0.504712 0.000000 0.243422
#
#
# Mechanical properties :
#
#
# Convention : Reuss Voigt Hill
#
# Bulk Modulus (GPa) = 17.64140 28.83453 23.23797
# Shear Modulus (GPa) = -5.22743 18.95341 6.86299
#
# Velocity S-wave (km/s) = -1.74537 3.32344 1.99986
# Velocity P-wave (km/s) = 2.49377 5.61520 4.34450
#
# Compressibility (1/GPa) = 0.05668483
#
# Stress axis : x y z
#
# Youngs Moduli (GPa) = 25.67010 43.63492 113.16274
#
# Poissons Ratio (x) = 0.00009 0.91802
# Poissons Ratio (y) = 0.00005 -0.12467
# Poissons Ratio (z) = 0.20824 -0.04807
#
# Static dielectric constant tensor:
#      x y z
#    x 1.652300 0.000000 -0.007860 
#    y 0.000000 1.581910 0.000000 
#    z -0.007860 0.000000 1.652660 
# 
# From -- ./inp_files/34622.got.cif
#   From: 2010.05.17/outbox.cif.g08.bks.cpg/sg10_18_cif.got.tgz:34622.got - 2010.06.03 11:33:40.
