data_PCOD9141258
_publ_section_title
;
Structure prediction by ZEFSAII (Michael W. Deem and Ramdas Pophale) SiO2 
 PCOD9141258
Probable space group: C C
;
_chemical_formula_sum "Si O2"
_cell_formula_units_Z 16
_cell_length_a 15.000000
_cell_length_b 9.000000
_cell_length_c 12.000000
_cell_angle_alpha 90.000000
_cell_angle_beta 120.000000
_cell_angle_gamma 90.000000
_cell_volume 1402.961154
_symmetry_space_group_name_H-M "C C"
_symmetry_group_IT_number 9
_symmetry_cell_setting 'monoclinic'
loop_
_space_group_symop_operation_xyz
x,y,z
x,-y,1/2+z
1/2+x,1/2+y,z
1/2+x,1/2-y,1/2+z
loop_
_atom_site_type_symbol
_atom_site_label
_atom_site_fract_x
_atom_site_fract_y
_atom_site_fract_z
Si Si1 0.416150 0.642451 0.090180
Si Si2 0.469753 0.250066 0.253366
Si Si3 0.301224 0.350470 0.999007
Si Si4 0.736409 0.295876 0.110650
Si Si5 0.789474 0.451836 0.354970
Si Si6 0.088088 0.945310 0.850725
Si Si7 0.131797 0.584351 0.222347
Si Si8 0.494410 0.878722 0.996212
O O1 0.386281 0.476702 0.036957
O O2 0.314461 0.724623 0.071126
O O3 0.498154 0.651843 0.241044
O O4 0.471192 0.713824 0.020658
O O5 0.349604 0.287886 0.148643
O O6 0.532048 0.396699 0.329932
O O7 0.532775 0.187374 0.187062
O O8 0.493241 0.128024 0.362581
O O9 0.296354 0.203134 0.924055
O O10 0.197927 0.429678 0.879583
O O11 0.788814 0.418017 0.223208
O O12 0.700276 0.167452 0.172474
O O13 0.639828 0.370746 0.989475
O O14 0.683022 0.528418 0.324785
O O15 0.889204 0.536941 0.457813
O O16 0.087201 0.442883 0.127666
#
# Coordination Sequence:
#
# PCOD9141258 Si02
#       8
#     4   4   4   4   4   4   4   4
#     4  11  28  47  72 109 144 187 242 305 360 440
#     4  11  25  45  72 107 143 196 236 300 365 441
#     4  10  24  49  72  99 152 186 243 292 372 434
#     4  11  26  45  74 103 142 194 240 299 362 444
#     4  11  24  46  75 102 143 189 237 302 362 434
#     4  11  25  48  73 104 146 188 243 292 375 437
#     4  11  26  45  75 103 147 192 241 300 371 434
#     4  12  28  43  77 111 145 186 246 310 359 438
#
# _framework density 11.404450000000001
#
# number of rings (size 3 to 8) (size 9 to 14) (size 15 to 20)
#    0.000    1.000    5.000    0.000   10.500    4.000 
#    0.000    0.000    0.000    0.000    0.000    0.000 
#    0.000    0.000    0.000    0.000    0.000    0.000 
#
# Total GULP energy -89126.298801 kJ/mol
# GULP energy per Si atom -5570.393675 kJ/mol
# Density = 1.137849 g / cm^3
# Si number density = 11.404450 Si / 1000 Ang^3
#
#
#
# Elastic Constant Matrix: (Units=GPa)
#
#
# Indices 1 2 3 4 5 6 
#
# 1 61.4646 14.2037 33.9495 0.0000 3.7284 0.0000
# 2 14.2037 24.2430 0.3695 0.0000 9.3077 0.0000
# 3 33.9495 0.3695 87.0324 0.0000 43.9630 0.0000
# 4 0.0000 0.0000 0.0000 15.7516 0.0000 6.4631
# 5 3.7284 9.3077 43.9630 0.0000 35.6446 0.0000
# 6 0.0000 0.0000 0.0000 6.4631 0.0000 6.3436
#
#
#
# Elastic Compliance Matrix: (Units=1/GPa)
#
#
# Indices 1 2 3 4 5 6 
#
# 1 0.196952 -0.252809 -0.261800 0.000000 0.368311 0.000000
# 2 -0.252809 0.379908 0.354809 0.000000 -0.510371 0.000000
# 3 -0.261800 0.354809 0.384832 0.000000 -0.539906 0.000000
# 4 0.000000 0.000000 0.000000 0.109090 0.000000 -0.111144
# 5 0.368311 -0.510371 -0.539906 0.000000 0.788706 0.000000
# 6 0.000000 0.000000 0.000000 -0.111144 0.000000 0.270876
#
#
# Mechanical properties :
#
#
# Convention : Reuss Voigt Hill
#
# Bulk Modulus (GPa) = 1.55741 29.97616 15.76679
# Shear Modulus (GPa) = 1.87688 19.82912 10.85300
#
# Velocity S-wave (km/s) = 0.90811 2.95169 2.18370
# Velocity P-wave (km/s) = 1.33560 4.97870 3.64495
#
# Compressibility (1/GPa) = 0.64209051
#
# Stress axis : x y z
#
# Youngs Moduli (GPa) = 5.07737 2.63222 2.59854
#
# Poissons Ratio (x) = 0.66545 0.68030
# Poissons Ratio (y) = 1.28360 -0.92198
# Poissons Ratio (z) = 1.32926 -0.93393
#
# Static dielectric constant tensor:
#      x y z
#    x 1.855920 0.000000 -0.023630 
#    y 0.000000 1.925260 0.000000 
#    z -0.023630 0.000000 1.895770 
# 
# From -- ./inp_files/17991.got.cif
#   From: 2010.05.17/outbox.ucp.g08.bks.cvg/sg9_9_cif.got.tgz:17991.got - 2010.06.11 13:03:20.
