data_PCOD9141095
_publ_section_title
;
Structure prediction by ZEFSAII (Michael W. Deem and Ramdas Pophale) SiO2 
 PCOD9141095
Probable space group: C C
;
_chemical_formula_sum "Si O2"
_cell_formula_units_Z 32
_cell_length_a 7.738435
_cell_length_b 27.188920
_cell_length_c 7.552237
_cell_angle_alpha 90.000000
_cell_angle_beta 57.030692
_cell_angle_gamma 90.000000
_cell_volume 1333.101137
_symmetry_space_group_name_H-M "C C"
_symmetry_group_IT_number 9
_symmetry_cell_setting 'monoclinic'
loop_
_space_group_symop_operation_xyz
x,y,z
x,-y,1/2+z
1/2+x,1/2+y,z
1/2+x,1/2-y,1/2+z
loop_
_atom_site_type_symbol
_atom_site_label
_atom_site_fract_x
_atom_site_fract_y
_atom_site_fract_z
Si Si1 0.329580 0.315185 0.293460
Si Si2 0.413135 0.198070 0.880050
Si Si3 0.869738 0.913132 0.414810
Si Si4 0.480906 0.462177 0.997739
Si Si5 0.650079 0.713373 0.356344
Si Si6 0.334132 0.887924 0.225278
Si Si7 0.139430 0.453354 0.881258
Si Si8 0.288188 0.964070 0.538425
O O1 0.306763 0.355931 0.454194
O O2 0.285579 0.258051 0.365385
O O3 0.140227 0.325012 0.266034
O O4 0.540701 0.318465 0.066187
O O5 0.285424 0.188502 0.130534
O O6 0.465260 0.256102 0.858875
O O7 0.310863 0.169793 0.776733
O O8 0.861932 0.934375 0.221101
O O9 0.805306 0.035290 0.442317
O O10 0.112664 0.005308 0.026222
O O11 0.252155 0.556946 0.131727
O O12 0.615254 0.589513 0.798821
O O13 0.673308 0.442113 0.774360
O O14 0.511688 0.903924 0.994539
O O15 0.377860 0.918701 0.379758
O O16 0.968401 0.496571 0.975314
#
# Coordination Sequence:
#
# PCOD9141095 Si02
#       8
#     4   4   4   4   4   4   4   4
#     4   9  19  40  69 103 138 189 241 296 375 437
#     4   9  19  39  72 101 138 190 240 295 377 435
#     4  12  27  50  72 112 147 194 255 310 370 453
#     4  12  27  51  74 103 147 194 251 309 364 436
#     4   8  18  40  72 103 143 190 238 304 380 435
#     4  12  26  47  68 111 146 191 252 308 361 449
#     4  12  29  52  76 103 154 203 243 309 383 425
#     4  12  27  51  73 106 145 197 256 299 366 442
#
# _framework density 24.004182
#
# number of rings (size 3 to 8) (size 9 to 14) (size 15 to 20)
#    0.750    0.500    3.750    0.750    3.500    4.000 
#    4.500    1.250    0.000    0.000    0.000    0.000 
#    0.000    0.000    0.000    0.000    0.000    0.000 
#
# Total GULP energy -89187.594056 kJ/mol
# GULP energy per Si atom -5574.224628 kJ/mol
# Density = 2.394955 g / cm^3
# Si number density = 24.004182 Si / 1000 Ang^3
#
#
#
# Elastic Constant Matrix: (Units=GPa)
#
#
# Indices 1 2 3 4 5 6 
#
# 1 90.6842 28.4818 47.6822 0.0000 -4.5702 0.0000
# 2 28.4818 68.6635 35.7593 0.0000 8.5477 0.0000
# 3 47.6822 35.7593 176.2616 0.0000 -2.9868 0.0000
# 4 0.0000 0.0000 0.0000 28.3782 0.0000 14.1773
# 5 -4.5702 8.5477 -2.9868 0.0000 28.7740 0.0000
# 6 0.0000 0.0000 0.0000 14.1773 0.0000 21.1798
#
#
#
# Elastic Compliance Matrix: (Units=1/GPa)
#
#
# Indices 1 2 3 4 5 6 
#
# 1 0.014195 -0.004855 -0.002797 0.000000 0.003407 0.000000
# 2 -0.004855 0.018757 -0.002604 0.000000 -0.006614 0.000000
# 3 -0.002797 -0.002604 0.006976 0.000000 0.001053 0.000000
# 4 0.000000 0.000000 0.000000 0.052943 0.000000 -0.035439
# 5 0.003407 -0.006614 0.001053 0.000000 0.037369 0.000000
# 6 0.000000 0.000000 0.000000 -0.035439 0.000000 0.070937
#
#
# Mechanical properties :
#
#
# Convention : Reuss Voigt Hill
#
# Bulk Modulus (GPa) = 51.50628 62.16176 56.83402
# Shear Modulus (GPa) = 21.91428 30.57881 26.24655
#
# Velocity S-wave (km/s) = 3.02476 3.57304 3.31027
# Velocity P-wave (km/s) = 5.80540 6.55550 6.19182
#
# Compressibility (1/GPa) = 0.01941511
#
# Stress axis : x y z
#
# Youngs Moduli (GPa) = 70.44899 53.31290 143.34407
#
# Poissons Ratio (x) = 0.25885 0.40096
# Poissons Ratio (y) = 0.34205 0.37327
# Poissons Ratio (z) = 0.19706 0.13883
#
# Static dielectric constant tensor:
#      x y z
#    x 2.018110 0.000000 0.016560 
#    y 0.000000 1.979040 0.000000 
#    z 0.016560 0.000000 1.886630 
# 
# From -- ./inp_files/17187.got.cif
#   From: 2010.05.17/outbox.cif.g08.bks.cpg/sg9_9_cif.got.tgz:17187.got - 2010.06.03 20:04:27.
