data_PCOD9141789
_publ_section_title
;
Structure prediction by ZEFSAII (Michael W. Deem and Ramdas Pophale) SiO2 
 PCOD9141789
Probable space group: P 2/M
;
_chemical_formula_sum "Si O2"
_cell_formula_units_Z 20
_cell_length_a 22.145405
_cell_length_b 8.703528
_cell_length_c 10.597196
_cell_angle_alpha 90.000000
_cell_angle_beta 144.754637
_cell_angle_gamma 90.000000
_cell_volume 1178.705386
_symmetry_space_group_name_H-M "P 2/M"
_symmetry_group_IT_number 10
_symmetry_cell_setting 'monoclinic'
loop_
_space_group_symop_operation_xyz
x,y,z
-x,y,-z
-x,-y,-z
x,-y,z
loop_
_atom_site_type_symbol
_atom_site_label
_atom_site_fract_x
_atom_site_fract_y
_atom_site_fract_z
Si Si1 0.068930 0.313119 0.497219
Si Si2 0.730343 0.815189 0.762309
Si Si3 0.501221 0.822061 0.348641
Si Si4 0.283276 0.316638 0.978483
Si Si5 0.054715 0.685958 0.962683
O O1 0.067104 0.500000 0.492761
O O2 0.188597 0.266564 0.726125
O O3 0.000000 0.263899 0.500000
O O4 0.015410 0.262565 0.276356
O O5 0.617459 0.764961 0.513641
O O6 0.829836 0.753655 0.857436
O O7 0.729482 0.000000 0.764509
O O8 0.736409 0.754433 0.916500
O O9 0.500000 0.817328 0.500000
O O10 0.490565 0.000000 0.293068
O O11 0.398657 0.731981 0.130990
O O12 0.279026 0.500000 0.984568
O O13 0.062173 0.500000 0.971471
O O14 0.000000 0.729735 0.000000
#
# Coordination Sequence:
#
# PCOD9141789 Si02
#       5
#     4   4   4   4   4
#     4   9  16  29  48  71 100 125 150 197 248 278
#     4  10  19  31  47  68  99 131 158 195 241 283
#     4   8  16  29  43  65  98 128 154 195 244 280
#     4  10  17  27  48  73  97 125 159 197 239 285
#     4  10  20  34  52  72  95 127 164 198 236 285
#
# _framework density 16.967766999999998
#
# number of rings (size 3 to 8) (size 9 to 14) (size 15 to 20)
#    0.000    2.600    2.000    2.400    0.000    4.800 
#    0.000    3.000    0.000    1.200    0.000    8.400 
#    0.000    0.000    0.000    0.000    0.000    0.000 
#
# Total GULP energy -111433.533987 kJ/mol
# GULP energy per Si atom -5571.676699 kJ/mol
# Density = 1.692915 g / cm^3
# Si number density = 16.967767 Si / 1000 Ang^3
#
#
#
# Elastic Constant Matrix: (Units=GPa)
#
#
# Indices 1 2 3 4 5 6 
#
# 1 123.3715 28.8682 86.4203 0.0000 26.4678 0.0000
# 2 28.8682 24.6906 27.6548 0.0000 9.5564 0.0000
# 3 86.4203 27.6548 125.9874 0.0000 32.3856 0.0000
# 4 0.0000 0.0000 0.0000 -41.3591 0.0000 22.4967
# 5 26.4678 9.5564 32.3856 0.0000 34.8680 0.0000
# 6 0.0000 0.0000 0.0000 22.4967 0.0000 17.9687
#
#
#
# Elastic Compliance Matrix: (Units=1/GPa)
#
#
# Indices 1 2 3 4 5 6 
#
# 1 0.017095 -0.008835 -0.009292 0.000000 -0.001924 0.000000
# 2 -0.008835 0.058930 -0.005842 0.000000 -0.004018 0.000000
# 3 -0.009292 -0.005842 0.017562 0.000000 -0.007657 0.000000
# 4 0.000000 0.000000 0.000000 -0.014383 0.000000 0.018008
# 5 -0.001924 -0.004018 -0.007657 0.000000 0.038353 0.000000
# 6 0.000000 0.000000 0.000000 0.018008 0.000000 0.033107
#
#
# Mechanical properties :
#
#
# Convention : Reuss Voigt Hill
#
# Bulk Modulus (GPa) = 21.90666 62.21513 42.06090
# Shear Modulus (GPa) = 23.38446 11.03594 17.21020
#
# Velocity S-wave (km/s) = 3.71640 2.55307 3.18824
# Velocity P-wave (km/s) = 5.59949 6.74071 6.19643
#
# Compressibility (1/GPa) = 0.04564821
#
# Stress axis : x y z
#
# Youngs Moduli (GPa) = 58.49764 16.96932 56.94184
#
# Poissons Ratio (x) = 0.14992 0.52911
# Poissons Ratio (y) = 0.51680 0.33268
# Poissons Ratio (z) = 0.54356 0.09914
#
# Static dielectric constant tensor:
#      x y z
#    x 1.566010 0.000000 0.032200 
#    y 0.000000 1.574900 0.000000 
#    z 0.032200 0.000000 1.587510 
# 
# From -- ./inp_files/31422.got.cif
#   From: 2010.05.17/outbox.cif.g08.bks.cpg/sg10_16_cif.got.tgz:31422.got - 2010.06.03 11:33:40.
