data_PCOD9141358
_publ_section_title
;
Structure prediction by ZEFSAII (Michael W. Deem and Ramdas Pophale) SiO2 
 PCOD9141358
Probable space group: P 2/M
;
_chemical_formula_sum "Si O2"
_cell_formula_units_Z 28
_cell_length_a 18.996332
_cell_length_b 9.451531
_cell_length_c 21.085525
_cell_angle_alpha 90.000000
_cell_angle_beta 160.212953
_cell_angle_gamma 90.000000
_cell_volume 1281.584783
_symmetry_space_group_name_H-M "P 2/M"
_symmetry_group_IT_number 10
_symmetry_cell_setting 'monoclinic'
loop_
_space_group_symop_operation_xyz
x,y,z
-x,y,-z
-x,-y,-z
x,-y,z
loop_
_atom_site_type_symbol
_atom_site_label
_atom_site_fract_x
_atom_site_fract_y
_atom_site_fract_z
Si Si1 0.302998 0.159865 0.783124
Si Si2 0.252581 0.161861 0.040293
Si Si3 0.201367 0.161156 0.414330
Si Si4 0.071553 0.830681 0.706795
Si Si5 0.441094 0.331468 0.091628
Si Si6 0.626996 0.660337 0.547978
Si Si7 0.071713 0.659881 0.990750
O O1 0.103828 0.187254 0.658999
O O2 0.361461 0.270386 0.778731
O O3 0.292621 0.000000 0.748282
O O4 0.500000 0.160520 0.000000
O O5 0.026488 0.163760 0.813354
O O6 0.214481 0.227724 0.076765
O O7 0.322148 0.000000 0.099740
O O8 0.404115 0.260656 0.128335
O O9 0.351889 0.257702 0.500112
O O10 0.141042 0.199169 0.435646
O O11 0.275279 0.000000 0.474779
O O12 0.117002 0.000000 0.757096
O O13 0.243941 0.729605 0.884644
O O14 0.439722 0.500000 0.093180
O O15 0.500000 0.724323 0.500000
O O16 0.548899 0.500000 0.472683
O O17 0.861355 0.651917 0.771973
O O18 0.158235 0.500000 0.065622
O O19 0.000000 0.700583 0.000000
#
# Coordination Sequence:
#
# PCOD9141358 Si02
#       7
#     4   4   4   4   4   4   4
#     4   8  13  21  30  40  60  91 123 154 190 230
#     4   9  16  26  38  51  70  97 128 159 193 235
#     4   8  14  24  37  52  69  93 127 162 193 227
#     4   8  14  23  32  43  63  92 124 157 193 233
#     4  10  16  20  29  46  67  91 123 160 193 227
#     4   9  17  28  41  58  80 105 131 159 195 238
#     4   9  17  29  44  61  80 102 130 165 201 233
#
# _framework density 21.847949
#
# number of rings (size 3 to 8) (size 9 to 14) (size 15 to 20)
#    0.000    3.286    0.000    3.429    0.000    6.571 
#    0.000    0.000    0.000    0.000    0.000    0.000 
#    0.000    0.000    0.000    1.286    0.000   28.286 
#
# Total GULP energy -156169.897542 kJ/mol
# GULP energy per Si atom -5577.496341 kJ/mol
# Density = 2.179822 g / cm^3
# Si number density = 21.847949 Si / 1000 Ang^3
#
#
#
# Elastic Constant Matrix: (Units=GPa)
#
#
# Indices 1 2 3 4 5 6 
#
# 1 160.1732 111.2079 -1.7112 0.0000 43.1737 0.0000
# 2 111.2079 149.1945 20.3395 0.0000 33.7543 0.0000
# 3 -1.7112 20.3395 72.9361 0.0000 -5.5768 0.0000
# 4 0.0000 0.0000 0.0000 -2.7885 0.0000 11.8204
# 5 43.1737 33.7543 -5.5768 0.0000 25.9168 0.0000
# 6 0.0000 0.0000 0.0000 11.8204 0.0000 15.9480
#
#
#
# Elastic Compliance Matrix: (Units=1/GPa)
#
#
# Indices 1 2 3 4 5 6 
#
# 1 0.017006 -0.009358 0.001804 0.000000 -0.015753 0.000000
# 2 -0.009358 0.015719 -0.005060 0.000000 -0.005972 0.000000
# 3 0.001804 -0.005060 0.015696 0.000000 0.006962 0.000000
# 4 0.000000 0.000000 0.000000 -0.086583 0.000000 0.064174
# 5 -0.015753 -0.005972 0.006962 0.000000 0.074105 0.000000
# 6 0.000000 0.000000 0.000000 0.064174 0.000000 0.015139
#
#
# Mechanical properties :
#
#
# Convention : Reuss Voigt Hill
#
# Bulk Modulus (GPa) = 43.11441 71.33068 57.22255
# Shear Modulus (GPa) = 59.49542 24.64642 42.07092
#
# Velocity S-wave (km/s) = 5.22405 3.36235 4.39295
# Velocity P-wave (km/s) = 7.49428 6.91328 7.20964
#
# Compressibility (1/GPa) = 0.02319410
#
# Stress axis : x y z
#
# Youngs Moduli (GPa) = 58.80322 63.61788 63.70949
#
# Poissons Ratio (x) = 0.59532 -0.11493
# Poissons Ratio (y) = 0.55027 0.32235
# Poissons Ratio (z) = -0.10608 0.32189
#
# Static dielectric constant tensor:
#      x y z
#    x 1.575420 0.000000 0.470850 
#    y 0.000000 1.735940 0.000000 
#    z 0.470850 0.000000 0.937220 
# 
# From -- ./inp_files/54461.got.cif
#   From: 2010.05.17/outbox.cif.g08.bks.cpg/sg10_28_cif.got.tgz:54461.got - 2010.06.03 11:33:40.
