data_PCOD9141572
_publ_section_title
;
Structure prediction by ZEFSAII (Michael W. Deem and Ramdas Pophale) SiO2 
 PCOD9141572
Probable space group: P 2/M
;
_chemical_formula_sum "Si O2"
_cell_formula_units_Z 26
_cell_length_a 15.586474
_cell_length_b 7.917127
_cell_length_c 9.658679
_cell_angle_alpha 90.000000
_cell_angle_beta 57.145765
_cell_angle_gamma 90.000000
_cell_volume 1001.244509
_symmetry_space_group_name_H-M "P 2/M"
_symmetry_group_IT_number 10
_symmetry_cell_setting 'monoclinic'
loop_
_space_group_symop_operation_xyz
x,y,z
-x,y,-z
-x,-y,-z
x,-y,z
loop_
_atom_site_type_symbol
_atom_site_label
_atom_site_fract_x
_atom_site_fract_y
_atom_site_fract_z
Si Si1 0.960838 0.309135 0.348009
Si Si2 0.601517 0.706348 0.990850
Si Si3 0.262329 0.698239 0.514750
Si Si4 0.000000 0.752000 0.000000
Si Si5 0.774329 0.186504 0.149580
Si Si6 0.817046 0.302145 0.807604
Si Si7 0.483753 0.706554 0.356638
O O1 0.951909 0.500000 0.409050
O O2 0.985286 0.329696 0.163238
O O3 0.067707 0.230742 0.312952
O O4 0.845856 0.231545 0.450538
O O5 0.605298 0.500000 0.979287
O O6 0.575045 0.752196 0.173301
O O7 0.500000 0.760390 0.000000
O O8 0.711159 0.767415 0.836826
O O9 0.261446 0.500000 0.478825
O O10 0.261882 0.713226 0.683682
O O11 0.375714 0.766084 0.387127
O O12 0.106602 0.840621 0.921886
O O13 0.727252 0.000000 0.179758
O O14 0.784604 0.285102 0.997046
O O15 0.824731 0.500000 0.769487
O O16 0.500000 0.764037 0.500000
O O17 0.479747 0.500000 0.362729
#
# Coordination Sequence:
#
# PCOD9141572 Si02
#       7
#     4   4   4   2   4   4   4
#     4   8  13  21  36  58  82 110 143 178 217 263
#     4   9  17  29  47  70  91 113 148 192 227 256
#     4   9  16  26  40  59  86 118 149 179 217 266
#     4   8  14  22  32  52  85 120 147 176 217 260
#     4  10  17  24  37  60  90 119 148 183 222 262
#     4   9  16  27  43  61  83 112 147 184 222 265
#     4   9  16  26  43  66  90 117 149 184 220 260
#
# _framework density 25.967682
#
# number of rings (size 3 to 8) (size 9 to 14) (size 15 to 20)
#    0.000    3.077    0.000    1.846    0.000    6.154 
#    0.000    0.000    0.000    5.538    0.000    6.462 
#    0.000    0.000    0.000   11.231    0.000    6.615 
#
# Total GULP energy -144796.571303 kJ/mol
# GULP energy per Si atom -5569.098896 kJ/mol
# Density = 2.590858 g / cm^3
# Si number density = 25.967682 Si / 1000 Ang^3
#
#
#
# Elastic Constant Matrix: (Units=GPa)
#
#
# Indices 1 2 3 4 5 6 
#
# 1 198.2305 7.8800 79.3291 0.0000 -50.7669 0.0000
# 2 7.8800 33.5845 4.0932 0.0000 3.0444 0.0000
# 3 79.3291 4.0932 138.5091 0.0000 -32.2715 0.0000
# 4 0.0000 0.0000 0.0000 -0.5542 0.0000 -14.7031
# 5 -50.7669 3.0444 -32.2715 0.0000 71.0797 0.0000
# 6 0.0000 0.0000 0.0000 -14.7031 0.0000 7.2073
#
#
#
# Elastic Compliance Matrix: (Units=1/GPa)
#
#
# Indices 1 2 3 4 5 6 
#
# 1 0.007425 -0.001692 -0.003299 0.000000 0.003878 0.000000
# 2 -0.001692 0.030495 -0.000579 0.000000 -0.002777 0.000000
# 3 -0.003299 -0.000579 0.009599 0.000000 0.002026 0.000000
# 4 0.000000 0.000000 0.000000 -0.032734 0.000000 -0.066779
# 5 0.003878 -0.002777 0.002026 0.000000 0.017877 0.000000
# 6 0.000000 0.000000 0.000000 -0.066779 0.000000 0.002517
#
#
# Mechanical properties :
#
#
# Convention : Reuss Voigt Hill
#
# Bulk Modulus (GPa) = 27.48896 61.43650 44.46273
# Shear Modulus (GPa) = 85.54966 34.14802 59.84884
#
# Velocity S-wave (km/s) = 5.74597 3.63025 4.80598
# Velocity P-wave (km/s) = 7.39124 6.42510 6.92504
#
# Compressibility (1/GPa) = 0.03637824
#
# Stress axis : x y z
#
# Youngs Moduli (GPa) = 134.67444 32.79230 104.18205
#
# Poissons Ratio (x) = 0.05547 0.34372
# Poissons Ratio (y) = 0.22782 0.06037
# Poissons Ratio (z) = 0.44432 0.01900
#
# Static dielectric constant tensor:
#      x y z
#    x 2.188620 0.000000 0.039740 
#    y 0.000000 2.019730 0.000000 
#    z 0.039740 0.000000 2.067780 
# 
# From -- ./inp_files/48992.got.cif
#   From: 2010.05.17/outbox.cif.g08.bks.cpg/sg10_25_cif.got.tgz:48992.got - 2010.06.03 11:33:40.
