data_PCOD9141089
_publ_section_title
;
Structure prediction by ZEFSAII (Michael W. Deem and Ramdas Pophale) SiO2 
 PCOD9141089
Probable space group: C C
;
_chemical_formula_sum "Si O2"
_cell_formula_units_Z 32
_cell_length_a 7.026262
_cell_length_b 11.652891
_cell_length_c 18.796034
_cell_angle_alpha 90.000000
_cell_angle_beta 114.899603
_cell_angle_gamma 90.000000
_cell_volume 1395.899027
_symmetry_space_group_name_H-M "C C"
_symmetry_group_IT_number 9
_symmetry_cell_setting 'monoclinic'
loop_
_space_group_symop_operation_xyz
x,y,z
x,-y,1/2+z
1/2+x,1/2+y,z
1/2+x,1/2-y,1/2+z
loop_
_atom_site_type_symbol
_atom_site_label
_atom_site_fract_x
_atom_site_fract_y
_atom_site_fract_z
Si Si1 0.836740 0.673355 0.322330
Si Si2 0.257153 0.474939 0.134733
Si Si3 0.901680 0.877868 0.550660
Si Si4 0.330590 0.059794 0.047550
Si Si5 0.741718 0.444063 0.247448
Si Si6 0.687209 0.333433 0.950390
Si Si7 0.779057 0.705970 0.895877
Si Si8 0.999629 0.299652 0.179782
O O1 0.859096 0.565382 0.273741
O O2 0.757200 0.624870 0.384555
O O3 0.654717 0.755202 0.264961
O O4 0.046931 0.744007 0.365313
O O5 0.293997 0.502135 0.056416
O O6 0.492372 0.472125 0.203450
O O7 0.152599 0.357938 0.145598
O O8 0.058252 0.558762 0.120415
O O9 0.785219 0.793424 0.478376
O O10 0.138802 0.895705 0.564094
O O11 0.897786 0.807171 0.623661
O O12 0.333918 0.132351 0.974849
O O13 0.270535 0.928576 0.017645
O O14 0.787589 0.367714 0.324549
O O15 0.827929 0.378838 0.191442
O O16 0.441133 0.311443 0.916861
#
# Coordination Sequence:
#
# PCOD9141089 Si02
#       8
#     4   4   4   4   4   4   4   4
#     4  12  26  46  72 106 143 190 242 298 362 436
#     4  12  26  46  74 106 144 192 236 298 362 434
#     4  12  27  47  73 109 149 186 240 300 363 437
#     4  12  27  47  74 109 145 190 247 300 360 441
#     4  12  27  47  74 109 145 190 247 300 360 441
#     4  12  26  46  72 106 143 190 242 298 362 436
#     4  12  26  46  74 104 144 190 242 304 362 420
#     4  12  27  47  73 109 149 186 240 300 363 437
#
# _framework density 22.924292999999999
#
# number of rings (size 3 to 8) (size 9 to 14) (size 15 to 20)
#    0.000    0.000    8.750    0.750    0.000    7.000 
#    0.000    0.000    0.000    0.000    0.000    0.000 
#    0.000    0.000    0.000    0.000    0.000    0.000 
#
# Total GULP energy -89422.713976 kJ/mol
# GULP energy per Si atom -5588.919623 kJ/mol
# Density = 2.287212 g / cm^3
# Si number density = 22.924293 Si / 1000 Ang^3
#
#
#
# Elastic Constant Matrix: (Units=GPa)
#
#
# Indices 1 2 3 4 5 6 
#
# 1 105.2449 27.6960 28.8001 0.0000 -5.9063 0.0000
# 2 27.6960 68.5498 22.6635 0.0000 -8.9716 0.0000
# 3 28.8001 22.6635 70.7787 0.0000 2.5079 0.0000
# 4 0.0000 0.0000 0.0000 48.1797 0.0000 -4.4780
# 5 -5.9063 -8.9716 2.5079 0.0000 41.2683 0.0000
# 6 0.0000 0.0000 0.0000 -4.4780 0.0000 37.6412
#
#
#
# Elastic Compliance Matrix: (Units=1/GPa)
#
#
# Indices 1 2 3 4 5 6 
#
# 1 0.011421 -0.003259 -0.003644 0.000000 0.001147 0.000000
# 2 -0.003259 0.017887 -0.004532 0.000000 0.003698 0.000000
# 3 -0.003644 -0.004532 0.017153 0.000000 -0.002549 0.000000
# 4 0.000000 0.000000 0.000000 0.020988 0.000000 0.002497
# 5 0.001147 0.003698 -0.002549 0.000000 0.025355 0.000000
# 6 0.000000 0.000000 0.000000 0.002497 0.000000 0.026864
#
#
# Mechanical properties :
#
#
# Convention : Reuss Voigt Hill
#
# Bulk Modulus (GPa) = 42.39202 44.76585 43.57893
# Shear Modulus (GPa) = 33.24420 36.44542 34.84481
#
# Velocity S-wave (km/s) = 3.81225 3.99158 3.90294
# Velocity P-wave (km/s) = 6.15711 6.38856 6.27390
#
# Compressibility (1/GPa) = 0.02358935
#
# Stress axis : x y z
#
# Youngs Moduli (GPa) = 87.55784 55.90595 58.29893
#
# Poissons Ratio (x) = 0.18222 0.21246
# Poissons Ratio (y) = 0.28539 0.26423
# Poissons Ratio (z) = 0.31908 0.25338
#
# Static dielectric constant tensor:
#      x y z
#    x 1.820760 0.000000 -0.000650 
#    y 0.000000 1.901400 0.000000 
#    z -0.000650 0.000000 1.866350 
# 
# From -- ./inp_files/32009.got.cif
#   From: 2010.05.17/outbox.cif.g08.bks.cpg/sg9_17_cif.got.tgz:32009.got - 2010.06.03 20:04:27.
