data_PCOD9141906
_publ_section_title
;
Structure prediction by ZEFSAII (Michael W. Deem and Ramdas Pophale) SiO2 
 PCOD9141906
Probable space group: P 2/M
;
_chemical_formula_sum "Si O2"
_cell_formula_units_Z 32
_cell_length_a 14.893318
_cell_length_b 7.552478
_cell_length_c 28.524014
_cell_angle_alpha 90.000000
_cell_angle_beta 29.398677
_cell_angle_gamma 90.000000
_cell_volume 1574.962174
_symmetry_space_group_name_H-M "P 2/M"
_symmetry_group_IT_number 10
_symmetry_cell_setting 'monoclinic'
loop_
_space_group_symop_operation_xyz
x,y,z
-x,y,-z
-x,-y,-z
x,-y,z
loop_
_atom_site_type_symbol
_atom_site_label
_atom_site_fract_x
_atom_site_fract_y
_atom_site_fract_z
Si Si1 0.793245 0.715992 0.104800
Si Si2 0.002134 0.714608 0.157639
Si Si3 0.701533 0.197158 0.803069
Si Si4 0.354956 0.283334 0.726665
Si Si5 0.316380 0.713012 0.944228
Si Si6 0.742884 0.283643 0.580178
Si Si7 0.852000 0.287396 0.632120
Si Si8 0.295807 0.701471 0.097268
O O1 0.791834 0.500000 0.105971
O O2 0.720760 0.771527 0.187877
O O3 0.677480 0.771910 0.112322
O O4 0.000000 0.770651 0.000000
O O5 0.989391 0.500000 0.167369
O O6 0.129774 0.779178 0.142207
O O7 0.794945 0.777303 0.243169
O O8 0.123153 0.753033 0.056260
O O9 0.482988 0.210288 0.897324
O O10 0.777099 0.242481 0.717318
O O11 0.753885 0.304858 0.825358
O O12 0.759437 0.000000 0.787951
O O13 0.355307 0.500000 0.725173
O O14 0.566040 0.225887 0.631310
O O15 0.337256 0.500000 0.935498
O O16 0.741147 0.500000 0.580975
O O17 0.741518 0.228271 0.635779
O O18 0.938210 0.227797 0.470524
O O19 0.851232 0.500000 0.630022
O O20 0.317506 0.500000 0.068937
O O21 0.500000 0.783201 0.000000
#
# Coordination Sequence:
#
# PCOD9141906 Si02
#       8
#     4   4   4   4   4   4   4   4
#     4   9  14  20  38  71 105 130 155 188 227 278
#     4   9  16  26  44  70  99 127 159 198 243 294
#     4  12  24  34  48  72  99 130 168 213 256 293
#     4   9  14  22  39  72 108 129 152 196 247 291
#     4  10  17  29  47  70  99 133 166 197 235 290
#     4   8  15  28  51  80 106 129 159 202 247 292
#     4   9  17  33  54  77 102 131 165 201 247 298
#     4  10  19  34  53  71  94 129 170 209 251 297
#
# _framework density 20.317947
#
# number of rings (size 3 to 8) (size 9 to 14) (size 15 to 20)
#    0.000    2.500    2.500    2.625    0.000    2.250 
#    0.000    1.250    0.000    1.125    0.000    7.875 
#    0.000    0.000    0.000    0.000    0.000    0.000 
#
# Total GULP energy -178439.914530 kJ/mol
# GULP energy per Si atom -5576.247329 kJ/mol
# Density = 2.027170 g / cm^3
# Si number density = 20.317947 Si / 1000 Ang^3
#
#
#
# Elastic Constant Matrix: (Units=GPa)
#
#
# Indices 1 2 3 4 5 6 
#
# 1 150.9703 6.0415 47.8709 0.0000 -28.7260 0.0000
# 2 6.0415 45.0103 4.4943 0.0000 -2.2087 0.0000
# 3 47.8709 4.4943 75.5345 0.0000 -20.0623 0.0000
# 4 0.0000 0.0000 0.0000 191.7985 0.0000 -135.9979
# 5 -28.7260 -2.2087 -20.0623 0.0000 36.9198 0.0000
# 6 0.0000 0.0000 0.0000 -135.9979 0.0000 -68.2620
#
#
#
# Elastic Compliance Matrix: (Units=1/GPa)
#
#
# Indices 1 2 3 4 5 6 
#
# 1 0.008900 -0.000533 -0.004415 0.000000 0.004494 0.000000
# 2 -0.000533 0.022398 -0.000875 0.000000 0.000449 0.000000
# 3 -0.004415 -0.000875 0.017721 0.000000 0.006142 0.000000
# 4 0.000000 0.000000 0.000000 0.002161 0.000000 -0.004305
# 5 0.004494 0.000449 0.006142 0.000000 0.033946 0.000000
# 6 0.000000 0.000000 0.000000 -0.004305 0.000000 -0.006072
#
#
# Mechanical properties :
#
#
# Convention : Reuss Voigt Hill
#
# Bulk Modulus (GPa) = 26.75867 43.14760 34.95313
# Shear Modulus (GPa) = 48.46861 46.29848 47.38354
#
# Velocity S-wave (km/s) = 4.88946 4.77875 4.83442
# Velocity P-wave (km/s) = 6.71374 7.19242 6.95720
#
# Compressibility (1/GPa) = 0.03737107
#
# Stress axis : x y z
#
# Youngs Moduli (GPa) = 112.35607 44.64651 56.43156
#
# Poissons Ratio (x) = 0.02381 0.24917
# Poissons Ratio (y) = 0.05991 0.04940
# Poissons Ratio (z) = 0.49609 0.03908
#
# Static dielectric constant tensor:
#      x y z
#    x 1.748670 0.000000 -0.020000 
#    y 0.000000 1.771850 0.000000 
#    z -0.020000 0.000000 1.714320 
# 
# From -- ./inp_files/95245.got.cif
#   From: 2010.05.17/outbox.cif.g08.bks.cpg/sg10_48_cif.got.tgz:95245.got - 2010.06.03 11:33:40.
