data_PCOD9141215
_publ_section_title
;
Structure prediction by ZEFSAII (Michael W. Deem and Ramdas Pophale) SiO2 
 PCOD9141215
Probable space group: C C
;
_chemical_formula_sum "Si O2"
_cell_formula_units_Z 16
_cell_length_a 15.000000
_cell_length_b 12.000000
_cell_length_c 27.000000
_cell_angle_alpha 90.000000
_cell_angle_beta 160.000000
_cell_angle_gamma 90.000000
_cell_volume 1662.217897
_symmetry_space_group_name_H-M "C C"
_symmetry_group_IT_number 9
_symmetry_cell_setting 'monoclinic'
loop_
_space_group_symop_operation_xyz
x,y,z
x,-y,1/2+z
1/2+x,1/2+y,z
1/2+x,1/2-y,1/2+z
loop_
_atom_site_type_symbol
_atom_site_label
_atom_site_fract_x
_atom_site_fract_y
_atom_site_fract_z
Si Si1 0.500000 0.205908 0.457720
Si Si2 0.024175 0.272617 0.790709
Si Si3 0.757729 0.659601 0.001325
Si Si4 0.668104 0.543364 0.520922
Si Si5 0.260178 0.021995 0.789564
Si Si6 0.234214 0.590567 0.857500
Si Si7 0.699339 0.007739 0.442539
Si Si8 0.779287 0.770676 0.821033
O O1 0.743900 0.227870 0.623478
O O2 0.601880 0.261395 0.459365
O O3 0.272666 0.282571 0.360947
O O4 0.380092 0.084605 0.381759
O O5 0.153864 0.177470 0.892088
O O6 0.077439 0.379581 0.854207
O O7 0.175112 0.308395 0.820108
O O8 0.716075 0.533999 0.998357
O O9 0.057594 0.695800 0.165551
O O10 0.456783 0.477071 0.443857
O O11 0.541794 0.663726 0.445465
O O12 0.943852 0.553156 0.691967
O O13 0.289320 0.138455 0.832780
O O14 0.959048 0.016837 0.612760
O O15 0.455684 0.037910 0.845654
O O16 0.277747 0.570549 0.937945
#
# Coordination Sequence:
#
# PCOD9141215 Si02
#       8
#     4   4   4   4   4   4   4   4
#     4  10  23  40  63  97 133 169 210 276 335 380
#     4  11  20  44  68  90 129 182 217 254 337 414
#     4  10  20  42  66  91 126 174 219 262 331 398
#     4  11  21  40  65  93 130 162 214 276 323 375
#     4  12  25  43  64  97 139 170 211 280 338 393
#     4  11  22  38  68  96 123 164 220 273 317 384
#     4  12  22  40  71  98 122 174 235 267 318 397
#     4  11  23  41  65  94 132 169 214 274 333 385
#
# _framework density 9.6256939999999993
#
# number of rings (size 3 to 8) (size 9 to 14) (size 15 to 20)
#    0.000    1.000    5.000    3.750    1.750    0.000 
#    2.250    1.250    0.000    0.000    0.000    0.000 
#    0.000    0.000    0.000    0.000    0.000    0.000 
#
# Total GULP energy -89198.205875 kJ/mol
# GULP energy per Si atom -5574.887867 kJ/mol
# Density = 0.960378 g / cm^3
# Si number density = 9.625694 Si / 1000 Ang^3
#
#
#
# Elastic Constant Matrix: (Units=GPa)
#
#
# Indices 1 2 3 4 5 6 
#
# 1 26.6978 10.1957 22.5372 -0.0003 -8.4721 -0.0003
# 2 10.1957 99.9981 42.7579 -0.0113 -7.0992 -0.0021
# 3 22.5372 42.7579 130.6690 -0.0234 -8.3279 -0.0026
# 4 -0.0003 -0.0113 -0.0234 30.4544 -0.0026 -2.0268
# 5 -8.4721 -7.0992 -8.3279 -0.0026 32.1645 -0.0034
# 6 -0.0003 -0.0021 -0.0026 -2.0268 -0.0034 27.1683
#
#
#
# Elastic Compliance Matrix: (Units=1/GPa)
#
#
# Indices 1 2 3 4 5 6 
#
# 1 0.047157 -0.001020 -0.007140 -0.000004 0.010347 0.000001
# 2 -0.001020 0.011731 -0.003574 0.000002 0.001395 0.000001
# 3 -0.007140 -0.003574 0.010050 0.000006 -0.000067 0.000001
# 4 -0.000004 0.000002 0.000006 0.033000 0.000004 0.002462
# 5 0.010347 0.001395 -0.000067 0.000004 0.034106 0.000005
# 6 0.000001 0.000001 0.000001 0.002462 0.000005 0.036991
#
#
# Mechanical properties :
#
#
# Convention : Reuss Voigt Hill
#
# Bulk Modulus (GPa) = 21.99298 45.37184 33.68241
# Shear Modulus (GPa) = 23.62277 30.08237 26.85257
#
# Velocity S-wave (km/s) = 3.50675 3.95727 3.73881
# Velocity P-wave (km/s) = 5.27687 6.67078 6.01434
#
# Compressibility (1/GPa) = 0.04546906
#
# Stress axis : x y z
#
# Youngs Moduli (GPa) = 21.20583 85.24119 99.50687
#
# Poissons Ratio (x) = 0.08699 0.71048
# Poissons Ratio (y) = 0.02164 0.35562
# Poissons Ratio (z) = 0.15141 0.30464
#
# Static dielectric constant tensor:
#      x y z
#    x 1.659230 0.000000 -0.000850 
#    y 0.000000 1.767480 0.000000 
#    z -0.000850 0.000000 1.668290 
# 
# From -- ./inp_files/9244.got.cif
#   From: 2010.05.17/outbox.ucp.g08.bks.cvg/sg9_5_cif.got.tgz:9244.got - 2010.06.11 13:03:20.
