data_PCOD9141860
_publ_section_title
;
Structure prediction by ZEFSAII (Michael W. Deem and Ramdas Pophale) SiO2 
 PCOD9141860
Probable space group: P 2/M
;
_chemical_formula_sum "Si O2"
_cell_formula_units_Z 20
_cell_length_a 7.524389
_cell_length_b 10.194967
_cell_length_c 11.805357
_cell_angle_alpha 90.000000
_cell_angle_beta 63.558999
_cell_angle_gamma 90.000000
_cell_volume 810.867797
_symmetry_space_group_name_H-M "P 2/M"
_symmetry_group_IT_number 10
_symmetry_cell_setting 'monoclinic'
loop_
_space_group_symop_operation_xyz
x,y,z
-x,y,-z
-x,-y,-z
x,-y,z
loop_
_atom_site_type_symbol
_atom_site_label
_atom_site_fract_x
_atom_site_fract_y
_atom_site_fract_z
Si Si1 0.800671 0.845000 0.377973
Si Si2 0.256156 0.000000 0.970889
Si Si3 0.590006 0.214473 0.657126
Si Si4 0.723557 0.292045 0.097209
Si Si5 0.720334 0.000000 0.784701
Si Si6 0.941413 0.357682 0.826078
O O1 0.608488 0.844461 0.348341
O O2 0.728677 0.764097 0.509284
O O3 0.976468 0.760062 0.273510
O O4 0.845511 0.000000 0.389259
O O5 0.174488 0.000000 0.122801
O O6 0.211560 0.137868 0.924697
O O7 0.493080 0.000000 0.892964
O O8 0.486486 0.308978 0.779351
O O9 0.718532 0.119792 0.698956
O O10 0.882526 0.362676 0.130544
O O11 0.748308 0.331018 0.958881
O O12 0.925675 0.500000 0.773886
#
# Coordination Sequence:
#
# PCOD9141860 Si02
#       6
#     4   2   4   4   2   4
#     4  10  17  28  49  77 101 127 156 194 248 294
#     4   9  18  25  45  79  95 125 156 205 238 288
#     4   9  15  28  48  73 100 128 149 197 248 292
#     4   9  18  30  48  67  99 123 161 193 243 285
#     4   9  14  27  43  71 113 117 150 197 258 278
#     4  10  21  33  47  70 102 133 159 197 242 291
#
# _framework density 24.664932
#
# number of rings (size 3 to 8) (size 9 to 14) (size 15 to 20)
#    0.000    2.600    2.000    1.800    5.600    0.800 
#    0.000    9.000    0.000    2.400    0.000   75.600 
#    0.000    0.000    0.000    0.000    0.000    0.000 
#
# Total GULP energy -111382.369359 kJ/mol
# GULP energy per Si atom -5569.118468 kJ/mol
# Density = 2.460879 g / cm^3
# Si number density = 24.664932 Si / 1000 Ang^3
#
#
#
# Elastic Constant Matrix: (Units=GPa)
#
#
# Indices 1 2 3 4 5 6 
#
# 1 55.3911 28.5592 38.3690 0.0000 5.3214 0.0000
# 2 28.5592 108.5137 33.4547 0.0000 -13.3110 0.0000
# 3 38.3690 33.4547 211.1131 0.0000 -20.7012 0.0000
# 4 0.0000 0.0000 0.0000 7.6211 0.0000 10.8430
# 5 5.3214 -13.3110 -20.7012 0.0000 34.6032 0.0000
# 6 0.0000 0.0000 0.0000 10.8430 0.0000 238.4644
#
#
#
# Elastic Compliance Matrix: (Units=1/GPa)
#
#
# Indices 1 2 3 4 5 6 
#
# 1 0.025314 -0.006391 -0.004473 0.000000 -0.009027 0.000000
# 2 -0.006391 0.011601 -0.000152 0.000000 0.005354 0.000000
# 3 -0.004473 -0.000152 0.005987 0.000000 0.004211 0.000000
# 4 0.000000 0.000000 0.000000 0.140290 0.000000 -0.006379
# 5 -0.009027 0.005354 0.004211 0.000000 0.034866 0.000000
# 6 0.000000 0.000000 0.000000 -0.006379 0.000000 0.004484
#
#
# Mechanical properties :
#
#
# Convention : Reuss Voigt Hill
#
# Bulk Modulus (GPa) = 47.91437 63.97598 55.94517
# Shear Modulus (GPa) = 19.87836 74.44675 47.16256
#
# Velocity S-wave (km/s) = 2.84198 5.49989 4.37753
# Velocity P-wave (km/s) = 5.49886 8.14408 6.94851
#
# Compressibility (1/GPa) = 0.02087057
#
# Stress axis : x y z
#
# Youngs Moduli (GPa) = 39.50359 86.19972 167.03458
#
# Poissons Ratio (x) = 0.55086 0.74719
# Poissons Ratio (y) = 0.25245 0.02537
# Poissons Ratio (z) = 0.17671 0.01309
#
# Static dielectric constant tensor:
#      x y z
#    x 2.020670 0.000000 0.010810 
#    y 0.000000 2.042120 0.000000 
#    z 0.010810 0.000000 2.095750 
# 
# From -- ./inp_files/44599.got.cif
#   From: 2010.05.17/outbox.cif.g08.bks.cpg/sg10_23_cif.got.tgz:44599.got - 2010.06.03 11:33:40.
