data_PCOD9141868
_publ_section_title
;
Structure prediction by ZEFSAII (Michael W. Deem and Ramdas Pophale) SiO2 
 PCOD9141868
Probable space group: P 2/M
;
_chemical_formula_sum "Si O2"
_cell_formula_units_Z 30
_cell_length_a 11.734097
_cell_length_b 7.279237
_cell_length_c 20.701963
_cell_angle_alpha 90.000000
_cell_angle_beta 42.243916
_cell_angle_gamma 90.000000
_cell_volume 1188.782907
_symmetry_space_group_name_H-M "P 2/M"
_symmetry_group_IT_number 10
_symmetry_cell_setting 'monoclinic'
loop_
_space_group_symop_operation_xyz
x,y,z
-x,y,-z
-x,-y,-z
x,-y,z
loop_
_atom_site_type_symbol
_atom_site_label
_atom_site_fract_x
_atom_site_fract_y
_atom_site_fract_z
Si Si1 0.500531 0.282849 0.212394
Si Si2 0.598535 0.275587 0.885878
Si Si3 0.934848 0.777350 0.456253
Si Si4 0.724613 0.000000 0.969015
Si Si5 0.333025 0.290672 0.607429
Si Si6 0.139100 0.718169 0.996463
Si Si7 0.440390 0.206138 0.381024
Si Si8 0.964537 0.713292 0.729259
O O1 0.500831 0.500000 0.223040
O O2 0.390526 0.243773 0.196024
O O3 0.687120 0.226839 0.112570
O O4 0.446351 0.199321 0.301775
O O5 0.580077 0.500000 0.902520
O O6 0.428448 0.163271 0.974163
O O7 0.785257 0.206111 0.830005
O O8 0.741930 0.711194 0.526480
O O9 0.030384 0.721046 0.351086
O O10 0.000000 0.717510 0.500000
O O11 0.934389 0.000000 0.458080
O O12 0.858070 0.160232 0.940880
O O13 0.500000 0.216512 0.500000
O O14 0.316289 0.500000 0.590973
O O15 0.395940 0.293819 0.654958
O O16 0.146407 0.208192 0.675564
O O17 0.142633 0.500000 0.009886
O O18 0.000000 0.750744 0.000000
O O19 0.440584 0.000000 0.405832
O O20 0.957481 0.500000 0.752066
#
# Coordination Sequence:
#
# PCOD9141868 Si02
#       8
#     4   4   4   2   4   4   4   4
#     4   9  18  32  50  71 103 137 163 201 250 303
#     4   9  19  32  47  74 103 134 173 215 260 308
#     4  10  21  33  45  66  95 126 165 209 263 314
#     4  10  17  28  50  74 102 145 169 199 251 298
#     4  10  20  36  53  66  88 127 175 224 270 317
#     4   9  18  32  51  80 114 144 174 203 240 306
#     4  11  22  32  47  71  97 130 169 218 263 308
#     4  10  20  34  51  68  89 125 174 223 265 305
#
# _framework density 25.235894999999999
#
# number of rings (size 3 to 8) (size 9 to 14) (size 15 to 20)
#    0.000    2.267    1.333    2.600    4.667    1.600 
#    0.000    0.000    0.000    0.000    0.000    0.000 
#    0.000    5.333    0.000   43.467    0.000    0.000 
#
# Total GULP energy -167033.257378 kJ/mol
# GULP energy per Si atom -5567.775246 kJ/mol
# Density = 2.517846 g / cm^3
# Si number density = 25.235895 Si / 1000 Ang^3
#
#
#
# Elastic Constant Matrix: (Units=GPa)
#
#
# Indices 1 2 3 4 5 6 
#
# 1 138.9028 11.5181 53.6811 0.0000 -25.9929 0.0000
# 2 11.5181 114.7898 -18.1025 0.0000 -18.7991 0.0000
# 3 53.6811 -18.1025 111.0081 0.0000 -26.4524 0.0000
# 4 0.0000 0.0000 0.0000 619.2112 0.0000 -27.3952
# 5 -25.9929 -18.7991 -26.4524 0.0000 54.8665 0.0000
# 6 0.0000 0.0000 0.0000 -27.3952 0.0000 107.7436
#
#
#
# Elastic Compliance Matrix: (Units=1/GPa)
#
#
# Indices 1 2 3 4 5 6 
#
# 1 0.009310 -0.001292 -0.004256 0.000000 0.001916 0.000000
# 2 -0.001292 0.010096 0.003332 0.000000 0.004454 0.000000
# 3 -0.004256 0.003332 0.012881 0.000000 0.005336 0.000000
# 4 0.000000 0.000000 0.000000 0.001633 0.000000 0.000415
# 5 0.001916 0.004454 0.005336 0.000000 0.023232 0.000000
# 6 0.000000 0.000000 0.000000 0.000415 0.000000 0.009387
#
#
# Mechanical properties :
#
#
# Convention : Reuss Voigt Hill
#
# Bulk Modulus (GPa) = 35.89790 50.98822 43.44306
# Shear Modulus (GPa) = 62.30066 177.53787 119.91927
#
# Velocity S-wave (km/s) = 4.97402 8.39667 6.90090
# Velocity P-wave (km/s) = 6.87341 10.68896 8.98603
#
# Compressibility (1/GPa) = 0.02785678
#
# Stress axis : x y z
#
# Youngs Moduli (GPa) = 107.41455 99.04794 77.63126
#
# Poissons Ratio (x) = 0.12792 0.33040
# Poissons Ratio (y) = 0.13873 -0.25869
# Poissons Ratio (z) = 0.45716 -0.33006
#
# Static dielectric constant tensor:
#      x y z
#    x 2.092310 0.000000 0.065050 
#    y 0.000000 1.974360 0.000000 
#    z 0.065050 0.000000 2.058850 
# 
# From -- ./inp_files/92513.got.cif
#   From: 2010.05.17/outbox.cif.g08.bks.cpg/sg10_47_cif.got.tgz:92513.got - 2010.06.03 11:33:40.
