data_PCOD9141890
_publ_section_title
;
Structure prediction by ZEFSAII (Michael W. Deem and Ramdas Pophale) SiO2 
 PCOD9141890
Probable space group: P 2/M
;
_chemical_formula_sum "Si O2"
_cell_formula_units_Z 26
_cell_length_a 20.893544
_cell_length_b 8.673265
_cell_length_c 11.833456
_cell_angle_alpha 90.000000
_cell_angle_beta 39.593212
_cell_angle_gamma 90.000000
_cell_volume 1366.697909
_symmetry_space_group_name_H-M "P 2/M"
_symmetry_group_IT_number 10
_symmetry_cell_setting 'monoclinic'
loop_
_space_group_symop_operation_xyz
x,y,z
-x,y,-z
-x,-y,-z
x,-y,z
loop_
_atom_site_type_symbol
_atom_site_label
_atom_site_fract_x
_atom_site_fract_y
_atom_site_fract_z
Si Si1 0.168663 0.686477 0.995344
Si Si2 0.500000 0.733050 0.500000
Si Si3 0.314256 0.327042 0.598265
Si Si4 0.604658 0.685307 0.912504
Si Si5 0.748368 0.180913 0.534450
Si Si6 0.355226 0.310352 0.881986
Si Si7 0.964897 0.686091 0.175436
O O1 0.166241 0.500000 0.993930
O O2 0.230015 0.733598 0.799291
O O3 0.239930 0.723482 0.004212
O O4 0.054512 0.738600 0.137483
O O5 0.584174 0.661399 0.468099
O O6 0.576038 0.788136 0.298027
O O7 0.285763 0.500000 0.600222
O O8 0.320790 0.224209 0.479235
O O9 0.603935 0.500000 0.906408
O O10 0.697409 0.745174 0.713029
O O11 0.500000 0.741753 0.000000
O O12 0.617124 0.723739 0.027362
O O13 0.858073 0.245921 0.354555
O O14 0.754221 0.000000 0.540654
O O15 0.370865 0.500000 0.841224
O O16 0.957571 0.500000 0.189073
O O17 0.000000 0.726292 0.000000
#
# Coordination Sequence:
#
# PCOD9141890 Si02
#       7
#     4   2   4   4   4   4   4
#     4   8  15  28  51  82 112 136 169 226 290 334
#     4  10  17  28  57  92 115 134 171 234 293 336
#     4  10  17  31  54  83 113 143 181 228 280 334
#     4  10  21  38  60  83 109 147 193 234 272 327
#     4  12  25  37  53  80 115 155 192 230 278 333
#     4   9  16  28  50  84 115 137 171 227 289 336
#     4  10  18  34  59  85 110 144 186 236 288 335
#
# _framework density 19.023954
#
# number of rings (size 3 to 8) (size 9 to 14) (size 15 to 20)
#    0.000    2.154    1.538    4.615    0.000    1.846 
#    0.000    1.154    0.000    9.231    0.000    0.000 
#    0.000    0.000    0.000    0.000    0.000    0.000 
#
# Total GULP energy -144758.084119 kJ/mol
# GULP energy per Si atom -5567.618620 kJ/mol
# Density = 1.898065 g / cm^3
# Si number density = 19.023954 Si / 1000 Ang^3
#
#
#
# Elastic Constant Matrix: (Units=GPa)
#
#
# Indices 1 2 3 4 5 6 
#
# 1 149.9280 24.4653 70.7821 0.0000 1.1167 0.0000
# 2 24.4653 8.4638 20.5074 0.0000 6.1157 0.0000
# 3 70.7821 20.5074 114.5309 0.0000 1.0387 0.0000
# 4 0.0000 0.0000 0.0000 -25.5473 0.0000 -8.5476
# 5 1.1167 6.1157 1.0387 0.0000 29.5947 0.0000
# 6 0.0000 0.0000 0.0000 -8.5476 0.0000 -7.8996
#
#
#
# Elastic Compliance Matrix: (Units=1/GPa)
#
#
# Indices 1 2 3 4 5 6 
#
# 1 0.014660 -0.047587 -0.000624 0.000000 0.009302 0.000000
# 2 -0.047587 0.431984 -0.047162 0.000000 -0.085817 0.000000
# 3 -0.000624 -0.047162 0.017478 0.000000 0.009156 0.000000
# 4 0.000000 0.000000 0.000000 -0.061355 0.000000 0.066389
# 5 0.009302 -0.085817 0.009156 0.000000 0.050851 0.000000
# 6 0.000000 0.000000 0.000000 0.066389 0.000000 -0.198425
#
#
# Mechanical properties :
#
#
# Convention : Reuss Voigt Hill
#
# Bulk Modulus (GPa) = 3.65794 56.04802 29.85298
# Shear Modulus (GPa) = 9.30986 9.70743 9.50865
#
# Velocity S-wave (km/s) = 2.21458 2.26137 2.23810
# Velocity P-wave (km/s) = 2.90967 6.02861 4.73341
#
# Compressibility (1/GPa) = 0.27337808
#
# Stress axis : x y z
#
# Youngs Moduli (GPa) = 68.21088 2.31490 57.21326
#
# Poissons Ratio (x) = 0.11016 0.03571
# Poissons Ratio (y) = 3.24593 2.69826
# Poissons Ratio (z) = 0.04257 0.10917
#
# Static dielectric constant tensor:
#      x y z
#    x 1.684320 0.000000 -0.022410 
#    y 0.000000 1.656260 0.000000 
#    z -0.022410 0.000000 1.657020 
# 
# From -- ./inp_files/55104.got.cif
#   From: 2010.05.17/outbox.cif.g08.bks.cpg/sg10_28_cif.got.tgz:55104.got - 2010.06.03 11:33:40.
