data_PCOD9141394
_publ_section_title
;
Structure prediction by ZEFSAII (Michael W. Deem and Ramdas Pophale) SiO2 
 PCOD9141394
Probable space group: P 2/M
;
_chemical_formula_sum "Si O2"
_cell_formula_units_Z 20
_cell_length_a 5.449160
_cell_length_b 22.025510
_cell_length_c 6.693667
_cell_angle_alpha 90.000000
_cell_angle_beta 101.586958
_cell_angle_gamma 90.000000
_cell_volume 787.005415
_symmetry_space_group_name_H-M "P 2/M"
_symmetry_group_IT_number 10
_symmetry_cell_setting 'monoclinic'
loop_
_space_group_symop_operation_xyz
x,y,z
-x,y,-z
-x,-y,-z
x,-y,z
loop_
_atom_site_type_symbol
_atom_site_label
_atom_site_fract_x
_atom_site_fract_y
_atom_site_fract_z
Si Si1 0.218601 0.570412 0.782539
Si Si2 0.087405 0.247940 0.245704
Si Si3 0.711940 0.617323 0.751038
Si Si4 0.282223 0.066488 0.633268
Si Si5 0.418236 0.803465 0.767841
O O1 0.291037 0.500000 0.803315
O O2 0.417767 0.605018 0.677233
O O3 0.924409 0.574921 0.690178
O O4 0.251669 0.601840 0.005519
O O5 0.201909 0.314785 0.281023
O O6 0.323650 0.202807 0.313698
O O7 0.828895 0.235808 0.321376
O O8 0.000000 0.240349 0.000000
O O9 0.500000 0.066878 0.500000
O O10 0.330698 0.126939 0.766350
O O11 0.000000 0.070888 0.500000
O O12 0.298571 0.000000 0.737153
O O13 0.500000 0.781484 0.000000
#
# Coordination Sequence:
#
# PCOD9141394 Si02
#       5
#     4   4   4   4   4
#     4  10  17  23  34  53  80 122 182 219 238 290
#     4  10  18  29  44  66  99 134 170 213 252 305
#     4  10  16  24  36  51  81 124 168 215 239 299
#     4  10  21  39  61  81 105 139 175 210 261 320
#     4  10  21  33  52  80 107 133 174 222 252 309
#
# _framework density 25.412786000000001
#
# number of rings (size 3 to 8) (size 9 to 14) (size 15 to 20)
#    0.000    2.000    2.000    5.400    5.600    0.400 
#    0.000    0.000    0.000    7.200    0.000    0.000 
#    0.000    0.000    0.000    0.000    0.000  412.000 
#
# Total GULP energy -111849.189012 kJ/mol
# GULP energy per Si atom -5592.459451 kJ/mol
# Density = 2.535495 g / cm^3
# Si number density = 25.412786 Si / 1000 Ang^3
#
#
#
# Elastic Constant Matrix: (Units=GPa)
#
#
# Indices 1 2 3 4 5 6 
#
# 1 261.5574 62.6651 40.2367 0.0000 14.7467 0.0000
# 2 62.6651 167.9993 0.2744 0.0000 24.2036 0.0000
# 3 40.2367 0.2744 56.8339 0.0000 12.0118 0.0000
# 4 0.0000 0.0000 0.0000 31.5777 0.0000 10.5842
# 5 14.7467 24.2036 12.0118 0.0000 58.2938 0.0000
# 6 0.0000 0.0000 0.0000 10.5842 0.0000 51.4397
#
#
#
# Elastic Compliance Matrix: (Units=1/GPa)
#
#
# Indices 1 2 3 4 5 6 
#
# 1 0.004769 -0.001809 -0.003420 0.000000 0.000250 0.000000
# 2 -0.001809 0.007034 0.001848 0.000000 -0.002844 0.000000
# 3 -0.003420 0.001848 0.020897 0.000000 -0.004208 0.000000
# 4 0.000000 0.000000 0.000000 0.034014 0.000000 -0.006999
# 5 0.000250 -0.002844 -0.004208 0.000000 0.019139 0.000000
# 6 0.000000 0.000000 0.000000 -0.006999 0.000000 0.020880
#
#
# Mechanical properties :
#
#
# Convention : Reuss Voigt Hill
#
# Bulk Modulus (GPa) = 38.55543 76.97143 57.76343
# Shear Modulus (GPa) = 40.93626 53.80987 47.37307
#
# Velocity S-wave (km/s) = 4.01790 4.60655 4.32226
# Velocity P-wave (km/s) = 6.06047 7.65819 6.90569
#
# Compressibility (1/GPa) = 0.02593668
#
# Stress axis : x y z
#
# Youngs Moduli (GPa) = 209.69783 142.16885 47.85394
#
# Poissons Ratio (x) = 0.25721 0.16367
# Poissons Ratio (y) = 0.37938 -0.08843
# Poissons Ratio (z) = 0.71720 -0.26271
#
# Static dielectric constant tensor:
#      x y z
#    x 1.986920 0.000000 -0.104920 
#    y 0.000000 1.927240 0.000000 
#    z -0.104920 0.000000 1.784210 
# 
# From -- ./inp_files/15317.got.cif
#   From: 2010.05.17/outbox.cif.g08.bks.cpg/sg10_8_cif.got.tgz:15317.got - 2010.06.03 11:33:40.
