data_PCOD9141087
_publ_section_title
;
Structure prediction by ZEFSAII (Michael W. Deem and Ramdas Pophale) SiO2 
 PCOD9141087
Probable space group: C C
;
_chemical_formula_sum "Si O2"
_cell_formula_units_Z 24
_cell_length_a 7.486579
_cell_length_b 27.045613
_cell_length_c 9.306164
_cell_angle_alpha 90.000000
_cell_angle_beta 33.200335
_cell_angle_gamma 90.000000
_cell_volume 1031.784726
_symmetry_space_group_name_H-M "C C"
_symmetry_group_IT_number 9
_symmetry_cell_setting 'monoclinic'
loop_
_space_group_symop_operation_xyz
x,y,z
x,-y,1/2+z
1/2+x,1/2+y,z
1/2+x,1/2-y,1/2+z
loop_
_atom_site_type_symbol
_atom_site_label
_atom_site_fract_x
_atom_site_fract_y
_atom_site_fract_z
Si Si1 0.687460 0.214269 0.346740
Si Si2 0.894306 0.857635 0.489839
Si Si3 0.774728 0.784295 0.312615
Si Si4 0.913924 0.051251 0.526819
Si Si5 0.098288 0.655900 0.664711
Si Si6 0.177586 0.459329 0.506301
O O1 0.412124 0.248740 0.603619
O O2 0.813788 0.186010 0.403456
O O3 0.636534 0.169221 0.269702
O O4 0.884267 0.826583 0.349577
O O5 0.807117 0.913723 0.514242
O O6 0.246463 0.853295 0.328976
O O7 0.570024 0.744055 0.537871
O O8 0.572071 0.810235 0.322562
O O9 0.766921 0.104759 0.591079
O O10 0.861232 0.040302 0.730547
O O11 0.296182 0.049370 0.234892
O O12 0.734743 0.009931 0.552704
#
# Coordination Sequence:
#
# PCOD9141087 Si02
#       6
#     4   4   4   4   4   4
#     4  12  26  44  73 112 155 208 258 308 380 452
#     4  12  29  50  81 116 159 207 263 324 395 462
#     4  12  30  48  75 112 161 208 266 320 378 462
#     4  12  29  53  83 117 157 201 259 326 397 471
#     4  12  29  50  81 116 159 207 263 324 395 462
#     4  12  29  53  83 117 157 201 259 326 397 471
#
# _framework density 23.260666000000001
#
# number of rings (size 3 to 8) (size 9 to 14) (size 15 to 20)
#    0.000    0.000    3.333    4.000   14.000    0.000 
#    0.000    0.000    0.000    0.000    0.000    0.000 
#    0.000    0.000    0.000    0.000    0.000    0.000 
#
# Total GULP energy -67282.129709 kJ/mol
# GULP energy per Si atom -5606.844142 kJ/mol
# Density = 2.320772 g / cm^3
# Si number density = 23.260666 Si / 1000 Ang^3
#
#
#
# Elastic Constant Matrix: (Units=GPa)
#
#
# Indices 1 2 3 4 5 6 
#
# 1 99.8258 13.2071 11.4538 0.0000 10.9199 0.0000
# 2 13.2071 97.5490 7.2516 0.0000 19.5507 0.0000
# 3 11.4538 7.2516 110.7171 0.0000 13.2157 0.0000
# 4 0.0000 0.0000 0.0000 26.3042 0.0000 13.5152
# 5 10.9199 19.5507 13.2157 0.0000 51.4719 0.0000
# 6 0.0000 0.0000 0.0000 13.5152 0.0000 52.0639
#
#
#
# Elastic Compliance Matrix: (Units=1/GPa)
#
#
# Indices 1 2 3 4 5 6 
#
# 1 0.010424 -0.001028 -0.000819 0.000000 -0.001611 0.000000
# 2 -0.001028 0.011203 -0.000150 0.000000 -0.003999 0.000000
# 3 -0.000819 -0.000150 0.009387 0.000000 -0.002179 0.000000
# 4 0.000000 0.000000 0.000000 0.043868 0.000000 -0.011388
# 5 -0.001611 -0.003999 -0.002179 0.000000 0.021848 0.000000
# 6 0.000000 0.000000 0.000000 -0.011388 0.000000 0.022163
#
#
# Mechanical properties :
#
#
# Convention : Reuss Voigt Hill
#
# Bulk Modulus (GPa) = 37.00914 41.32410 39.16662
# Shear Modulus (GPa) = 37.90984 44.37997 41.14490
#
# Velocity S-wave (km/s) = 4.04144 4.37274 4.21035
# Velocity P-wave (km/s) = 6.14189 6.58017 6.36480
#
# Compressibility (1/GPa) = 0.02702035
#
# Stress axis : x y z
#
# Youngs Moduli (GPa) = 95.93659 89.26221 106.53366
#
# Poissons Ratio (x) = 0.09172 0.08722
# Poissons Ratio (y) = 0.09858 0.01600
# Poissons Ratio (z) = 0.07855 0.01340
#
# Static dielectric constant tensor:
#      x y z
#    x 1.909320 0.000000 -0.049010 
#    y 0.000000 1.817270 0.000000 
#    z -0.049010 0.000000 1.882480 
# 
# From -- ./inp_files/6507.got.cif
#   From: 2010.05.17/outbox.cif.g08.bks.cpg/sg9_4_cif.got.tgz:6507.got - 2010.06.03 20:04:27.
