data_PCOD9141622
_publ_section_title
;
Structure prediction by ZEFSAII (Michael W. Deem and Ramdas Pophale) SiO2 
 PCOD9141622
Probable space group: P 2/M
;
_chemical_formula_sum "Si O2"
_cell_formula_units_Z 32
_cell_length_a 20.033127
_cell_length_b 8.813991
_cell_length_c 17.684860
_cell_angle_alpha 90.000000
_cell_angle_beta 42.943214
_cell_angle_gamma 90.000000
_cell_volume 2127.376044
_symmetry_space_group_name_H-M "P 2/M"
_symmetry_group_IT_number 10
_symmetry_cell_setting 'monoclinic'
loop_
_space_group_symop_operation_xyz
x,y,z
-x,y,-z
-x,-y,-z
x,-y,z
loop_
_atom_site_type_symbol
_atom_site_label
_atom_site_fract_x
_atom_site_fract_y
_atom_site_fract_z
Si Si1 0.354367 0.820388 0.477300
Si Si2 0.887480 0.816457 0.581286
Si Si3 0.617922 0.325698 0.390444
Si Si4 0.725114 0.816848 0.835528
Si Si5 0.370874 0.819242 0.937639
Si Si6 0.750771 0.320685 0.570762
Si Si7 0.569303 0.682061 0.267745
Si Si8 0.409095 0.820707 0.189694
O O1 0.340227 0.773522 0.576364
O O2 0.271324 0.751369 0.492249
O O3 0.460493 0.753919 0.363717
O O4 0.357755 0.000000 0.465806
O O5 0.818887 0.766886 0.708875
O O6 0.839946 0.749566 0.544719
O O7 0.000000 0.773160 0.500000
O O8 0.881738 0.000000 0.581858
O O9 0.500000 0.326266 0.500000
O O10 0.651359 0.500000 0.370726
O O11 0.628239 0.274203 0.295204
O O12 0.631036 0.784230 0.860379
O O13 0.730644 0.000000 0.836462
O O14 0.707286 0.762236 0.935471
O O15 0.378026 0.736143 0.851852
O O16 0.477035 0.800228 0.889338
O O17 0.357652 0.000000 0.935717
O O18 0.760992 0.500000 0.556435
O O19 0.654991 0.276972 0.699591
O O20 0.558067 0.500000 0.278267
O O21 0.386583 0.000000 0.221659
#
# Coordination Sequence:
#
# PCOD9141622 Si02
#       8
#     4   4   4   4   4   4   4   4
#     4  11  19  28  43  62  84 112 150 188 216 252
#     4   9  18  34  53  68  86 113 145 183 225 267
#     4   8  16  29  41  55  80 115 148 180 219 255
#     4   8  15  27  43  64  85 109 145 182 220 258
#     4  10  17  25  41  61  85 117 150 183 212 251
#     4  11  20  29  44  65  90 117 145 181 222 263
#     4  10  19  29  40  57  86 120 150 181 218 256
#     4   9  16  27  41  58  83 115 149 181 213 251
#
# _framework density 15.042005
#
# number of rings (size 3 to 8) (size 9 to 14) (size 15 to 20)
#    0.000    2.500    1.250    4.500    0.000    4.500 
#    0.000    2.500    0.000    3.750    0.000    0.000 
#    0.000    1.000    0.000   11.500    0.000    2.875 
#
# Total GULP energy -178273.528058 kJ/mol
# GULP energy per Si atom -5571.047752 kJ/mol
# Density = 1.500777 g / cm^3
# Si number density = 15.042005 Si / 1000 Ang^3
#
#
#
# Elastic Constant Matrix: (Units=GPa)
#
#
# Indices 1 2 3 4 5 6 
#
# 1 102.8522 45.3653 59.9237 0.0000 22.0114 0.0000
# 2 45.3653 54.7218 28.2496 0.0000 7.7248 0.0000
# 3 59.9237 28.2496 69.7067 0.0000 23.9044 0.0000
# 4 0.0000 0.0000 0.0000 31.3799 0.0000 21.0449
# 5 22.0114 7.7248 23.9044 0.0000 26.0833 0.0000
# 6 0.0000 0.0000 0.0000 21.0449 0.0000 27.2852
#
#
#
# Elastic Compliance Matrix: (Units=1/GPa)
#
#
# Indices 1 2 3 4 5 6 
#
# 1 0.024545 -0.012108 -0.015050 0.000000 -0.003335 0.000000
# 2 -0.012108 0.029198 -0.002862 0.000000 0.004194 0.000000
# 3 -0.015050 -0.002862 0.034704 0.000000 -0.018257 0.000000
# 4 0.000000 0.000000 0.000000 0.066015 0.000000 -0.050917
# 5 -0.003335 0.004194 -0.018257 0.000000 0.056643 0.000000
# 6 0.000000 0.000000 0.000000 -0.050917 0.000000 0.075922
#
#
# Mechanical properties :
#
#
# Convention : Reuss Voigt Hill
#
# Bulk Modulus (GPa) = 35.20250 54.92864 45.06557
# Shear Modulus (GPa) = 14.02380 23.19917 18.61148
#
# Velocity S-wave (km/s) = 3.05669 3.93146 3.52134
# Velocity P-wave (km/s) = 5.99261 7.56338 6.82334
#
# Compressibility (1/GPa) = 0.02840708
#
# Stress axis : x y z
#
# Youngs Moduli (GPa) = 40.74075 34.24919 28.81495
#
# Poissons Ratio (x) = 0.41471 0.43366
# Poissons Ratio (y) = 0.49331 0.08246
# Poissons Ratio (z) = 0.61314 0.09802
#
# Static dielectric constant tensor:
#      x y z
#    x 1.506570 0.000000 0.031630 
#    y 0.000000 1.504650 0.000000 
#    z 0.031630 0.000000 1.506790 
# 
# From -- ./inp_files/77395.got.cif
#   From: 2010.05.17/outbox.cif.g08.bks.cpg/sg10_39_cif.got.tgz:77395.got - 2010.06.03 11:33:40.
