data_PCOD9141126
_publ_section_title
;
Structure prediction by ZEFSAII (Michael W. Deem and Ramdas Pophale) SiO2 
 PCOD9141126
Probable space group: C C
;
_chemical_formula_sum "Si O2"
_cell_formula_units_Z 32
_cell_length_a 14.620496
_cell_length_b 4.842153
_cell_length_c 25.583596
_cell_angle_alpha 90.000000
_cell_angle_beta 135.011036
_cell_angle_gamma 90.000000
_cell_volume 1280.452691
_symmetry_space_group_name_H-M "C C"
_symmetry_group_IT_number 9
_symmetry_cell_setting 'monoclinic'
loop_
_space_group_symop_operation_xyz
x,y,z
x,-y,1/2+z
1/2+x,1/2+y,z
1/2+x,1/2-y,1/2+z
loop_
_atom_site_type_symbol
_atom_site_label
_atom_site_fract_x
_atom_site_fract_y
_atom_site_fract_z
Si Si1 0.676100 0.701260 0.919920
Si Si2 0.279357 0.939366 0.571860
Si Si3 0.799705 0.202472 0.920486
Si Si4 0.035861 0.057361 0.666800
Si Si5 0.805461 0.847364 0.667257
Si Si6 0.693910 0.918636 0.266731
Si Si7 0.398717 0.823182 0.767986
Si Si8 0.076195 0.283940 0.074848
O O1 0.704119 0.457402 0.890716
O O2 0.534996 0.821374 0.851685
O O3 0.771941 0.956199 0.949636
O O4 0.703152 0.565667 0.986799
O O5 0.406224 0.749756 0.614523
O O6 0.356303 0.111013 0.726345
O O7 0.177772 0.840767 0.574679
O O8 0.311497 0.237000 0.610119
O O9 0.769157 0.075358 0.851869
O O10 0.941743 0.317967 0.990477
O O11 0.051158 0.899854 0.616420
O O12 0.142553 0.285766 0.727578
O O13 0.075045 0.797787 0.720282
O O14 0.892965 0.110381 0.717300
O O15 0.656573 0.937078 0.619648
O O16 0.794010 0.792841 0.265754
#
# Coordination Sequence:
#
# PCOD9141126 Si02
#       8
#     4   4   4   4   4   4   4   4
#     4  12  30  50  76 116 164 218 272 340 412 504
#     4  12  29  51  83 119 156 224 267 345 415 505
#     4  12  30  50  76 115 170 210 275 340 416 496
#     4  12  29  48  86 116 165 201 290 334 418 497
#     4  12  27  46  87 119 153 211 279 336 422 488
#     4  12  27  50  76 118 154 222 257 347 409 498
#     4  12  26  51  78 117 160 212 272 343 411 508
#     4  12  28  54  82 122 160 218 272 353 413 510
#
# _framework density 24.991161999999999
#
# number of rings (size 3 to 8) (size 9 to 14) (size 15 to 20)
#    0.000    0.000    3.750    3.750   12.250    0.000 
#    4.500    0.000    0.000    0.000    0.000    0.000 
#    0.000    0.000    0.000    0.000    0.000    0.000 
#
# Total GULP energy -89593.485359 kJ/mol
# GULP energy per Si atom -5599.592835 kJ/mol
# Density = 2.493428 g / cm^3
# Si number density = 24.991162 Si / 1000 Ang^3
#
#
#
# Elastic Constant Matrix: (Units=GPa)
#
#
# Indices 1 2 3 4 5 6 
#
# 1 91.7175 29.4075 60.2393 0.0000 2.5176 -0.0001
# 2 29.4075 149.9780 41.9248 -0.0003 -5.4036 -0.0007
# 3 60.2393 41.9248 212.4176 0.0004 -13.6127 -0.0004
# 4 0.0000 -0.0003 0.0004 36.8664 0.0007 0.8669
# 5 2.5176 -5.4036 -13.6127 0.0007 21.6852 -0.0002
# 6 -0.0001 -0.0007 -0.0004 0.8669 -0.0002 47.7095
#
#
#
# Elastic Compliance Matrix: (Units=1/GPa)
#
#
# Indices 1 2 3 4 5 6 
#
# 1 0.014225 -0.001847 -0.003964 0.000000 -0.004600 0.000000
# 2 -0.001847 0.007314 -0.000822 0.000000 0.001521 0.000000
# 3 -0.003964 -0.000822 0.006263 0.000000 0.004187 0.000000
# 4 0.000000 0.000000 0.000000 0.027137 -0.000001 -0.000493
# 5 -0.004600 0.001521 0.004187 -0.000001 0.049655 0.000000
# 6 0.000000 0.000000 0.000000 -0.000493 0.000000 0.020969
#
#
# Mechanical properties :
#
#
# Convention : Reuss Voigt Hill
#
# Bulk Modulus (GPa) = 68.79974 79.69512 74.24743
# Shear Modulus (GPa) = 34.80053 42.75498 38.77776
#
# Velocity S-wave (km/s) = 3.73569 4.14067 3.94338
# Velocity P-wave (km/s) = 6.79680 7.40397 7.10687
#
# Compressibility (1/GPa) = 0.01453494
#
# Stress axis : x y z
#
# Youngs Moduli (GPa) = 70.29736 136.71535 159.67788
#
# Poissons Ratio (x) = 0.25249 0.63303
# Poissons Ratio (y) = 0.12983 0.13133
# Poissons Ratio (z) = 0.27869 0.11244
#
# Static dielectric constant tensor:
#      x y z
#    x 2.143440 0.000000 0.031430 
#    y 0.000000 2.048430 0.000000 
#    z 0.031430 0.000000 1.980690 
# 
# From -- ./inp_files/33489.got.cif
#   From: 2010.05.17/outbox.cif.g08.bks.cpg/sg9_17_cif.got.tgz:33489.got - 2010.06.03 20:04:27.
