data_PCOD9141253
_publ_section_title
;
Structure prediction by ZEFSAII (Michael W. Deem and Ramdas Pophale) SiO2 
 PCOD9141253
Probable space group: C C
;
_chemical_formula_sum "Si O2"
_cell_formula_units_Z 16
_cell_length_a 9.000000
_cell_length_b 12.000000
_cell_length_c 30.000000
_cell_angle_alpha 90.000000
_cell_angle_beta 30.000000
_cell_angle_gamma 90.000000
_cell_volume 1620.000000
_symmetry_space_group_name_H-M "C C"
_symmetry_group_IT_number 9
_symmetry_cell_setting 'monoclinic'
loop_
_space_group_symop_operation_xyz
x,y,z
x,-y,1/2+z
1/2+x,1/2+y,z
1/2+x,1/2-y,1/2+z
loop_
_atom_site_type_symbol
_atom_site_label
_atom_site_fract_x
_atom_site_fract_y
_atom_site_fract_z
Si Si1 0.248830 0.439846 0.880460
Si Si2 0.790962 0.200623 0.287945
Si Si3 0.935501 0.498209 0.347520
Si Si4 0.319614 0.346562 0.178681
Si Si5 0.850861 0.266063 0.106216
Si Si6 0.491402 0.667469 0.788137
Si Si7 0.127991 0.019712 0.028988
Si Si8 0.986287 0.151507 0.410090
O O1 0.178433 0.334579 0.866552
O O2 0.435089 0.535423 0.806310
O O3 0.424136 0.392030 0.876693
O O4 0.943156 0.502818 0.972562
O O5 0.706498 0.086265 0.284350
O O6 0.618737 0.291795 0.302900
O O7 0.123711 0.245942 0.208437
O O8 0.762772 0.482535 0.441385
O O9 0.684540 0.560344 0.383881
O O10 0.095165 0.404359 0.274376
O O11 0.605836 0.300874 0.132231
O O12 0.426021 0.427192 0.109330
O O13 0.709353 0.298741 0.190934
O O14 0.946227 0.135211 0.080084
O O15 0.164778 0.327873 0.015764
O O16 0.184283 0.735419 0.859387
#
# Coordination Sequence:
#
# PCOD9141253 Si02
#       8
#     4   4   4   4   4   4   4   4
#     4  11  22  45  70  96 136 182 226 283 353 408
#     4  10  24  41  71  96 128 181 225 281 348 406
#     4  10  25  47  68  99 141 181 233 294 353 416
#     4  12  25  46  67 102 141 180 237 291 348 425
#     4  12  25  42  72 102 138 184 232 291 357 423
#     4  11  24  45  70  99 140 178 232 291 348 419
#     4  11  24  43  68 101 137 176 235 289 344 428
#     4  11  23  45  70 101 135 184 232 284 361 421
#
# _framework density 9.8765429999999999
#
# number of rings (size 3 to 8) (size 9 to 14) (size 15 to 20)
#    0.000    1.000    2.500    4.500    3.500    1.000 
#    2.250    0.000    0.000    0.000    0.000    0.000 
#    0.000    0.000    0.000    0.000    0.000    0.000 
#
# Total GULP energy -89169.274027 kJ/mol
# GULP energy per Si atom -5573.079627 kJ/mol
# Density = 0.985406 g / cm^3
# Si number density = 9.876543 Si / 1000 Ang^3
#
#
#
# Elastic Constant Matrix: (Units=GPa)
#
#
# Indices 1 2 3 4 5 6 
#
# 1 151.2504 48.6064 45.0921 0.0058 -12.2731 0.0014
# 2 48.6064 89.1180 52.1370 0.0036 -4.7903 0.0060
# 3 45.0921 52.1370 145.4745 0.0412 -2.8878 -0.0103
# 4 0.0058 0.0036 0.0412 51.3116 -0.0208 -5.1481
# 5 -12.2731 -4.7903 -2.8878 -0.0208 40.0978 0.0005
# 6 0.0014 0.0060 -0.0103 -5.1481 0.0005 34.1894
#
#
#
# Elastic Compliance Matrix: (Units=1/GPa)
#
#
# Indices 1 2 3 4 5 6 
#
# 1 0.008334 -0.003732 -0.001206 0.000001 0.002018 0.000000
# 2 -0.003732 0.015940 -0.004548 0.000003 0.000435 -0.000004
# 3 -0.001206 -0.004548 0.008872 -0.000007 -0.000273 0.000003
# 4 0.000001 0.000003 -0.000007 0.019788 0.000010 0.002980
# 5 0.002018 0.000435 -0.000273 0.000010 0.025589 0.000001
# 6 0.000000 -0.000004 0.000003 0.002980 0.000001 0.029698
#
#
# Mechanical properties :
#
#
# Convention : Reuss Voigt Hill
#
# Bulk Modulus (GPa) = 70.53933 75.27930 72.90931
# Shear Modulus (GPa) = 37.90292 41.12025 39.51158
#
# Velocity S-wave (km/s) = 4.38520 4.56753 4.47729
# Velocity P-wave (km/s) = 7.83761 8.12461 7.98240
#
# Compressibility (1/GPa) = 0.01417649
#
# Stress axis : x y z
#
# Youngs Moduli (GPa) = 119.99037 62.73463 112.71161
#
# Poissons Ratio (x) = 0.23410 0.13591
# Poissons Ratio (y) = 0.44775 0.51256
# Poissons Ratio (z) = 0.14469 0.28529
#
# Static dielectric constant tensor:
#      x y z
#    x 1.724490 0.000000 0.014880 
#    y 0.000000 1.715720 0.000000 
#    z 0.014880 0.000000 1.696330 
# 
# From -- ./inp_files/22854.got.cif
#   From: 2010.05.17/outbox.ucp.g08.bks.cvg/sg9_12_cif.got.tgz:22854.got - 2010.06.11 13:03:20.
