data_PCOD9141765
_publ_section_title
;
Structure prediction by ZEFSAII (Michael W. Deem and Ramdas Pophale) SiO2 
 PCOD9141765
Probable space group: P 2/M
;
_chemical_formula_sum "Si O2"
_cell_formula_units_Z 32
_cell_length_a 16.257743
_cell_length_b 7.622366
_cell_length_c 14.826550
_cell_angle_alpha 90.000000
_cell_angle_beta 89.058421
_cell_angle_gamma 90.000000
_cell_volume 1837.094565
_symmetry_space_group_name_H-M "P 2/M"
_symmetry_group_IT_number 10
_symmetry_cell_setting 'monoclinic'
loop_
_space_group_symop_operation_xyz
x,y,z
-x,y,-z
-x,-y,-z
x,-y,z
loop_
_atom_site_type_symbol
_atom_site_label
_atom_site_fract_x
_atom_site_fract_y
_atom_site_fract_z
Si Si1 0.165516 0.208699 0.783039
Si Si2 0.839141 0.705103 0.794002
Si Si3 0.999652 0.712283 0.103945
Si Si4 0.675776 0.207117 0.898898
Si Si5 0.318925 0.216173 0.895972
Si Si6 0.904733 0.785525 0.400889
Si Si7 0.904808 0.788553 0.601831
Si Si8 0.499583 0.202578 0.890293
O O1 0.083451 0.235380 0.843527
O O2 0.245195 0.277755 0.833848
O O3 0.147827 0.277878 0.682875
O O4 0.177561 0.000000 0.773970
O O5 0.837838 0.500000 0.813963
O O6 0.753680 0.774775 0.833633
O O7 0.851801 0.730166 0.687467
O O8 0.919667 0.778512 0.844183
O O9 0.001658 0.500000 0.103937
O O10 0.000000 0.771362 0.000000
O O11 0.588577 0.281515 0.864683
O O12 0.660061 0.000000 0.910555
O O13 0.694820 0.272719 0.999790
O O14 0.410471 0.276651 0.866021
O O15 0.318908 0.000000 0.895335
O O16 0.878978 0.730405 0.501977
O O17 0.000148 0.732479 0.386109
O O18 0.904180 0.000000 0.400054
O O19 0.904820 0.000000 0.601661
O O20 0.497955 0.000000 0.859099
O O21 0.500000 0.202472 0.000000
#
# Coordination Sequence:
#
# PCOD9141765 Si02
#       8
#     4   4   4   4   4   4   4   4
#     4  10  17  27  45  67  85 105 139 177 208 240
#     4  11  21  30  41  61  86 112 144 180 210 236
#     4  10  21  33  40  52  84 124 148 164 198 245
#     4   9  16  27  44  63  85 116 145 167 202 252
#     4   8  14  24  42  68  90 107 136 177 209 239
#     4   8  15  27  45  65  82 104 135 176 217 250
#     4   9  16  30  47  60  80 109 140 172 212 259
#     4   7  11  22  40  62  86 109 135 169 208 247
#
# _framework density 17.418809
#
# number of rings (size 3 to 8) (size 9 to 14) (size 15 to 20)
#    0.000    3.000    1.250    3.375    0.000    0.750 
#    0.000    1.875    0.000    4.125    0.000    0.875 
#    0.000    7.000    0.000    0.000    0.000    0.000 
#
# Total GULP energy -178282.586021 kJ/mol
# GULP energy per Si atom -5571.330813 kJ/mol
# Density = 1.737916 g / cm^3
# Si number density = 17.418809 Si / 1000 Ang^3
#
#
#
# Elastic Constant Matrix: (Units=GPa)
#
#
# Indices 1 2 3 4 5 6 
#
# 1 158.7086 -0.3305 80.5897 0.0000 -1.8713 0.0000
# 2 -0.3305 30.5618 -3.4924 0.0000 0.8170 0.0000
# 3 80.5897 -3.4924 113.7747 0.0000 6.4704 0.0000
# 4 0.0000 0.0000 0.0000 90.2719 0.0000 -89.3333
# 5 -1.8713 0.8170 6.4704 0.0000 9.9364 0.0000
# 6 0.0000 0.0000 0.0000 -89.3333 0.0000 95.4110
#
#
#
# Elastic Compliance Matrix: (Units=1/GPa)
#
#
# Indices 1 2 3 4 5 6 
#
# 1 0.010309 -0.000961 -0.007733 0.000000 0.007056 0.000000
# 2 -0.000961 0.033042 0.001931 0.000000 -0.004155 0.000000
# 3 -0.007733 0.001931 0.014972 0.000000 -0.011365 0.000000
# 4 0.000000 0.000000 0.000000 0.150851 0.000000 0.141242
# 5 0.007056 -0.004155 -0.011365 0.000000 0.109711 0.000000
# 6 0.000000 0.000000 0.000000 0.141242 0.000000 0.142726
#
#
# Mechanical properties :
#
#
# Convention : Reuss Voigt Hill
#
# Bulk Modulus (GPa) = 22.32238 50.73100 36.52669
# Shear Modulus (GPa) = 10.20267 54.20907 32.20587
#
# Velocity S-wave (km/s) = 2.42281 5.58467 4.30456
# Velocity P-wave (km/s) = 4.54638 8.41262 6.76172
#
# Compressibility (1/GPa) = 0.04479809
#
# Stress axis : x y z
#
# Youngs Moduli (GPa) = 97.00718 30.26454 66.79109
#
# Poissons Ratio (x) = 0.02908 0.51647
# Poissons Ratio (y) = 0.09320 -0.12898
# Poissons Ratio (z) = 0.75011 -0.05844
#
# Static dielectric constant tensor:
#      x y z
#    x 1.619290 0.000000 0.016390 
#    y 0.000000 1.646240 0.000000 
#    z 0.016390 0.000000 1.577840 
# 
# From -- ./inp_files/66085.got.cif
#   From: 2010.05.17/outbox.cif.g08.bks.cpg/sg10_34_cif.got.tgz:66085.got - 2010.06.03 11:33:40.
