data_PCOD9141558
_publ_section_title
;
Structure prediction by ZEFSAII (Michael W. Deem and Ramdas Pophale) SiO2 
 PCOD9141558
Probable space group: P 2/M
;
_chemical_formula_sum "Si O2"
_cell_formula_units_Z 32
_cell_length_a 22.298762
_cell_length_b 7.652349
_cell_length_c 7.952704
_cell_angle_alpha 90.000000
_cell_angle_beta 60.615123
_cell_angle_gamma 90.000000
_cell_volume 1182.441494
_symmetry_space_group_name_H-M "P 2/M"
_symmetry_group_IT_number 10
_symmetry_cell_setting 'monoclinic'
loop_
_space_group_symop_operation_xyz
x,y,z
-x,y,-z
-x,-y,-z
x,-y,z
loop_
_atom_site_type_symbol
_atom_site_label
_atom_site_fract_x
_atom_site_fract_y
_atom_site_fract_z
Si Si1 0.706816 0.792782 0.165310
Si Si2 0.957462 0.210351 0.222360
Si Si3 0.207329 0.212080 0.274163
Si Si4 0.663041 0.300590 0.715864
Si Si5 0.544114 0.211118 0.102873
Si Si6 0.923833 0.795909 0.720414
Si Si7 0.577556 0.798844 0.517906
Si Si8 0.163153 0.293005 0.829349
O O1 0.749503 0.724145 0.948770
O O2 0.631996 0.717916 0.312861
O O3 0.759244 0.769736 0.249241
O O4 0.698032 0.000000 0.148799
O O5 0.878867 0.249340 0.282077
O O6 0.001681 0.274372 0.321961
O O7 0.962451 0.000000 0.220749
O O8 0.000000 0.274977 0.000000
O O9 0.204113 0.000000 0.278147
O O10 0.257442 0.263589 0.355994
O O11 0.129941 0.277386 0.342575
O O12 0.655652 0.500000 0.674321
O O13 0.623100 0.195165 0.627492
O O14 0.620164 0.269278 0.947806
O O15 0.496807 0.273079 0.323337
O O16 0.545206 0.000000 0.109565
O O17 0.500000 0.265057 0.000000
O O18 0.932228 0.000000 0.665571
O O19 0.880153 0.789402 0.955782
O O20 0.567401 0.000000 0.480924
O O21 0.162243 0.500000 0.850421
#
# Coordination Sequence:
#
# PCOD9141558 Si02
#       8
#     4   4   4   4   4   4   4   4
#     4   9  18  33  51  69  91 122 158 195 235 274
#     4   8  13  23  38  56  81 114 153 193 228 265
#     4   9  17  31  49  68  93 124 157 193 231 272
#     4  11  21  31  47  72  99 126 153 183 227 281
#     4   8  15  30  51  71  90 115 152 196 233 266
#     4   8  15  27  42  59  82 117 158 196 231 265
#     4   9  18  34  55  74  90 115 156 200 235 269
#     4  10  17  23  36  61  92 122 149 182 228 279
#
# _framework density 27.062652
#
# number of rings (size 3 to 8) (size 9 to 14) (size 15 to 20)
#    0.000    3.000    0.000    4.500    0.000    7.000 
#    0.000    0.625    0.000    3.750    0.000    0.875 
#    0.000    7.000    0.000    0.000    0.000    0.000 
#
# Total GULP energy -178886.782688 kJ/mol
# GULP energy per Si atom -5590.211959 kJ/mol
# Density = 2.700106 g / cm^3
# Si number density = 27.062652 Si / 1000 Ang^3
#
#
#
# Elastic Constant Matrix: (Units=GPa)
#
#
# Indices 1 2 3 4 5 6 
#
# 1 192.8659 -8.3697 46.0632 0.0000 -31.0395 0.0000
# 2 -8.3697 68.3693 0.1489 0.0000 -7.4954 0.0000
# 3 46.0632 0.1489 118.2580 0.0000 -25.3542 0.0000
# 4 0.0000 0.0000 0.0000 73.2994 0.0000 -92.6925
# 5 -31.0395 -7.4954 -25.3542 0.0000 72.7354 0.0000
# 6 0.0000 0.0000 0.0000 -92.6925 0.0000 45.8748
#
#
#
# Elastic Compliance Matrix: (Units=1/GPa)
#
#
# Indices 1 2 3 4 5 6 
#
# 1 0.006004 0.000958 -0.001912 0.000000 0.001994 0.000000
# 2 0.000958 0.014959 0.000028 0.000000 0.001960 0.000000
# 3 -0.001912 0.000028 0.009756 0.000000 0.002587 0.000000
# 4 0.000000 0.000000 0.000000 -0.008773 0.000000 -0.017726
# 5 0.001994 0.001960 0.002587 0.000000 0.015703 0.000000
# 6 0.000000 0.000000 0.000000 -0.017726 0.000000 -0.014017
#
#
# Mechanical properties :
#
#
# Convention : Reuss Voigt Hill
#
# Bulk Modulus (GPa) = 34.64277 50.57534 42.60906
# Shear Modulus (GPa) = 142.42315 61.15863 101.79089
#
# Velocity S-wave (km/s) = 7.26233 4.75899 6.13960
# Velocity P-wave (km/s) = 9.11870 6.99472 8.12640
#
# Compressibility (1/GPa) = 0.02886605
#
# Stress axis : x y z
#
# Youngs Moduli (GPa) = 166.54948 66.85148 102.50435
#
# Poissons Ratio (x) = -0.06403 0.19602
# Poissons Ratio (y) = -0.15953 -0.00290
# Poissons Ratio (z) = 0.31850 -0.00189
#
# Static dielectric constant tensor:
#      x y z
#    x 2.157550 0.000000 0.036210 
#    y 0.000000 2.037660 0.000000 
#    z 0.036210 0.000000 2.212840 
# 
# From -- ./inp_files/56420.got.cif
#   From: 2010.05.17/outbox.cif.g08.bks.cpg/sg10_29_cif.got.tgz:56420.got - 2010.06.03 11:33:40.
