data_PCOD9141877
_publ_section_title
;
Structure prediction by ZEFSAII (Michael W. Deem and Ramdas Pophale) SiO2 
 PCOD9141877
Probable space group: P 2/M
;
_chemical_formula_sum "Si O2"
_cell_formula_units_Z 24
_cell_length_a 16.253698
_cell_length_b 13.981258
_cell_length_c 9.696095
_cell_angle_alpha 90.000000
_cell_angle_beta 142.821216
_cell_angle_gamma 90.000000
_cell_volume 1331.529701
_symmetry_space_group_name_H-M "P 2/M"
_symmetry_group_IT_number 10
_symmetry_cell_setting 'monoclinic'
loop_
_space_group_symop_operation_xyz
x,y,z
-x,y,-z
-x,-y,-z
x,-y,z
loop_
_atom_site_type_symbol
_atom_site_label
_atom_site_fract_x
_atom_site_fract_y
_atom_site_fract_z
Si Si1 0.901338 0.604457 0.000234
Si Si2 0.395445 0.886042 0.235424
Si Si3 0.440650 0.777575 0.771600
Si Si4 0.170963 0.887141 0.352474
Si Si5 0.110605 0.815320 0.961533
Si Si6 0.589249 0.609017 0.485153
O O1 0.921924 0.500000 0.096191
O O2 0.922536 0.703772 0.107011
O O3 0.746104 0.608698 0.741031
O O4 0.000000 0.607429 0.000000
O O5 0.500000 0.860695 0.500000
O O6 0.460023 0.846355 0.182439
O O7 0.245240 0.844941 0.060263
O O8 0.386296 0.000000 0.221120
O O9 0.296616 0.832485 0.588251
O O10 0.427654 0.682798 0.661081
O O11 0.500000 0.756545 0.000000
O O12 0.149824 0.837195 0.174438
O O13 0.198277 0.000000 0.368132
O O14 0.029062 0.873586 0.244035
O O15 0.500000 0.635809 0.500000
O O16 0.551196 0.500000 0.396087
#
# Coordination Sequence:
#
# PCOD9141877 Si02
#       6
#     4   4   4   4   4   4
#     4  10  17  28  51  82 113 139 170 223 285 336
#     4  11  21  35  57  82 109 145 193 242 283 330
#     4  12  24  38  56  81 119 156 186 232 286 347
#     4  11  21  34  54  82 112 149 191 236 290 337
#     4  11  18  34  57  83 112 139 190 248 286 329
#     4  10  20  37  60  85 112 145 188 237 281 329
#
# _framework density 18.024381999999999
#
# number of rings (size 3 to 8) (size 9 to 14) (size 15 to 20)
#    0.000    1.167    5.000    4.000    0.000    1.667 
#    0.000    0.833    0.000    2.000    0.000    0.000 
#    0.000   18.667    0.000    0.000    0.000    0.000 
#
# Total GULP energy -133954.377195 kJ/mol
# GULP energy per Si atom -5581.432383 kJ/mol
# Density = 1.798336 g / cm^3
# Si number density = 18.024382 Si / 1000 Ang^3
#
#
#
# Elastic Constant Matrix: (Units=GPa)
#
#
# Indices 1 2 3 4 5 6 
#
# 1 85.7861 13.0137 37.3154 0.0000 27.1026 0.0000
# 2 13.0137 134.0384 12.8292 0.0000 -1.6204 0.0000
# 3 37.3154 12.8292 49.8973 0.0000 12.1156 0.0000
# 4 0.0000 0.0000 0.0000 6.2933 0.0000 13.3588
# 5 27.1026 -1.6204 12.1156 0.0000 30.7514 0.0000
# 6 0.0000 0.0000 0.0000 13.3588 0.0000 23.3937
#
#
#
# Elastic Compliance Matrix: (Units=1/GPa)
#
#
# Indices 1 2 3 4 5 6 
#
# 1 0.021810 -0.001090 -0.012549 0.000000 -0.014335 0.000000
# 2 -0.001090 0.007751 -0.001670 0.000000 0.002027 0.000000
# 3 -0.012549 -0.001670 0.030068 0.000000 -0.000874 0.000000
# 4 0.000000 0.000000 0.000000 -0.748973 0.000000 0.427695
# 5 -0.014335 0.002027 -0.000874 0.000000 0.045604 0.000000
# 6 0.000000 0.000000 0.000000 0.427695 0.000000 -0.201486
#
#
# Mechanical properties :
#
#
# Convention : Reuss Voigt Hill
#
# Bulk Modulus (GPa) = 34.47086 44.00428 39.23757
# Shear Modulus (GPa) = -6.21166 25.85859 9.82347
#
# Velocity S-wave (km/s) = -1.85842 3.79178 2.33708
# Velocity P-wave (km/s) = 3.81590 6.60582 5.39435
#
# Compressibility (1/GPa) = 0.02901001
#
# Stress axis : x y z
#
# Youngs Moduli (GPa) = 45.85070 129.02079 33.25820
#
# Poissons Ratio (x) = 0.14059 0.41737
# Poissons Ratio (y) = 0.04996 0.05554
# Poissons Ratio (z) = 0.57540 0.21547
#
# Static dielectric constant tensor:
#      x y z
#    x 1.612270 0.000000 0.023080 
#    y 0.000000 1.661730 0.000000 
#    z 0.023080 0.000000 1.591960 
# 
# From -- ./inp_files/29653.got.cif
#   From: 2010.05.17/outbox.cif.g08.bks.cpg/sg10_15_cif.got.tgz:29653.got - 2010.06.03 11:33:40.
