data_PCOD9141338
_publ_section_title
;
Structure prediction by ZEFSAII (Michael W. Deem and Ramdas Pophale) SiO2 
 PCOD9141338
Probable space group: P 2/M
;
_chemical_formula_sum "Si O2"
_cell_formula_units_Z 28
_cell_length_a 21.717050
_cell_length_b 14.174107
_cell_length_c 9.674242
_cell_angle_alpha 90.000000
_cell_angle_beta 153.732457
_cell_angle_gamma 90.000000
_cell_volume 1317.919425
_symmetry_space_group_name_H-M "P 2/M"
_symmetry_group_IT_number 10
_symmetry_cell_setting 'monoclinic'
loop_
_space_group_symop_operation_xyz
x,y,z
-x,y,-z
-x,-y,-z
x,-y,z
loop_
_atom_site_type_symbol
_atom_site_label
_atom_site_fract_x
_atom_site_fract_y
_atom_site_fract_z
Si Si1 0.033320 0.889416 0.776020
Si Si2 0.582291 0.108724 0.850415
Si Si3 0.721258 0.392778 0.014389
Si Si4 0.802263 0.194871 0.117933
Si Si5 0.440566 0.605917 0.604139
Si Si6 0.182202 0.109491 0.433491
Si Si7 0.382514 0.788032 0.644011
O O1 0.903949 0.872530 0.410386
O O2 0.961293 0.865748 0.777393
O O3 0.152931 0.824930 0.949034
O O4 0.072152 0.000000 0.853068
O O5 0.445614 0.150369 0.646081
O O6 0.564147 0.000000 0.777295
O O7 0.648107 0.165621 0.854846
O O8 0.699261 0.113987 0.207589
O O9 0.776233 0.500000 0.144093
O O10 0.640739 0.391613 0.705378
O O11 0.602524 0.375093 0.891491
O O12 0.822132 0.303046 0.206657
O O13 0.431316 0.500000 0.640589
O O14 0.377060 0.682377 0.576999
O O15 0.244468 0.171063 0.435611
O O16 0.174733 0.000000 0.375444
O O17 0.500000 0.790654 0.000000
#
# Coordination Sequence:
#
# PCOD9141338 Si02
#       7
#     4   4   4   4   4   4   4
#     4   9  17  28  45  71  98 128 157 182 223 279
#     4   9  15  23  39  66  94 119 146 181 227 274
#     4   9  18  32  50  66  88 124 159 191 234 283
#     4  10  15  26  47  69  90 119 157 195 226 264
#     4   9  18  33  48  66  91 122 158 191 232 289
#     4   8  15  26  40  61  93 125 150 175 211 273
#     4  10  17  26  45  70  94 119 151 188 234 276
#
# _framework density 21.245607
#
# number of rings (size 3 to 8) (size 9 to 14) (size 15 to 20)
#    0.000    2.857    1.429    3.857    0.000    2.000 
#    0.000    1.429    0.000    7.714    0.000    4.000 
#    0.000    0.000    0.000    0.000    0.000    0.000 
#
# Total GULP energy -156323.411835 kJ/mol
# GULP energy per Si atom -5582.978994 kJ/mol
# Density = 2.119725 g / cm^3
# Si number density = 21.245607 Si / 1000 Ang^3
#
#
#
# Elastic Constant Matrix: (Units=GPa)
#
#
# Indices 1 2 3 4 5 6 
#
# 1 180.6881 92.5494 27.3027 0.0000 30.3298 0.0000
# 2 92.5494 135.1672 12.6365 0.0000 36.9328 0.0000
# 3 27.3027 12.6365 59.5948 0.0000 11.1738 0.0000
# 4 0.0000 0.0000 0.0000 10.5745 0.0000 4.9316
# 5 30.3298 36.9328 11.1738 0.0000 34.0230 0.0000
# 6 0.0000 0.0000 0.0000 4.9316 0.0000 41.0586
#
#
#
# Elastic Compliance Matrix: (Units=1/GPa)
#
#
# Indices 1 2 3 4 5 6 
#
# 1 0.009003 -0.005631 -0.002741 0.000000 -0.001012 0.000000
# 2 -0.005631 0.014041 0.001619 0.000000 -0.010753 0.000000
# 3 -0.002741 0.001619 0.018716 0.000000 -0.005461 0.000000
# 4 0.000000 0.000000 0.000000 0.100179 0.000000 -0.012033
# 5 -0.001012 -0.010753 -0.005461 0.000000 0.043761 0.000000
# 6 0.000000 0.000000 0.000000 -0.012033 0.000000 0.025801
#
#
# Mechanical properties :
#
#
# Convention : Reuss Voigt Hill
#
# Bulk Modulus (GPa) = 35.39344 71.15859 53.27602
# Shear Modulus (GPa) = 21.32877 33.32865 27.32871
#
# Velocity S-wave (km/s) = 3.17190 3.96502 3.59043
# Velocity P-wave (km/s) = 5.48725 7.38430 6.50530
#
# Compressibility (1/GPa) = 0.02825382
#
# Stress axis : x y z
#
# Youngs Moduli (GPa) = 111.07466 71.21997 53.42951
#
# Poissons Ratio (x) = 0.40107 0.14643
# Poissons Ratio (y) = 0.62552 -0.08650
# Poissons Ratio (z) = 0.30442 -0.11530
#
# Static dielectric constant tensor:
#      x y z
#    x 1.806110 0.000000 -0.026810 
#    y 0.000000 1.753900 0.000000 
#    z -0.026810 0.000000 1.853800 
# 
# From -- ./inp_files/56861.got.cif
#   From: 2010.05.17/outbox.cif.g08.bks.cpg/sg10_29_cif.got.tgz:56861.got - 2010.06.03 11:33:40.
