data_PCOD9141036
_publ_section_title
;
Structure prediction by ZEFSAII (Michael W. Deem and Ramdas Pophale) SiO2 
 PCOD9141036
Probable space group: C C
;
_chemical_formula_sum "Si O2"
_cell_formula_units_Z 32
_cell_length_a 30.340968
_cell_length_b 9.650645
_cell_length_c 18.480637
_cell_angle_alpha 90.000000
_cell_angle_beta 15.728999
_cell_angle_gamma 90.000000
_cell_volume 1466.940344
_symmetry_space_group_name_H-M "C C"
_symmetry_group_IT_number 9
_symmetry_cell_setting 'monoclinic'
loop_
_space_group_symop_operation_xyz
x,y,z
x,-y,1/2+z
1/2+x,1/2+y,z
1/2+x,1/2-y,1/2+z
loop_
_atom_site_type_symbol
_atom_site_label
_atom_site_fract_x
_atom_site_fract_y
_atom_site_fract_z
Si Si1 0.282950 0.572188 0.636050
Si Si2 0.416645 0.482920 0.778049
Si Si3 0.920826 0.455111 0.646727
Si Si4 0.232329 0.775532 0.060106
Si Si5 0.355791 0.309607 0.618075
Si Si6 0.755908 0.247493 0.431095
Si Si7 0.903868 0.671133 0.014149
Si Si8 0.754395 0.438215 0.175758
O O1 0.417157 0.572189 0.359686
O O2 0.332868 0.449669 0.610294
O O3 0.274536 0.712657 0.695718
O O4 0.110359 0.547026 0.869350
O O5 0.339804 0.359256 0.852906
O O6 0.588747 0.507920 0.467163
O O7 0.309942 0.623461 0.947998
O O8 0.846937 0.606278 0.780145
O O9 0.891574 0.407001 0.610255
O O10 0.828141 0.347452 0.843955
O O11 0.246771 0.872694 0.108411
O O12 0.042529 0.771918 0.340175
O O13 0.264253 0.317888 0.838493
O O14 0.283991 0.188813 0.682573
O O15 0.571549 0.255695 0.748371
O O16 0.892949 0.552441 0.970148
#
# Coordination Sequence:
#
# PCOD9141036 Si02
#       8
#     4   4   4   4   4   4   4   4
#     4  12  27  46  76 110 147 195 251 304 373 450
#     4  12  25  48  76 107 149 196 246 310 375 436
#     4  12  28  50  71 108 154 193 248 312 371 445
#     4  12  28  46  72 109 152 192 247 316 369 444
#     4  12  25  47  74 106 144 198 249 302 378 441
#     4  12  25  48  76 105 147 198 247 308 374 440
#     4  12  28  47  75 109 148 196 252 306 372 450
#     4  12  26  48  74 106 149 198 248 304 378 440
#
# _framework density 21.814112000000002
#
# number of rings (size 3 to 8) (size 9 to 14) (size 15 to 20)
#    0.000    0.000    5.000    4.500    7.000    3.000 
#    0.000    0.000    0.000    0.000    0.000    0.000 
#    0.000    0.000    0.000    0.000    0.000    0.000 
#
# Total GULP energy -89561.627324 kJ/mol
# GULP energy per Si atom -5597.601708 kJ/mol
# Density = 2.176446 g / cm^3
# Si number density = 21.814112 Si / 1000 Ang^3
#
#
#
# Elastic Constant Matrix: (Units=GPa)
#
#
# Indices 1 2 3 4 5 6 
#
# 1 92.7274 49.5718 14.0019 0.0002 -0.6299 -0.0001
# 2 49.5718 144.4872 28.7565 0.0002 -6.3529 -0.0001
# 3 14.0019 28.7565 76.8692 0.0002 2.2524 -0.0001
# 4 0.0002 0.0002 0.0002 40.8992 -0.0001 2.7236
# 5 -0.6299 -6.3529 2.2524 -0.0001 23.4756 0.0000
# 6 -0.0001 -0.0001 -0.0001 2.7236 0.0000 58.4013
#
#
#
# Elastic Compliance Matrix: (Units=1/GPa)
#
#
# Indices 1 2 3 4 5 6 
#
# 1 0.013262 -0.004438 -0.000733 0.000000 -0.000775 0.000000
# 2 -0.004438 0.009089 -0.002668 0.000000 0.002596 0.000000
# 3 -0.000733 -0.002668 0.014202 0.000000 -0.002104 0.000000
# 4 0.000000 0.000000 0.000000 0.024527 0.000000 -0.001144
# 5 -0.000775 0.002596 -0.002104 0.000000 0.043481 0.000000
# 6 0.000000 0.000000 0.000000 -0.001144 0.000000 0.017176
#
#
# Mechanical properties :
#
#
# Convention : Reuss Voigt Hill
#
# Bulk Modulus (GPa) = 47.90217 55.41601 51.65909
# Shear Modulus (GPa) = 34.63231 39.33880 36.98555
#
# Velocity S-wave (km/s) = 3.98881 4.25121 4.12210
# Velocity P-wave (km/s) = 6.57427 7.03960 6.81091
#
# Compressibility (1/GPa) = 0.02087588
#
# Stress axis : x y z
#
# Youngs Moduli (GPa) = 75.40091 110.02414 70.41150
#
# Poissons Ratio (x) = 0.48834 0.05159
# Poissons Ratio (y) = 0.33466 0.18784
# Poissons Ratio (z) = 0.05524 0.29352
#
# Static dielectric constant tensor:
#      x y z
#    x 1.798670 0.000000 -0.029580 
#    y 0.000000 1.787090 0.000000 
#    z -0.029580 0.000000 1.857720 
# 
# From -- ./inp_files/31858.got.cif
#   From: 2010.05.17/outbox.cif.g08.bks.cpg/sg9_16_cif.got.tgz:31858.got - 2010.06.03 20:04:27.
