data_PCOD9141639
_publ_section_title
;
Structure prediction by ZEFSAII (Michael W. Deem and Ramdas Pophale) SiO2 
 PCOD9141639
Probable space group: P 2/M
;
_chemical_formula_sum "Si O2"
_cell_formula_units_Z 32
_cell_length_a 22.694954
_cell_length_b 8.708441
_cell_length_c 31.100677
_cell_angle_alpha 90.000000
_cell_angle_beta 161.863982
_cell_angle_gamma 90.000000
_cell_volume 1913.296431
_symmetry_space_group_name_H-M "P 2/M"
_symmetry_group_IT_number 10
_symmetry_cell_setting 'monoclinic'
loop_
_space_group_symop_operation_xyz
x,y,z
-x,y,-z
-x,-y,-z
x,-y,z
loop_
_atom_site_type_symbol
_atom_site_label
_atom_site_fract_x
_atom_site_fract_y
_atom_site_fract_z
Si Si1 0.824407 0.314635 0.408614
Si Si2 0.475372 0.815988 0.418253
Si Si3 0.491233 0.185158 0.869161
Si Si4 0.929263 0.185566 0.165902
Si Si5 0.236573 0.184598 0.451605
Si Si6 0.079505 0.683466 0.428095
Si Si7 0.788797 0.316970 0.701573
Si Si8 0.332231 0.185274 0.851406
O O1 0.821383 0.500000 0.405733
O O2 0.631476 0.252458 0.254561
O O3 0.856628 0.264045 0.480045
O O4 0.000000 0.264197 0.500000
O O5 0.565415 0.775541 0.434578
O O6 0.281041 0.742403 0.300402
O O7 0.636532 0.756226 0.562893
O O8 0.463240 0.000000 0.413151
O O9 0.391736 0.233129 0.844700
O O10 0.485576 0.000000 0.863462
O O11 0.711693 0.230044 0.021977
O O12 0.064793 0.231035 0.300017
O O13 0.014472 0.257924 0.181514
O O14 0.940976 0.000000 0.170874
O O15 0.206159 0.256052 0.476931
O O16 0.227743 0.000000 0.448783
O O17 0.079657 0.500000 0.428011
O O18 0.866844 0.743594 0.273813
O O19 0.777717 0.500000 0.692406
O O20 0.315096 0.000000 0.840578
O O21 0.500000 0.228620 0.000000
#
# Coordination Sequence:
#
# PCOD9141639 Si02
#       8
#     4   4   4   4   4   4   4   4
#     4  10  21  38  53  67  95 128 160 204 254 295
#     4   9  16  28  45  65  95 135 167 195 240 286
#     4  10  20  33  53  75  92 122 168 208 240 283
#     4   9  18  33  49  70 102 133 161 197 247 295
#     4   9  18  32  50  71 100 133 162 199 242 289
#     4  11  22  34  50  71  95 128 163 200 246 292
#     4  10  17  25  42  70 100 131 166 199 232 280
#     4  10  20  34  51  71  97 126 157 196 242 290
#
# _framework density 16.725062000000001
#
# number of rings (size 3 to 8) (size 9 to 14) (size 15 to 20)
#    0.000    2.250    1.250    4.125    0.000    6.500 
#    0.000    1.250    0.000    0.000    0.000    0.875 
#    0.000    7.000    0.000    0.000    0.000    0.000 
#
# Total GULP energy -178415.812504 kJ/mol
# GULP energy per Si atom -5575.494141 kJ/mol
# Density = 1.668700 g / cm^3
# Si number density = 16.725062 Si / 1000 Ang^3
#
#
#
# Elastic Constant Matrix: (Units=GPa)
#
#
# Indices 1 2 3 4 5 6 
#
# 1 136.9125 27.5771 29.2089 0.0000 10.4865 0.0000
# 2 27.5771 13.1947 5.0596 0.0000 4.3605 0.0000
# 3 29.2089 5.0596 16.6620 0.0000 -5.4052 0.0000
# 4 0.0000 0.0000 0.0000 16.7773 0.0000 -1.8157
# 5 10.4865 4.3605 -5.4052 0.0000 28.8074 0.0000
# 6 0.0000 0.0000 0.0000 -1.8157 0.0000 25.3108
#
#
#
# Elastic Compliance Matrix: (Units=1/GPa)
#
#
# Indices 1 2 3 4 5 6 
#
# 1 0.019517 -0.026987 -0.028749 0.000000 -0.008414 0.000000
# 2 -0.026987 0.134150 0.003378 0.000000 -0.009848 0.000000
# 3 -0.028749 0.003378 0.119917 0.000000 0.032455 0.000000
# 4 0.000000 0.000000 0.000000 0.060071 0.000000 0.004309
# 5 -0.008414 -0.009848 0.032455 0.000000 0.045357 0.000000
# 6 0.000000 0.000000 0.000000 0.004309 0.000000 0.039818
#
#
# Mechanical properties :
#
#
# Convention : Reuss Voigt Hill
#
# Bulk Modulus (GPa) = 5.92180 32.27339 19.09759
# Shear Modulus (GPa) = 8.62313 21.17401 14.89857
#
# Velocity S-wave (km/s) = 2.27310 3.56196 2.98785
# Velocity P-wave (km/s) = 3.23074 6.02121 4.83181
#
# Compressibility (1/GPa) = 0.16886771
#
# Stress axis : x y z
#
# Youngs Moduli (GPa) = 51.23607 7.45435 8.33908
#
# Poissons Ratio (x) = 0.20117 0.23974
# Poissons Ratio (y) = 1.38271 -0.02817
# Poissons Ratio (z) = 1.47300 -0.02518
#
# Static dielectric constant tensor:
#      x y z
#    x 1.598340 0.000000 0.022560 
#    y 0.000000 1.562560 0.000000 
#    z 0.022560 0.000000 1.541870 
# 
# From -- ./inp_files/54846.got.cif
#   From: 2010.05.17/outbox.cif.g08.bks.cpg/sg10_28_cif.got.tgz:54846.got - 2010.06.03 11:33:40.
