data_PCOD9141719
_publ_section_title
;
Structure prediction by ZEFSAII (Michael W. Deem and Ramdas Pophale) SiO2 
 PCOD9141719
Probable space group: P 2/M
;
_chemical_formula_sum "Si O2"
_cell_formula_units_Z 20
_cell_length_a 7.549119
_cell_length_b 8.013361
_cell_length_c 21.823719
_cell_angle_alpha 90.000000
_cell_angle_beta 46.163117
_cell_angle_gamma 90.000000
_cell_volume 952.279463
_symmetry_space_group_name_H-M "P 2/M"
_symmetry_group_IT_number 10
_symmetry_cell_setting 'monoclinic'
loop_
_space_group_symop_operation_xyz
x,y,z
-x,y,-z
-x,-y,-z
x,-y,z
loop_
_atom_site_type_symbol
_atom_site_label
_atom_site_fract_x
_atom_site_fract_y
_atom_site_fract_z
Si Si1 0.903178 0.808054 0.410911
Si Si2 0.190383 0.295064 0.902556
Si Si3 0.147628 0.703263 0.774828
Si Si4 0.502100 0.697729 0.589813
Si Si5 0.254842 0.301176 0.226151
O O1 0.776698 0.734031 0.501894
O O2 0.687793 0.785437 0.411315
O O3 0.136977 0.729500 0.321249
O O4 0.953005 0.000000 0.409916
O O5 0.190515 0.500000 0.902827
O O6 0.121708 0.239985 0.850419
O O7 0.469396 0.238077 0.846906
O O8 0.000000 0.240891 0.000000
O O9 0.138380 0.500000 0.778410
O O10 0.406468 0.746193 0.679942
O O11 0.931979 0.762941 0.781149
O O12 0.460142 0.500000 0.592278
O O13 0.263954 0.500000 0.216231
#
# Coordination Sequence:
#
# PCOD9141719 Si02
#       5
#     4   4   4   4   4
#     4  10  17  26  44  70  98 127 161 196 229 273
#     4   9  17  29  47  72  97 119 152 201 246 280
#     4   8  15  27  44  69  97 124 155 189 231 283
#     4   9  15  26  45  69  99 130 158 190 231 279
#     4   9  17  30  48  69  96 128 157 190 235 282
#
# _framework density 21.002237000000001
#
# number of rings (size 3 to 8) (size 9 to 14) (size 15 to 20)
#    0.000    3.000    0.000    4.800    0.000    0.800 
#    0.000    5.000    0.000   12.600    0.000    5.600 
#    0.000    0.000    0.000    0.000    0.000    0.000 
#
# Total GULP energy -111486.522477 kJ/mol
# GULP energy per Si atom -5574.326124 kJ/mol
# Density = 2.095443 g / cm^3
# Si number density = 21.002237 Si / 1000 Ang^3
#
#
#
# Elastic Constant Matrix: (Units=GPa)
#
#
# Indices 1 2 3 4 5 6 
#
# 1 93.6393 0.5935 92.0748 0.0000 0.6738 0.0000
# 2 0.5935 13.9983 -2.6628 0.0000 -0.7938 0.0000
# 3 92.0748 -2.6628 250.6903 0.0000 2.8365 0.0000
# 4 0.0000 0.0000 0.0000 -7.3102 0.0000 4.0940
# 5 0.6738 -0.7938 2.8365 0.0000 42.9080 0.0000
# 6 0.0000 0.0000 0.0000 4.0940 0.0000 10.1760
#
#
#
# Elastic Compliance Matrix: (Units=1/GPa)
#
#
# Indices 1 2 3 4 5 6 
#
# 1 0.016766 -0.001880 -0.006179 0.000000 0.000110 0.000000
# 2 -0.001880 0.071863 0.001440 0.000000 0.001264 0.000000
# 3 -0.006179 0.001440 0.006277 0.000000 -0.000291 0.000000
# 4 0.000000 0.000000 0.000000 -0.111641 0.000000 0.044915
# 5 0.000110 0.001264 -0.000291 0.000000 0.023347 0.000000
# 6 0.000000 0.000000 0.000000 0.044915 0.000000 0.080201
#
#
# Mechanical properties :
#
#
# Convention : Reuss Voigt Hill
#
# Bulk Modulus (GPa) = 12.24491 59.81546 36.03018
# Shear Modulus (GPa) = 39.28510 27.04290 33.16400
#
# Velocity S-wave (km/s) = 4.32964 3.59224 3.97806
# Velocity P-wave (km/s) = 5.55314 6.76372 6.18810
#
# Compressibility (1/GPa) = 0.08166660
#
# Stress axis : x y z
#
# Youngs Moduli (GPa) = 59.64291 13.91543 159.30842
#
# Poissons Ratio (x) = 0.02616 0.98441
# Poissons Ratio (y) = 0.11213 -0.22933
# Poissons Ratio (z) = 0.36855 -0.02003
#
# Static dielectric constant tensor:
#      x y z
#    x 1.787420 0.000000 0.001050 
#    y 0.000000 1.736450 0.000000 
#    z 0.001050 0.000000 1.772630 
# 
# From -- ./inp_files/26786.got.cif
#   From: 2010.05.17/outbox.cif.g08.bks.cpg/sg10_14_cif.got.tgz:26786.got - 2010.06.03 11:33:40.
