data_PCOD9141042
_publ_section_title
;
Structure prediction by ZEFSAII (Michael W. Deem and Ramdas Pophale) SiO2 
 PCOD9141042
Probable space group: C C
;
_chemical_formula_sum "Si O2"
_cell_formula_units_Z 32
_cell_length_a 9.372184
_cell_length_b 11.541532
_cell_length_c 14.639046
_cell_angle_alpha 90.000000
_cell_angle_beta 61.805019
_cell_angle_gamma 90.000000
_cell_volume 1395.606263
_symmetry_space_group_name_H-M "C C"
_symmetry_group_IT_number 9
_symmetry_cell_setting 'monoclinic'
loop_
_space_group_symop_operation_xyz
x,y,z
x,-y,1/2+z
1/2+x,1/2+y,z
1/2+x,1/2-y,1/2+z
loop_
_atom_site_type_symbol
_atom_site_label
_atom_site_fract_x
_atom_site_fract_y
_atom_site_fract_z
Si Si1 0.752140 0.895714 0.562410
Si Si2 0.692762 0.756957 0.145275
Si Si3 0.062475 0.165943 0.552304
Si Si4 0.575476 0.047659 0.472816
Si Si5 0.738312 0.495646 0.857344
Si Si6 0.092622 0.517528 0.769919
Si Si7 0.211253 0.013875 0.661696
Si Si8 0.601100 0.296363 0.474078
O O1 0.653346 0.782109 0.559651
O O2 0.938640 0.863065 0.497710
O O3 0.693418 0.999895 0.515160
O O4 0.720691 0.940283 0.674889
O O5 0.600247 0.851898 0.231415
O O6 0.694736 0.624305 0.175205
O O7 0.878244 0.800616 0.087268
O O8 0.603646 0.749993 0.075757
O O9 0.139370 0.104387 0.439308
O O10 0.089106 0.074389 0.627563
O O11 0.613188 0.174770 0.420199
O O12 0.601534 0.971679 0.375396
O O13 0.391629 0.042347 0.567665
O O14 0.686205 0.547259 0.775019
O O15 0.738392 0.608238 0.922696
O O16 0.923258 0.458022 0.793152
#
# Coordination Sequence:
#
# PCOD9141042 Si02
#       8
#     4   4   4   4   4   4   4   4
#     4  12  26  49  76 107 150 196 253 312 380 453
#     4  12  26  48  76 107 151 193 251 317 374 453
#     4  12  26  49  76 107 150 196 253 312 380 453
#     4  12  25  48  72 108 152 197 250 315 370 452
#     4  12  26  46  74 108 149 198 245 310 388 442
#     4  12  26  46  74 108 149 198 245 310 388 442
#     4  12  25  48  72 108 152 197 250 315 370 452
#     4  12  26  48  76 107 151 193 251 317 374 453
#
# _framework density 22.929103000000001
#
# number of rings (size 3 to 8) (size 9 to 14) (size 15 to 20)
#    0.000    0.000    7.500    0.750    3.500    1.000 
#    0.000    0.000    0.000    0.000    0.000    0.000 
#    0.000    0.000    0.000    0.000    0.000    0.000 
#
# Total GULP energy -89452.937548 kJ/mol
# GULP energy per Si atom -5590.808597 kJ/mol
# Density = 2.287691 g / cm^3
# Si number density = 22.929103 Si / 1000 Ang^3
#
#
#
# Elastic Constant Matrix: (Units=GPa)
#
#
# Indices 1 2 3 4 5 6 
#
# 1 76.5116 3.7092 -0.2230 0.0000 0.0490 0.0000
# 2 3.7092 117.2244 13.2828 0.0000 -10.3202 0.0000
# 3 -0.2230 13.2828 71.3909 0.0000 10.9146 0.0000
# 4 0.0000 0.0000 0.0000 34.5748 0.0000 2.3803
# 5 0.0490 -10.3202 10.9146 0.0000 14.9172 0.0000
# 6 0.0000 0.0000 0.0000 2.3803 0.0000 40.6155
#
#
#
# Elastic Compliance Matrix: (Units=1/GPa)
#
#
# Indices 1 2 3 4 5 6 
#
# 1 0.013094 -0.000486 0.000213 0.000000 -0.000535 0.000000
# 2 -0.000486 0.009704 -0.003191 0.000000 0.009050 0.000000
# 3 0.000213 -0.003191 0.016821 0.000000 -0.014516 0.000000
# 4 0.000000 0.000000 0.000000 0.029040 0.000000 -0.001702
# 5 -0.000535 0.009050 -0.014516 0.000000 0.083920 0.000000
# 6 0.000000 0.000000 0.000000 -0.001702 0.000000 0.024721
#
#
# Mechanical properties :
#
#
# Convention : Reuss Voigt Hill
#
# Bulk Modulus (GPa) = 30.58739 33.18498 31.88618
# Shear Modulus (GPa) = 25.62468 34.57870 30.10169
#
# Velocity S-wave (km/s) = 3.34662 3.88760 3.62721
# Velocity P-wave (km/s) = 5.31997 5.88690 5.61060
#
# Compressibility (1/GPa) = 0.03269322
#
# Stress axis : x y z
#
# Youngs Moduli (GPa) = 76.36841 103.04746 59.44985
#
# Poissons Ratio (x) = 0.05003 -0.01266
# Poissons Ratio (y) = 0.03708 0.18968
# Poissons Ratio (z) = -0.01627 0.32879
#
# Static dielectric constant tensor:
#      x y z
#    x 1.919770 0.000000 0.048520 
#    y 0.000000 2.019140 0.000000 
#    z 0.048520 0.000000 1.895260 
# 
# From -- ./inp_files/22861.got.cif
#   From: 2010.05.17/outbox.cif.g08.bks.cpg/sg9_12_cif.got.tgz:22861.got - 2010.06.03 20:04:27.
