data_PCOD9141894
_publ_section_title
;
Structure prediction by ZEFSAII (Michael W. Deem and Ramdas Pophale) SiO2 
 PCOD9141894
Probable space group: P 2/M
;
_chemical_formula_sum "Si O2"
_cell_formula_units_Z 32
_cell_length_a 24.323204
_cell_length_b 18.290491
_cell_length_c 8.308246
_cell_angle_alpha 90.000000
_cell_angle_beta 32.794043
_cell_angle_gamma 90.000000
_cell_volume 2001.938996
_symmetry_space_group_name_H-M "P 2/M"
_symmetry_group_IT_number 10
_symmetry_cell_setting 'monoclinic'
loop_
_space_group_symop_operation_xyz
x,y,z
-x,y,-z
-x,-y,-z
x,-y,z
loop_
_atom_site_type_symbol
_atom_site_label
_atom_site_fract_x
_atom_site_fract_y
_atom_site_fract_z
Si Si1 0.998832 0.911455 0.689301
Si Si2 0.389353 0.193806 0.730958
Si Si3 0.218833 0.914592 0.269892
Si Si4 0.381093 0.649679 0.925321
Si Si5 0.606072 0.809667 0.660230
Si Si6 0.779886 0.085234 0.350629
Si Si7 0.620375 0.645044 0.718655
Si Si8 0.394815 0.414713 0.571834
O O1 0.104139 0.889495 0.512569
O O2 0.000000 0.889793 0.500000
O O3 0.998036 0.000000 0.699504
O O4 0.893474 0.888015 0.028976
O O5 0.500000 0.162334 0.500000
O O6 0.373996 0.266535 0.879417
O O7 0.396315 0.208665 0.523283
O O8 0.300575 0.136677 0.984171
O O9 0.234596 0.911178 0.422309
O O10 0.228726 0.000000 0.195240
O O11 0.500367 0.630916 0.663787
O O12 0.341337 0.602060 0.873457
O O13 0.336850 0.628608 0.209289
O O14 0.694563 0.866948 0.475860
O O15 0.626523 0.732370 0.694449
O O16 0.500000 0.836325 0.000000
O O17 0.772121 0.000000 0.320057
O O18 0.661652 0.610469 0.451701
O O19 0.500000 0.624381 0.000000
O O20 0.419860 0.500000 0.498366
#
# Coordination Sequence:
#
# PCOD9141894 Si02
#       8
#     4   4   4   4   4   4   4   4
#     4   9  17  32  51  71  94 118 151 200 256 302
#     4  12  20  33  50  65  95 130 168 203 246 297
#     4  10  21  34  50  72  93 123 165 208 250 295
#     4  10  17  29  43  63  89 124 159 195 236 285
#     4  11  21  33  48  68  93 130 169 204 244 297
#     4  10  20  34  51  70  93 124 163 208 254 295
#     4   9  17  29  43  60  91 123 159 193 234 285
#     4  10  18  28  44  67  90 121 163 197 233 281
#
# _framework density 15.984503
#
# number of rings (size 3 to 8) (size 9 to 14) (size 15 to 20)
#    0.000    1.875    2.500    4.875    0.000    6.250 
#    0.000    0.000    0.000    0.000    0.000    0.000 
#    0.000    0.000    0.000    3.375    0.000   44.250 
#
# Total GULP energy -178175.190221 kJ/mol
# GULP energy per Si atom -5567.974694 kJ/mol
# Density = 1.594812 g / cm^3
# Si number density = 15.984503 Si / 1000 Ang^3
#
#
#
# Elastic Constant Matrix: (Units=GPa)
#
#
# Indices 1 2 3 4 5 6 
#
# 1 102.9467 25.8176 26.2441 0.0000 19.1522 0.0000
# 2 25.8176 50.7791 26.2340 0.0000 -7.5808 0.0000
# 3 26.2441 26.2340 61.2980 0.0000 2.9981 0.0000
# 4 0.0000 0.0000 0.0000 1.9185 0.0000 7.3162
# 5 19.1522 -7.5808 2.9981 0.0000 28.6523 0.0000
# 6 0.0000 0.0000 0.0000 7.3162 0.0000 11.2133
#
#
#
# Elastic Compliance Matrix: (Units=1/GPa)
#
#
# Indices 1 2 3 4 5 6 
#
# 1 0.014392 -0.007878 -0.002229 0.000000 -0.011471 0.000000
# 2 -0.007878 0.031490 -0.010824 0.000000 0.014730 0.000000
# 3 -0.002229 -0.010824 0.022081 0.000000 -0.003685 0.000000
# 4 0.000000 0.000000 0.000000 -0.350252 0.000000 0.228526
# 5 -0.011471 0.014730 -0.003685 0.000000 0.046852 0.000000
# 6 0.000000 0.000000 0.000000 0.228526 0.000000 -0.059925
#
#
# Mechanical properties :
#
#
# Convention : Reuss Voigt Hill
#
# Bulk Modulus (GPa) = 38.31498 41.29058 39.80278
# Shear Modulus (GPa) = -20.42488 17.47203 -1.47643
#
# Velocity S-wave (km/s) = -3.57850 3.30973 -0.96212
# Velocity P-wave (km/s) = 2.63589 6.36345 4.87039
#
# Compressibility (1/GPa) = 0.02609945
#
# Stress axis : x y z
#
# Youngs Moduli (GPa) = 69.48400 31.75616 45.28807
#
# Poissons Ratio (x) = 0.25018 0.10095
# Poissons Ratio (y) = 0.54741 0.49022
# Poissons Ratio (z) = 0.15488 0.34374
#
# Static dielectric constant tensor:
#      x y z
#    x 1.587930 0.000000 0.064910 
#    y 0.000000 1.532540 0.000000 
#    z 0.064910 0.000000 1.549050 
# 
# From -- ./inp_files/36445.got.cif
#   From: 2010.05.17/outbox.cif.g08.bks.cpg/sg10_19_cif.got.tgz:36445.got - 2010.06.03 11:33:40.
