data_PCOD9141202
_publ_section_title
;
Structure prediction by ZEFSAII (Michael W. Deem and Ramdas Pophale) SiO2 
 PCOD9141202
Probable space group: C C
;
_chemical_formula_sum "Si O2"
_cell_formula_units_Z 32
_cell_length_a 17.780305
_cell_length_b 17.082595
_cell_length_c 12.460419
_cell_angle_alpha 90.000000
_cell_angle_beta 150.700793
_cell_angle_gamma 90.000000
_cell_volume 1852.095508
_symmetry_space_group_name_H-M "C C"
_symmetry_group_IT_number 9
_symmetry_cell_setting 'monoclinic'
loop_
_space_group_symop_operation_xyz
x,y,z
x,-y,1/2+z
1/2+x,1/2+y,z
1/2+x,1/2-y,1/2+z
loop_
_atom_site_type_symbol
_atom_site_label
_atom_site_fract_x
_atom_site_fract_y
_atom_site_fract_z
Si Si1 0.296540 0.515787 0.195040
Si Si2 0.804911 0.556943 0.035835
Si Si3 0.531639 0.438226 0.345878
Si Si4 0.304904 0.228426 0.996468
Si Si5 0.122427 0.765205 0.471549
Si Si6 0.046562 0.482363 0.197636
Si Si7 0.586877 0.110858 0.540163
Si Si8 0.245826 0.388620 0.838629
O O1 0.460413 0.494695 0.346863
O O2 0.289045 0.583798 0.273551
O O3 0.174328 0.531850 0.948128
O O4 0.231384 0.438994 0.175754
O O5 0.883456 0.498256 0.050416
O O6 0.943814 0.583231 0.288156
O O7 0.664013 0.528190 0.933076
O O8 0.757352 0.638825 0.919511
O O9 0.597758 0.355382 0.471563
O O10 0.386322 0.413876 0.091230
O O11 0.269964 0.243718 0.079415
O O12 0.228204 0.295944 0.831022
O O13 0.487450 0.240439 0.219802
O O14 0.119126 0.701667 0.560292
O O15 0.101440 0.561227 0.202802
O O16 0.050437 0.414307 0.115126
#
# Coordination Sequence:
#
# PCOD9141202 Si02
#       8
#     4   4   4   4   4   4   4   4
#     4   9  17  29  43  63  89 117 148 174 207 257
#     4   9  17  27  42  67  91 111 138 177 221 259
#     4   9  17  27  42  67  91 111 138 177 221 259
#     4   9  15  25  42  65  88 107 136 177 216 252
#     4   9  15  25  42  65  88 107 136 177 216 252
#     4   9  17  29  43  63  89 117 148 174 207 257
#     4   9  16  27  44  63  87 117 145 179 212 246
#     4   9  16  27  44  63  87 117 145 179 212 246
#
# _framework density 17.277726999999999
#
# number of rings (size 3 to 8) (size 9 to 14) (size 15 to 20)
#    0.000    3.000    0.000    3.750    0.000    1.000 
#    0.000    0.000    0.000    0.000    0.000   64.750 
#    0.000    2.000    0.000    0.000    0.000    0.000 
#
# Total GULP energy -89088.634017 kJ/mol
# GULP energy per Si atom -5568.039626 kJ/mol
# Density = 1.723840 g / cm^3
# Si number density = 17.277727 Si / 1000 Ang^3
#
#
#
# Elastic Constant Matrix: (Units=GPa)
#
#
# Indices 1 2 3 4 5 6 
#
# 1 131.4004 54.9184 20.0163 0.0000 10.0554 0.0000
# 2 54.9184 71.9738 13.6900 0.0000 -12.3274 0.0000
# 3 20.0163 13.6900 6.7430 0.0000 2.1721 0.0000
# 4 0.0000 0.0000 0.0000 14.9821 0.0000 -6.3822
# 5 10.0554 -12.3274 2.1721 0.0000 34.7423 0.0000
# 6 0.0000 0.0000 0.0000 -6.3822 0.0000 29.2738
#
#
#
# Elastic Compliance Matrix: (Units=1/GPa)
#
#
# Indices 1 2 3 4 5 6 
#
# 1 0.015520 -0.006931 -0.030373 0.000000 -0.005052 0.000000
# 2 -0.006931 0.030911 -0.047315 0.000000 0.015932 0.000000
# 3 -0.030373 -0.047315 0.344028 0.000000 -0.029506 0.000000
# 4 0.000000 0.000000 0.000000 0.073580 0.000000 0.016042
# 5 -0.005052 0.015932 -0.029506 0.000000 0.037743 0.000000
# 6 0.000000 0.000000 0.000000 0.016042 0.000000 0.037658
#
#
# Mechanical properties :
#
#
# Convention : Reuss Voigt Hill
#
# Bulk Modulus (GPa) = 4.52035 43.04074 23.78054
# Shear Modulus (GPa) = 6.39044 23.89913 15.14479
#
# Velocity S-wave (km/s) = 1.92528 3.72322 2.96387
# Velocity P-wave (km/s) = 2.75031 6.59154 5.05037
#
# Compressibility (1/GPa) = 0.22122175
#
# Stress axis : x y z
#
# Youngs Moduli (GPa) = 64.43157 32.35109 2.90674
#
# Poissons Ratio (x) = 0.22422 0.08829
# Poissons Ratio (y) = 0.44656 0.13753
# Poissons Ratio (z) = 1.95696 1.53070
#
# Static dielectric constant tensor:
#      x y z
#    x 1.599480 0.000000 0.022010 
#    y 0.000000 1.602680 0.000000 
#    z 0.022010 0.000000 1.596220 
# 
# From -- ./inp_files/7886.got.cif
#   From: 2010.05.17/outbox.cif.g08.bks.cpg/sg9_4_cif.got.tgz:7886.got - 2010.06.03 20:04:27.
