data_PCOD9141526
_publ_section_title
;
Structure prediction by ZEFSAII (Michael W. Deem and Ramdas Pophale) SiO2 
 PCOD9141526
Probable space group: P 2/M
;
_chemical_formula_sum "Si O2"
_cell_formula_units_Z 28
_cell_length_a 17.779437
_cell_length_b 8.268745
_cell_length_c 23.916316
_cell_angle_alpha 90.000000
_cell_angle_beta 155.457541
_cell_angle_gamma 90.000000
_cell_volume 1460.442127
_symmetry_space_group_name_H-M "P 2/M"
_symmetry_group_IT_number 10
_symmetry_cell_setting 'monoclinic'
loop_
_space_group_symop_operation_xyz
x,y,z
-x,y,-z
-x,-y,-z
x,-y,z
loop_
_atom_site_type_symbol
_atom_site_label
_atom_site_fract_x
_atom_site_fract_y
_atom_site_fract_z
Si Si1 0.077712 0.318190 0.708563
Si Si2 0.868708 0.692231 0.779238
Si Si3 0.585910 0.809558 0.679203
Si Si4 0.836829 0.675147 0.435318
Si Si5 0.223675 0.000000 0.651865
Si Si6 0.818773 0.809676 0.622162
Si Si7 0.691057 0.000000 0.160156
Si Si8 0.842157 0.310881 0.940441
O O1 0.157391 0.500000 0.759265
O O2 0.209340 0.166296 0.789883
O O3 0.932489 0.306160 0.559807
O O4 0.971045 0.292263 0.693871
O O5 0.881519 0.500000 0.778147
O O6 0.709166 0.721949 0.716206
O O7 0.827664 0.781946 0.694244
O O8 0.056680 0.748124 0.935490
O O9 0.378592 0.758485 0.533411
O O10 0.672013 0.777007 0.798147
O O11 0.595333 0.000000 0.673434
O O12 0.742752 0.500000 0.369355
O O13 0.000000 0.668445 0.500000
O O14 0.724840 0.834357 0.344389
O O15 0.299499 0.000000 0.765794
O O16 0.000000 0.000000 0.500000
O O17 0.843583 0.000000 0.625880
O O18 0.500000 0.000000 0.000000
O O19 0.798170 0.500000 0.917279
O O20 0.000000 0.299514 0.000000
#
# Coordination Sequence:
#
# PCOD9141526 Si02
#       8
#     4   4   4   4   2   4   2   4
#     4  11  22  39  62  88 119 156 192 234 296 353
#     4  10  20  34  53  78 110 154 201 240 286 346
#     4  10  20  33  52  82 111 143 195 250 290 336
#     4   9  16  29  57  88 110 139 187 231 269 328
#     4  10  16  32  62  88 112 148 177 225 272 326
#     4  11  23  36  55  80 115 152 191 243 293 343
#     4  12  24  40  64  94 125 150 188 237 288 343
#     4   8  16  31  51  73 102 139 183 239 289 333
#
# _framework density 19.172274999999999
#
# number of rings (size 3 to 8) (size 9 to 14) (size 15 to 20)
#    0.000    2.000    3.571    2.571    0.000    7.429 
#    0.000    0.000    3.143    0.000    0.000    0.000 
#    0.000    0.000    0.000    0.000    0.000    0.000 
#
# Total GULP energy -156149.228845 kJ/mol
# GULP energy per Si atom -5576.758173 kJ/mol
# Density = 1.912864 g / cm^3
# Si number density = 19.172275 Si / 1000 Ang^3
#
#
#
# Elastic Constant Matrix: (Units=GPa)
#
#
# Indices 1 2 3 4 5 6 
#
# 1 -0.1017 24.6242 18.4680 0.0000 7.7429 0.0000
# 2 24.6242 124.0312 50.8163 0.0000 -2.8442 0.0000
# 3 18.4680 50.8163 93.6652 0.0000 -18.6044 0.0000
# 4 0.0000 0.0000 0.0000 15.2657 0.0000 -30.1882
# 5 7.7429 -2.8442 -18.6044 0.0000 -0.1651 0.0000
# 6 0.0000 0.0000 0.0000 -30.1882 0.0000 -63.1039
#
#
#
# Elastic Compliance Matrix: (Units=1/GPa)
#
#
# Indices 1 2 3 4 5 6 
#
# 1 0.054969 -0.017994 0.024486 0.000000 0.128694 0.000000
# 2 -0.017994 0.014975 -0.009556 0.000000 -0.025069 0.000000
# 3 0.024486 -0.009556 0.011625 0.000000 0.002983 0.000000
# 4 0.000000 0.000000 0.000000 0.033662 0.000000 -0.016103
# 5 0.128694 -0.025069 0.002983 0.000000 0.074298 0.000000
# 6 0.000000 0.000000 0.000000 -0.016103 0.000000 -0.008143
#
#
# Mechanical properties :
#
#
# Convention : Reuss Voigt Hill
#
# Bulk Modulus (GPa) = 13.25519 45.04575 29.15047
# Shear Modulus (GPa) = 23.51161 -1.35493 11.07834
#
# Velocity S-wave (km/s) = 3.50570 -0.84157 2.40642
# Velocity P-wave (km/s) = 4.82860 4.75415 4.79152
#
# Compressibility (1/GPa) = 0.07544214
#
# Stress axis : x y z
#
# Youngs Moduli (GPa) = 18.19196 66.77726 86.01952
#
# Poissons Ratio (x) = 1.20160 -2.10630
# Poissons Ratio (y) = 0.32735 0.82199
# Poissons Ratio (z) = -0.44545 0.63811
#
# Static dielectric constant tensor:
#      x y z
#    x 1.655860 0.000000 -0.018940 
#    y 0.000000 1.707020 0.000000 
#    z -0.018940 0.000000 1.663000 
# 
# From -- ./inp_files/85023.got.cif
#   From: 2010.05.17/outbox.cif.g08.bks.cpg/sg10_43_cif.got.tgz:85023.got - 2010.06.03 11:33:40.
