data_PCOD9141305
_publ_section_title
;
Structure prediction by ZEFSAII (Michael W. Deem and Ramdas Pophale) SiO2 
 PCOD9141305
Probable space group: P 2/M
;
_chemical_formula_sum "Si O2"
_cell_formula_units_Z 21
_cell_length_a 13.197926
_cell_length_b 11.661730
_cell_length_c 8.111098
_cell_angle_alpha 90.000000
_cell_angle_beta 62.252483
_cell_angle_gamma 90.000000
_cell_volume 1104.829916
_symmetry_space_group_name_H-M "P 2/M"
_symmetry_group_IT_number 10
_symmetry_cell_setting 'monoclinic'
loop_
_space_group_symop_operation_xyz
x,y,z
-x,y,-z
-x,-y,-z
x,-y,z
loop_
_atom_site_type_symbol
_atom_site_label
_atom_site_fract_x
_atom_site_fract_y
_atom_site_fract_z
Si Si1 0.688976 0.500000 0.351372
Si Si2 0.000000 0.704528 0.500000
Si Si3 0.500000 0.500000 0.000000
Si Si4 0.416494 0.314425 0.339320
Si Si5 0.575125 0.130621 0.113017
Si Si6 0.235083 0.256282 0.219699
Si Si7 0.945238 0.500000 0.296989
Si Si8 0.206248 0.500000 0.068637
O O1 0.625467 0.389935 0.475446
O O2 0.822403 0.500000 0.304731
O O3 0.700862 0.500000 0.146384
O O4 0.104079 0.776476 0.348697
O O5 0.050242 0.615186 0.596302
O O6 0.534383 0.400351 0.837373
O O7 0.510562 0.215458 0.286267
O O8 0.305497 0.257704 0.336049
O O9 0.583238 0.000000 0.163867
O O10 0.500000 0.131747 0.000000
O O11 0.696531 0.182329 0.965099
O O12 0.228538 0.387705 0.160071
O O13 0.072179 0.500000 0.116315
#
# Coordination Sequence:
#
# PCOD9141305 Si02
#       8
#     2   2   1   4   4   4   2   2
#     4  11  19  29  44  75 101 124 161 193 227 277
#     4   9  16  26  47  76  90 126 159 183 228 290
#     4  10  14  24  44  74  84 118 148 184 226 286
#     4  10  18  28  52  68  94 125 159 191 234 284
#     4   9  18  32  51  72  90 121 164 203 238 273
#     4  10  17  31  48  68  98 126 154 193 235 286
#     4   9  16  28  44  65 104 132 153 179 226 286
#     4  10  21  28  44  71 104 129 153 189 237 284
#
# _framework density 19.007451
#
# number of rings (size 3 to 8) (size 9 to 14) (size 15 to 20)
#    0.000    2.286    4.762    2.000    0.000    0.000 
#    0.000    2.381    0.000    2.286    0.000    0.000 
#    0.000    4.952    0.000    0.000    0.000    0.000 
#
# Total GULP energy -116935.424550 kJ/mol
# GULP energy per Si atom -5568.353550 kJ/mol
# Density = 1.896419 g / cm^3
# Si number density = 19.007451 Si / 1000 Ang^3
#
#
#
# Elastic Constant Matrix: (Units=GPa)
#
#
# Indices 1 2 3 4 5 6 
#
# 1 71.0374 17.7708 28.1713 0.0000 -34.1933 0.0000
# 2 17.7708 99.6676 39.1727 0.0000 -29.5441 0.0000
# 3 28.1713 39.1727 132.7898 0.0000 -35.3757 0.0000
# 4 0.0000 0.0000 0.0000 12.7925 0.0000 1.2356
# 5 -34.1933 -29.5441 -35.3757 0.0000 29.4306 0.0000
# 6 0.0000 0.0000 0.0000 1.2356 0.0000 1.4716
#
#
#
# Elastic Compliance Matrix: (Units=1/GPa)
#
#
# Indices 1 2 3 4 5 6 
#
# 1 0.038789 0.008900 0.005195 0.000000 0.060245 0.000000
# 2 0.008900 0.016356 0.000612 0.000000 0.027495 0.000000
# 3 0.005195 0.000612 0.011797 0.000000 0.020830 0.000000
# 4 0.000000 0.000000 0.000000 0.085070 0.000000 -0.071425
# 5 0.060245 0.027495 0.020830 0.000000 0.156612 0.000000
# 6 0.000000 0.000000 0.000000 -0.071425 0.000000 0.739497
#
#
# Mechanical properties :
#
#
# Convention : Reuss Voigt Hill
#
# Bulk Modulus (GPa) = 10.37816 52.63606 31.50711
# Shear Modulus (GPa) = 4.75816 23.29760 14.02788
#
# Velocity S-wave (km/s) = 1.58390 3.50481 2.71960
# Velocity P-wave (km/s) = 2.96933 6.64309 5.14527
#
# Compressibility (1/GPa) = 0.09635618
#
# Stress axis : x y z
#
# Youngs Moduli (GPa) = 25.78057 61.13823 84.76456
#
# Poissons Ratio (x) = -0.54415 -0.44034
# Poissons Ratio (y) = -0.22946 -0.05184
# Poissons Ratio (z) = -0.13393 -0.03739
#
# Static dielectric constant tensor:
#      x y z
#    x 1.729330 0.000000 -0.030960 
#    y 0.000000 1.625690 0.000000 
#    z -0.030960 0.000000 1.685660 
# 
# From -- ./inp_files/27752.got.cif
#   From: 2010.05.17/outbox.cif.g08.bks.cpg/sg10_14_cif.got.tgz:27752.got - 2010.06.03 11:33:40.
