data_PCOD9141610
_publ_section_title
;
Structure prediction by ZEFSAII (Michael W. Deem and Ramdas Pophale) SiO2 
 PCOD9141610
Probable space group: P 2/M
;
_chemical_formula_sum "Si O2"
_cell_formula_units_Z 32
_cell_length_a 17.573226
_cell_length_b 8.910163
_cell_length_c 13.912783
_cell_angle_alpha 90.000000
_cell_angle_beta 78.549645
_cell_angle_gamma 90.000000
_cell_volume 2135.109983
_symmetry_space_group_name_H-M "P 2/M"
_symmetry_group_IT_number 10
_symmetry_cell_setting 'monoclinic'
loop_
_space_group_symop_operation_xyz
x,y,z
-x,y,-z
-x,-y,-z
x,-y,z
loop_
_atom_site_type_symbol
_atom_site_label
_atom_site_fract_x
_atom_site_fract_y
_atom_site_fract_z
Si Si1 0.838985 0.822624 0.142360
Si Si2 0.593133 0.324071 0.075311
Si Si3 0.319428 0.822133 0.120710
Si Si4 0.168433 0.319064 0.067831
Si Si5 0.327924 0.178115 0.762904
Si Si6 0.521088 0.179888 0.387510
Si Si7 0.564231 0.677661 0.772342
Si Si8 0.996441 0.673337 0.117649
O O1 0.763394 0.794099 0.226921
O O2 0.920366 0.765492 0.164031
O O3 0.844214 0.000000 0.123124
O O4 0.824920 0.743010 0.042804
O O5 0.603299 0.500000 0.048880
O O6 0.643881 0.277270 0.154743
O O7 0.505035 0.299990 0.132046
O O8 0.623057 0.224702 0.980573
O O9 0.237717 0.746179 0.113879
O O10 0.359740 0.758452 0.206254
O O11 0.311117 0.000000 0.126943
O O12 0.171970 0.500000 0.063325
O O13 0.082282 0.275648 0.126851
O O14 0.388719 0.208809 0.662547
O O15 0.336519 0.000000 0.785287
O O16 0.500000 0.229717 0.500000
O O17 0.468818 0.256455 0.318676
O O18 0.509215 0.000000 0.384778
O O19 0.576711 0.500000 0.760805
O O20 0.985781 0.500000 0.148112
O O21 0.000000 0.678134 0.000000
#
# Coordination Sequence:
#
# PCOD9141610 Si02
#       8
#     4   4   4   4   4   4   4   4
#     4  10  17  25  40  62  87 115 149 188 222 257
#     4  10  19  30  44  61  85 118 151 183 219 258
#     4  12  22  30  43  63  88 118 151 186 221 260
#     4  10  19  30  42  57  83 119 155 186 219 258
#     4   9  17  28  43  66  91 116 149 185 222 262
#     4   9  18  34  53  69  89 117 147 183 227 269
#     4  10  21  34  47  65  87 114 149 185 222 264
#     4   8  16  28  40  55  79 115 152 185 219 256
#
# _framework density 14.987519000000001
#
# number of rings (size 3 to 8) (size 9 to 14) (size 15 to 20)
#    0.000    2.250    1.250    3.750    0.000    6.500 
#    0.000    0.000    0.000    0.000    0.000    0.000 
#    0.000    1.000    0.000   11.500    0.000    2.875 
#
# Total GULP energy -178360.887181 kJ/mol
# GULP energy per Si atom -5573.777724 kJ/mol
# Density = 1.495341 g / cm^3
# Si number density = 14.987519 Si / 1000 Ang^3
#
#
#
# Elastic Constant Matrix: (Units=GPa)
#
#
# Indices 1 2 3 4 5 6 
#
# 1 135.7509 61.8477 52.0475 0.0000 4.9217 0.0000
# 2 61.8477 62.4823 27.5171 0.0000 1.4533 0.0000
# 3 52.0475 27.5171 54.4546 0.0000 -1.9410 0.0000
# 4 0.0000 0.0000 0.0000 1.7364 0.0000 -3.3138
# 5 4.9217 1.4533 -1.9410 0.0000 11.5261 0.0000
# 6 0.0000 0.0000 0.0000 -3.3138 0.0000 22.5872
#
#
#
# Elastic Compliance Matrix: (Units=1/GPa)
#
#
# Indices 1 2 3 4 5 6 
#
# 1 0.017304 -0.012280 -0.010605 0.000000 -0.007627 0.000000
# 2 -0.012280 0.029522 -0.003146 0.000000 0.000992 0.000000
# 3 -0.010605 -0.003146 0.030448 0.000000 0.010053 0.000000
# 4 0.000000 0.000000 0.000000 0.799841 0.000000 0.117347
# 5 -0.007627 0.000992 0.010053 0.000000 0.091585 0.000000
# 6 0.000000 0.000000 0.000000 0.117347 0.000000 0.061489
#
#
# Mechanical properties :
#
#
# Convention : Reuss Voigt Hill
#
# Bulk Modulus (GPa) = 39.66329 59.50139 49.58234
# Shear Modulus (GPa) = 4.58440 14.58830 9.58635
#
# Velocity S-wave (km/s) = 1.75084 3.12326 2.53182
# Velocity P-wave (km/s) = 5.53253 7.26589 6.45764
#
# Compressibility (1/GPa) = 0.02521223
#
# Stress axis : x y z
#
# Youngs Moduli (GPa) = 57.79049 33.87286 32.84247
#
# Poissons Ratio (x) = 0.41596 0.34831
# Poissons Ratio (y) = 0.70967 0.10331
# Poissons Ratio (z) = 0.61289 0.10655
#
# Static dielectric constant tensor:
#      x y z
#    x 1.535600 0.000000 -0.006920 
#    y 0.000000 1.500440 0.000000 
#    z -0.006920 0.000000 1.465300 
# 
# From -- ./inp_files/52801.got.cif
#   From: 2010.05.17/outbox.cif.g08.bks.cpg/sg10_27_cif.got.tgz:52801.got - 2010.06.03 11:33:40.
