data_PCOD9141746
_publ_section_title
;
Structure prediction by ZEFSAII (Michael W. Deem and Ramdas Pophale) SiO2 
 PCOD9141746
Probable space group: P 2/M
;
_chemical_formula_sum "Si O2"
_cell_formula_units_Z 32
_cell_length_a 29.357147
_cell_length_b 9.170426
_cell_length_c 13.768533
_cell_angle_alpha 90.000000
_cell_angle_beta 144.154167
_cell_angle_gamma 90.000000
_cell_volume 2170.684769
_symmetry_space_group_name_H-M "P 2/M"
_symmetry_group_IT_number 10
_symmetry_cell_setting 'monoclinic'
loop_
_space_group_symop_operation_xyz
x,y,z
-x,y,-z
-x,-y,-z
x,-y,z
loop_
_atom_site_type_symbol
_atom_site_label
_atom_site_fract_x
_atom_site_fract_y
_atom_site_fract_z
Si Si1 0.007131 0.332449 0.394748
Si Si2 0.320048 0.669404 0.885344
Si Si3 0.411006 0.331190 0.247363
Si Si4 0.463555 0.175275 0.040412
Si Si5 0.151118 0.825654 0.888460
Si Si6 0.685262 0.825099 0.750871
Si Si7 0.833880 0.173887 0.316384
Si Si8 0.550359 0.174268 0.387405
O O1 0.013557 0.500000 0.374097
O O2 0.928045 0.257039 0.222546
O O3 0.000000 0.332218 0.500000
O O4 0.084923 0.242160 0.507520
O O5 0.308474 0.500000 0.840074
O O6 0.238899 0.753101 0.756021
O O7 0.360233 0.675331 0.061094
O O8 0.382169 0.746160 0.922189
O O9 0.422102 0.500000 0.292575
O O10 0.364445 0.247252 0.249509
O O11 0.492106 0.255401 0.360091
O O12 0.522673 0.212107 0.230985
O O13 0.451851 0.000000 0.022021
O O14 0.500000 0.215244 0.000000
O O15 0.170931 0.796418 0.808697
O O16 0.139035 0.000000 0.875671
O O17 0.225228 0.780588 0.080961
O O18 0.638574 0.791626 0.571267
O O19 0.683902 0.000000 0.761950
O O20 0.833223 0.000000 0.327261
O O21 0.539369 0.000000 0.379689
#
# Coordination Sequence:
#
# PCOD9141746 Si02
#       8
#     4   4   4   4   4   4   4   4
#     4   9  17  27  39  56  81 112 145 179 213 246
#     4  10  19  29  43  64  87 112 143 178 217 257
#     4  10  19  28  39  57  84 113 142 176 211 246
#     4   9  18  33  50  65  83 109 142 180 221 262
#     4   9  17  27  39  56  80 113 149 178 207 244
#     4  10  18  28  41  58  82 113 146 177 207 246
#     4  10  17  27  43  60  82 112 147 181 209 245
#     4   9  18  30  44  60  80 108 142 177 214 253
#
# _framework density 14.741892
#
# number of rings (size 3 to 8) (size 9 to 14) (size 15 to 20)
#    0.000    2.500    1.250    1.875    0.000    5.750 
#    0.000    0.000    0.000    0.000    0.000    0.000 
#    0.000    1.000    0.000   11.750    0.000    2.250 
#
# Total GULP energy -178331.348512 kJ/mol
# GULP energy per Si atom -5572.854641 kJ/mol
# Density = 1.470834 g / cm^3
# Si number density = 14.741892 Si / 1000 Ang^3
#
#
#
# Elastic Constant Matrix: (Units=GPa)
#
#
# Indices 1 2 3 4 5 6 
#
# 1 67.0772 40.0457 48.7652 0.0000 17.3021 0.0000
# 2 40.0457 54.0234 53.7941 0.0000 16.7762 0.0000
# 3 48.7652 53.7941 129.8442 0.0000 30.8575 0.0000
# 4 0.0000 0.0000 0.0000 8.0193 0.0000 -2.3539
# 5 17.3021 16.7762 30.8575 0.0000 18.7918 0.0000
# 6 0.0000 0.0000 0.0000 -2.3539 0.0000 7.1781
#
#
#
# Elastic Compliance Matrix: (Units=1/GPa)
#
#
# Indices 1 2 3 4 5 6 
#
# 1 0.028239 -0.016613 -0.001753 0.000000 -0.008292 0.000000
# 2 -0.016613 0.042726 -0.009893 0.000000 -0.006603 0.000000
# 3 -0.001753 -0.009893 0.016361 0.000000 -0.016420 0.000000
# 4 0.000000 0.000000 0.000000 0.137981 0.000000 0.045247
# 5 -0.008292 -0.006603 -0.016420 0.000000 0.093706 0.000000
# 6 0.000000 0.000000 0.000000 0.045247 0.000000 0.154151
#
#
# Mechanical properties :
#
#
# Convention : Reuss Voigt Hill
#
# Bulk Modulus (GPa) = 32.45771 59.57278 46.01524
# Shear Modulus (GPa) = 9.26012 14.02048 11.64030
#
# Velocity S-wave (km/s) = 2.50901 3.08728 2.81304
# Velocity P-wave (km/s) = 5.51893 7.29429 6.46782
#
# Compressibility (1/GPa) = 0.03080932
#
# Stress axis : x y z
#
# Youngs Moduli (GPa) = 35.41204 23.40473 61.12260
#
# Poissons Ratio (x) = 0.38881 0.10712
# Poissons Ratio (y) = 0.58829 0.60470
# Poissons Ratio (z) = 0.06206 0.23155
#
# Static dielectric constant tensor:
#      x y z
#    x 1.445530 0.000000 -0.003880 
#    y 0.000000 1.490890 0.000000 
#    z -0.003880 0.000000 1.511990 
# 
# From -- ./inp_files/66001.got.cif
#   From: 2010.05.17/outbox.cif.g08.bks.cpg/sg10_34_cif.got.tgz:66001.got - 2010.06.03 11:33:40.
