data_PCOD9141451
_publ_section_title
;
Structure prediction by ZEFSAII (Michael W. Deem and Ramdas Pophale) SiO2 
 PCOD9141451
Probable space group: P 2/M
;
_chemical_formula_sum "Si O2"
_cell_formula_units_Z 16
_cell_length_a 7.706693
_cell_length_b 19.239181
_cell_length_c 6.355910
_cell_angle_alpha 90.000000
_cell_angle_beta 137.191965
_cell_angle_gamma 90.000000
_cell_volume 640.398173
_symmetry_space_group_name_H-M "P 2/M"
_symmetry_group_IT_number 10
_symmetry_cell_setting 'monoclinic'
loop_
_space_group_symop_operation_xyz
x,y,z
-x,y,-z
-x,-y,-z
x,-y,z
loop_
_atom_site_type_symbol
_atom_site_label
_atom_site_fract_x
_atom_site_fract_y
_atom_site_fract_z
Si Si1 0.273467 0.000000 0.624861
Si Si2 0.406295 0.298474 0.642018
Si Si3 0.102858 0.356415 0.848462
Si Si4 0.727675 0.500000 0.874973
Si Si5 0.272220 0.149704 0.626236
O O1 0.287598 0.074802 0.523989
O O2 0.000000 0.000000 0.500000
O O3 0.500000 0.000000 0.000000
O O4 0.500000 0.326078 0.500000
O O5 0.302583 0.220554 0.524736
O O6 0.172687 0.347477 0.505922
O O7 0.680317 0.298542 0.001477
O O8 0.251622 0.429656 0.972097
O O9 0.000000 0.347949 0.000000
O O10 0.500000 0.500000 0.500000
O O11 0.000000 0.500000 0.000000
O O12 0.000000 0.152726 0.500000
O O13 0.500000 0.149872 0.000000
#
# Coordination Sequence:
#
# PCOD9141451 Si02
#       5
#     2   4   4   2   4
#     4   8  16  30  49  70  93 120 160 204 236 270
#     4  10  19  31  47  72 102 127 154 198 249 287
#     4   9  17  28  44  68  98 127 156 196 242 283
#     4  10  16  26  44  68  96 128 162 198 237 282
#     4  10  19  33  52  73  95 127 165 200 236 286
#
# _framework density 24.984456999999999
#
# number of rings (size 3 to 8) (size 9 to 14) (size 15 to 20)
#    0.000    2.500    0.000    5.250    0.000    0.000 
#    0.000    0.625    0.000    0.000    0.000   33.250 
#    0.000    0.000    0.000    0.000    0.000    0.000 
#
# Total GULP energy -89248.220588 kJ/mol
# GULP energy per Si atom -5578.013787 kJ/mol
# Density = 2.492759 g / cm^3
# Si number density = 24.984457 Si / 1000 Ang^3
#
#
#
# Elastic Constant Matrix: (Units=GPa)
#
#
# Indices 1 2 3 4 5 6 
#
# 1 57.8339 20.5602 38.7798 0.0000 38.7451 0.0000
# 2 20.5602 207.9934 34.5027 0.0000 31.6982 0.0000
# 3 38.7798 34.5027 190.1026 0.0000 38.2711 0.0000
# 4 0.0000 0.0000 0.0000 84.4389 0.0000 56.4715
# 5 38.7451 31.6982 38.2711 0.0000 49.5918 0.0000
# 6 0.0000 0.0000 0.0000 56.4715 0.0000 56.8536
#
#
#
# Elastic Compliance Matrix: (Units=1/GPa)
#
#
# Indices 1 2 3 4 5 6 
#
# 1 0.037104 0.000944 -0.002111 0.000000 -0.027963 0.000000
# 2 0.000944 0.005369 -0.000388 0.000000 -0.003870 0.000000
# 3 -0.002111 -0.000388 0.006369 0.000000 -0.003018 0.000000
# 4 0.000000 0.000000 0.000000 0.035277 0.000000 -0.035040
# 5 -0.027963 -0.003870 -0.003018 0.000000 0.046814 0.000000
# 6 0.000000 0.000000 0.000000 -0.035040 0.000000 0.052394
#
#
# Mechanical properties :
#
#
# Convention : Reuss Voigt Hill
#
# Bulk Modulus (GPa) = 21.86641 71.51282 46.68961
# Shear Modulus (GPa) = 24.79169 62.31601 43.55385
#
# Velocity S-wave (km/s) = 3.15347 4.99961 4.17974
# Velocity P-wave (km/s) = 4.69363 7.87484 6.48241
#
# Compressibility (1/GPa) = 0.04573225
#
# Stress axis : x y z
#
# Youngs Moduli (GPa) = 26.95101 186.26770 157.01339
#
# Poissons Ratio (x) = -0.17583 0.33144
# Poissons Ratio (y) = -0.02544 0.06091
# Poissons Ratio (z) = 0.05689 0.07225
#
# Static dielectric constant tensor:
#      x y z
#    x 1.947200 0.000000 -0.229000 
#    y 0.000000 2.058240 0.000000 
#    z -0.229000 0.000000 2.010850 
# 
# From -- ./inp_files/3751.got.cif
#   From: 2010.05.17/outbox.cif.g08.bks.cpg/sg10_2_cif.got.tgz:3751.got - 2010.06.03 11:33:40.
