data_PCOD9141522
_publ_section_title
;
Structure prediction by ZEFSAII (Michael W. Deem and Ramdas Pophale) SiO2 
 PCOD9141522
Probable space group: P 2/M
;
_chemical_formula_sum "Si O2"
_cell_formula_units_Z 30
_cell_length_a 12.577929
_cell_length_b 8.914687
_cell_length_c 15.025741
_cell_angle_alpha 90.000000
_cell_angle_beta 74.740166
_cell_angle_gamma 90.000000
_cell_volume 1625.408014
_symmetry_space_group_name_H-M "P 2/M"
_symmetry_group_IT_number 10
_symmetry_cell_setting 'monoclinic'
loop_
_space_group_symop_operation_xyz
x,y,z
-x,y,-z
-x,-y,-z
x,-y,z
loop_
_atom_site_type_symbol
_atom_site_label
_atom_site_fract_x
_atom_site_fract_y
_atom_site_fract_z
Si Si1 0.378759 0.821661 0.483942
Si Si2 0.022589 0.667965 0.792647
Si Si3 0.269497 0.679250 0.673429
Si Si4 0.000000 0.747148 0.000000
Si Si5 0.404469 0.818331 0.804734
Si Si6 0.368968 0.320731 0.290744
Si Si7 0.802208 0.179326 0.799857
Si Si8 0.755706 0.171886 0.005202
O O1 0.500000 0.800051 0.500000
O O2 0.293905 0.748423 0.571914
O O3 0.372769 0.742514 0.390048
O O4 0.360686 0.000000 0.478454
O O5 0.995534 0.500000 0.767203
O O6 0.017615 0.666968 0.901444
O O7 0.931238 0.781554 0.776944
O O8 0.144938 0.706145 0.733613
O O9 0.288995 0.500000 0.668926
O O10 0.350002 0.758822 0.726000
O O11 0.117508 0.827857 0.989177
O O12 0.526183 0.751174 0.782915
O O13 0.325782 0.763858 0.902719
O O14 0.408179 0.000000 0.801871
O O15 0.375834 0.500000 0.289329
O O16 0.260399 0.262560 0.264824
O O17 0.787263 0.000000 0.796607
O O18 0.755425 0.236808 0.905917
O O19 0.720951 0.000000 0.002630
#
# Coordination Sequence:
#
# PCOD9141522 Si02
#       8
#     4   4   4   2   4   4   4   4
#     4  11  23  40  64  92 117 151 195 246 298 354
#     4  10  21  36  57  88 125 160 198 242 294 349
#     4  11  22  37  58  91 126 157 192 243 301 351
#     4  10  16  32  54  86 119 164 199 242 291 344
#     4  11  21  36  58  88 122 158 199 246 293 348
#     4  12  25  42  63  87 118 156 195 246 303 360
#     4  10  22  41  62  85 117 162 207 246 289 349
#     4   9  19  33  55  86 120 159 203 247 291 341
#
# _framework density 18.456904000000002
#
# number of rings (size 3 to 8) (size 9 to 14) (size 15 to 20)
#    0.000    1.467    2.667    3.200    0.000    2.667 
#    0.000    5.333    0.000    4.000    0.000    0.000 
#    0.000    0.000    0.000    0.000    0.000    0.000 
#
# Total GULP energy -167411.823467 kJ/mol
# GULP energy per Si atom -5580.394116 kJ/mol
# Density = 1.841490 g / cm^3
# Si number density = 18.456904 Si / 1000 Ang^3
#
#
#
# Elastic Constant Matrix: (Units=GPa)
#
#
# Indices 1 2 3 4 5 6 
#
# 1 74.6842 47.8562 37.7742 0.0000 5.0487 0.0000
# 2 47.8562 95.7064 38.7868 0.0000 2.1071 0.0000
# 3 37.7742 38.7868 86.0548 0.0000 -7.4077 0.0000
# 4 0.0000 0.0000 0.0000 37.4463 0.0000 4.5011
# 5 5.0487 2.1071 -7.4077 0.0000 35.5934 0.0000
# 6 0.0000 0.0000 0.0000 4.5011 0.0000 29.0784
#
#
#
# Elastic Compliance Matrix: (Units=1/GPa)
#
#
# Indices 1 2 3 4 5 6 
#
# 1 0.022293 -0.008510 -0.006292 0.000000 -0.003968 0.000000
# 2 -0.008510 0.016173 -0.003597 0.000000 -0.000499 0.000000
# 3 -0.006292 -0.003597 0.016392 0.000000 0.004517 0.000000
# 4 0.000000 0.000000 0.000000 0.027211 0.000000 -0.004212
# 5 -0.003968 -0.000499 0.004517 0.000000 0.029627 0.000000
# 6 0.000000 0.000000 0.000000 -0.004212 0.000000 0.035042
#
#
# Mechanical properties :
#
#
# Convention : Reuss Voigt Hill
#
# Bulk Modulus (GPa) = 55.36761 56.14222 55.75491
# Shear Modulus (GPa) = 26.37744 29.22549 27.80147
#
# Velocity S-wave (km/s) = 3.78449 3.98357 3.88531
# Velocity P-wave (km/s) = 7.01142 7.18627 7.09938
#
# Compressibility (1/GPa) = 0.01806110
#
# Stress axis : x y z
#
# Youngs Moduli (GPa) = 44.85651 61.83289 61.00484
#
# Poissons Ratio (x) = 0.52621 0.38382
# Poissons Ratio (y) = 0.38174 0.21942
# Poissons Ratio (z) = 0.28222 0.22239
#
# Static dielectric constant tensor:
#      x y z
#    x 1.618380 0.000000 -0.015420 
#    y 0.000000 1.631810 0.000000 
#    z -0.015420 0.000000 1.644630 
# 
# From -- ./inp_files/63716.got.cif
#   From: 2010.05.17/outbox.cif.g08.bks.cpg/sg10_32_cif.got.tgz:63716.got - 2010.06.03 11:33:40.
