data_PCOD9141336
_publ_section_title
;
Structure prediction by ZEFSAII (Michael W. Deem and Ramdas Pophale) SiO2 
 PCOD9141336
Probable space group: P 2/M
;
_chemical_formula_sum "Si O2"
_cell_formula_units_Z 28
_cell_length_a 19.968915
_cell_length_b 11.691269
_cell_length_c 12.043564
_cell_angle_alpha 90.000000
_cell_angle_beta 140.707710
_cell_angle_gamma 90.000000
_cell_volume 1780.593075
_symmetry_space_group_name_H-M "P 2/M"
_symmetry_group_IT_number 10
_symmetry_cell_setting 'monoclinic'
loop_
_space_group_symop_operation_xyz
x,y,z
-x,y,-z
-x,-y,-z
x,-y,z
loop_
_atom_site_type_symbol
_atom_site_label
_atom_site_fract_x
_atom_site_fract_y
_atom_site_fract_z
Si Si1 0.260759 0.231151 0.173899
Si Si2 0.876308 0.636074 0.834167
Si Si3 0.411331 0.131039 0.525946
Si Si4 0.860818 0.000000 0.923651
Si Si5 0.240030 0.202318 0.487577
Si Si6 0.091741 0.000000 0.278644
Si Si7 0.625478 0.864350 0.146442
Si Si8 0.649110 0.865598 0.917117
O O1 0.188703 0.327414 0.138473
O O2 0.372919 0.217905 0.381798
O O3 0.282569 0.219491 0.071505
O O4 0.202256 0.113994 0.132174
O O5 0.875660 0.500000 0.820586
O O6 0.815407 0.696463 0.653166
O O7 0.000000 0.674798 0.000000
O O8 0.325101 0.145439 0.512666
O O9 0.526888 0.149662 0.724057
O O10 0.408431 0.000000 0.480299
O O11 0.887363 0.000000 0.827258
O O12 0.967231 0.000000 0.131442
O O13 0.306959 0.216205 0.685608
O O14 0.148148 0.112068 0.396142
O O15 0.643404 0.000000 0.197949
O O16 0.500000 0.845006 0.000000
O O17 0.656084 0.848185 0.057472
O O18 0.675802 0.000000 0.928257
#
# Coordination Sequence:
#
# PCOD9141336 Si02
#       8
#     4   4   4   2   4   2   4   4
#     4  11  18  30  47  73 105 133 161 204 261 312
#     4  10  22  38  57  77  94 124 173 225 268 301
#     4  10  15  25  43  73 105 133 164 195 239 302
#     4  11  18  26  43  72 100 126 158 201 267 314
#     4  11  17  30  51  75 104 131 168 209 250 296
#     4  11  18  26  45  73  98 127 160 207 256 310
#     4  10  18  29  47  76 112 143 172 199 232 293
#     4  10  19  27  44  73 114 144 165 192 236 306
#
# _framework density 15.725097
#
# number of rings (size 3 to 8) (size 9 to 14) (size 15 to 20)
#    0.000    1.571    7.143    1.286    0.000    1.143 
#    0.000    0.000    0.000   12.429    0.000    2.000 
#    0.000    0.000    0.000    0.000    0.000    0.000 
#
# Total GULP energy -156007.937260 kJ/mol
# GULP energy per Si atom -5571.712045 kJ/mol
# Density = 1.568931 g / cm^3
# Si number density = 15.725097 Si / 1000 Ang^3
#
#
#
# Elastic Constant Matrix: (Units=GPa)
#
#
# Indices 1 2 3 4 5 6 
#
# 1 65.1681 19.3344 44.2217 0.0000 -10.1644 0.0000
# 2 19.3344 46.2121 27.8829 0.0000 2.9482 0.0000
# 3 44.2217 27.8829 98.3941 0.0000 -1.6063 0.0000
# 4 0.0000 0.0000 0.0000 14.1195 0.0000 3.8574
# 5 -10.1644 2.9482 -1.6063 0.0000 25.5497 0.0000
# 6 0.0000 0.0000 0.0000 3.8574 0.0000 13.8239
#
#
#
# Elastic Compliance Matrix: (Units=1/GPa)
#
#
# Indices 1 2 3 4 5 6 
#
# 1 0.024948 -0.005313 -0.009545 0.000000 0.009938 0.000000
# 2 -0.005313 0.027547 -0.005510 0.000000 -0.005639 0.000000
# 3 -0.009545 -0.005510 0.015979 0.000000 -0.002157 0.000000
# 4 0.000000 0.000000 0.000000 0.076668 0.000000 -0.021393
# 5 0.009938 -0.005639 -0.002157 0.000000 0.043608 0.000000
# 6 0.000000 0.000000 0.000000 -0.021393 0.000000 0.078308
#
#
# Mechanical properties :
#
#
# Convention : Reuss Voigt Hill
#
# Bulk Modulus (GPa) = 36.05164 43.62803 39.83983
# Shear Modulus (GPa) = 15.77086 18.58765 17.17925
#
# Velocity S-wave (km/s) = 3.17031 3.44181 3.30884
# Velocity P-wave (km/s) = 6.03134 6.60296 6.32362
#
# Compressibility (1/GPa) = 0.02773799
#
# Stress axis : x y z
#
# Youngs Moduli (GPa) = 40.08321 36.30190 62.58098
#
# Poissons Ratio (x) = 0.19287 0.59732
# Poissons Ratio (y) = 0.21296 0.34485
# Poissons Ratio (z) = 0.38258 0.20004
#
# Static dielectric constant tensor:
#      x y z
#    x 1.554860 0.000000 -0.002650 
#    y 0.000000 1.506650 0.000000 
#    z -0.002650 0.000000 1.567210 
# 
# From -- ./inp_files/55580.got.cif
#   From: 2010.05.17/outbox.cif.g08.bks.cpg/sg10_28_cif.got.tgz:55580.got - 2010.06.03 11:33:40.
