data_PCOD9141190
_publ_section_title
;
Structure prediction by ZEFSAII (Michael W. Deem and Ramdas Pophale) SiO2 
 PCOD9141190
Probable space group: C C
;
_chemical_formula_sum "Si O2"
_cell_formula_units_Z 20
_cell_length_a 7.696875
_cell_length_b 11.692750
_cell_length_c 8.973486
_cell_angle_alpha 90.000000
_cell_angle_beta 122.127603
_cell_angle_gamma 90.000000
_cell_volume 683.922497
_symmetry_space_group_name_H-M "C C"
_symmetry_group_IT_number 9
_symmetry_cell_setting 'monoclinic'
loop_
_space_group_symop_operation_xyz
x,y,z
x,-y,1/2+z
1/2+x,1/2+y,z
1/2+x,1/2-y,1/2+z
loop_
_atom_site_type_symbol
_atom_site_label
_atom_site_fract_x
_atom_site_fract_y
_atom_site_fract_z
Si Si1 0.875000 0.278607 0.061650
Si Si2 0.295877 0.398507 0.309323
Si Si3 0.336187 0.958071 0.798566
Si Si4 0.532974 0.851138 0.590506
Si Si5 0.941395 0.105287 0.541688
O O1 0.743996 0.208022 0.122745
O O2 0.070401 0.344355 0.214732
O O3 0.942438 0.178906 0.977973
O O4 0.764193 0.368684 0.896031
O O5 0.312724 0.526552 0.373886
O O6 0.368519 0.401539 0.176294
O O7 0.442638 0.886651 0.713278
O O8 0.165738 0.044569 0.652736
O O9 0.484136 0.041841 0.961570
O O10 0.402496 0.737497 0.489573
#
# Coordination Sequence:
#
# PCOD9141190 Si02
#       5
#     4   4   4   4   4
#     4  12  30  56  89 140 193 250 318 391 483 587
#     4  12  30  57  93 136 194 247 322 387 491 573
#     4  12  29  60  97 143 184 251 337 393 494 574
#     4  12  30  55  96 137 195 251 316 410 482 578
#     4  12  29  58  97 138 188 253 315 415 476 580
#
# _framework density 29.243078000000001
#
# number of rings (size 3 to 8) (size 9 to 14) (size 15 to 20)
#    0.000    0.000    2.000    4.800   11.200    1.600 
#    0.000    0.000    0.000    0.000    0.000    0.000 
#    0.000    0.000    0.000    0.000    0.000    0.000 
#
# Total GULP energy -56057.549100 kJ/mol
# GULP energy per Si atom -5605.754910 kJ/mol
# Density = 2.917652 g / cm^3
# Si number density = 29.243078 Si / 1000 Ang^3
#
#
#
# Elastic Constant Matrix: (Units=GPa)
#
#
# Indices 1 2 3 4 5 6 
#
# 1 212.0244 83.2620 98.0711 0.0000 -34.0691 0.0000
# 2 83.2620 243.6738 47.3905 0.0000 -25.8011 0.0000
# 3 98.0711 47.3905 112.8730 0.0000 -30.9790 0.0000
# 4 0.0000 0.0000 0.0000 75.1064 0.0000 -7.4931
# 5 -34.0691 -25.8011 -30.9790 0.0000 69.4185 0.0000
# 6 0.0000 0.0000 0.0000 -7.4931 0.0000 73.6613
#
#
#
# Elastic Compliance Matrix: (Units=1/GPa)
#
#
# Indices 1 2 3 4 5 6 
#
# 1 0.008437 -0.001549 -0.006498 0.000000 0.000665 0.000000
# 2 -0.001549 0.004807 -0.000446 0.000000 0.000828 0.000000
# 3 -0.006498 -0.000446 0.015694 0.000000 0.003649 0.000000
# 4 0.000000 0.000000 0.000000 0.013451 0.000000 0.001368
# 5 0.000665 0.000828 0.003649 0.000000 0.016668 0.000000
# 6 0.000000 0.000000 0.000000 0.001368 0.000000 0.013715
#
#
# Mechanical properties :
#
#
# Convention : Reuss Voigt Hill
#
# Bulk Modulus (GPa) = 83.65374 114.00202 98.82788
# Shear Modulus (GPa) = 53.33858 66.29376 59.81617
#
# Velocity S-wave (km/s) = 4.27543 4.76646 4.52761
# Velocity P-wave (km/s) = 7.28292 8.32833 7.82310
#
# Compressibility (1/GPa) = 0.01195404
#
# Stress axis : x y z
#
# Youngs Moduli (GPa) = 118.52466 208.01486 63.71965
#
# Poissons Ratio (x) = 0.32216 0.41404
# Poissons Ratio (y) = 0.18356 0.02839
# Poissons Ratio (z) = 0.77015 0.09268
#
# Static dielectric constant tensor:
#      x y z
#    x 2.346490 0.000000 0.177050 
#    y 0.000000 2.295950 0.000000 
#    z 0.177050 0.000000 2.362570 
# 
# From -- ./inp_files/14270.got.cif
#   From: 2010.05.17/outbox.cif.g08.bks.cpg/sg9_8_cif.got.tgz:14270.got - 2010.06.03 20:04:27.
