data_PCOD9141704
_publ_section_title
;
Structure prediction by ZEFSAII (Michael W. Deem and Ramdas Pophale) SiO2 
 PCOD9141704
Probable space group: P 2/M
;
_chemical_formula_sum "Si O2"
_cell_formula_units_Z 24
_cell_length_a 12.432366
_cell_length_b 9.372848
_cell_length_c 22.076012
_cell_angle_alpha 90.000000
_cell_angle_beta 142.393257
_cell_angle_gamma 90.000000
_cell_volume 1569.804309
_symmetry_space_group_name_H-M "P 2/M"
_symmetry_group_IT_number 10
_symmetry_cell_setting 'monoclinic'
loop_
_space_group_symop_operation_xyz
x,y,z
-x,y,-z
-x,-y,-z
x,-y,z
loop_
_atom_site_type_symbol
_atom_site_label
_atom_site_fract_x
_atom_site_fract_y
_atom_site_fract_z
Si Si1 0.253086 0.831868 0.779047
Si Si2 0.260482 0.329672 0.335572
Si Si3 0.657528 0.669987 0.486619
Si Si4 0.420212 0.335699 0.032813
Si Si5 0.907611 0.168269 0.157681
Si Si6 0.956520 0.171398 0.549600
O O1 0.430894 0.740371 0.860658
O O2 0.155483 0.814772 0.800347
O O3 0.118254 0.789617 0.666165
O O4 0.295532 0.000000 0.791828
O O5 0.231060 0.500000 0.315971
O O6 0.281087 0.300679 0.416804
O O7 0.450091 0.294292 0.391157
O O8 0.097251 0.241818 0.237235
O O9 0.674608 0.500000 0.485079
O O10 0.781583 0.754177 0.496483
O O11 0.391129 0.500000 0.036956
O O12 0.500000 0.334665 0.000000
O O13 0.239929 0.247188 0.948133
O O14 0.913616 0.000000 0.147486
O O15 0.000000 0.209656 0.500000
O O16 0.935756 0.000000 0.544021
#
# Coordination Sequence:
#
# PCOD9141704 Si02
#       6
#     4   4   4   4   4   4
#     4   9  17  29  42  61  90 121 152 188 225 265
#     4   9  17  29  45  66  93 123 151 187 231 274
#     4   9  18  31  46  65  91 122 156 191 229 270
#     4   9  17  27  41  62  88 119 150 184 226 274
#     4  10  17  26  43  67  92 121 151 183 225 276
#     4  10  20  33  48  67  93 125 159 193 228 265
#
# _framework density 15.28853
#
# number of rings (size 3 to 8) (size 9 to 14) (size 15 to 20)
#    0.000    2.667    1.667    2.000    0.000    4.333 
#    0.000    1.667    0.000    0.000    0.000    1.167 
#    0.000    9.333    0.000    0.000    0.000    0.000 
#
# Total GULP energy -133752.057162 kJ/mol
# GULP energy per Si atom -5573.002382 kJ/mol
# Density = 1.525373 g / cm^3
# Si number density = 15.288530 Si / 1000 Ang^3
#
#
#
# Elastic Constant Matrix: (Units=GPa)
#
#
# Indices 1 2 3 4 5 6 
#
# 1 86.3885 52.5380 59.3443 0.0000 18.8383 0.0000
# 2 52.5380 73.8820 68.9280 0.0000 24.9501 0.0000
# 3 59.3443 68.9280 107.3672 0.0000 33.3623 0.0000
# 4 0.0000 0.0000 0.0000 28.5083 0.0000 9.7697
# 5 18.8383 24.9501 33.3623 0.0000 26.8868 0.0000
# 6 0.0000 0.0000 0.0000 9.7697 0.0000 13.9995
#
#
#
# Elastic Compliance Matrix: (Units=1/GPa)
#
#
# Indices 1 2 3 4 5 6 
#
# 1 0.021532 -0.010704 -0.005579 0.000000 0.001770 0.000000
# 2 -0.010704 0.039952 -0.017158 0.000000 -0.008284 0.000000
# 3 -0.005579 -0.017158 0.028076 0.000000 -0.015006 0.000000
# 4 0.000000 0.000000 0.000000 0.046103 0.000000 -0.032174
# 5 0.001770 -0.008284 -0.015006 0.000000 0.062261 0.000000
# 6 0.000000 0.000000 0.000000 -0.032174 0.000000 0.093884
#
#
# Mechanical properties :
#
#
# Convention : Reuss Voigt Hill
#
# Bulk Modulus (GPa) = 44.09764 69.91760 57.00762
# Shear Modulus (GPa) = 13.65188 19.66739 16.65964
#
# Velocity S-wave (km/s) = 2.99147 3.59055 3.30461
# Velocity P-wave (km/s) = 6.39047 7.93856 7.20621
#
# Compressibility (1/GPa) = 0.02267695
#
# Stress axis : x y z
#
# Youngs Moduli (GPa) = 46.44192 25.03017 35.61785
#
# Poissons Ratio (x) = 0.26792 0.19873
# Poissons Ratio (y) = 0.49712 0.61113
# Poissons Ratio (z) = 0.25912 0.42947
#
# Static dielectric constant tensor:
#      x y z
#    x 1.479280 0.000000 0.008140 
#    y 0.000000 1.506860 0.000000 
#    z 0.008140 0.000000 1.500260 
# 
# From -- ./inp_files/48432.got.cif
#   From: 2010.05.17/outbox.cif.g08.bks.cpg/sg10_25_cif.got.tgz:48432.got - 2010.06.03 11:33:40.
