data_PCOD9141348
_publ_section_title
;
Structure prediction by ZEFSAII (Michael W. Deem and Ramdas Pophale) SiO2 
 PCOD9141348
Probable space group: P 2/M
;
_chemical_formula_sum "Si O2"
_cell_formula_units_Z 13
_cell_length_a 12.460181
_cell_length_b 10.639952
_cell_length_c 7.058463
_cell_angle_alpha 90.000000
_cell_angle_beta 28.846276
_cell_angle_gamma 90.000000
_cell_volume 451.478038
_symmetry_space_group_name_H-M "P 2/M"
_symmetry_group_IT_number 10
_symmetry_cell_setting 'monoclinic'
loop_
_space_group_symop_operation_xyz
x,y,z
-x,y,-z
-x,-y,-z
x,-y,z
loop_
_atom_site_type_symbol
_atom_site_label
_atom_site_fract_x
_atom_site_fract_y
_atom_site_fract_z
Si Si1 0.528244 0.500000 0.653192
Si Si2 0.543628 0.224007 0.140657
Si Si3 0.039127 0.500000 0.123845
Si Si4 0.000000 0.000000 0.000000
Si Si5 0.115875 0.787391 0.083784
O O1 0.444020 0.374597 0.878608
O O2 0.812523 0.500000 0.312828
O O3 0.680540 0.500000 0.217779
O O4 0.768819 0.181283 0.894859
O O5 0.335441 0.205998 0.604345
O O6 0.500000 0.174595 0.000000
O O7 0.012439 0.646893 0.232737
O O8 0.028490 0.108730 0.792264
#
# Coordination Sequence:
#
# PCOD9141348 Si02
#       5
#     2   4   2   1   4
#     4  10  15  30  57  92 118 142 189 244 284 341
#     4  10  19  36  61  86 115 152 194 241 288 343
#     4  10  16  32  60  82 116 148 180 236 286 348
#     4  12  24  40  62  80 120 162 188 244 302 332
#     4  10  21  38  60  88 113 151 197 238 288 352
#
# _framework density 28.794312000000001
#
# number of rings (size 3 to 8) (size 9 to 14) (size 15 to 20)
#    0.000    1.846    7.692    0.462    0.000    2.462 
#    0.000    6.154    0.000    3.692    0.000    0.000 
#    0.000    0.000    0.000    0.000    0.000    0.000 
#
# Total GULP energy -72404.905011 kJ/mol
# GULP energy per Si atom -5569.608078 kJ/mol
# Density = 2.872877 g / cm^3
# Si number density = 28.794312 Si / 1000 Ang^3
#
#
#
# Elastic Constant Matrix: (Units=GPa)
#
#
# Indices 1 2 3 4 5 6 
#
# 1 317.4898 73.2644 49.4977 0.0000 2.1319 0.0000
# 2 73.2644 147.7189 25.9429 0.0000 -15.5748 0.0000
# 3 49.4977 25.9429 138.9146 0.0000 -21.7200 0.0000
# 4 0.0000 0.0000 0.0000 4.4282 0.0000 -5.4967
# 5 2.1319 -15.5748 -21.7200 0.0000 50.4559 0.0000
# 6 0.0000 0.0000 0.0000 -5.4967 0.0000 -26.5336
#
#
#
# Elastic Compliance Matrix: (Units=1/GPa)
#
#
# Indices 1 2 3 4 5 6 
#
# 1 0.003756 -0.001782 -0.001197 0.000000 -0.001224 0.000000
# 2 -0.001782 0.007985 -0.000492 0.000000 0.002328 0.000000
# 3 -0.001197 -0.000492 0.008257 0.000000 0.003453 0.000000
# 4 0.000000 0.000000 0.000000 0.179633 0.000000 -0.037213
# 5 -0.001224 0.002328 0.003453 0.000000 0.022076 0.000000
# 6 0.000000 0.000000 0.000000 -0.037213 0.000000 -0.029979
#
#
# Mechanical properties :
#
#
# Convention : Reuss Voigt Hill
#
# Bulk Modulus (GPa) = 76.59239 100.17037 88.38138
# Shear Modulus (GPa) = 24.62794 36.03132 30.32963
#
# Velocity S-wave (km/s) = 2.92773 3.54126 3.24901
# Velocity P-wave (km/s) = 6.17142 7.18223 6.69593
#
# Compressibility (1/GPa) = 0.01305613
#
# Stress axis : x y z
#
# Youngs Moduli (GPa) = 266.26742 125.23234 121.10957
#
# Poissons Ratio (x) = 0.22310 0.14495
# Poissons Ratio (y) = 0.47436 0.05964
# Poissons Ratio (z) = 0.31868 0.06167
#
# Static dielectric constant tensor:
#      x y z
#    x 2.893180 0.000000 -0.417540 
#    y 0.000000 2.029940 0.000000 
#    z -0.417540 0.000000 2.704750 
# 
# From -- ./inp_files/27472.got.cif
#   From: 2010.05.17/outbox.cif.g08.bks.cpg/sg10_14_cif.got.tgz:27472.got - 2010.06.03 11:33:40.
