data_PCOD9141415
_publ_section_title
;
Structure prediction by ZEFSAII (Michael W. Deem and Ramdas Pophale) SiO2 
 PCOD9141415
Probable space group: P 2/M
;
_chemical_formula_sum "Si O2"
_cell_formula_units_Z 22
_cell_length_a 5.626301
_cell_length_b 25.188006
_cell_length_c 7.696214
_cell_angle_alpha 90.000000
_cell_angle_beta 56.058963
_cell_angle_gamma 90.000000
_cell_volume 904.834652
_symmetry_space_group_name_H-M "P 2/M"
_symmetry_group_IT_number 10
_symmetry_cell_setting 'monoclinic'
loop_
_space_group_symop_operation_xyz
x,y,z
-x,y,-z
-x,-y,-z
x,-y,z
loop_
_atom_site_type_symbol
_atom_site_label
_atom_site_fract_x
_atom_site_fract_y
_atom_site_fract_z
Si Si1 0.066006 0.784751 0.729558
Si Si2 0.558757 0.618445 0.248207
Si Si3 0.350366 0.941137 0.369563
Si Si4 0.936838 0.339800 0.763306
Si Si5 0.648110 0.500000 0.129540
Si Si6 0.550163 0.174139 0.756224
O O1 0.251413 0.808095 0.492418
O O2 0.261982 0.796125 0.816200
O O3 0.001918 0.722518 0.741249
O O4 0.758416 0.811901 0.830327
O O5 0.261780 0.646119 0.318553
O O6 0.539133 0.554976 0.253633
O O7 0.759619 0.632647 0.327715
O O8 0.750521 0.639135 0.004127
O O9 0.500000 0.940849 0.500000
O O10 0.484879 0.889184 0.228833
O O11 0.000000 0.934813 0.500000
O O12 0.410537 0.000000 0.271484
O O13 0.500000 0.500000 0.000000
O O14 0.000000 0.500000 0.000000
#
# Coordination Sequence:
#
# PCOD9141415 Si02
#       6
#     4   4   4   4   2   4
#     4  10  18  27  43  56  86 118 146 171 203 239
#     4  10  19  30  45  65  92 105 136 168 212 264
#     4  10  16  25  41  58  83 115 139 172 219 253
#     4  10  18  29  41  63  86 117 137 169 206 250
#     4  12  16  30  48  64  90 116 122 168 224 260
#     4  10  17  30  40  62  86 115 148 176 200 248
#
# _framework density 24.313834
#
# number of rings (size 3 to 8) (size 9 to 14) (size 15 to 20)
#    0.000    1.818    7.273    1.091    0.000    0.000 
#    0.000    0.000    0.000    0.000    0.000    0.000 
#    0.000   98.909    0.000  111.273    0.000    0.000 
#
# Total GULP energy -122885.676881 kJ/mol
# GULP energy per Si atom -5585.712585 kJ/mol
# Density = 2.425849 g / cm^3
# Si number density = 24.313834 Si / 1000 Ang^3
#
#
#
# Elastic Constant Matrix: (Units=GPa)
#
#
# Indices 1 2 3 4 5 6 
#
# 1 308.1694 83.0323 58.4996 0.0000 19.2147 0.0000
# 2 83.0323 257.4882 -7.2661 0.0000 12.5912 0.0000
# 3 58.4996 -7.2661 51.3693 0.0000 16.4110 0.0000
# 4 0.0000 0.0000 0.0000 -11.4714 0.0000 12.3645
# 5 19.2147 12.5912 16.4110 0.0000 76.0155 0.0000
# 6 0.0000 0.0000 0.0000 12.3645 0.0000 54.5870
#
#
#
# Elastic Compliance Matrix: (Units=1/GPa)
#
#
# Indices 1 2 3 4 5 6 
#
# 1 0.004791 -0.001725 -0.005805 0.000000 0.000328 0.000000
# 2 -0.001725 0.004569 0.002914 0.000000 -0.000950 0.000000
# 3 -0.005805 0.002914 0.028114 0.000000 -0.005085 0.000000
# 4 0.000000 0.000000 0.000000 -0.070067 0.000000 0.015871
# 5 0.000328 -0.000950 -0.005085 0.000000 0.014327 0.000000
# 6 0.000000 0.000000 0.000000 0.015871 0.000000 0.014724
#
#
# Mechanical properties :
#
#
# Convention : Reuss Voigt Hill
#
# Bulk Modulus (GPa) = 35.40790 98.39539 66.90165
# Shear Modulus (GPa) = 331.01290 56.01029 193.51159
#
# Velocity S-wave (km/s) = 11.68064 4.80483 8.93095
# Velocity P-wave (km/s) = 14.01824 8.44622 11.57259
#
# Compressibility (1/GPa) = 0.02824229
#
# Stress axis : x y z
#
# Youngs Moduli (GPa) = 208.71455 218.88687 35.56905
#
# Poissons Ratio (x) = 0.37755 0.20648
# Poissons Ratio (y) = 0.36001 -0.10365
# Poissons Ratio (z) = 1.21159 -0.63783
#
# Static dielectric constant tensor:
#      x y z
#    x 1.885930 0.000000 -0.024230 
#    y 0.000000 1.852230 0.000000 
#    z -0.024230 0.000000 1.934450 
# 
# From -- ./inp_files/15545.got.cif
#   From: 2010.05.17/outbox.cif.g08.bks.cpg/sg10_8_cif.got.tgz:15545.got - 2010.06.03 11:33:40.
