data_PCOD9141151
_publ_section_title
;
Structure prediction by ZEFSAII (Michael W. Deem and Ramdas Pophale) SiO2 
 PCOD9141151
Probable space group: C C
;
_chemical_formula_sum "Si O2"
_cell_formula_units_Z 24
_cell_length_a 10.900431
_cell_length_b 14.580577
_cell_length_c 8.213241
_cell_angle_alpha 90.000000
_cell_angle_beta 49.819563
_cell_angle_gamma 90.000000
_cell_volume 997.322485
_symmetry_space_group_name_H-M "C C"
_symmetry_group_IT_number 9
_symmetry_cell_setting 'monoclinic'
loop_
_space_group_symop_operation_xyz
x,y,z
x,-y,1/2+z
1/2+x,1/2+y,z
1/2+x,1/2-y,1/2+z
loop_
_atom_site_type_symbol
_atom_site_label
_atom_site_fract_x
_atom_site_fract_y
_atom_site_fract_z
Si Si1 0.599220 0.055278 0.805210
Si Si2 0.071906 0.059848 0.008673
Si Si3 0.698973 0.119605 0.365815
Si Si4 0.545308 0.283371 0.317711
Si Si5 0.243148 0.289317 0.382515
Si Si6 0.742958 0.603367 0.195964
O O1 0.621593 0.091074 0.604205
O O2 0.722074 0.114478 0.811049
O O3 0.639145 0.949002 0.777346
O O4 0.423216 0.065136 0.032176
O O5 0.173956 0.092823 0.074304
O O6 0.889846 0.094009 0.208765
O O7 0.110518 0.117447 0.811481
O O8 0.125049 0.956419 0.915047
O O9 0.616609 0.216523 0.393327
O O10 0.356079 0.292093 0.446543
O O11 0.583185 0.243620 0.108716
O O12 0.262913 0.208266 0.234853
#
# Coordination Sequence:
#
# PCOD9141151 Si02
#       6
#     4   4   4   4   4   4
#     4  12  28  47  75 108 150 193 246 305 366 433
#     4  12  28  47  75 109 147 195 247 303 365 437
#     4  12  28  47  75 108 150 193 246 305 366 433
#     4  12  27  48  76 109 148 194 244 298 367 434
#     4  12  27  48  76 109 148 194 244 298 367 434
#     4  12  28  47  75 109 147 195 247 303 365 437
#
# _framework density 24.064433999999999
#
# number of rings (size 3 to 8) (size 9 to 14) (size 15 to 20)
#    0.000    0.000    3.333    5.000   14.000    2.667 
#    0.000    0.000    0.000    0.000    0.000    0.000 
#    0.000    0.000    0.000    0.000    0.000    0.000 
#
# Total GULP energy -66997.873569 kJ/mol
# GULP energy per Si atom -5583.156131 kJ/mol
# Density = 2.400966 g / cm^3
# Si number density = 24.064434 Si / 1000 Ang^3
#
#
#
# Elastic Constant Matrix: (Units=GPa)
#
#
# Indices 1 2 3 4 5 6 
#
# 1 107.4018 27.3705 17.6891 -0.0001 -5.8490 0.0001
# 2 27.3705 85.7281 -2.1062 0.0000 -10.3587 0.0000
# 3 17.6891 -2.1062 58.3076 0.0000 4.6378 0.0000
# 4 -0.0001 0.0000 0.0000 32.3788 0.0001 11.2068
# 5 -5.8490 -10.3587 4.6378 0.0001 41.9527 -0.0001
# 6 0.0001 0.0000 0.0000 11.2068 -0.0001 29.6000
#
#
#
# Elastic Compliance Matrix: (Units=1/GPa)
#
#
# Indices 1 2 3 4 5 6 
#
# 1 0.010811 -0.003410 -0.003487 0.000000 0.001051 0.000000
# 2 -0.003410 0.013102 0.001300 0.000000 0.002616 0.000000
# 3 -0.003487 0.001300 0.018430 0.000000 -0.002203 0.000000
# 4 0.000000 0.000000 0.000000 0.035542 0.000000 -0.013456
# 5 0.001051 0.002616 -0.002203 0.000000 0.024872 0.000000
# 6 0.000000 0.000000 0.000000 -0.013456 0.000000 0.038878
#
#
# Mechanical properties :
#
#
# Convention : Reuss Voigt Hill
#
# Bulk Modulus (GPa) = 32.10395 37.48271 34.79333
# Shear Modulus (GPa) = 30.63469 34.68523 32.65996
#
# Velocity S-wave (km/s) = 3.57182 3.80063 3.68800
# Velocity P-wave (km/s) = 5.51184 5.90504 5.71182
#
# Compressibility (1/GPa) = 0.03114881
#
# Stress axis : x y z
#
# Youngs Moduli (GPa) = 92.49459 76.32617 54.25832
#
# Poissons Ratio (x) = 0.26031 0.18918
# Poissons Ratio (y) = 0.31545 -0.07053
# Poissons Ratio (z) = 0.32250 -0.09921
#
# Static dielectric constant tensor:
#      x y z
#    x 1.918600 0.000000 -0.083360 
#    y 0.000000 1.893300 0.000000 
#    z -0.083360 0.000000 1.942770 
# 
# From -- ./inp_files/6929.got.cif
#   From: 2010.05.17/outbox.cif.g08.bks.cpg/sg9_4_cif.got.tgz:6929.got - 2010.06.03 20:04:27.
