data_PCOD9141496
_publ_section_title
;
Structure prediction by ZEFSAII (Michael W. Deem and Ramdas Pophale) SiO2 
 PCOD9141496
Probable space group: P 2/M
;
_chemical_formula_sum "Si O2"
_cell_formula_units_Z 30
_cell_length_a 30.473355
_cell_length_b 9.105632
_cell_length_c 12.284657
_cell_angle_alpha 90.000000
_cell_angle_beta 150.092683
_cell_angle_gamma 90.000000
_cell_volume 1699.590594
_symmetry_space_group_name_H-M "P 2/M"
_symmetry_group_IT_number 10
_symmetry_cell_setting 'monoclinic'
loop_
_space_group_symop_operation_xyz
x,y,z
-x,y,-z
-x,-y,-z
x,-y,z
loop_
_atom_site_type_symbol
_atom_site_label
_atom_site_fract_x
_atom_site_fract_y
_atom_site_fract_z
Si Si1 0.774032 0.822849 0.337409
Si Si2 0.735536 0.677405 0.794483
Si Si3 0.917756 0.334838 0.101849
Si Si4 0.945724 0.671361 0.772722
Si Si5 0.807805 0.830764 0.160504
Si Si6 0.593540 0.177777 0.339128
Si Si7 0.609076 0.822079 0.124087
Si Si8 0.000000 0.254276 0.500000
O O1 0.855465 0.758499 0.579554
O O2 0.788222 0.779302 0.241516
O O3 0.683593 0.772912 0.199975
O O4 0.776462 0.000000 0.345116
O O5 0.733825 0.500000 0.790809
O O6 0.650686 0.744796 0.554439
O O7 0.821094 0.729847 0.908573
O O8 0.756300 0.735471 0.960144
O O9 0.905527 0.500000 0.032199
O O10 0.960558 0.340484 0.313137
O O11 0.988858 0.261611 0.177249
O O12 0.926071 0.500000 0.703582
O O13 0.000000 0.675129 0.000000
O O14 0.912691 0.825607 0.359001
O O15 0.779347 0.000000 0.089636
O O16 0.624768 0.220908 0.283932
O O17 0.600385 0.000000 0.363363
O O18 0.490314 0.219108 0.122153
O O19 0.610049 0.000000 0.126552
#
# Coordination Sequence:
#
# PCOD9141496 Si02
#       8
#     4   4   4   4   4   4   4   2
#     4  10  20  36  55  78 104 134 174 218 256 302
#     4  10  21  34  52  77 106 137 172 216 256 302
#     4   9  18  31  47  71 101 137 173 205 250 300
#     4  10  21  35  50  71 104 143 175 206 249 307
#     4  10  20  33  51  75 103 136 174 215 258 302
#     4   9  17  35  59  81 102 132 168 211 261 313
#     4   8  17  34  58  81 104 132 168 210 262 314
#     4  10  16  30  50  72  95 134 173 220 247 288
#
# _framework density 17.651309000000001
#
# number of rings (size 3 to 8) (size 9 to 14) (size 15 to 20)
#    0.000    2.533    1.333    1.600    1.867    1.333 
#    0.000    3.333    0.000    4.000    0.000    0.000 
#    0.000    0.000    0.000    0.000    0.000    0.000 
#
# Total GULP energy -167053.720254 kJ/mol
# GULP energy per Si atom -5568.457342 kJ/mol
# Density = 1.761113 g / cm^3
# Si number density = 17.651309 Si / 1000 Ang^3
#
#
#
# Elastic Constant Matrix: (Units=GPa)
#
#
# Indices 1 2 3 4 5 6 
#
# 1 120.3984 19.8116 54.1173 0.0000 15.0508 0.0000
# 2 19.8116 32.2900 31.0428 0.0000 -1.2132 0.0000
# 3 54.1173 31.0428 119.1681 0.0000 0.4998 0.0000
# 4 0.0000 0.0000 0.0000 8.3995 0.0000 -8.8274
# 5 15.0508 -1.2132 0.4998 0.0000 18.5840 0.0000
# 6 0.0000 0.0000 0.0000 -8.8274 0.0000 15.6642
#
#
#
# Elastic Compliance Matrix: (Units=1/GPa)
#
#
# Indices 1 2 3 4 5 6 
#
# 1 0.012182 -0.003429 -0.004597 0.000000 -0.009966 0.000000
# 2 -0.003429 0.042448 -0.009525 0.000000 0.005805 0.000000
# 3 -0.004597 -0.009525 0.012949 0.000000 0.002753 0.000000
# 4 0.000000 0.000000 0.000000 0.291977 0.000000 0.164541
# 5 -0.009966 0.005805 0.002753 0.000000 0.062186 0.000000
# 6 0.000000 0.000000 0.000000 0.164541 0.000000 0.156566
#
#
# Mechanical properties :
#
#
# Convention : Reuss Voigt Hill
#
# Bulk Modulus (GPa) = 30.79090 53.53332 42.16211
# Shear Modulus (GPa) = 8.00979 19.65518 13.83248
#
# Velocity S-wave (km/s) = 2.13252 3.34057 2.80242
# Velocity P-wave (km/s) = 4.85236 6.72855 5.86595
#
# Compressibility (1/GPa) = 0.03247713
#
# Stress axis : x y z
#
# Youngs Moduli (GPa) = 82.08631 23.55811 77.22729
#
# Poissons Ratio (x) = 0.08079 0.35503
# Poissons Ratio (y) = 0.28150 0.73556
# Poissons Ratio (z) = 0.37737 0.22438
#
# Static dielectric constant tensor:
#      x y z
#    x 1.635160 0.000000 0.013400 
#    y 0.000000 1.607830 0.000000 
#    z 0.013400 0.000000 1.580600 
# 
# From -- ./inp_files/58034.got.cif
#   From: 2010.05.17/outbox.cif.g08.bks.cpg/sg10_30_cif.got.tgz:58034.got - 2010.06.03 11:33:40.
