data_PCOD9141046
_publ_section_title
;
Structure prediction by ZEFSAII (Michael W. Deem and Ramdas Pophale) SiO2 
 PCOD9141046
Probable space group: C C
;
_chemical_formula_sum "Si O2"
_cell_formula_units_Z 32
_cell_length_a 19.040043
_cell_length_b 14.356554
_cell_length_c 13.451943
_cell_angle_alpha 90.000000
_cell_angle_beta 21.927006
_cell_angle_gamma 90.000000
_cell_volume 1373.114092
_symmetry_space_group_name_H-M "C C"
_symmetry_group_IT_number 9
_symmetry_cell_setting 'monoclinic'
loop_
_space_group_symop_operation_xyz
x,y,z
x,-y,1/2+z
1/2+x,1/2+y,z
1/2+x,1/2-y,1/2+z
loop_
_atom_site_type_symbol
_atom_site_label
_atom_site_fract_x
_atom_site_fract_y
_atom_site_fract_z
Si Si1 0.054360 0.389546 0.075400
Si Si2 0.704008 0.554226 0.147133
Si Si3 0.932238 0.102518 0.339982
Si Si4 0.593993 0.918457 0.427072
Si Si5 0.408377 0.275195 0.680232
Si Si6 0.149233 0.931090 0.951410
Si Si7 0.224246 0.838917 0.114067
Si Si8 0.594430 0.767549 0.598288
O O1 0.138315 0.483705 0.921679
O O2 0.916789 0.414606 0.346260
O O3 0.922812 0.336104 0.168358
O O4 0.221182 0.319988 0.882366
O O5 0.565721 0.615386 0.260754
O O6 0.653154 0.557943 0.328179
O O7 0.687220 0.446018 0.136547
O O8 0.925214 0.184712 0.269590
O O9 0.725056 0.088988 0.658287
O O10 0.026383 0.014565 0.159485
O O11 0.370386 0.924263 0.694875
O O12 0.641151 0.836822 0.445296
O O13 0.578017 0.309099 0.388638
O O14 0.053931 0.832965 0.102434
O O15 0.220841 0.771449 0.022814
O O16 0.437044 0.823871 0.867074
#
# Coordination Sequence:
#
# PCOD9141046 Si02
#       8
#     4   4   4   4   4   4   4   4
#     4  12  26  50  73 112 152 203 257 314 391 460
#     4  12  25  51  77 107 159 200 259 324 383 461
#     4  12  26  49  78 114 150 206 259 316 396 460
#     4  12  28  50  76 113 159 204 256 322 393 457
#     4  12  28  47  76 113 152 205 256 318 392 464
#     4  12  27  51  76 110 159 202 256 327 381 470
#     4  12  25  48  75 113 151 203 252 318 381 453
#     4  12  25  48  77 112 152 197 257 313 387 453
#
# _framework density 23.304691999999999
#
# number of rings (size 3 to 8) (size 9 to 14) (size 15 to 20)
#    0.000    0.000    6.250    3.000    5.250    1.000 
#    0.000    0.000    0.000    0.000    0.000    0.000 
#    0.000    0.000    0.000    0.000    0.000    0.000 
#
# Total GULP energy -89455.597285 kJ/mol
# GULP energy per Si atom -5590.974830 kJ/mol
# Density = 2.325165 g / cm^3
# Si number density = 23.304692 Si / 1000 Ang^3
#
#
#
# Elastic Constant Matrix: (Units=GPa)
#
#
# Indices 1 2 3 4 5 6 
#
# 1 82.0740 4.2867 18.9974 0.0005 13.3196 0.0000
# 2 4.2867 78.4689 9.0607 0.0008 2.7242 0.0003
# 3 18.9974 9.0607 137.0713 0.0007 39.5749 0.0006
# 4 0.0005 0.0008 0.0007 25.8728 -0.0003 -5.0616
# 5 13.3196 2.7242 39.5749 -0.0003 35.8180 -0.0002
# 6 0.0000 0.0003 0.0006 -5.0616 -0.0002 30.3213
#
#
#
# Elastic Compliance Matrix: (Units=1/GPa)
#
#
# Indices 1 2 3 4 5 6 
#
# 1 0.013019 -0.000501 -0.000565 0.000000 -0.004180 0.000000
# 2 -0.000501 0.012861 -0.000811 0.000000 0.000104 0.000000
# 3 -0.000565 -0.000811 0.010791 0.000000 -0.011652 0.000000
# 4 0.000000 0.000000 0.000000 0.039955 0.000001 0.006670
# 5 -0.004180 0.000104 -0.011652 0.000001 0.042339 0.000001
# 6 0.000000 0.000000 0.000000 0.006670 0.000001 0.034094
#
#
# Mechanical properties :
#
#
# Convention : Reuss Voigt Hill
#
# Bulk Modulus (GPa) = 30.37716 40.25597 35.31657
# Shear Modulus (GPa) = 29.79993 36.08704 32.94349
#
# Velocity S-wave (km/s) = 3.57978 3.93935 3.76386
# Velocity P-wave (km/s) = 5.49086 6.16462 5.83747
#
# Compressibility (1/GPa) = 0.03291947
#
# Stress axis : x y z
#
# Youngs Moduli (GPa) = 76.80928 77.75280 92.66679
#
# Poissons Ratio (x) = 0.03895 0.05232
# Poissons Ratio (y) = 0.03848 0.07513
# Poissons Ratio (z) = 0.04336 0.06303
#
# Static dielectric constant tensor:
#      x y z
#    x 1.971490 0.000000 -0.080050 
#    y 0.000000 1.880570 0.000000 
#    z -0.080050 0.000000 1.898150 
# 
# From -- ./inp_files/27457.got.cif
#   From: 2010.05.17/outbox.cif.g08.bks.cpg/sg9_14_cif.got.tgz:27457.got - 2010.06.03 20:04:27.
