data_PCOD9141872
_publ_section_title
;
Structure prediction by ZEFSAII (Michael W. Deem and Ramdas Pophale) SiO2 
 PCOD9141872
Probable space group: P 2/M
;
_chemical_formula_sum "Si O2"
_cell_formula_units_Z 32
_cell_length_a 14.513520
_cell_length_b 7.467806
_cell_length_c 14.746865
_cell_angle_alpha 90.000000
_cell_angle_beta 60.485494
_cell_angle_gamma 90.000000
_cell_volume 1390.913224
_symmetry_space_group_name_H-M "P 2/M"
_symmetry_group_IT_number 10
_symmetry_cell_setting 'monoclinic'
loop_
_space_group_symop_operation_xyz
x,y,z
-x,y,-z
-x,-y,-z
x,-y,z
loop_
_atom_site_type_symbol
_atom_site_label
_atom_site_fract_x
_atom_site_fract_y
_atom_site_fract_z
Si Si1 0.328793 0.287330 0.838034
Si Si2 0.952387 0.782708 0.294009
Si Si3 0.429170 0.704543 0.613111
Si Si4 0.090732 0.214603 0.888760
Si Si5 0.274415 0.215473 0.543435
Si Si6 0.507927 0.788414 0.097979
Si Si7 0.908681 0.218749 0.615395
Si Si8 0.328260 0.218600 0.322518
O O1 0.338280 0.500000 0.827664
O O2 0.405703 0.210637 0.721396
O O3 0.207835 0.245463 0.872171
O O4 0.377632 0.232203 0.910307
O O5 0.931949 0.717556 0.202064
O O6 0.848669 0.738972 0.403655
O O7 0.053516 0.724858 0.302630
O O8 0.957134 0.000000 0.287354
O O9 0.500000 0.792864 0.500000
O O10 0.465727 0.500000 0.606873
O O11 0.317218 0.703679 0.615285
O O12 0.080380 0.000000 0.888329
O O13 0.000000 0.282654 0.000000
O O14 0.338160 0.272608 0.423244
O O15 0.281246 0.000000 0.547732
O O16 0.419432 0.716265 0.210838
O O17 0.486218 0.000000 0.101833
O O18 0.500000 0.714739 0.000000
O O19 0.789458 0.274720 0.650777
O O20 0.000000 0.274450 0.500000
O O21 0.907601 0.000000 0.612647
O O22 0.330192 0.000000 0.322079
#
# Coordination Sequence:
#
# PCOD9141872 Si02
#       8
#     4   4   4   4   4   4   4   4
#     4  11  23  39  60  83 110 148 190 233 280 333
#     4   9  16  27  46  75 108 140 173 214 266 321
#     4  10  21  35  51  76 109 146 185 224 277 334
#     4  10  21  37  58  84 114 147 184 230 282 334
#     4  10  17  28  50  78 107 138 177 225 271 319
#     4  10  22  39  58  81 111 146 185 232 282 332
#     4   9  14  23  42  71 107 138 167 214 271 322
#     4   9  17  29  49  80 112 143 182 227 277 329
#
# _framework density 23.006468000000002
#
# number of rings (size 3 to 8) (size 9 to 14) (size 15 to 20)
#    0.000    2.250    2.500    1.125    0.000    2.250 
#    0.000    3.750    0.000    0.000    0.000    3.500 
#    0.000    0.000    0.000    0.000    0.000    0.000 
#
# Total GULP energy -178680.735428 kJ/mol
# GULP energy per Si atom -5583.772982 kJ/mol
# Density = 2.295410 g / cm^3
# Si number density = 23.006468 Si / 1000 Ang^3
#
#
#
# Elastic Constant Matrix: (Units=GPa)
#
#
# Indices 1 2 3 4 5 6 
#
# 1 130.9712 -3.7790 60.3575 0.0000 24.7269 0.0000
# 2 -3.7790 70.7801 9.4548 0.0000 0.3368 0.0000
# 3 60.3575 9.4548 147.5595 0.0000 20.3439 0.0000
# 4 0.0000 0.0000 0.0000 -5.4379 0.0000 2.5836
# 5 24.7269 0.3368 20.3439 0.0000 39.4923 0.0000
# 6 0.0000 0.0000 0.0000 2.5836 0.0000 42.1654
#
#
#
# Elastic Compliance Matrix: (Units=1/GPa)
#
#
# Indices 1 2 3 4 5 6 
#
# 1 0.010183 0.001047 -0.003608 0.000000 -0.004526 0.000000
# 2 0.001047 0.014363 -0.001336 0.000000 -0.000090 0.000000
# 3 -0.003608 -0.001336 0.008639 0.000000 -0.002180 0.000000
# 4 0.000000 0.000000 0.000000 -0.178694 0.000000 0.010949
# 5 -0.004526 -0.000090 -0.002180 0.000000 0.029279 0.000000
# 6 0.000000 0.000000 0.000000 0.010949 0.000000 0.023045
#
#
# Mechanical properties :
#
#
# Convention : Reuss Voigt Hill
#
# Bulk Modulus (GPa) = 39.38534 53.48638 46.43586
# Shear Modulus (GPa) = -64.99676 34.12914 -15.43381
#
# Velocity S-wave (km/s) = -5.32098 3.85575 -2.59288
# Velocity P-wave (km/s) = 4.53807 6.56668 3.35613
#
# Compressibility (1/GPa) = 0.02539016
#
# Stress axis : x y z
#
# Youngs Moduli (GPa) = 98.20484 69.62284 115.75442
#
# Poissons Ratio (x) = -0.07291 0.41767
# Poissons Ratio (y) = -0.10284 0.15468
# Poissons Ratio (z) = 0.35435 0.09303
#
# Static dielectric constant tensor:
#      x y z
#    x 1.878880 0.000000 0.004980 
#    y 0.000000 1.864260 0.000000 
#    z 0.004980 0.000000 1.875850 
# 
# From -- ./inp_files/66501.got.cif
#   From: 2010.05.17/outbox.cif.g08.bks.cpg/sg10_34_cif.got.tgz:66501.got - 2010.06.03 11:33:40.
