data_PCOD9141310
_publ_section_title
;
Structure prediction by ZEFSAII (Michael W. Deem and Ramdas Pophale) SiO2 
 PCOD9141310
Probable space group: P 2/M
;
_chemical_formula_sum "Si O2"
_cell_formula_units_Z 17
_cell_length_a 7.624292
_cell_length_b 11.683220
_cell_length_c 9.141162
_cell_angle_alpha 90.000000
_cell_angle_beta 100.640722
_cell_angle_gamma 90.000000
_cell_volume 800.258979
_symmetry_space_group_name_H-M "P 2/M"
_symmetry_group_IT_number 10
_symmetry_cell_setting 'monoclinic'
loop_
_space_group_symop_operation_xyz
x,y,z
-x,y,-z
-x,-y,-z
x,-y,z
loop_
_atom_site_type_symbol
_atom_site_label
_atom_site_fract_x
_atom_site_fract_y
_atom_site_fract_z
Si Si1 0.000000 0.500000 0.000000
Si Si2 0.450004 0.500000 0.743602
Si Si3 0.028986 0.745435 0.343902
Si Si4 0.196259 0.130418 0.108200
Si Si5 0.280919 0.314781 0.910585
Si Si6 0.787086 0.500000 0.584608
O O1 0.854805 0.401101 0.027526
O O2 0.423506 0.391135 0.844478
O O3 0.633939 0.500000 0.684324
O O4 0.300621 0.500000 0.590584
O O5 0.163349 0.815306 0.262375
O O6 0.099618 0.614525 0.371241
O O7 0.000000 0.794060 0.500000
O O8 0.839685 0.740714 0.235345
O O9 0.258683 0.000000 0.124237
O O10 0.317821 0.214146 0.030908
O O11 0.000000 0.130780 0.000000
#
# Coordination Sequence:
#
# PCOD9141310 Si02
#       6
#     1   2   4   4   4   2
#     4  10  14  26  50  74  92 134 160 196 236 318
#     4  10  21  33  50  77 108 140 163 207 258 322
#     4  11  19  31  53  79 103 135 167 211 253 307
#     4   9  19  34  53  77 104 134 171 217 252 292
#     4  10  18  32  54  75 104 136 170 199 260 308
#     4  11  21  32  49  79 114 129 166 211 262 304
#
# _framework density 21.243122
#
# number of rings (size 3 to 8) (size 9 to 14) (size 15 to 20)
#    0.000    1.882    5.882    1.765    0.000    0.471 
#    0.000    2.353    0.000    2.824    0.000    3.294 
#    0.000    0.000    0.000    0.000    0.000    0.000 
#
# Total GULP energy -94796.487826 kJ/mol
# GULP energy per Si atom -5576.263990 kJ/mol
# Density = 2.119477 g / cm^3
# Si number density = 21.243122 Si / 1000 Ang^3
#
#
#
# Elastic Constant Matrix: (Units=GPa)
#
#
# Indices 1 2 3 4 5 6 
#
# 1 67.9455 21.8552 40.1979 0.0000 -33.6657 0.0000
# 2 21.8552 147.2603 83.3653 0.0000 -29.5384 0.0000
# 3 40.1979 83.3653 164.6172 0.0000 -28.5364 0.0000
# 4 0.0000 0.0000 0.0000 10.5286 0.0000 -5.9237
# 5 -33.6657 -29.5384 -28.5364 0.0000 36.6326 0.0000
# 6 0.0000 0.0000 0.0000 -5.9237 0.0000 16.8014
#
#
#
# Elastic Compliance Matrix: (Units=1/GPa)
#
#
# Indices 1 2 3 4 5 6 
#
# 1 0.029112 0.003336 -0.004271 0.000000 0.026117 0.000000
# 2 0.003336 0.010601 -0.004821 0.000000 0.007858 0.000000
# 3 -0.004271 -0.004821 0.009486 0.000000 -0.000423 0.000000
# 4 0.000000 0.000000 0.000000 0.118483 0.000000 0.041774
# 5 0.026117 0.007858 -0.000423 0.000000 0.057307 0.000000
# 6 0.000000 0.000000 0.000000 0.041774 0.000000 0.074247
#
#
# Mechanical properties :
#
#
# Convention : Reuss Voigt Hill
#
# Bulk Modulus (GPa) = 26.53440 74.51776 50.52608
# Shear Modulus (GPa) = 15.46505 28.41948 21.94227
#
# Velocity S-wave (km/s) = 2.70108 3.66159 3.21738
# Velocity P-wave (km/s) = 4.71654 7.28224 6.13501
#
# Compressibility (1/GPa) = 0.03768693
#
# Stress axis : x y z
#
# Youngs Moduli (GPa) = 34.35028 94.33027 105.42216
#
# Poissons Ratio (x) = -0.31468 0.45024
# Poissons Ratio (y) = -0.11459 0.50823
# Poissons Ratio (z) = 0.14670 0.45476
#
# Static dielectric constant tensor:
#      x y z
#    x 1.825580 0.000000 0.054190 
#    y 0.000000 1.731520 0.000000 
#    z 0.054190 0.000000 1.823880 
# 
# From -- ./inp_files/17253.got.cif
#   From: 2010.05.17/outbox.cif.g08.bks.cpg/sg10_9_cif.got.tgz:17253.got - 2010.06.03 11:33:40.
