data_PCOD9141431
_publ_section_title
;
Structure prediction by ZEFSAII (Michael W. Deem and Ramdas Pophale) SiO2 
 PCOD9141431
Probable space group: P 2/M
;
_chemical_formula_sum "Si O2"
_cell_formula_units_Z 28
_cell_length_a 21.642545
_cell_length_b 8.073271
_cell_length_c 24.852616
_cell_angle_alpha 90.000000
_cell_angle_beta 16.346020
_cell_angle_gamma 90.000000
_cell_volume 1222.114754
_symmetry_space_group_name_H-M "P 2/M"
_symmetry_group_IT_number 10
_symmetry_cell_setting 'monoclinic'
loop_
_space_group_symop_operation_xyz
x,y,z
-x,y,-z
-x,-y,-z
x,-y,z
loop_
_atom_site_type_symbol
_atom_site_label
_atom_site_fract_x
_atom_site_fract_y
_atom_site_fract_z
Si Si1 0.769691 0.680097 0.384431
Si Si2 0.055382 0.810645 0.234599
Si Si3 0.339499 0.312965 0.089550
Si Si4 0.611800 0.000000 0.464394
Si Si5 0.342911 0.698432 0.357044
Si Si6 0.947562 0.193161 0.481736
Si Si7 0.333365 0.689135 0.825972
Si Si8 0.177523 0.000000 0.898787
O O1 0.771237 0.500000 0.356804
O O2 0.981140 0.701152 0.246168
O O3 0.746649 0.834002 0.363969
O O4 0.553822 0.684696 0.603932
O O5 0.846343 0.787739 0.449556
O O6 0.266948 0.765388 0.093639
O O7 0.067064 0.000000 0.207579
O O8 0.418603 0.500000 0.013515
O O9 0.112124 0.310828 0.312278
O O10 0.500000 0.230661 0.000000
O O11 0.500000 0.000000 0.500000
O O12 0.413882 0.000000 0.672481
O O13 0.315729 0.500000 0.383714
O O14 0.292814 0.759099 0.338757
O O15 0.572018 0.736468 0.194343
O O16 0.000000 0.214828 0.500000
O O17 0.990499 0.000000 0.432603
O O18 0.248030 0.500000 0.897560
O O19 0.177130 0.831387 0.933705
O O20 0.000000 0.000000 0.000000
#
# Coordination Sequence:
#
# PCOD9141431 Si02
#       8
#     4   4   4   2   4   4   4   2
#     4   9  16  29  48  73 101 127 162 205 243 282
#     4  10  16  25  45  71  96 124 160 206 248 283
#     4  10  20  32  47  69  97 130 166 205 250 297
#     4  10  20  34  52  76 103 128 162 194 239 298
#     4   9  16  26  44  69  93 123 160 202 246 280
#     4  10  20  31  46  70  98 128 163 203 249 297
#     4   8  16  28  46  73  99 124 160 202 239 281
#     4  10  20  32  52  76  99 130 156 190 241 286
#
# _framework density 22.911106
#
# number of rings (size 3 to 8) (size 9 to 14) (size 15 to 20)
#    0.000    2.571    0.714    5.143    4.000    2.857 
#    0.000    0.000    0.000    1.714    0.000    2.000 
#    0.000    0.000    0.000    0.000    0.000    0.000 
#
# Total GULP energy -156255.474967 kJ/mol
# GULP energy per Si atom -5580.552677 kJ/mol
# Density = 2.285896 g / cm^3
# Si number density = 22.911106 Si / 1000 Ang^3
#
#
#
# Elastic Constant Matrix: (Units=GPa)
#
#
# Indices 1 2 3 4 5 6 
#
# 1 122.8165 68.4686 29.7743 0.0000 -56.7874 0.0000
# 2 68.4686 146.3227 21.7954 0.0000 -41.6676 0.0000
# 3 29.7743 21.7954 72.9471 0.0000 -9.7423 0.0000
# 4 0.0000 0.0000 0.0000 8.4594 0.0000 -18.3991
# 5 -56.7874 -41.6676 -9.7423 0.0000 48.8637 0.0000
# 6 0.0000 0.0000 0.0000 -18.3991 0.0000 14.4624
#
#
#
# Elastic Compliance Matrix: (Units=1/GPa)
#
#
# Indices 1 2 3 4 5 6 
#
# 1 0.020203 -0.003087 -0.004664 0.000000 0.019916 0.000000
# 2 -0.003087 0.009711 -0.001042 0.000000 0.004485 0.000000
# 3 -0.004664 -0.001042 0.015494 0.000000 -0.003220 0.000000
# 4 0.000000 0.000000 0.000000 -0.066899 0.000000 -0.085109
# 5 0.019916 0.004485 -0.003220 0.000000 0.046794 0.000000
# 6 0.000000 0.000000 0.000000 -0.085109 0.000000 -0.039131
#
#
# Mechanical properties :
#
#
# Convention : Reuss Voigt Hill
#
# Bulk Modulus (GPa) = 35.94419 64.68478 50.31448
# Shear Modulus (GPa) = 383.64853 29.16030 206.40442
#
# Velocity S-wave (km/s) = 12.95432 3.57144 9.50183
# Velocity P-wave (km/s) = 15.47499 6.73061 11.93265
#
# Compressibility (1/GPa) = 0.02782091
#
# Stress axis : x y z
#
# Youngs Moduli (GPa) = 49.49793 102.97139 64.54291
#
# Poissons Ratio (x) = 0.31790 0.30101
# Poissons Ratio (y) = 0.15282 0.06728
# Poissons Ratio (z) = 0.23084 0.10734
#
# Static dielectric constant tensor:
#      x y z
#    x 1.900680 0.000000 0.005330 
#    y 0.000000 1.821340 0.000000 
#    z 0.005330 0.000000 1.927260 
# 
# From -- ./inp_files/93545.got.cif
#   From: 2010.05.17/outbox.cif.g08.bks.cpg/sg10_47_cif.got.tgz:93545.got - 2010.06.03 11:33:40.
