data_PCOD9141819
_publ_section_title
;
Structure prediction by ZEFSAII (Michael W. Deem and Ramdas Pophale) SiO2 
 PCOD9141819
Probable space group: P 2/M
;
_chemical_formula_sum "Si O2"
_cell_formula_units_Z 26
_cell_length_a 5.293661
_cell_length_b 19.586905
_cell_length_c 17.290338
_cell_angle_alpha 90.000000
_cell_angle_beta 88.158340
_cell_angle_gamma 90.000000
_cell_volume 1791.847465
_symmetry_space_group_name_H-M "P 2/M"
_symmetry_group_IT_number 10
_symmetry_cell_setting 'monoclinic'
loop_
_space_group_symop_operation_xyz
x,y,z
-x,y,-z
-x,-y,-z
x,-y,z
loop_
_atom_site_type_symbol
_atom_site_label
_atom_site_fract_x
_atom_site_fract_y
_atom_site_fract_z
Si Si1 0.514687 0.917196 0.181850
Si Si2 0.390722 0.865014 0.352706
Si Si3 0.023324 0.917193 0.088082
Si Si4 0.743132 0.000000 0.552528
Si Si5 0.219637 0.639439 0.588028
Si Si6 0.719570 0.419225 0.587665
Si Si7 0.097135 0.200707 0.585250
O O1 0.467760 0.883079 0.264875
O O2 0.781809 0.897118 0.141642
O O3 0.285741 0.898934 0.126472
O O4 0.513833 0.000000 0.191747
O O5 0.646440 0.839104 0.393365
O O6 0.150966 0.813983 0.360420
O O7 0.283033 0.933191 0.394346
O O8 0.018530 0.000000 0.085246
O O9 0.000000 0.892809 0.000000
O O10 0.500000 0.000000 0.500000
O O11 0.000000 0.000000 0.500000
O O12 0.250123 0.610217 0.500090
O O13 0.480343 0.619088 0.625182
O O14 0.168983 0.719514 0.585219
O O15 0.980402 0.600629 0.625153
O O16 0.681584 0.500000 0.584169
O O17 0.000000 0.182588 0.500000
#
# Coordination Sequence:
#
# PCOD9141819 Si02
#       7
#     4   4   4   2   4   4   4
#     4  10  19  34  49  65  92 110 134 177 225 282
#     4  12  24  36  50  63  81 116 151 193 249 271
#     4   9  17  29  51  75  91 107 125 154 213 288
#     4  12  24  40  48  62  75 102 157 212 242 276
#     4  10  18  29  42  61  85 105 133 176 229 276
#     4  10  17  28  46  66  84 102 129 170 241 287
#     4  12  23  35  48  62  83 114 157 198 236 279
#
# _framework density 14.510165000000001
#
# number of rings (size 3 to 8) (size 9 to 14) (size 15 to 20)
#    0.000    1.385    2.308    7.385    2.154    1.846 
#    0.000    0.000    0.000    0.000    0.000    0.000 
#    0.000    0.000    0.000    0.000    0.000    0.000 
#
# Total GULP energy -144991.448283 kJ/mol
# GULP energy per Si atom -5576.594165 kJ/mol
# Density = 1.447714 g / cm^3
# Si number density = 14.510165 Si / 1000 Ang^3
#
#
#
# Elastic Constant Matrix: (Units=GPa)
#
#
# Indices 1 2 3 4 5 6 
#
# 1 117.7294 25.7642 7.3935 0.0000 3.7739 0.0000
# 2 25.7642 66.4821 18.5945 0.0000 1.5634 0.0000
# 3 7.3935 18.5945 37.6723 0.0000 -3.8443 0.0000
# 4 0.0000 0.0000 0.0000 2.4320 0.0000 -0.6917
# 5 3.7739 1.5634 -3.8443 0.0000 19.4849 0.0000
# 6 0.0000 0.0000 0.0000 -0.6917 0.0000 23.7073
#
#
#
# Elastic Compliance Matrix: (Units=1/GPa)
#
#
# Indices 1 2 3 4 5 6 
#
# 1 0.009328 -0.003505 -0.000262 0.000000 -0.001577 0.000000
# 2 -0.003505 0.018961 -0.008937 0.000000 -0.002606 0.000000
# 3 -0.000262 -0.008937 0.031724 0.000000 0.007027 0.000000
# 4 0.000000 0.000000 0.000000 0.414626 0.000000 0.012097
# 5 -0.001577 -0.002606 0.007027 0.000000 0.053223 0.000000
# 6 0.000000 0.000000 0.000000 0.012097 0.000000 0.042534
#
#
# Mechanical properties :
#
#
# Convention : Reuss Voigt Hill
#
# Bulk Modulus (GPa) = 28.89635 36.15423 32.52529
# Shear Modulus (GPa) = 8.23265 20.46695 14.34980
#
# Velocity S-wave (km/s) = 2.38454 3.75977 3.14817
# Velocity P-wave (km/s) = 5.24778 6.61955 5.97317
#
# Compressibility (1/GPa) = 0.03460644
#
# Stress axis : x y z
#
# Youngs Moduli (GPa) = 107.20395 52.74085 31.52168
#
# Poissons Ratio (x) = 0.18484 0.00825
# Poissons Ratio (y) = 0.37571 0.28170
# Poissons Ratio (z) = 0.02807 0.47133
#
# Static dielectric constant tensor:
#      x y z
#    x 1.546080 0.000000 0.012050 
#    y 0.000000 1.479500 0.000000 
#    z 0.012050 0.000000 1.426600 
# 
# From -- ./inp_files/59253.got.cif
#   From: 2010.05.17/outbox.cif.g08.bks.cpg/sg10_30_cif.got.tgz:59253.got - 2010.06.03 11:33:40.
