data_PCOD9141874
_publ_section_title
;
Structure prediction by ZEFSAII (Michael W. Deem and Ramdas Pophale) SiO2 
 PCOD9141874
Probable space group: P 2/M
;
_chemical_formula_sum "Si O2"
_cell_formula_units_Z 32
_cell_length_a 23.838182
_cell_length_b 7.465738
_cell_length_c 14.922792
_cell_angle_alpha 90.000000
_cell_angle_beta 149.844566
_cell_angle_gamma 90.000000
_cell_volume 1334.136429
_symmetry_space_group_name_H-M "P 2/M"
_symmetry_group_IT_number 10
_symmetry_cell_setting 'monoclinic'
loop_
_space_group_symop_operation_xyz
x,y,z
-x,y,-z
-x,-y,-z
x,-y,z
loop_
_atom_site_type_symbol
_atom_site_label
_atom_site_fract_x
_atom_site_fract_y
_atom_site_fract_z
Si Si1 0.294057 0.213797 0.777953
Si Si2 0.050285 0.203996 0.471854
Si Si3 0.199234 0.714919 0.457524
Si Si4 0.381990 0.219388 0.084065
Si Si5 0.055217 0.713926 0.922222
Si Si6 0.460331 0.789878 0.541704
Si Si7 0.775045 0.716659 0.706213
Si Si8 0.168616 0.214006 0.906291
O O1 0.171924 0.284372 0.638809
O O2 0.283154 0.242206 0.655710
O O3 0.300592 0.000000 0.796176
O O4 0.375998 0.279567 0.971292
O O5 0.000000 0.189528 0.500000
O O6 0.950272 0.298280 0.283744
O O7 0.065765 0.000000 0.458931
O O8 0.193658 0.500000 0.450331
O O9 0.240484 0.777718 0.417518
O O10 0.068151 0.779489 0.279643
O O11 0.479416 0.282426 0.285224
O O12 0.384767 0.000000 0.085944
O O13 0.270082 0.274219 0.984846
O O14 0.043888 0.500000 0.912341
O O15 0.107388 0.776339 0.088522
O O16 0.158288 0.757025 0.997261
O O17 0.500000 0.714914 0.500000
O O18 0.329902 0.772632 0.379410
O O19 0.491378 0.000000 0.581523
O O20 0.777079 0.500000 0.707444
O O21 0.163540 0.000000 0.882742
#
# Coordination Sequence:
#
# PCOD9141874 Si02
#       8
#     4   4   4   4   4   4   4   4
#     4  10  18  31  52  79 109 143 181 216 256 316
#     4   9  14  23  43  72 105 140 174 207 247 305
#     4  10  21  37  55  77 108 143 178 220 269 317
#     4   9  18  32  54  81 111 145 178 215 266 321
#     4  10  20  34  53  78 108 141 177 219 270 324
#     4  10  21  39  61  86 111 136 172 223 274 312
#     4  10  22  40  59  77 102 142 185 221 265 323
#     4  10  17  28  50  79 109 141 176 212 256 315
#
# _framework density 23.985555000000002
#
# number of rings (size 3 to 8) (size 9 to 14) (size 15 to 20)
#    0.000    2.250    2.500    1.125    0.000    3.750 
#    0.000    2.500    0.000    8.250    0.000    0.000 
#    0.000    0.000    0.000    0.000    0.000    0.000 
#
# Total GULP energy -178219.884680 kJ/mol
# GULP energy per Si atom -5569.371396 kJ/mol
# Density = 2.393096 g / cm^3
# Si number density = 23.985555 Si / 1000 Ang^3
#
#
#
# Elastic Constant Matrix: (Units=GPa)
#
#
# Indices 1 2 3 4 5 6 
#
# 1 113.1311 -4.2738 46.7659 0.0000 -33.7538 0.0000
# 2 -4.2738 72.5767 9.7537 0.0000 -7.7940 0.0000
# 3 46.7659 9.7537 137.2451 0.0000 -47.4203 0.0000
# 4 0.0000 0.0000 0.0000 10.3562 0.0000 0.9771
# 5 -33.7538 -7.7940 -47.4203 0.0000 41.1902 0.0000
# 6 0.0000 0.0000 0.0000 0.9771 0.0000 16.2930
#
#
#
# Elastic Compliance Matrix: (Units=1/GPa)
#
#
# Indices 1 2 3 4 5 6 
#
# 1 0.012035 0.001817 -0.001168 0.000000 0.008861 0.000000
# 2 0.001817 0.014340 -0.000309 0.000000 0.003847 0.000000
# 3 -0.001168 -0.000309 0.012214 0.000000 0.013045 0.000000
# 4 0.000000 0.000000 0.000000 0.097110 0.000000 -0.005824
# 5 0.008861 0.003847 0.013045 0.000000 0.047284 0.000000
# 6 0.000000 0.000000 0.000000 -0.005824 0.000000 0.061725
#
#
# Mechanical properties :
#
#
# Convention : Reuss Voigt Hill
#
# Bulk Modulus (GPa) = 25.46645 47.49385 36.48015
# Shear Modulus (GPa) = 19.44630 31.61503 25.53067
#
# Velocity S-wave (km/s) = 2.85046 3.63448 3.26608
# Velocity P-wave (km/s) = 4.63400 6.12018 5.42819
#
# Compressibility (1/GPa) = 0.03926735
#
# Stress axis : x y z
#
# Youngs Moduli (GPa) = 83.09369 69.73408 81.87618
#
# Poissons Ratio (x) = -0.12672 0.09567
# Poissons Ratio (y) = -0.15100 0.02533
# Poissons Ratio (z) = 0.09709 0.02157
#
# Static dielectric constant tensor:
#      x y z
#    x 2.046080 0.000000 -0.110140 
#    y 0.000000 2.183420 0.000000 
#    z -0.110140 0.000000 1.990700 
# 
# From -- ./inp_files/71666.got.cif
#   From: 2010.05.17/outbox.cif.g08.bks.cpg/sg10_36_cif.got.tgz:71666.got - 2010.06.03 11:33:40.
