data_PCOD9141552
_publ_section_title
;
Structure prediction by ZEFSAII (Michael W. Deem and Ramdas Pophale) SiO2 
 PCOD9141552
Probable space group: P 2/M
;
_chemical_formula_sum "Si O2"
_cell_formula_units_Z 20
_cell_length_a 14.917635
_cell_length_b 7.810261
_cell_length_c 28.411531
_cell_angle_alpha 90.000000
_cell_angle_beta 14.117892
_cell_angle_gamma 90.000000
_cell_volume 807.427939
_symmetry_space_group_name_H-M "P 2/M"
_symmetry_group_IT_number 10
_symmetry_cell_setting 'monoclinic'
loop_
_space_group_symop_operation_xyz
x,y,z
-x,y,-z
-x,-y,-z
x,-y,z
loop_
_atom_site_type_symbol
_atom_site_label
_atom_site_fract_x
_atom_site_fract_y
_atom_site_fract_z
Si Si1 0.511717 0.197855 0.340164
Si Si2 0.680975 0.695594 0.759704
Si Si3 0.431870 0.206304 0.280538
Si Si4 0.464038 0.197958 0.466147
Si Si5 0.409882 0.805263 0.095543
O O1 0.608891 0.271569 0.239053
O O2 0.603135 0.273479 0.345277
O O3 0.061008 0.196965 0.566506
O O4 0.635902 0.000000 0.278333
O O5 0.800137 0.500000 0.696700
O O6 0.443939 0.739255 0.834544
O O7 0.477231 0.725029 0.912684
O O8 0.000000 0.259075 0.500000
O O9 0.449698 0.000000 0.273378
O O10 0.500000 0.277523 0.500000
O O11 0.028457 0.189781 0.680889
O O12 0.600305 0.000000 0.400110
O O13 0.553357 0.000000 0.021416
O O14 0.500000 0.719461 0.000000
#
# Coordination Sequence:
#
# PCOD9141552 Si02
#       5
#     4   4   4   4   4
#     4   8  14  24  37  54  78 107 133 158 195 240
#     4  10  17  23  35  56  80 103 129 165 202 232
#     4   8  13  22  35  51  75 105 132 158 194 240
#     4   8  13  23  41  63  82 100 128 165 198 228
#     4   9  17  29  43  58  79 108 136 159 191 238
#
# _framework density 24.770011
#
# number of rings (size 3 to 8) (size 9 to 14) (size 15 to 20)
#    0.000    3.400    0.000    4.200    0.000    4.000 
#    0.000    0.000    0.000    9.600    0.000    1.400 
#    0.000   11.200    0.000    0.000    0.000    0.000 
#
# Total GULP energy -111389.138978 kJ/mol
# GULP energy per Si atom -5569.456949 kJ/mol
# Density = 2.471363 g / cm^3
# Si number density = 24.770011 Si / 1000 Ang^3
#
#
#
# Elastic Constant Matrix: (Units=GPa)
#
#
# Indices 1 2 3 4 5 6 
#
# 1 287.1395 12.4591 53.3996 0.0000 81.6229 0.0000
# 2 12.4591 51.1566 -0.1044 0.0000 11.1828 0.0000
# 3 53.3996 -0.1044 48.0578 0.0000 -4.3594 0.0000
# 4 0.0000 0.0000 0.0000 -24.9535 0.0000 -38.4512
# 5 81.6229 11.1828 -4.3594 0.0000 61.3233 0.0000
# 6 0.0000 0.0000 0.0000 -38.4512 0.0000 -85.3195
#
#
#
# Elastic Compliance Matrix: (Units=1/GPa)
#
#
# Indices 1 2 3 4 5 6 
#
# 1 0.009535 0.000637 -0.011832 0.000000 -0.013649 0.000000
# 2 0.000637 0.020406 -0.001085 0.000000 -0.004647 0.000000
# 3 -0.011832 -0.001085 0.035629 0.000000 0.018479 0.000000
# 4 0.000000 0.000000 0.000000 -0.131155 0.000000 0.059108
# 5 -0.013649 -0.004647 0.018479 0.000000 0.036635 0.000000
# 6 0.000000 0.000000 0.000000 0.059108 0.000000 -0.038359
#
#
# Mechanical properties :
#
#
# Convention : Reuss Voigt Hill
#
# Bulk Modulus (GPa) = 24.38374 57.54026 40.96200
# Shear Modulus (GPa) = -171.95218 11.58337 -80.18441
#
# Velocity S-wave (km/s) = -8.34088 2.16484 -5.69577
# Velocity P-wave (km/s) = 9.10466 5.43405 5.16555
#
# Compressibility (1/GPa) = 0.04101093
#
# Stress axis : x y z
#
# Youngs Moduli (GPa) = 104.87403 49.00480 28.06688
#
# Poissons Ratio (x) = -0.03123 0.33208
# Poissons Ratio (y) = -0.06683 0.03046
# Poissons Ratio (z) = 1.24085 0.05318
#
# Static dielectric constant tensor:
#      x y z
#    x 2.086780 0.000000 0.066880 
#    y 0.000000 1.888060 0.000000 
#    z 0.066880 0.000000 2.080110 
# 
# From -- ./inp_files/26760.got.cif
#   From: 2010.05.17/outbox.cif.g08.bks.cpg/sg10_14_cif.got.tgz:26760.got - 2010.06.03 11:33:40.
