data_PCOD9141323
_publ_section_title
;
Structure prediction by ZEFSAII (Michael W. Deem and Ramdas Pophale) SiO2 
 PCOD9141323
Probable space group: P 2/M
;
_chemical_formula_sum "Si O2"
_cell_formula_units_Z 32
_cell_length_a 12.682986
_cell_length_b 18.576023
_cell_length_c 11.931079
_cell_angle_alpha 90.000000
_cell_angle_beta 135.199924
_cell_angle_gamma 90.000000
_cell_volume 1980.698073
_symmetry_space_group_name_H-M "P 2/M"
_symmetry_group_IT_number 10
_symmetry_cell_setting 'monoclinic'
loop_
_space_group_symop_operation_xyz
x,y,z
-x,y,-z
-x,-y,-z
x,-y,z
loop_
_atom_site_type_symbol
_atom_site_label
_atom_site_fract_x
_atom_site_fract_y
_atom_site_fract_z
Si Si1 0.794941 0.809334 0.125431
Si Si2 0.366282 0.216724 0.754921
Si Si3 0.357161 0.313007 0.085536
Si Si4 0.561656 0.920022 0.919522
Si Si5 0.489459 0.582456 0.360625
Si Si6 0.809065 0.581964 0.478572
Si Si7 0.317899 0.580364 0.867312
Si Si8 0.069679 0.732906 0.428561
O O1 0.702111 0.789751 0.170862
O O2 0.963574 0.786276 0.278833
O O3 0.742013 0.758182 0.984228
O O4 0.730812 0.888494 0.051241
O O5 0.483420 0.282063 0.837206
O O6 0.455674 0.143631 0.792456
O O7 0.233816 0.233914 0.569612
O O8 0.388724 0.361275 0.216895
O O9 0.281598 0.361180 0.932507
O O10 0.552565 0.000000 0.862765
O O11 0.500000 0.925618 0.000000
O O12 0.500000 0.597842 0.500000
O O13 0.434878 0.500000 0.304209
O O14 0.655359 0.584661 0.432714
O O15 0.870515 0.500000 0.533784
O O16 0.758134 0.593209 0.310343
O O17 0.911179 0.649186 0.591735
O O18 0.274555 0.500000 0.870465
O O19 0.500000 0.580209 0.000000
O O20 0.000000 0.730324 0.500000
#
# Coordination Sequence:
#
# PCOD9141323 Si02
#       8
#     4   4   4   4   4   4   4   4
#     4   9  18  25  41  66  90 114 145 180 221 266
#     4   9  16  25  42  64  88 117 147 178 222 265
#     4  11  16  27  44  63  84 110 146 191 229 261
#     4   8  14  26  41  60  89 124 154 177 204 252
#     4  10  20  31  44  62  83 114 156 196 232 267
#     4  10  19  29  42  60  87 121 149 185 234 272
#     4  10  15  20  36  61  81 102 135 179 227 264
#     4  10  17  28  40  62  93 121 147 181 223 272
#
# _framework density 16.155919999999998
#
# number of rings (size 3 to 8) (size 9 to 14) (size 15 to 20)
#    0.000    2.375    2.500    3.750    0.000    0.250 
#    0.000    1.875    0.000    4.500    0.000    2.625 
#    0.000    8.000    0.000    4.500    0.000    0.500 
#
# Total GULP energy -178141.721974 kJ/mol
# GULP energy per Si atom -5566.928812 kJ/mol
# Density = 1.611915 g / cm^3
# Si number density = 16.155920 Si / 1000 Ang^3
#
#
#
# Elastic Constant Matrix: (Units=GPa)
#
#
# Indices 1 2 3 4 5 6 
#
# 1 17.3382 17.4266 24.8674 0.0000 -2.8530 0.0000
# 2 17.4266 123.2392 45.0290 0.0000 4.9925 0.0000
# 3 24.8674 45.0290 65.7160 0.0000 14.2508 0.0000
# 4 0.0000 0.0000 0.0000 16.1450 0.0000 3.5763
# 5 -2.8530 4.9925 14.2508 0.0000 23.4392 0.0000
# 6 0.0000 0.0000 0.0000 3.5763 0.0000 10.1828
#
#
#
# Elastic Compliance Matrix: (Units=1/GPa)
#
#
# Indices 1 2 3 4 5 6 
#
# 1 0.219262 0.003715 -0.104972 0.000000 0.089719 0.000000
# 2 0.003715 0.011020 -0.009844 0.000000 0.004090 0.000000
# 3 -0.104972 -0.009844 0.073720 0.000000 -0.055501 0.000000
# 4 0.000000 0.000000 0.000000 0.067164 0.000000 -0.023589
# 5 0.089719 0.004090 -0.055501 0.000000 0.086457 0.000000
# 6 0.000000 0.000000 0.000000 -0.023589 0.000000 0.106489
#
#
# Mechanical properties :
#
#
# Convention : Reuss Voigt Hill
#
# Bulk Modulus (GPa) = 12.22482 42.32660 27.27571
# Shear Modulus (GPa) = 6.14568 17.88477 12.01523
#
# Velocity S-wave (km/s) = 1.95250 3.33079 2.73005
# Velocity P-wave (km/s) = 3.55896 6.40686 5.18238
#
# Compressibility (1/GPa) = 0.08180078
#
# Stress axis : x y z
#
# Youngs Moduli (GPa) = 4.56076 90.74442 13.56486
#
# Poissons Ratio (x) = -0.33715 1.42393
# Poissons Ratio (y) = -0.01695 0.13353
# Poissons Ratio (z) = 0.47875 0.89327
#
# Static dielectric constant tensor:
#      x y z
#    x 1.545310 0.000000 0.036220 
#    y 0.000000 1.587260 0.000000 
#    z 0.036220 0.000000 1.563060 
# 
# From -- ./inp_files/47833.got.cif
#   From: 2010.05.17/outbox.cif.g08.bks.cpg/sg10_24_cif.got.tgz:47833.got - 2010.06.03 11:33:40.
