data_PCOD9141690
_publ_section_title
;
Structure prediction by ZEFSAII (Michael W. Deem and Ramdas Pophale) SiO2 
 PCOD9141690
Probable space group: P 2/M
;
_chemical_formula_sum "Si O2"
_cell_formula_units_Z 32
_cell_length_a 22.579543
_cell_length_b 8.466546
_cell_length_c 11.869909
_cell_angle_alpha 90.000000
_cell_angle_beta 55.549607
_cell_angle_gamma 90.000000
_cell_volume 1871.202171
_symmetry_space_group_name_H-M "P 2/M"
_symmetry_group_IT_number 10
_symmetry_cell_setting 'monoclinic'
loop_
_space_group_symop_operation_xyz
x,y,z
-x,y,-z
-x,-y,-z
x,-y,z
loop_
_atom_site_type_symbol
_atom_site_label
_atom_site_fract_x
_atom_site_fract_y
_atom_site_fract_z
Si Si1 0.847380 0.314211 0.925648
Si Si2 0.738571 0.807299 0.660338
Si Si3 0.915876 0.190992 0.081930
Si Si4 0.582044 0.186102 0.791912
Si Si5 0.018812 0.190115 0.350773
Si Si6 0.434624 0.684901 0.939369
Si Si7 0.876118 0.807511 0.371467
Si Si8 0.711811 0.812067 0.947517
O O1 0.835516 0.500000 0.938845
O O2 0.908791 0.269247 0.769482
O O3 0.774167 0.230310 0.966991
O O4 0.877947 0.259148 0.012977
O O5 0.663591 0.759721 0.681574
O O6 0.808453 0.752424 0.517710
O O7 0.736066 0.759044 0.794680
O O8 0.739494 0.000000 0.660019
O O9 0.877383 0.239160 0.239581
O O10 0.914500 0.000000 0.075037
O O11 0.000000 0.236812 0.000000
O O12 0.513796 0.271251 0.809993
O O13 0.576535 0.000000 0.776433
O O14 0.574715 0.218083 0.934108
O O15 0.000000 0.224179 0.500000
O O16 0.951330 0.239594 0.347104
O O17 0.027715 0.000000 0.330039
O O18 0.432822 0.500000 0.967820
O O19 0.364746 0.732070 0.943912
O O20 0.875015 0.000000 0.375508
O O21 0.701564 0.000000 0.954438
#
# Coordination Sequence:
#
# PCOD9141690 Si02
#       8
#     4   4   4   4   4   4   4   4
#     4  12  24  35  49  71 102 131 163 206 256 303
#     4   8  15  27  47  75 100 125 160 207 247 284
#     4  10  19  35  56  73  91 123 171 216 249 292
#     4   9  15  25  42  66  98 135 171 198 234 290
#     4  10  19  33  54  75  97 129 168 204 243 296
#     4  10  17  26  42  67  99 132 166 200 244 289
#     4   9  16  29  50  74  96 121 162 210 249 283
#     4  10  19  33  51  71  99 131 168 204 246 300
#
# _framework density 17.101306000000001
#
# number of rings (size 3 to 8) (size 9 to 14) (size 15 to 20)
#    0.000    2.250    1.250    5.250    0.000    2.500 
#    0.000    0.000    0.000    6.000    0.000    0.875 
#    0.000    7.000    0.000    0.000    0.000    0.000 
#
# Total GULP energy -178417.082351 kJ/mol
# GULP energy per Si atom -5575.533823 kJ/mol
# Density = 1.706238 g / cm^3
# Si number density = 17.101306 Si / 1000 Ang^3
#
#
#
# Elastic Constant Matrix: (Units=GPa)
#
#
# Indices 1 2 3 4 5 6 
#
# 1 112.9665 17.4453 25.5812 0.0000 -15.5992 0.0000
# 2 17.4453 24.7515 8.1831 0.0000 1.5338 0.0000
# 3 25.5812 8.1831 16.7286 0.0000 3.5054 0.0000
# 4 0.0000 0.0000 0.0000 -0.4307 0.0000 -8.8921
# 5 -15.5992 1.5338 3.5054 0.0000 25.5816 0.0000
# 6 0.0000 0.0000 0.0000 -8.8921 0.0000 -45.0244
#
#
#
# Elastic Compliance Matrix: (Units=1/GPa)
#
#
# Indices 1 2 3 4 5 6 
#
# 1 0.018160 -0.004183 -0.028927 0.000000 0.015288 0.000000
# 2 -0.004183 0.049163 -0.016988 0.000000 -0.003171 0.000000
# 3 -0.028927 -0.016988 0.119228 0.000000 -0.032958 0.000000
# 4 0.000000 0.000000 0.000000 0.754470 0.000000 -0.149003
# 5 0.015288 -0.003171 -0.032958 0.000000 0.053119 0.000000
# 6 0.000000 0.000000 0.000000 -0.149003 0.000000 0.007217
#
#
# Mechanical properties :
#
#
# Convention : Reuss Voigt Hill
#
# Bulk Modulus (GPa) = 11.58004 28.54066 20.06035
# Shear Modulus (GPa) = 4.42346 2.90776 3.66561
#
# Velocity S-wave (km/s) = 1.61004 1.30538 1.46565
# Velocity P-wave (km/s) = 3.20038 4.35860 3.82360
#
# Compressibility (1/GPa) = 0.08635550
#
# Stress axis : x y z
#
# Youngs Moduli (GPa) = 55.06676 20.34062 8.38726
#
# Poissons Ratio (x) = 0.08509 0.24262
# Poissons Ratio (y) = 0.23035 0.14248
# Poissons Ratio (z) = 1.59291 0.34554
#
# Static dielectric constant tensor:
#      x y z
#    x 1.599970 0.000000 -0.026270 
#    y 0.000000 1.585990 0.000000 
#    z -0.026270 0.000000 1.573210 
# 
# From -- ./inp_files/56429.got.cif
#   From: 2010.05.17/outbox.cif.g08.bks.cpg/sg10_29_cif.got.tgz:56429.got - 2010.06.03 11:33:40.
