data_PCOD9141807
_publ_section_title
;
Structure prediction by ZEFSAII (Michael W. Deem and Ramdas Pophale) SiO2 
 PCOD9141807
Probable space group: P 2/M
;
_chemical_formula_sum "Si O2"
_cell_formula_units_Z 32
_cell_length_a 28.965465
_cell_length_b 9.123708
_cell_length_c 19.743191
_cell_angle_alpha 90.000000
_cell_angle_beta 156.199421
_cell_angle_gamma 90.000000
_cell_volume 2105.578655
_symmetry_space_group_name_H-M "P 2/M"
_symmetry_group_IT_number 10
_symmetry_cell_setting 'monoclinic'
loop_
_space_group_symop_operation_xyz
x,y,z
-x,y,-z
-x,-y,-z
x,-y,z
loop_
_atom_site_type_symbol
_atom_site_label
_atom_site_fract_x
_atom_site_fract_y
_atom_site_fract_z
Si Si1 0.737173 0.324861 0.892014
Si Si2 0.948590 0.674195 0.268696
Si Si3 0.437202 0.170335 0.116636
Si Si4 0.616708 0.831359 0.611996
Si Si5 0.588450 0.673659 0.057640
Si Si6 0.490197 0.674932 0.325094
Si Si7 0.832023 0.826076 0.393561
Si Si8 0.161922 0.832637 0.755494
O O1 0.734462 0.500000 0.876962
O O2 0.710001 0.242032 0.786019
O O3 0.633057 0.292503 0.804690
O O4 0.856876 0.285454 0.087691
O O5 0.965970 0.500000 0.290483
O O6 0.889881 0.721548 0.260531
O O7 0.068865 0.757577 0.427671
O O8 0.456824 0.252072 0.072080
O O9 0.492211 0.250072 0.254692
O O10 0.470891 0.000000 0.157905
O O11 0.299647 0.174060 0.943005
O O12 0.500000 0.829474 0.500000
O O13 0.585528 0.740459 0.503277
O O14 0.643504 0.000000 0.632308
O O15 0.604785 0.500000 0.068455
O O16 0.500000 0.694825 0.000000
O O17 0.710176 0.747664 0.238092
O O18 0.500170 0.500000 0.333246
O O19 0.868109 0.803482 0.363046
O O20 0.819792 0.000000 0.386858
O O21 0.126355 0.000000 0.724871
#
# Coordination Sequence:
#
# PCOD9141807 Si02
#       8
#     4   4   4   4   4   4   4   4
#     4   9  18  29  40  59  87 123 160 192 230 268
#     4  11  20  29  43  64  90 122 158 193 225 266
#     4  10  19  30  47  70  94 121 154 191 230 275
#     4   9  17  27  40  59  83 117 158 196 232 269
#     4  10  21  37  55  72  91 116 148 189 236 282
#     4  10  17  28  44  62  89 122 157 195 230 269
#     4  10  21  34  47  66  89 118 152 188 230 274
#     4   9  18  30  42  59  88 121 153 189 226 265
#
# _framework density 15.197722000000001
#
# number of rings (size 3 to 8) (size 9 to 14) (size 15 to 20)
#    0.000    2.250    1.250    3.375    0.000    8.000 
#    0.000    0.000    0.000    0.000    0.000    0.000 
#    0.000    1.000    0.000   10.500    0.000    5.000 
#
# Total GULP energy -178492.365264 kJ/mol
# GULP energy per Si atom -5577.886414 kJ/mol
# Density = 1.516313 g / cm^3
# Si number density = 15.197722 Si / 1000 Ang^3
#
#
#
# Elastic Constant Matrix: (Units=GPa)
#
#
# Indices 1 2 3 4 5 6 
#
# 1 68.2756 60.4942 51.0544 0.0000 -18.3180 0.0000
# 2 60.4942 99.7768 66.5583 0.0000 -21.5638 0.0000
# 3 51.0544 66.5583 101.8213 0.0000 -31.8220 0.0000
# 4 0.0000 0.0000 0.0000 23.8729 0.0000 -7.7128
# 5 -18.3180 -21.5638 -31.8220 0.0000 22.4486 0.0000
# 6 0.0000 0.0000 0.0000 -7.7128 0.0000 13.0003
#
#
#
# Elastic Compliance Matrix: (Units=1/GPa)
#
#
# Indices 1 2 3 4 5 6 
#
# 1 0.034146 -0.016384 -0.004708 0.000000 0.005452 0.000000
# 2 -0.016384 0.025648 -0.009029 0.000000 -0.001531 0.000000
# 3 -0.004708 -0.009029 0.025445 0.000000 0.023556 0.000000
# 4 0.000000 0.000000 0.000000 0.051821 0.000000 0.030745
# 5 0.005452 -0.001531 0.023556 0.000000 0.080915 0.000000
# 6 0.000000 0.000000 0.000000 0.030745 0.000000 0.095161
#
#
# Mechanical properties :
#
#
# Convention : Reuss Voigt Hill
#
# Bulk Modulus (GPa) = 40.00263 69.56530 54.78396
# Shear Modulus (GPa) = 13.09889 17.98214 15.54052
#
# Velocity S-wave (km/s) = 2.93900 3.44352 3.20121
# Velocity P-wave (km/s) = 6.15593 7.85387 7.05616
#
# Compressibility (1/GPa) = 0.02499836
#
# Stress axis : x y z
#
# Youngs Moduli (GPa) = 29.28580 38.98934 39.29992
#
# Poissons Ratio (x) = 0.63881 0.18500
# Poissons Ratio (y) = 0.47983 0.35483
# Poissons Ratio (z) = 0.13786 0.35203
#
# Static dielectric constant tensor:
#      x y z
#    x 1.476240 0.000000 -0.011110 
#    y 0.000000 1.506620 0.000000 
#    z -0.011110 0.000000 1.512050 
# 
# From -- ./inp_files/87232.got.cif
#   From: 2010.05.17/outbox.cif.g08.bks.cpg/sg10_44_cif.got.tgz:87232.got - 2010.06.03 11:33:40.
