data_PCOD9141953
_publ_section_title
;
Structure prediction by ZEFSAII (Michael W. Deem and Ramdas Pophale) SiO2 
 PCOD9141953
Probable space group: P 2/M
;
_chemical_formula_sum "Si O2"
_cell_formula_units_Z 32
_cell_length_a 17.067357
_cell_length_b 18.373805
_cell_length_c 20.013090
_cell_angle_alpha 90.000000
_cell_angle_beta 21.140530
_cell_angle_gamma 90.000000
_cell_volume 2263.463500
_symmetry_space_group_name_H-M "P 2/M"
_symmetry_group_IT_number 10
_symmetry_cell_setting 'monoclinic'
loop_
_space_group_symop_operation_xyz
x,y,z
-x,y,-z
-x,-y,-z
x,-y,z
loop_
_atom_site_type_symbol
_atom_site_label
_atom_site_fract_x
_atom_site_fract_y
_atom_site_fract_z
Si Si1 0.951600 0.340243 0.853295
Si Si2 0.976012 0.806894 0.131694
Si Si3 0.699062 0.588238 0.933838
Si Si4 0.444022 0.639147 0.465900
Si Si5 0.661000 0.081891 0.435986
Si Si6 0.637193 0.793225 0.280293
Si Si7 0.173021 0.417437 0.915209
Si Si8 0.794977 0.412202 0.705236
O O1 0.994344 0.255461 0.836266
O O2 0.818287 0.364880 0.895078
O O3 0.190834 0.375110 0.659345
O O4 0.832627 0.371759 0.013288
O O5 0.889305 0.882103 0.232203
O O6 0.781680 0.788754 0.233591
O O7 0.193021 0.806688 0.914429
O O8 0.721365 0.500000 0.927080
O O9 0.793004 0.605924 0.785459
O O10 0.441861 0.606069 0.135978
O O11 0.500000 0.638729 0.500000
O O12 0.509106 0.717406 0.382772
O O13 0.597965 0.584440 0.303857
O O14 0.500000 0.076985 0.500000
O O15 0.533522 0.140784 0.581825
O O16 0.684825 0.000000 0.443607
O O17 0.105792 0.500000 0.983571
O O18 0.000000 0.384976 0.000000
O O19 0.804074 0.500000 0.696037
O O20 0.000000 0.383967 0.500000
#
# Coordination Sequence:
#
# PCOD9141953 Si02
#       8
#     4   4   4   4   4   4   4   4
#     4  12  21  32  48  67  93 120 158 203 232 277
#     4  10  18  28  47  62  85 121 156 188 233 278
#     4   9  19  32  48  72  92 112 147 194 241 281
#     4  12  20  32  48  59  80 124 169 195 233 277
#     4   9  17  29  44  66  87 107 150 206 242 272
#     4  10  17  30  46  62  80 121 165 192 227 280
#     4  11  23  34  43  58  82 119 165 210 242 261
#     4   8  15  33  56  69  86 113 139 177 242 307
#
# _framework density 14.137627
#
# number of rings (size 3 to 8) (size 9 to 14) (size 15 to 20)
#    0.000    1.875    5.000    1.500    0.000    2.750 
#    0.000    3.750    0.000    0.000    0.000    0.000 
#    0.000    0.000    0.000    2.250    0.000    7.250 
#
# Total GULP energy -178263.248450 kJ/mol
# GULP energy per Si atom -5570.726514 kJ/mol
# Density = 1.410545 g / cm^3
# Si number density = 14.137627 Si / 1000 Ang^3
#
#
#
# Elastic Constant Matrix: (Units=GPa)
#
#
# Indices 1 2 3 4 5 6 
#
# 1 82.6130 27.9512 45.2291 0.0000 -5.6163 0.0000
# 2 27.9512 63.2237 19.1178 0.0000 -0.0448 0.0000
# 3 45.2291 19.1178 96.9631 0.0000 9.3850 0.0000
# 4 0.0000 0.0000 0.0000 11.6603 0.0000 3.9370
# 5 -5.6163 -0.0448 9.3850 0.0000 9.4017 0.0000
# 6 0.0000 0.0000 0.0000 3.9370 0.0000 4.9350
#
#
#
# Elastic Compliance Matrix: (Units=1/GPa)
#
#
# Indices 1 2 3 4 5 6 
#
# 1 0.022236 -0.006330 -0.011520 0.000000 0.024752 0.000000
# 2 -0.006330 0.018742 -0.000427 0.000000 -0.003266 0.000000
# 3 -0.011520 -0.000427 0.018195 0.000000 -0.025047 0.000000
# 4 0.000000 0.000000 0.000000 0.117377 0.000000 -0.093639
# 5 0.024752 -0.003266 -0.025047 0.000000 0.146137 0.000000
# 6 0.000000 0.000000 0.000000 -0.093639 0.000000 0.277335
#
#
# Mechanical properties :
#
#
# Convention : Reuss Voigt Hill
#
# Bulk Modulus (GPa) = 44.20749 47.48846 45.84797
# Shear Modulus (GPa) = 7.76260 15.23286 11.49773
#
# Velocity S-wave (km/s) = 2.34577 3.28604 2.85489
# Velocity P-wave (km/s) = 6.21885 6.93257 6.58539
#
# Compressibility (1/GPa) = 0.02262060
#
# Stress axis : x y z
#
# Youngs Moduli (GPa) = 44.97255 53.35656 54.95990
#
# Poissons Ratio (x) = 0.33772 0.63313
# Poissons Ratio (y) = 0.28465 0.02345
# Poissons Ratio (z) = 0.51808 0.02277
#
# Static dielectric constant tensor:
#      x y z
#    x 1.444780 0.000000 0.011200 
#    y 0.000000 1.469670 0.000000 
#    z 0.011200 0.000000 1.493960 
# 
# From -- ./inp_files/67757.got.cif
#   From: 2010.05.17/outbox.cif.g08.bks.cpg/sg10_34_cif.got.tgz:67757.got - 2010.06.03 11:33:40.
