data_PCOD9141419
_publ_section_title
;
Structure prediction by ZEFSAII (Michael W. Deem and Ramdas Pophale) SiO2 
 PCOD9141419
Probable space group: P 2/M
;
_chemical_formula_sum "Si O2"
_cell_formula_units_Z 22
_cell_length_a 5.467276
_cell_length_b 25.096813
_cell_length_c 6.939868
_cell_angle_alpha 90.000000
_cell_angle_beta 78.883662
_cell_angle_gamma 90.000000
_cell_volume 934.361684
_symmetry_space_group_name_H-M "P 2/M"
_symmetry_group_IT_number 10
_symmetry_cell_setting 'monoclinic'
loop_
_space_group_symop_operation_xyz
x,y,z
-x,y,-z
-x,-y,-z
x,-y,z
loop_
_atom_site_type_symbol
_atom_site_label
_atom_site_fract_x
_atom_site_fract_y
_atom_site_fract_z
Si Si1 0.218866 0.000000 0.625390
Si Si2 0.419057 0.161846 0.232425
Si Si3 0.794172 0.437097 0.293984
Si Si4 0.281023 0.721234 0.373621
Si Si5 0.081546 0.884894 0.769999
Si Si6 0.303781 0.605943 0.258055
O O1 0.500000 0.000000 0.500000
O O2 0.173373 0.945616 0.747705
O O3 0.000000 0.000000 0.500000
O O4 0.335890 0.222719 0.265020
O O5 0.673643 0.150453 0.311377
O O6 0.173891 0.125734 0.308839
O O7 0.500000 0.150889 0.000000
O O8 0.766626 0.500000 0.327805
O O9 0.747888 0.407612 0.506011
O O10 0.579738 0.415885 0.187558
O O11 0.074469 0.423482 0.194448
O O12 0.500000 0.714246 0.500000
O O13 0.292620 0.669266 0.237298
O O14 0.000000 0.722805 0.500000
O O15 0.000000 0.871707 0.000000
#
# Coordination Sequence:
#
# PCOD9141419 Si02
#       6
#     2   4   4   4   4   4
#     4  12  25  38  63  94 126 144 178 236 279 324
#     4  10  23  40  60  82 111 148 195 229 263 326
#     4  10  16  25  41  61  99 138 167 207 269 326
#     4  12  21  34  53  78 109 146 173 229 281 329
#     4  10  22  43  62  82 112 154 190 223 269 329
#     4  10  16  27  38  64  98 130 167 209 266 323
#
# _framework density 23.545484999999999
#
# number of rings (size 3 to 8) (size 9 to 14) (size 15 to 20)
#    0.000    1.455    3.636    5.182    0.000    4.364 
#    0.000    3.636    0.000    0.000    0.000    0.000 
#    0.000    8.000    0.000    0.000    0.000    0.000 
#
# Total GULP energy -123047.823546 kJ/mol
# GULP energy per Si atom -5593.082888 kJ/mol
# Density = 2.349189 g / cm^3
# Si number density = 23.545485 Si / 1000 Ang^3
#
#
#
# Elastic Constant Matrix: (Units=GPa)
#
#
# Indices 1 2 3 4 5 6 
#
# 1 240.5121 42.3417 43.2707 0.0000 -35.0991 0.0000
# 2 42.3417 154.2516 -8.5083 0.0000 -35.2294 0.0000
# 3 43.2707 -8.5083 59.7333 0.0000 -22.0935 0.0000
# 4 0.0000 0.0000 0.0000 -117.8042 0.0000 -15.5245
# 5 -35.0991 -35.2294 -22.0935 0.0000 46.2534 0.0000
# 6 0.0000 0.0000 0.0000 -15.5245 0.0000 47.2256
#
#
#
# Elastic Compliance Matrix: (Units=1/GPa)
#
#
# Indices 1 2 3 4 5 6 
#
# 1 0.005205 -0.001332 -0.003492 0.000000 0.001268 0.000000
# 2 -0.001332 0.009085 0.005398 0.000000 0.008487 0.000000
# 3 -0.003492 0.005398 0.024996 0.000000 0.013402 0.000000
# 4 0.000000 0.000000 0.000000 -0.008136 0.000000 -0.002675
# 5 0.001268 0.008487 0.013402 0.000000 0.035448 0.000000
# 6 0.000000 0.000000 0.000000 -0.002675 0.000000 0.020296
#
#
# Mechanical properties :
#
#
# Convention : Reuss Voigt Hill
#
# Bulk Modulus (GPa) = 24.73105 67.63391 46.18248
# Shear Modulus (GPa) = 50.39153 20.29449 35.34301
#
# Velocity S-wave (km/s) = 4.63122 2.93904 3.87854
# Velocity P-wave (km/s) = 6.25492 6.34858 6.30192
#
# Compressibility (1/GPa) = 0.04043500
#
# Stress axis : x y z
#
# Youngs Moduli (GPa) = 192.10518 110.07615 40.00627
#
# Poissons Ratio (x) = 0.14661 0.13969
# Poissons Ratio (y) = 0.25587 -0.21595
# Poissons Ratio (z) = 0.67076 -0.59418
#
# Static dielectric constant tensor:
#      x y z
#    x 1.945650 0.000000 0.035590 
#    y 0.000000 1.815160 0.000000 
#    z 0.035590 0.000000 1.949470 
# 
# From -- ./inp_files/15548.got.cif
#   From: 2010.05.17/outbox.cif.g08.bks.cpg/sg10_8_cif.got.tgz:15548.got - 2010.06.03 11:33:40.
