data_PCOD9141223
_publ_section_title
;
Structure prediction by ZEFSAII (Michael W. Deem and Ramdas Pophale) SiO2 
 PCOD9141223
Probable space group: C C
;
_chemical_formula_sum "Si O2"
_cell_formula_units_Z 14
_cell_length_a 21.000000
_cell_length_b 15.000000
_cell_length_c 9.000000
_cell_angle_alpha 90.000000
_cell_angle_beta 30.000000
_cell_angle_gamma 90.000000
_cell_volume 1417.500000
_symmetry_space_group_name_H-M "C C"
_symmetry_group_IT_number 9
_symmetry_cell_setting 'monoclinic'
loop_
_space_group_symop_operation_xyz
x,y,z
x,-y,1/2+z
1/2+x,1/2+y,z
1/2+x,1/2-y,1/2+z
loop_
_atom_site_type_symbol
_atom_site_label
_atom_site_fract_x
_atom_site_fract_y
_atom_site_fract_z
Si Si1 0.345560 0.550534 0.196300
Si Si2 0.511543 0.230167 0.875984
Si Si3 0.721714 0.213199 0.934244
Si Si4 0.116577 0.407281 0.381402
Si Si5 0.570881 0.578537 0.206012
Si Si6 0.648325 0.898307 0.868332
Si Si7 0.102722 0.897166 0.291036
O O1 0.225598 0.558572 0.546888
O O2 0.287188 0.582870 0.159840
O O3 0.423790 0.458702 0.013423
O O4 0.454109 0.611747 0.047154
O O5 0.370765 0.264129 0.126719
O O6 0.517836 0.155968 0.993288
O O7 0.584038 0.324916 0.757444
O O8 0.575680 0.176906 0.610426
O O9 0.676157 0.160876 0.879674
O O10 0.675146 0.145178 0.156017
O O11 0.665604 0.310512 0.091828
O O12 0.075973 0.505358 0.523288
O O13 0.641034 0.493340 0.140094
O O14 0.609401 0.592911 0.956024
#
# Coordination Sequence:
#
# PCOD9141223 Si02
#       7
#     4   4   4   4   4   4   4
#     4   9  21  38  70  89 119 163 221 268 310 358
#     4  11  24  42  64  96 129 168 211 269 321 394
#     4  12  25  40  67  94 134 167 213 266 329 384
#     4  11  24  41  66  96 125 171 217 263 323 374
#     4  10  21  41  67  94 122 161 226 266 315 366
#     4  11  22  43  64  93 129 166 219 265 318 378
#     4  10  23  39  66  96 124 164 209 273 322 374
#
# _framework density 9.8765429999999999
#
# number of rings (size 3 to 8) (size 9 to 14) (size 15 to 20)
#    0.857    0.571    1.429    5.143    6.000    0.000 
#    2.571    0.000    0.000    0.000    0.000    0.000 
#    0.000    0.000    0.000    0.000    0.000    0.000 
#
# Total GULP energy -77953.807374 kJ/mol
# GULP energy per Si atom -5568.129098 kJ/mol
# Density = 0.985406 g / cm^3
# Si number density = 9.876543 Si / 1000 Ang^3
#
#
#
# Elastic Constant Matrix: (Units=GPa)
#
#
# Indices 1 2 3 4 5 6 
#
# 1 37.9638 9.7589 -1.7782 0.0000 8.3808 0.0000
# 2 9.7589 172.6258 26.4833 0.0000 6.7630 0.0000
# 3 -1.7782 26.4833 29.2812 0.0000 0.9227 0.0000
# 4 0.0000 0.0000 0.0000 39.2613 0.0000 6.6608
# 5 8.3808 6.7630 0.9227 0.0000 14.5332 0.0000
# 6 0.0000 0.0000 0.0000 6.6608 0.0000 20.4225
#
#
#
# Elastic Compliance Matrix: (Units=1/GPa)
#
#
# Indices 1 2 3 4 5 6 
#
# 1 0.030751 -0.001665 0.003916 0.000000 -0.017207 0.000000
# 2 -0.001665 0.006928 -0.006308 0.000000 -0.001863 0.000000
# 3 0.003916 -0.006308 0.040154 0.000000 -0.001872 0.000000
# 4 0.000000 0.000000 0.000000 0.026962 0.000000 -0.008794
# 5 -0.017207 -0.001863 -0.001872 0.000000 0.079716 0.000000
# 6 0.000000 0.000000 0.000000 -0.008794 0.000000 0.051834
#
#
# Mechanical properties :
#
#
# Convention : Reuss Voigt Hill
#
# Bulk Modulus (GPa) = 14.34367 34.31097 24.32732
# Shear Modulus (GPa) = 18.67769 28.53720 23.60744
#
# Velocity S-wave (km/s) = 3.07833 3.80504 3.46081
# Velocity P-wave (km/s) = 4.46229 6.05905 5.32091
#
# Compressibility (1/GPa) = 0.06971716
#
# Stress axis : x y z
#
# Youngs Moduli (GPa) = 32.51945 144.34666 24.90421
#
# Poissons Ratio (x) = 0.24034 -0.09751
# Poissons Ratio (y) = 0.05414 0.15710
# Poissons Ratio (z) = -0.12733 0.91057
#
# Static dielectric constant tensor:
#      x y z
#    x 1.736940 0.000000 0.021550 
#    y 0.000000 1.722080 0.000000 
#    z 0.021550 0.000000 1.722210 
# 
# From -- ./inp_files/11758.got.cif
#   From: 2010.05.17/outbox.ucp.g08.bks.cvg/sg9_6_cif.got.tgz:11758.got - 2010.06.11 13:03:20.
