data_PCOD9141815
_publ_section_title
;
Structure prediction by ZEFSAII (Michael W. Deem and Ramdas Pophale) SiO2 
 PCOD9141815
Probable space group: P 2/M
;
_chemical_formula_sum "Si O2"
_cell_formula_units_Z 24
_cell_length_a 12.554280
_cell_length_b 8.752414
_cell_length_c 24.134922
_cell_angle_alpha 90.000000
_cell_angle_beta 145.228476
_cell_angle_gamma 90.000000
_cell_volume 1512.422172
_symmetry_space_group_name_H-M "P 2/M"
_symmetry_group_IT_number 10
_symmetry_cell_setting 'monoclinic'
loop_
_space_group_symop_operation_xyz
x,y,z
-x,y,-z
-x,-y,-z
x,-y,z
loop_
_atom_site_type_symbol
_atom_site_label
_atom_site_fract_x
_atom_site_fract_y
_atom_site_fract_z
Si Si1 0.581154 0.683838 0.776836
Si Si2 0.265104 0.182074 0.350391
Si Si3 0.805067 0.686169 0.442329
Si Si4 0.321458 0.315973 0.490014
Si Si5 0.091529 0.681781 0.171188
Si Si6 0.832009 0.176800 0.973396
O O1 0.582611 0.500000 0.782532
O O2 0.376683 0.735022 0.670184
O O3 0.730577 0.721954 0.792190
O O4 0.655887 0.754431 0.865776
O O5 0.224586 0.248528 0.393997
O O6 0.466850 0.252844 0.420203
O O7 0.121296 0.234811 0.242007
O O8 0.279818 0.000000 0.358944
O O9 0.805146 0.500000 0.440991
O O10 0.774931 0.728631 0.493538
O O11 0.000000 0.739470 0.500000
O O12 0.329072 0.500000 0.489718
O O13 0.093376 0.500000 0.179925
O O14 0.909048 0.732743 0.059224
O O15 0.803027 0.000000 0.974824
O O16 0.000000 0.185965 0.000000
#
# Coordination Sequence:
#
# PCOD9141815 Si02
#       6
#     4   4   4   4   4   4
#     4   9  16  28  44  64  90 122 155 190 227 269
#     4  11  20  29  44  67  95 125 153 190 235 280
#     4   9  17  30  49  71  93 121 160 199 230 263
#     4  10  18  31  47  66  91 123 159 193 230 275
#     4  10  17  28  45  67  91 122 155 187 228 280
#     4   9  17  27  40  63  92 122 150 185 229 277
#
# _framework density 15.868586000000001
#
# number of rings (size 3 to 8) (size 9 to 14) (size 15 to 20)
#    0.000    2.333    1.667    4.000    0.000    2.667 
#    0.000    0.000    0.000    4.500    0.000    1.167 
#    0.000    9.333    0.000    0.000    0.000    0.000 
#
# Total GULP energy -133793.365012 kJ/mol
# GULP energy per Si atom -5574.723542 kJ/mol
# Density = 1.583247 g / cm^3
# Si number density = 15.868586 Si / 1000 Ang^3
#
#
#
# Elastic Constant Matrix: (Units=GPa)
#
#
# Indices 1 2 3 4 5 6 
#
# 1 75.5551 26.4448 60.8897 0.0000 -7.2733 0.0000
# 2 26.4448 60.2975 44.8958 0.0000 -11.5921 0.0000
# 3 60.8897 44.8958 144.4803 0.0000 -20.8651 0.0000
# 4 0.0000 0.0000 0.0000 12.5018 0.0000 -5.5570
# 5 -7.2733 -11.5921 -20.8651 0.0000 20.0904 0.0000
# 6 0.0000 0.0000 0.0000 -5.5570 0.0000 2.6487
#
#
#
# Elastic Compliance Matrix: (Units=1/GPa)
#
#
# Indices 1 2 3 4 5 6 
#
# 1 0.020688 -0.003683 -0.007999 0.000000 -0.002943 0.000000
# 2 -0.003683 0.022968 -0.004545 0.000000 0.007198 0.000000
# 3 -0.007999 -0.004545 0.012833 0.000000 0.007809 0.000000
# 4 0.000000 0.000000 0.000000 1.186056 0.000000 2.488375
# 5 -0.002943 0.007198 0.007809 0.000000 0.060973 0.000000
# 6 0.000000 0.000000 0.000000 2.488375 0.000000 5.598219
#
#
# Mechanical properties :
#
#
# Convention : Reuss Voigt Hill
#
# Bulk Modulus (GPa) = 41.60890 60.53261 51.07076
# Shear Modulus (GPa) = 0.72023 16.92166 8.82095
#
# Velocity S-wave (km/s) = 0.67443 3.26906 2.36026
# Velocity P-wave (km/s) = 5.18501 7.24417 6.29930
#
# Compressibility (1/GPa) = 0.02403332
#
# Stress axis : x y z
#
# Youngs Moduli (GPa) = 48.33805 43.53912 77.92595
#
# Poissons Ratio (x) = 0.16035 0.62335
# Poissons Ratio (y) = 0.17802 0.35420
# Poissons Ratio (z) = 0.38667 0.19790
#
# Static dielectric constant tensor:
#      x y z
#    x 1.509450 0.000000 -0.012950 
#    y 0.000000 1.528160 0.000000 
#    z -0.012950 0.000000 1.541800 
# 
# From -- ./inp_files/48672.got.cif
#   From: 2010.05.17/outbox.cif.g08.bks.cpg/sg10_25_cif.got.tgz:48672.got - 2010.06.03 11:33:40.
