data_PCOD9141479
_publ_section_title
;
Structure prediction by ZEFSAII (Michael W. Deem and Ramdas Pophale) SiO2 
 PCOD9141479
Probable space group: P 2/M
;
_chemical_formula_sum "Si O2"
_cell_formula_units_Z 30
_cell_length_a 32.775259
_cell_length_b 9.315923
_cell_length_c 12.872211
_cell_angle_alpha 90.000000
_cell_angle_beta 154.134350
_cell_angle_gamma 90.000000
_cell_volume 1714.640049
_symmetry_space_group_name_H-M "P 2/M"
_symmetry_group_IT_number 10
_symmetry_cell_setting 'monoclinic'
loop_
_space_group_symop_operation_xyz
x,y,z
-x,y,-z
-x,-y,-z
x,-y,z
loop_
_atom_site_type_symbol
_atom_site_label
_atom_site_fract_x
_atom_site_fract_y
_atom_site_fract_z
Si Si1 0.003354 0.162952 0.770972
Si Si2 0.713366 0.170929 0.796835
Si Si3 0.209727 0.666160 0.448822
Si Si4 0.808669 0.673181 0.824526
Si Si5 0.676282 0.327357 0.093838
Si Si6 0.527711 0.330163 0.443101
Si Si7 0.000000 0.243758 0.000000
Si Si8 0.198434 0.829935 0.783948
O O1 0.995442 0.164318 0.878590
O O2 0.904699 0.204948 0.494358
O O3 0.026456 0.000000 0.790999
O O4 0.084848 0.270864 0.924888
O O5 0.748638 0.254340 0.776671
O O6 0.614087 0.233834 0.606343
O O7 0.708073 0.000000 0.766898
O O8 0.784980 0.196683 0.056543
O O9 0.236530 0.500000 0.504668
O O10 0.223602 0.724182 0.364586
O O11 0.270899 0.729110 0.682304
O O12 0.099101 0.674335 0.220948
O O13 0.805326 0.500000 0.821845
O O14 0.688204 0.500000 0.114144
O O15 0.726407 0.257358 0.110119
O O16 0.565913 0.299226 0.837211
O O17 0.500000 0.306132 0.500000
O O18 0.551043 0.500000 0.486021
O O19 0.212842 0.000000 0.799030
#
# Coordination Sequence:
#
# PCOD9141479 Si02
#       8
#     4   4   4   4   4   4   2   4
#     4  10  20  34  52  80 114 147 184 221 269 323
#     4  11  23  39  59  79 108 147 186 226 274 328
#     4   9  18  32  53  82 112 144 181 225 271 319
#     4  10  22  39  57  78 109 148 190 228 267 319
#     4  10  19  34  56  84 114 142 176 222 276 326
#     4  10  20  35  58  86 112 139 177 226 276 326
#     4  10  16  28  54  80 111 146 185 218 267 316
#     4  10  21  35  53  81 114 146 178 221 273 326
#
# _framework density 17.496383000000002
#
# number of rings (size 3 to 8) (size 9 to 14) (size 15 to 20)
#    0.000    2.000    2.667    1.200    0.000    2.933 
#    0.000    4.000    0.000    4.000    0.000    0.000 
#    0.000    0.000    0.000    0.000    0.000    0.000 
#
# Total GULP energy -167257.626888 kJ/mol
# GULP energy per Si atom -5575.254230 kJ/mol
# Density = 1.745656 g / cm^3
# Si number density = 17.496383 Si / 1000 Ang^3
#
#
#
# Elastic Constant Matrix: (Units=GPa)
#
#
# Indices 1 2 3 4 5 6 
#
# 1 110.6088 44.5367 41.7349 0.0000 -2.6743 0.0000
# 2 44.5367 47.9209 25.0286 0.0000 2.4545 0.0000
# 3 41.7349 25.0286 94.3917 0.0000 -10.5678 0.0000
# 4 0.0000 0.0000 0.0000 22.6608 0.0000 -1.0191
# 5 -2.6743 2.4545 -10.5678 0.0000 19.0656 0.0000
# 6 0.0000 0.0000 0.0000 -1.0191 0.0000 15.2555
#
#
#
# Elastic Compliance Matrix: (Units=1/GPa)
#
#
# Indices 1 2 3 4 5 6 
#
# 1 0.015450 -0.012785 -0.003214 0.000000 0.002032 0.000000
# 2 -0.012785 0.035743 -0.004841 0.000000 -0.009078 0.000000
# 3 -0.003214 -0.004841 0.014199 0.000000 0.008043 0.000000
# 4 0.000000 0.000000 0.000000 0.044262 0.000000 0.002957
# 5 0.002032 -0.009078 0.008043 0.000000 0.058362 0.000000
# 6 0.000000 0.000000 0.000000 0.002957 0.000000 0.065748
#
#
# Mechanical properties :
#
#
# Convention : Reuss Voigt Hill
#
# Bulk Modulus (GPa) = 42.17073 52.83575 47.50324
# Shear Modulus (GPa) = 17.64609 20.83780 19.24195
#
# Velocity S-wave (km/s) = 3.17922 3.45480 3.31987
# Velocity P-wave (km/s) = 6.13445 6.79543 6.47338
#
# Compressibility (1/GPa) = 0.02371313
#
# Stress axis : x y z
#
# Youngs Moduli (GPa) = 64.72292 27.97743 70.42601
#
# Poissons Ratio (x) = 0.35769 0.22634
# Poissons Ratio (y) = 0.82747 0.34094
# Poissons Ratio (z) = 0.20802 0.13544
#
# Static dielectric constant tensor:
#      x y z
#    x 1.577640 0.000000 -0.030470 
#    y 0.000000 1.591580 0.000000 
#    z -0.030470 0.000000 1.614410 
# 
# From -- ./inp_files/58018.got.cif
#   From: 2010.05.17/outbox.cif.g08.bks.cpg/sg10_30_cif.got.tgz:58018.got - 2010.06.03 11:33:40.
