data_PCOD9141047
_publ_section_title
;
Structure prediction by ZEFSAII (Michael W. Deem and Ramdas Pophale) SiO2 
 PCOD9141047
Probable space group: C C
;
_chemical_formula_sum "Si O2"
_cell_formula_units_Z 32
_cell_length_a 11.736643
_cell_length_b 13.582956
_cell_length_c 11.702552
_cell_angle_alpha 90.000000
_cell_angle_beta 129.444777
_cell_angle_gamma 90.000000
_cell_volume 1440.686671
_symmetry_space_group_name_H-M "C C"
_symmetry_group_IT_number 9
_symmetry_cell_setting 'monoclinic'
loop_
_space_group_symop_operation_xyz
x,y,z
x,-y,1/2+z
1/2+x,1/2+y,z
1/2+x,1/2-y,1/2+z
loop_
_atom_site_type_symbol
_atom_site_label
_atom_site_fract_x
_atom_site_fract_y
_atom_site_fract_z
Si Si1 0.464530 0.434439 0.484690
Si Si2 0.889386 0.357911 0.059994
Si Si3 0.363260 0.671887 0.700090
Si Si4 0.650970 0.277101 0.733828
Si Si5 0.571213 0.801377 0.674191
Si Si6 0.702449 0.034343 0.422857
Si Si7 0.685097 0.397878 0.141323
Si Si8 0.956143 0.532882 0.939946
O O1 0.460381 0.375904 0.362945
O O2 0.564724 0.373640 0.636296
O O3 0.297838 0.450385 0.421842
O O4 0.536295 0.542461 0.521779
O O5 0.780172 0.393725 0.087533
O O6 0.019702 0.291977 0.194774
O O7 0.785361 0.298939 0.904683
O O8 0.963777 0.446924 0.038411
O O9 0.225224 0.725329 0.671536
O O10 0.451714 0.750791 0.681394
O O11 0.306051 0.584196 0.584278
O O12 0.661508 0.879257 0.808158
O O13 0.658261 0.710229 0.674698
O O14 0.503366 0.865677 0.528914
O O15 0.559580 0.994379 0.398684
O O16 0.787548 0.457021 0.294542
#
# Coordination Sequence:
#
# PCOD9141047 Si02
#       8
#     4   4   4   4   4   4   4   4
#     4  12  28  47  75 110 149 195 252 305 377 444
#     4  12  28  47  77 108 153 196 249 311 378 444
#     4  12  25  48  76 104 151 196 249 305 373 448
#     4  12  26  49  73 112 143 201 248 308 378 449
#     4  12  28  49  76 110 151 194 250 308 378 446
#     4  12  26  49  75 110 147 195 249 307 374 445
#     4  12  30  46  74 111 149 198 244 312 371 447
#     4  12  27  51  76 109 149 197 249 310 377 449
#
# _framework density 22.211631000000001
#
# number of rings (size 3 to 8) (size 9 to 14) (size 15 to 20)
#    0.000    0.000    5.000    3.750   10.500    0.000 
#    0.000    0.000    0.000    0.000    0.000    0.000 
#    0.000    0.000    0.000    0.000    0.000    0.000 
#
# Total GULP energy -89625.139376 kJ/mol
# GULP energy per Si atom -5601.571211 kJ/mol
# Density = 2.216108 g / cm^3
# Si number density = 22.211631 Si / 1000 Ang^3
#
#
#
# Elastic Constant Matrix: (Units=GPa)
#
#
# Indices 1 2 3 4 5 6 
#
# 1 100.7436 36.5844 9.7445 0.0000 2.2392 0.0000
# 2 36.5844 106.0704 28.5974 0.0000 5.1959 0.0000
# 3 9.7445 28.5974 56.5014 0.0000 12.8556 0.0000
# 4 0.0000 0.0000 0.0000 54.9179 0.0000 3.2572
# 5 2.2392 5.1959 12.8556 0.0000 29.4825 0.0000
# 6 0.0000 0.0000 0.0000 3.2572 0.0000 46.2830
#
#
#
# Elastic Compliance Matrix: (Units=1/GPa)
#
#
# Indices 1 2 3 4 5 6 
#
# 1 0.011349 -0.003925 0.000075 0.000000 -0.000203 0.000000
# 2 -0.003925 0.012282 -0.005678 0.000000 0.000609 0.000000
# 3 0.000075 -0.005678 0.022573 0.000000 -0.008848 0.000000
# 4 0.000000 0.000000 0.000000 0.018285 0.000000 -0.001287
# 5 -0.000203 0.000609 -0.008848 0.000000 0.037684 0.000000
# 6 0.000000 0.000000 0.000000 -0.001287 0.000000 0.021697
#
#
# Mechanical properties :
#
#
# Convention : Reuss Voigt Hill
#
# Bulk Modulus (GPa) = 36.83434 45.90756 41.37095
# Shear Modulus (GPa) = 32.90012 38.69595 35.79803
#
# Velocity S-wave (km/s) = 3.85283 4.17843 4.01893
# Velocity P-wave (km/s) = 6.03421 6.63266 6.34050
#
# Compressibility (1/GPa) = 0.02714858
#
# Stress axis : x y z
#
# Youngs Moduli (GPa) = 88.11661 81.41726 44.30107
#
# Poissons Ratio (x) = 0.31953 -0.00334
# Poissons Ratio (y) = 0.34582 0.25156
# Poissons Ratio (z) = -0.00664 0.46232
#
# Static dielectric constant tensor:
#      x y z
#    x 1.772980 0.000000 0.000480 
#    y 0.000000 1.819670 0.000000 
#    z 0.000480 0.000000 1.829190 
# 
# From -- ./inp_files/16890.got.cif
#   From: 2010.05.17/outbox.cif.g08.bks.cpg/sg9_9_cif.got.tgz:16890.got - 2010.06.03 20:04:27.
