data_PCOD9141791
_publ_section_title
;
Structure prediction by ZEFSAII (Michael W. Deem and Ramdas Pophale) SiO2 
 PCOD9141791
Probable space group: P 2/M
;
_chemical_formula_sum "Si O2"
_cell_formula_units_Z 28
_cell_length_a 10.545802
_cell_length_b 8.733758
_cell_length_c 32.148982
_cell_angle_alpha 90.000000
_cell_angle_beta 32.643342
_cell_angle_gamma 90.000000
_cell_volume 1597.222082
_symmetry_space_group_name_H-M "P 2/M"
_symmetry_group_IT_number 10
_symmetry_cell_setting 'monoclinic'
loop_
_space_group_symop_operation_xyz
x,y,z
-x,y,-z
-x,-y,-z
x,-y,z
loop_
_atom_site_type_symbol
_atom_site_label
_atom_site_fract_x
_atom_site_fract_y
_atom_site_fract_z
Si Si1 0.970785 0.185003 0.417504
Si Si2 0.163705 0.677547 0.996299
Si Si3 0.442252 0.685275 0.170686
Si Si4 0.239373 0.182785 0.843272
Si Si5 0.495323 0.185062 0.403633
Si Si6 0.076991 0.683439 0.661608
Si Si7 0.476939 0.813566 0.313830
O O1 0.756572 0.226676 0.507063
O O2 0.929864 0.254686 0.383467
O O3 0.221884 0.233541 0.366784
O O4 0.974206 0.000000 0.412791
O O5 0.183969 0.500000 0.002888
O O6 0.019560 0.765469 0.071203
O O7 0.414142 0.735549 0.910093
O O8 0.000000 0.683602 0.000000
O O9 0.460753 0.500000 0.167056
O O10 0.578028 0.749873 0.173372
O O11 0.170295 0.728401 0.248508
O O12 0.325693 0.233819 0.773942
O O13 0.253764 0.000000 0.841368
O O14 0.703034 0.250542 0.374324
O O15 0.513446 0.238290 0.350906
O O16 0.509536 0.000000 0.400237
O O17 0.089572 0.500000 0.657302
O O18 0.475539 0.000000 0.315141
#
# Coordination Sequence:
#
# PCOD9141791 Si02
#       7
#     4   4   4   4   4   4   4
#     4  10  19  35  57  77  97 130 174 212 251 301
#     4   8  15  28  45  67  98 131 163 198 242 295
#     4   9  18  32  48  68  98 136 168 198 242 297
#     4  10  17  27  48  77 103 124 158 207 254 293
#     4  10  21  36  54  74 100 136 173 207 250 303
#     4  11  22  35  52  75 105 135 168 211 255 296
#     4   9  18  33  53  77 103 131 167 211 250 296
#
# _framework density 17.530436999999999
#
# number of rings (size 3 to 8) (size 9 to 14) (size 15 to 20)
#    0.000    2.429    1.429    2.571    0.000    7.143 
#    0.000    2.143    0.000    2.571    0.000    6.000 
#    0.000    0.000    0.000    0.000    0.000    0.000 
#
# Total GULP energy -156129.238309 kJ/mol
# GULP energy per Si atom -5576.044225 kJ/mol
# Density = 1.749054 g / cm^3
# Si number density = 17.530437 Si / 1000 Ang^3
#
#
#
# Elastic Constant Matrix: (Units=GPa)
#
#
# Indices 1 2 3 4 5 6 
#
# 1 67.5270 7.1355 21.2415 0.0000 21.2748 0.0000
# 2 7.1355 9.4505 22.3484 0.0000 4.4038 0.0000
# 3 21.2415 22.3484 118.8062 0.0000 27.9413 0.0000
# 4 0.0000 0.0000 0.0000 25.2437 0.0000 -7.2749
# 5 21.2748 4.4038 27.9413 0.0000 10.4209 0.0000
# 6 0.0000 0.0000 0.0000 -7.2749 0.0000 -19.4776
#
#
#
# Elastic Compliance Matrix: (Units=1/GPa)
#
#
# Indices 1 2 3 4 5 6 
#
# 1 -0.070905 0.094535 -0.080546 0.000000 0.320771 0.000000
# 2 0.094535 0.071671 0.059905 0.000000 -0.383907 0.000000
# 3 -0.080546 0.059905 -0.057309 0.000000 0.292783 0.000000
# 4 0.000000 0.000000 0.000000 0.035764 0.000000 -0.013358
# 5 0.320771 -0.383907 0.292783 0.000000 -1.181706 0.000000
# 6 0.000000 0.000000 0.000000 -0.013358 0.000000 -0.046352
#
#
# Mechanical properties :
#
#
# Convention : Reuss Voigt Hill
#
# Bulk Modulus (GPa) = 10.95950 33.02606 21.99278
# Shear Modulus (GPa) = -3.65977 12.90795 4.62409
#
# Velocity S-wave (km/s) = -1.44644 2.71646 1.62588
# Velocity P-wave (km/s) = 1.86432 5.35901 4.01215
#
# Compressibility (1/GPa) = 0.09124501
#
# Stress axis : x y z
#
# Youngs Moduli (GPa) = -14.10345 13.95261 -17.44939
#
# Poissons Ratio (x) = -1.31901 -1.40548
# Poissons Ratio (y) = 1.33327 1.04530
# Poissons Ratio (z) = -1.13598 -0.83583
#
# Static dielectric constant tensor:
#      x y z
#    x 1.552210 0.000000 0.004680 
#    y 0.000000 1.593350 0.000000 
#    z 0.004680 0.000000 1.634420 
# 
# From -- ./inp_files/91944.got.cif
#   From: 2010.05.17/outbox.cif.g08.bks.cpg/sg10_46_cif.got.tgz:91944.got - 2010.06.03 11:33:40.
