data_PCOD9141072
_publ_section_title
;
Structure prediction by ZEFSAII (Michael W. Deem and Ramdas Pophale) SiO2 
 PCOD9141072
Probable space group: C C
;
_chemical_formula_sum "Si O2"
_cell_formula_units_Z 28
_cell_length_a 14.584727
_cell_length_b 11.909925
_cell_length_c 13.583750
_cell_angle_alpha 90.000000
_cell_angle_beta 31.644738
_cell_angle_gamma 90.000000
_cell_volume 1237.933590
_symmetry_space_group_name_H-M "C C"
_symmetry_group_IT_number 9
_symmetry_cell_setting 'monoclinic'
loop_
_space_group_symop_operation_xyz
x,y,z
x,-y,1/2+z
1/2+x,1/2+y,z
1/2+x,1/2-y,1/2+z
loop_
_atom_site_type_symbol
_atom_site_label
_atom_site_fract_x
_atom_site_fract_y
_atom_site_fract_z
Si Si1 0.244560 0.216785 0.259420
Si Si2 0.388150 0.679201 0.831204
Si Si3 0.612999 0.142678 0.239845
Si Si4 0.021241 0.394136 0.368831
Si Si5 0.068916 0.973043 0.025524
Si Si6 0.753342 0.144685 0.310958
Si Si7 0.405051 0.129485 0.751828
O O1 0.300000 0.270331 0.313395
O O2 0.186332 0.314395 0.238581
O O3 0.095991 0.125046 0.420711
O O4 0.395498 0.145481 0.070870
O O5 0.468624 0.779686 0.821737
O O6 0.533668 0.592618 0.660243
O O7 0.248923 0.619296 0.028126
O O8 0.701074 0.199656 0.253905
O O9 0.553809 0.026063 0.340676
O O10 0.944711 0.376190 0.330836
O O11 0.244325 0.047008 0.872006
O O12 0.897153 0.047640 0.163782
O O13 0.581546 0.106191 0.528085
O O14 0.846786 0.243847 0.284013
#
# Coordination Sequence:
#
# PCOD9141072 Si02
#       7
#     4   4   4   4   4   4   4
#     4  12  25  50  78 115 154 204 268 321 396 474
#     4  12  25  50  78 115 154 204 268 321 396 474
#     4  12  27  47  79 112 152 200 259 327 391 466
#     4  12  27  47  79 112 152 200 259 327 391 466
#     4  12  26  48  82 106 164 210 254 332 392 468
#     4  12  26  50  74 113 160 202 261 325 396 464
#     4  12  26  50  74 113 160 202 261 325 396 464
#
# _framework density 22.618337
#
# number of rings (size 3 to 8) (size 9 to 14) (size 15 to 20)
#    0.000    0.000    4.286    5.143    0.000    1.143 
#    0.000    0.000    0.000    0.000    0.000    0.000 
#    0.000    0.000    0.000    0.000    0.000    0.000 
#
# Total GULP energy -78388.594846 kJ/mol
# GULP energy per Si atom -5599.185346 kJ/mol
# Density = 2.256686 g / cm^3
# Si number density = 22.618337 Si / 1000 Ang^3
#
#
#
# Elastic Constant Matrix: (Units=GPa)
#
#
# Indices 1 2 3 4 5 6 
#
# 1 84.3226 14.4022 17.2893 0.0001 -2.6497 0.0000
# 2 14.4022 86.2059 5.4047 0.0000 -17.6694 0.0000
# 3 17.2893 5.4047 89.7434 0.0001 -4.1481 0.0000
# 4 0.0001 0.0000 0.0001 49.4761 -0.0001 1.0196
# 5 -2.6497 -17.6694 -4.1481 -0.0001 37.3225 0.0000
# 6 0.0000 0.0000 0.0000 1.0196 0.0000 33.4375
#
#
#
# Elastic Compliance Matrix: (Units=1/GPa)
#
#
# Indices 1 2 3 4 5 6 
#
# 1 0.012676 -0.002038 -0.002334 0.000000 -0.000324 0.000000
# 2 -0.002038 0.013196 -0.000121 0.000000 0.006089 0.000000
# 3 -0.002334 -0.000121 0.011649 0.000000 0.001072 0.000000
# 4 0.000000 0.000000 0.000000 0.020224 0.000000 -0.000617
# 5 -0.000324 0.006089 0.001072 0.000000 0.029772 0.000000
# 6 0.000000 0.000000 0.000000 -0.000617 0.000000 0.029925
#
#
# Mechanical properties :
#
#
# Convention : Reuss Voigt Hill
#
# Bulk Modulus (GPa) = 35.04366 37.16271 36.10318
# Shear Modulus (GPa) = 36.78060 38.92558 37.85309
#
# Velocity S-wave (km/s) = 4.03692 4.15296 4.09535
# Velocity P-wave (km/s) = 6.10377 6.28189 6.19347
#
# Compressibility (1/GPa) = 0.02853584
#
# Stress axis : x y z
#
# Youngs Moduli (GPa) = 78.89111 75.77900 85.84134
#
# Poissons Ratio (x) = 0.15442 0.20038
# Poissons Ratio (y) = 0.16077 0.01036
# Poissons Ratio (z) = 0.18415 0.00914
#
# Static dielectric constant tensor:
#      x y z
#    x 1.801080 0.000000 -0.054680 
#    y 0.000000 1.851580 0.000000 
#    z -0.054680 0.000000 1.908910 
# 
# From -- ./inp_files/25893.got.cif
#   From: 2010.05.17/outbox.cif.g08.bks.cpg/sg9_13_cif.got.tgz:25893.got - 2010.06.03 20:04:27.
