data_PCOD9141024
_publ_section_title
;
Structure prediction by ZEFSAII (Michael W. Deem and Ramdas Pophale) SiO2 
 PCOD9141024
Probable space group: C C
;
_chemical_formula_sum "Si O2"
_cell_formula_units_Z 16
_cell_length_a 4.633724
_cell_length_b 9.169975
_cell_length_c 14.703007
_cell_angle_alpha 90.000000
_cell_angle_beta 108.370427
_cell_angle_gamma 90.000000
_cell_volume 592.909555
_symmetry_space_group_name_H-M "C C"
_symmetry_group_IT_number 9
_symmetry_cell_setting 'monoclinic'
loop_
_space_group_symop_operation_xyz
x,y,z
x,-y,1/2+z
1/2+x,1/2+y,z
1/2+x,1/2-y,1/2+z
loop_
_atom_site_type_symbol
_atom_site_label
_atom_site_fract_x
_atom_site_fract_y
_atom_site_fract_z
Si Si1 0.621250 0.223990 0.255320
Si Si2 0.661375 0.510958 0.635498
Si Si3 0.249597 0.723982 0.883666
Si Si4 0.529358 0.010964 0.503484
O O1 0.698802 0.326019 0.176949
O O2 0.434447 0.318536 0.311755
O O3 0.949924 0.181470 0.327232
O O4 0.384275 0.096079 0.210694
O O5 0.301657 0.489109 0.602401
O O6 0.735835 0.489113 0.536580
O O7 0.483889 0.826011 0.962039
O O8 0.101867 0.596069 0.928287
#
# Coordination Sequence:
#
# PCOD9141024 Si02
#       4
#     4   4   4   4
#     4  12  26  46  74 110 150 198 250 310 374 446
#     4  12  25  46  73 108 148 196 248 308 373 446
#     4  12  26  46  74 110 150 198 250 310 374 446
#     4  12  25  46  73 108 148 196 248 308 373 446
#
# _framework density 26.985567
#
# number of rings (size 3 to 8) (size 9 to 14) (size 15 to 20)
#    0.000    0.000    0.000   10.500    0.000    4.000 
#    0.000    0.000    0.000    0.000    0.000    0.000 
#    0.000    0.000    0.000    0.000    0.000    0.000 
#
# Total GULP energy -44845.268262 kJ/mol
# GULP energy per Si atom -5605.658533 kJ/mol
# Density = 2.692415 g / cm^3
# Si number density = 26.985567 Si / 1000 Ang^3
#
#
#
# Elastic Constant Matrix: (Units=GPa)
#
#
# Indices 1 2 3 4 5 6 
#
# 1 145.9627 37.5070 38.5426 0.0000 0.0053 0.0000
# 2 37.5070 142.5978 35.3370 0.0000 -0.0664 0.0000
# 3 38.5426 35.3370 74.2983 0.0000 -1.9541 0.0000
# 4 0.0000 0.0000 0.0000 45.9766 0.0000 -0.0970
# 5 0.0053 -0.0664 -1.9541 0.0000 53.7977 0.0000
# 6 0.0000 0.0000 0.0000 -0.0970 0.0000 49.5667
#
#
#
# Elastic Compliance Matrix: (Units=1/GPa)
#
#
# Indices 1 2 3 4 5 6 
#
# 1 0.008128 -0.001238 -0.003631 0.000000 -0.000134 0.000000
# 2 -0.001238 0.008139 -0.003232 0.000000 -0.000107 0.000000
# 3 -0.003631 -0.003232 0.016896 0.000000 0.000610 0.000000
# 4 0.000000 0.000000 0.000000 0.021750 0.000000 0.000043
# 5 -0.000134 -0.000107 0.000610 0.000000 0.018610 0.000000
# 6 0.000000 0.000000 0.000000 0.000043 0.000000 0.020175
#
#
# Mechanical properties :
#
#
# Convention : Reuss Voigt Hill
#
# Bulk Modulus (GPa) = 58.95724 65.07022 62.01373
# Shear Modulus (GPa) = 43.26979 46.63303 44.95141
#
# Velocity S-wave (km/s) = 4.00864 4.16152 4.08580
# Velocity P-wave (km/s) = 6.58185 6.87432 6.72968
#
# Compressibility (1/GPa) = 0.01696145
#
# Stress axis : x y z
#
# Youngs Moduli (GPa) = 123.03066 122.86282 59.18576
#
# Poissons Ratio (x) = 0.15212 0.21491
# Poissons Ratio (y) = 0.15233 0.19126
# Poissons Ratio (z) = 0.44674 0.39704
#
# Static dielectric constant tensor:
#      x y z
#    x 1.996270 0.000000 0.003550 
#    y 0.000000 2.109780 0.000000 
#    z 0.003550 0.000000 2.127000 
# 
# From -- ./inp_files/21524.got.cif
#   From: 2010.05.17/outbox.cif.g08.bks.cpg/sg9_11_cif.got.tgz:21524.got - 2010.06.03 20:04:27.
