data_PCOD9141970
_publ_section_title
;
Structure prediction by ZEFSAII (Michael W. Deem and Ramdas Pophale) SiO2 
 PCOD9141970
Probable space group: P 2/M
;
_chemical_formula_sum "Si O2"
_cell_formula_units_Z 32
_cell_length_a 17.413878
_cell_length_b 7.760471
_cell_length_c 17.629242
_cell_angle_alpha 90.000000
_cell_angle_beta 49.928696
_cell_angle_gamma 90.000000
_cell_volume 1823.127735
_symmetry_space_group_name_H-M "P 2/M"
_symmetry_group_IT_number 10
_symmetry_cell_setting 'monoclinic'
loop_
_space_group_symop_operation_xyz
x,y,z
-x,y,-z
-x,-y,-z
x,-y,z
loop_
_atom_site_type_symbol
_atom_site_label
_atom_site_fract_x
_atom_site_fract_y
_atom_site_fract_z
Si Si1 0.403607 0.211828 0.010323
Si Si2 0.555276 0.199829 0.184096
Si Si3 0.199114 0.798703 0.528488
Si Si4 0.668876 0.698220 0.693988
Si Si5 0.780128 0.800951 0.773387
Si Si6 0.348882 0.790738 0.556042
Si Si7 0.559915 0.788991 0.346943
Si Si8 0.997838 0.300526 0.587690
O O1 0.299315 0.267531 0.114783
O O2 0.405197 0.000000 0.009827
O O3 0.500000 0.264361 0.000000
O O4 0.412287 0.272583 0.917991
O O5 0.434627 0.210576 0.260614
O O6 0.586326 0.274655 0.246002
O O7 0.586877 0.000000 0.163495
O O8 0.255724 0.705235 0.424140
O O9 0.248397 0.737779 0.575997
O O10 0.081301 0.780379 0.589020
O O11 0.225130 0.000000 0.504289
O O12 0.647789 0.500000 0.727221
O O13 0.720869 0.788121 0.731885
O O14 0.886801 0.712979 0.692297
O O15 0.801033 0.000000 0.777897
O O16 0.446702 0.739731 0.444231
O O17 0.368467 0.732566 0.629651
O O18 0.350163 0.000000 0.558630
O O19 0.560273 0.000000 0.344167
O O20 0.026506 0.500000 0.562149
O O21 0.000000 0.226415 0.500000
#
# Coordination Sequence:
#
# PCOD9141970 Si02
#       8
#     4   4   4   4   4   4   4   4
#     4   9  17  29  48  74  97 119 159 204 232 266
#     4  10  17  30  50  70  94 132 166 192 232 282
#     4  11  20  32  51  71  92 128 167 195 231 282
#     4  12  22  30  43  68 101 130 160 199 235 273
#     4  11  21  35  52  68  92 127 166 200 231 276
#     4   8  14  24  42  72  99 119 153 197 232 273
#     4   8  13  23  43  71  99 123 152 192 235 276
#     4  11  23  36  49  70  99 124 153 198 241 280
#
# _framework density 17.552254000000001
#
# number of rings (size 3 to 8) (size 9 to 14) (size 15 to 20)
#    0.000    2.000    3.750    3.000    0.000    0.500 
#    0.000    1.875    0.000    2.250    0.000    0.875 
#    0.000    7.000    0.000    0.000    0.000    0.000 
#
# Total GULP energy -178453.537833 kJ/mol
# GULP energy per Si atom -5576.673057 kJ/mol
# Density = 1.751230 g / cm^3
# Si number density = 17.552254 Si / 1000 Ang^3
#
#
#
# Elastic Constant Matrix: (Units=GPa)
#
#
# Indices 1 2 3 4 5 6 
#
# 1 122.9838 1.8210 70.3395 0.0000 21.5275 0.0000
# 2 1.8210 32.2553 -3.1383 0.0000 0.6254 0.0000
# 3 70.3395 -3.1383 117.4385 0.0000 16.9312 0.0000
# 4 0.0000 0.0000 0.0000 -69.3976 0.0000 -22.6095
# 5 21.5275 0.6254 16.9312 0.0000 28.7752 0.0000
# 6 0.0000 0.0000 0.0000 -22.6095 0.0000 -22.1620
#
#
#
# Elastic Compliance Matrix: (Units=1/GPa)
#
#
# Indices 1 2 3 4 5 6 
#
# 1 0.013227 -0.001332 -0.007141 0.000000 -0.005665 0.000000
# 2 -0.001332 0.031260 0.001734 0.000000 -0.000704 0.000000
# 3 -0.007141 0.001734 0.013193 0.000000 -0.002458 0.000000
# 4 0.000000 0.000000 0.000000 -0.021584 0.000000 0.022019
# 5 -0.005665 -0.000704 -0.002458 0.000000 0.040452 0.000000
# 6 0.000000 0.000000 0.000000 0.022019 0.000000 -0.067586
#
#
# Mechanical properties :
#
#
# Convention : Reuss Voigt Hill
#
# Bulk Modulus (GPa) = 22.62276 45.63578 34.12927
# Shear Modulus (GPa) = 134.50799 1.02013 67.76406
#
# Velocity S-wave (km/s) = 8.76352 0.76319 6.22020
# Velocity P-wave (km/s) = 10.73852 5.18006 8.43056
#
# Compressibility (1/GPa) = 0.04420327
#
# Stress axis : x y z
#
# Youngs Moduli (GPa) = 75.60502 31.98953 75.79839
#
# Poissons Ratio (x) = 0.04260 0.54128
# Poissons Ratio (y) = 0.10068 -0.13146
# Poissons Ratio (z) = 0.53989 -0.05548
#
# Static dielectric constant tensor:
#      x y z
#    x 1.604730 0.000000 0.028280 
#    y 0.000000 1.634730 0.000000 
#    z 0.028280 0.000000 1.595290 
# 
# From -- ./inp_files/78518.got.cif
#   From: 2010.05.17/outbox.cif.g08.bks.cpg/sg10_40_cif.got.tgz:78518.got - 2010.06.03 11:33:40.
