data_PCOD9141020
_publ_section_title
;
Structure prediction by ZEFSAII (Michael W. Deem and Ramdas Pophale) SiO2 
 PCOD9141020
Probable space group: C C
;
_chemical_formula_sum "Si O2"
_cell_formula_units_Z 24
_cell_length_a 19.526658
_cell_length_b 8.292818
_cell_length_c 9.126192
_cell_angle_alpha 90.000000
_cell_angle_beta 141.733655
_cell_angle_gamma 90.000000
_cell_volume 915.236489
_symmetry_space_group_name_H-M "C C"
_symmetry_group_IT_number 9
_symmetry_cell_setting 'monoclinic'
loop_
_space_group_symop_operation_xyz
x,y,z
x,-y,1/2+z
1/2+x,1/2+y,z
1/2+x,1/2-y,1/2+z
loop_
_atom_site_type_symbol
_atom_site_label
_atom_site_fract_x
_atom_site_fract_y
_atom_site_fract_z
Si Si1 0.489680 0.646358 0.186550
Si Si2 0.191895 0.031990 0.890879
Si Si3 0.361077 0.527372 0.235214
Si Si4 0.825259 0.632512 0.842240
Si Si5 0.504536 0.003843 0.844304
Si Si6 0.136653 0.607093 0.332901
O O1 0.604168 0.604113 0.295044
O O2 0.459698 0.548008 0.283545
O O3 0.477522 0.826341 0.223364
O O4 0.397295 0.604305 0.913360
O O5 0.224131 0.069546 0.776875
O O6 0.138283 0.201446 0.843765
O O7 0.304148 0.985659 0.167193
O O8 0.335000 0.693823 0.278960
O O9 0.252670 0.461614 0.973019
O O10 0.922481 0.621801 0.127536
O O11 0.621892 0.956049 0.970973
O O12 0.536832 0.040143 0.065169
#
# Coordination Sequence:
#
# PCOD9141020 Si02
#       6
#     4   4   4   4   4   4
#     4  12  25  45  73 107 143 187 240 298 357 428
#     4  12  25  45  73 107 143 187 240 298 357 428
#     4  12  26  48  74 105 144 189 241 297 360 429
#     4  12  26  48  74 105 144 189 241 297 360 429
#     4  12  26  45  69 102 141 186 236 293 356 425
#     4  12  26  45  69 102 141 186 236 293 356 425
#
# _framework density 26.222729999999999
#
# number of rings (size 3 to 8) (size 9 to 14) (size 15 to 20)
#    0.000    0.000    0.000   12.000    0.000    5.333 
#    0.000    1.667    0.000    0.000    0.000    0.000 
#    0.000    0.000    0.000    0.000    0.000    0.000 
#
# Total GULP energy -67090.499741 kJ/mol
# GULP energy per Si atom -5590.874978 kJ/mol
# Density = 2.616305 g / cm^3
# Si number density = 26.222730 Si / 1000 Ang^3
#
#
#
# Elastic Constant Matrix: (Units=GPa)
#
#
# Indices 1 2 3 4 5 6 
#
# 1 47.7987 -4.4483 -1.0006 0.0000 -8.7084 0.0000
# 2 -4.4483 29.2528 19.4559 0.0000 -14.6829 0.0000
# 3 -1.0006 19.4559 150.5746 0.0000 5.3954 0.0000
# 4 0.0000 0.0000 0.0000 35.8395 0.0000 3.4032
# 5 -8.7084 -14.6829 5.3954 0.0000 48.0723 0.0000
# 6 0.0000 0.0000 0.0000 3.4032 0.0000 34.9280
#
#
#
# Elastic Compliance Matrix: (Units=1/GPa)
#
#
# Indices 1 2 3 4 5 6 
#
# 1 0.022776 0.007424 -0.001041 0.000000 0.006510 0.000000
# 2 0.007424 0.048295 -0.006795 0.000000 0.016858 0.000000
# 3 -0.001041 -0.006795 0.007624 0.000000 -0.003120 0.000000
# 4 0.000000 0.000000 0.000000 0.028163 0.000000 -0.002744
# 5 0.006510 0.016858 -0.003120 0.000000 0.027481 0.000000
# 6 0.000000 0.000000 0.000000 -0.002744 0.000000 0.028898
#
#
# Mechanical properties :
#
#
# Convention : Reuss Voigt Hill
#
# Bulk Modulus (GPa) = 12.84190 28.40445 20.62318
# Shear Modulus (GPa) = 26.31336 38.00924 32.16130
#
# Velocity S-wave (km/s) = 3.17117 3.81133 3.50589
# Velocity P-wave (km/s) = 4.27976 5.49762 4.92647
#
# Compressibility (1/GPa) = 0.07787010
#
# Stress axis : x y z
#
# Youngs Moduli (GPa) = 43.90539 20.70622 131.16350
#
# Poissons Ratio (x) = -0.15372 0.13656
# Poissons Ratio (y) = -0.32594 0.89125
# Poissons Ratio (z) = 0.04571 0.14070
#
# Static dielectric constant tensor:
#      x y z
#    x 2.232860 0.000000 0.069160 
#    y 0.000000 1.977750 0.000000 
#    z 0.069160 0.000000 2.086230 
# 
# From -- ./inp_files/6734.got.cif
#   From: 2010.05.17/outbox.cif.g08.bks.cpg/sg9_4_cif.got.tgz:6734.got - 2010.06.03 20:04:27.
