data_PCOD9141620
_publ_section_title
;
Structure prediction by ZEFSAII (Michael W. Deem and Ramdas Pophale) SiO2 
 PCOD9141620
Probable space group: P 2/M
;
_chemical_formula_sum "Si O2"
_cell_formula_units_Z 32
_cell_length_a 22.415385
_cell_length_b 8.033229
_cell_length_c 12.046600
_cell_angle_alpha 90.000000
_cell_angle_beta 57.600781
_cell_angle_gamma 90.000000
_cell_volume 1831.537227
_symmetry_space_group_name_H-M "P 2/M"
_symmetry_group_IT_number 10
_symmetry_cell_setting 'monoclinic'
loop_
_space_group_symop_operation_xyz
x,y,z
-x,y,-z
-x,-y,-z
x,-y,z
loop_
_atom_site_type_symbol
_atom_site_label
_atom_site_fract_x
_atom_site_fract_y
_atom_site_fract_z
Si Si1 0.427983 0.190962 0.433350
Si Si2 0.862500 0.200646 0.874113
Si Si3 0.000518 0.796242 0.126863
Si Si4 0.274237 0.798646 0.856325
Si Si5 0.136625 0.799488 0.601195
Si Si6 0.424289 0.308708 0.684418
Si Si7 0.726478 0.796082 0.401899
Si Si8 0.918489 0.301437 0.581152
O O1 0.424818 0.200114 0.571352
O O2 0.501377 0.278224 0.328910
O O3 0.350888 0.260121 0.478792
O O4 0.432844 0.000000 0.393157
O O5 0.929299 0.259841 0.879841
O O6 0.877956 0.247167 0.732275
O O7 0.861504 0.000000 0.881951
O O8 0.789653 0.259778 0.002215
O O9 0.930716 0.739996 0.260745
O O10 0.000515 0.000000 0.127964
O O11 0.000000 0.743601 0.000000
O O12 0.351256 0.735258 0.816619
O O13 0.263363 0.747302 0.737728
O O14 0.275390 0.000000 0.856253
O O15 0.209129 0.739996 0.585307
O O16 0.122052 0.753970 0.488886
O O17 0.137776 0.000000 0.607630
O O18 0.422217 0.500000 0.650598
O O19 0.724772 0.000000 0.403819
O O20 0.922557 0.500000 0.576578
O O21 0.000000 0.235955 0.500000
#
# Coordination Sequence:
#
# PCOD9141620 Si02
#       8
#     4   4   4   4   4   4   4   4
#     4   9  15  26  43  64  95 130 162 194 236 279
#     4  10  19  32  52  74  92 120 162 202 239 283
#     4   9  16  26  46  75  99 118 147 192 239 280
#     4   9  17  30  47  70 101 128 155 193 243 291
#     4  10  18  31  52  73  94 120 159 201 238 281
#     4  10  17  25  40  65  96 130 167 194 225 276
#     4   8  15  27  46  73 100 125 152 193 241 287
#     4  11  23  37  50  65  92 127 163 204 245 282
#
# _framework density 17.471662999999999
#
# number of rings (size 3 to 8) (size 9 to 14) (size 15 to 20)
#    0.000    2.500    1.250    4.125    0.000    4.000 
#    0.000    3.125    0.000    3.000    0.000    0.875 
#    0.000    7.000    0.000    0.000    0.000    0.000 
#
# Total GULP energy -178350.115811 kJ/mol
# GULP energy per Si atom -5573.441119 kJ/mol
# Density = 1.743190 g / cm^3
# Si number density = 17.471663 Si / 1000 Ang^3
#
#
#
# Elastic Constant Matrix: (Units=GPa)
#
#
# Indices 1 2 3 4 5 6 
#
# 1 146.0458 13.0712 110.0343 0.0000 -36.0775 0.0000
# 2 13.0712 19.9032 6.5702 0.0000 -5.5998 0.0000
# 3 110.0343 6.5702 111.4663 0.0000 -9.8572 0.0000
# 4 0.0000 0.0000 0.0000 -41.8412 0.0000 -24.7911
# 5 -36.0775 -5.5998 -9.8572 0.0000 31.6057 0.0000
# 6 0.0000 0.0000 0.0000 -24.7911 0.0000 -6.1774
#
#
#
# Elastic Compliance Matrix: (Units=1/GPa)
#
#
# Indices 1 2 3 4 5 6 
#
# 1 0.068679 -0.008387 -0.062217 0.000000 0.057506 0.000000
# 2 -0.008387 0.054510 0.005217 0.000000 0.001712 0.000000
# 3 -0.062217 0.005217 0.065695 0.000000 -0.049606 0.000000
# 4 0.000000 0.000000 0.000000 0.017346 0.000000 -0.069613
# 5 0.057506 0.001712 -0.049606 0.000000 0.082114 0.000000
# 6 0.000000 0.000000 0.000000 -0.069613 0.000000 0.117489
#
#
# Mechanical properties :
#
#
# Convention : Reuss Voigt Hill
#
# Bulk Modulus (GPa) = 17.20831 59.64073 38.42452
# Shear Modulus (GPa) = 8.99320 6.56675 7.77998
#
# Velocity S-wave (km/s) = 2.27123 1.94079 2.11248
# Velocity P-wave (km/s) = 4.09251 6.26355 5.29059
#
# Compressibility (1/GPa) = 0.05811144
#
# Stress axis : x y z
#
# Youngs Moduli (GPa) = 14.56050 18.34510 15.22196
#
# Poissons Ratio (x) = 0.15385 0.94706
# Poissons Ratio (y) = 0.12211 -0.07942
# Poissons Ratio (z) = 0.90591 -0.09571
#
# Static dielectric constant tensor:
#      x y z
#    x 1.619490 0.000000 -0.039910 
#    y 0.000000 1.607530 0.000000 
#    z -0.039910 0.000000 1.577040 
# 
# From -- ./inp_files/54835.got.cif
#   From: 2010.05.17/outbox.cif.g08.bks.cpg/sg10_28_cif.got.tgz:54835.got - 2010.06.03 11:33:40.
