data_PCOD9141006
_publ_section_title
;
Structure prediction by ZEFSAII (Michael W. Deem and Ramdas Pophale) SiO2 
 PCOD9141006
Probable space group: C C
;
_chemical_formula_sum "Si O2"
_cell_formula_units_Z 28
_cell_length_a 21.609229
_cell_length_b 7.625577
_cell_length_c 8.889194
_cell_angle_alpha 90.000000
_cell_angle_beta 44.285193
_cell_angle_gamma 90.000000
_cell_volume 1022.758415
_symmetry_space_group_name_H-M "C C"
_symmetry_group_IT_number 9
_symmetry_cell_setting 'monoclinic'
loop_
_space_group_symop_operation_xyz
x,y,z
x,-y,1/2+z
1/2+x,1/2+y,z
1/2+x,1/2-y,1/2+z
loop_
_atom_site_type_symbol
_atom_site_label
_atom_site_fract_x
_atom_site_fract_y
_atom_site_fract_z
Si Si1 0.709130 0.037872 0.610270
Si Si2 0.274529 0.288319 0.696590
Si Si3 0.516349 0.926099 0.529321
Si Si4 0.723819 0.683407 0.278753
Si Si5 0.928448 0.281354 0.386450
Si Si6 0.471148 0.365447 0.348869
Si Si7 0.142106 0.075252 0.732738
O O1 0.744845 0.148532 0.412367
O O2 0.713759 0.109032 0.776704
O O3 0.777374 0.882756 0.525694
O O4 0.604938 0.005838 0.787583
O O5 0.379354 0.264401 0.542621
O O6 0.192337 0.162565 0.788396
O O7 0.457291 0.843724 0.501240
O O8 0.518345 0.767094 0.648793
O O9 0.479469 0.096754 0.679035
O O10 0.695952 0.618101 0.488302
O O11 0.660668 0.621313 0.252543
O O12 0.825509 0.661149 0.056683
O O13 0.946766 0.069403 0.343978
O O14 0.541317 0.391431 0.362530
#
# Coordination Sequence:
#
# PCOD9141006 Si02
#       7
#     4   4   4   4   4   4   4
#     4  12  26  52  77 114 169 218 276 352 428 504
#     4  12  28  51  85 118 167 227 281 355 433 507
#     4  12  29  54  81 129 166 230 288 357 427 518
#     4  12  24  50  77 115 169 211 274 345 425 503
#     4  12  28  52  87 123 175 223 289 354 428 516
#     4  12  29  53  90 126 174 223 296 354 432 523
#     4  12  28  50  83 121 166 220 280 355 425 517
#
# _framework density 27.376944000000002
#
# number of rings (size 3 to 8) (size 9 to 14) (size 15 to 20)
#    0.000    0.000    2.857    6.000    4.000    3.429 
#    2.571    0.000    0.000    0.000    0.000    0.000 
#    0.000    0.000    0.000    0.000    0.000    0.000 
#
# Total GULP energy -78123.817139 kJ/mol
# GULP energy per Si atom -5580.272653 kJ/mol
# Density = 2.731463 g / cm^3
# Si number density = 27.376944 Si / 1000 Ang^3
#
#
#
# Elastic Constant Matrix: (Units=GPa)
#
#
# Indices 1 2 3 4 5 6 
#
# 1 182.5048 49.3186 71.5921 0.0000 -19.8249 0.0000
# 2 49.3186 82.0761 33.9455 0.0000 11.2502 0.0000
# 3 71.5921 33.9455 137.1541 0.0000 -17.4914 0.0000
# 4 0.0000 0.0000 0.0000 28.7124 0.0000 32.1773
# 5 -19.8249 11.2502 -17.4914 0.0000 53.8649 0.0000
# 6 0.0000 0.0000 0.0000 32.1773 0.0000 85.6864
#
#
#
# Elastic Compliance Matrix: (Units=1/GPa)
#
#
# Indices 1 2 3 4 5 6 
#
# 1 0.007979 -0.004029 -0.002802 0.000000 0.002868 0.000000
# 2 -0.004029 0.016532 -0.002731 0.000000 -0.005823 0.000000
# 3 -0.002802 -0.002731 0.009776 0.000000 0.002714 0.000000
# 4 0.000000 0.000000 0.000000 0.060136 0.000000 -0.022582
# 5 0.002868 -0.005823 0.002714 0.000000 0.021718 0.000000
# 6 0.000000 0.000000 0.000000 -0.022582 0.000000 0.020151
#
#
# Mechanical properties :
#
#
# Convention : Reuss Voigt Hill
#
# Bulk Modulus (GPa) = 65.95059 79.04972 72.50016
# Shear Modulus (GPa) = 31.15872 50.11135 40.63503
#
# Velocity S-wave (km/s) = 3.37729 4.28298 3.85681
# Velocity P-wave (km/s) = 6.27298 7.30725 6.80978
#
# Compressibility (1/GPa) = 0.01516287
#
# Stress axis : x y z
#
# Youngs Moduli (GPa) = 125.33514 60.48753 102.29448
#
# Poissons Ratio (x) = 0.24368 0.28661
# Poissons Ratio (y) = 0.50492 0.27941
# Poissons Ratio (z) = 0.35117 0.16522
#
# Static dielectric constant tensor:
#      x y z
#    x 2.107100 0.000000 -0.049850 
#    y 0.000000 1.279960 0.000000 
#    z -0.049850 0.000000 2.038180 
# 
# From -- ./inp_files/11416.got.cif
#   From: 2010.05.17/outbox.cif.g08.bks.cpg/sg9_6_cif.got.tgz:11416.got - 2010.06.03 20:04:27.
