data_PCOD9141185
_publ_section_title
;
Structure prediction by ZEFSAII (Michael W. Deem and Ramdas Pophale) SiO2 
 PCOD9141185
Probable space group: C C
;
_chemical_formula_sum "Si O2"
_cell_formula_units_Z 24
_cell_length_a 26.225590
_cell_length_b 4.703274
_cell_length_c 13.178610
_cell_angle_alpha 90.000000
_cell_angle_beta 148.169457
_cell_angle_gamma 90.000000
_cell_volume 857.319116
_symmetry_space_group_name_H-M "C C"
_symmetry_group_IT_number 9
_symmetry_cell_setting 'monoclinic'
loop_
_space_group_symop_operation_xyz
x,y,z
x,-y,1/2+z
1/2+x,1/2+y,z
1/2+x,1/2-y,1/2+z
loop_
_atom_site_type_symbol
_atom_site_label
_atom_site_fract_x
_atom_site_fract_y
_atom_site_fract_z
Si Si1 0.114560 0.868707 0.070040
Si Si2 0.728446 0.525208 0.567333
Si Si3 0.414323 0.071960 0.688440
Si Si4 0.501632 0.223142 0.524242
Si Si5 0.731789 0.011995 0.925855
Si Si6 0.922271 0.244502 0.495938
O O1 0.180959 0.636444 0.241850
O O2 0.168153 0.019930 0.067615
O O3 0.078199 0.098117 0.089357
O O4 0.017122 0.731265 0.860579
O O5 0.825228 0.795783 0.548476
O O6 0.742723 0.248676 0.523217
O O7 0.825777 0.324128 0.272004
O O8 0.404903 0.862121 0.577882
O O9 0.429929 0.869146 0.811437
O O10 0.448357 0.421589 0.516739
O O11 0.679210 0.240357 0.911643
O O12 0.511053 0.920753 0.596252
#
# Coordination Sequence:
#
# PCOD9141185 Si02
#       6
#     4   4   4   4   4   4
#     4  12  32  53  89 132 179 235 304 374 461 543
#     4  12  30  51  85 130 171 232 302 367 461 535
#     4  12  31  57  91 128 182 242 303 377 465 552
#     4  12  28  55  80 132 170 231 299 366 458 541
#     4  12  32  56  87 127 183 233 300 383 449 555
#     4  12  29  50  92 121 173 235 298 367 458 546
#
# _framework density 27.994242
#
# number of rings (size 3 to 8) (size 9 to 14) (size 15 to 20)
#    0.000    0.000    3.333    2.000   18.667    0.000 
#    0.000    0.000    0.000    0.000    0.000    0.000 
#    0.000    0.000    0.000    0.000    0.000    0.000 
#
# Total GULP energy -67263.625498 kJ/mol
# GULP energy per Si atom -5605.302125 kJ/mol
# Density = 2.793053 g / cm^3
# Si number density = 27.994242 Si / 1000 Ang^3
#
#
#
# Elastic Constant Matrix: (Units=GPa)
#
#
# Indices 1 2 3 4 5 6 
#
# 1 126.4956 38.5596 38.6087 0.0001 -4.2263 0.0000
# 2 38.5596 159.6153 29.6681 0.0009 -5.3169 0.0003
# 3 38.6087 29.6681 120.2062 -0.0002 -3.3751 0.0001
# 4 0.0001 0.0009 -0.0002 61.8406 -0.0001 -0.9256
# 5 -4.2263 -5.3169 -3.3751 -0.0001 51.5596 0.0002
# 6 0.0000 0.0003 0.0001 -0.9256 0.0002 58.7971
#
#
#
# Elastic Compliance Matrix: (Units=1/GPa)
#
#
# Indices 1 2 3 4 5 6 
#
# 1 0.009220 -0.001745 -0.002519 0.000000 0.000411 0.000000
# 2 -0.001745 0.006914 -0.001132 0.000000 0.000496 0.000000
# 3 -0.002519 -0.001132 0.009416 0.000000 0.000293 0.000000
# 4 0.000000 0.000000 0.000000 0.016174 0.000000 0.000255
# 5 0.000411 0.000496 0.000293 0.000000 0.019499 0.000000
# 6 0.000000 0.000000 0.000000 0.000255 0.000000 0.017012
#
#
# Mechanical properties :
#
#
# Convention : Reuss Voigt Hill
#
# Bulk Modulus (GPa) = 67.76556 68.88778 68.32667
# Shear Modulus (GPa) = 53.22204 54.40482 53.81343
#
# Velocity S-wave (km/s) = 4.36498 4.41322 4.38916
# Velocity P-wave (km/s) = 7.04724 7.11547 7.08144
#
# Compressibility (1/GPa) = 0.01475676
#
# Stress axis : x y z
#
# Youngs Moduli (GPa) = 108.45908 144.64203 106.20561
#
# Poissons Ratio (x) = 0.25247 0.26754
# Poissons Ratio (y) = 0.18931 0.12020
# Poissons Ratio (z) = 0.27321 0.16371
#
# Static dielectric constant tensor:
#      x y z
#    x 2.183480 0.000000 0.111710 
#    y 0.000000 2.157060 0.000000 
#    z 0.111710 0.000000 2.513710 
# 
# From -- ./inp_files/27179.got.cif
#   From: 2010.05.17/outbox.cif.g08.bks.cpg/sg9_14_cif.got.tgz:27179.got - 2010.06.03 20:04:27.
