data_PCOD9141196
_publ_section_title
;
Structure prediction by ZEFSAII (Michael W. Deem and Ramdas Pophale) SiO2 
 PCOD9141196
Probable space group: C C
;
_chemical_formula_sum "Si O2"
_cell_formula_units_Z 32
_cell_length_a 17.238192
_cell_length_b 7.596577
_cell_length_c 22.601702
_cell_angle_alpha 90.000000
_cell_angle_beta 156.328634
_cell_angle_gamma 90.000000
_cell_volume 1188.298809
_symmetry_space_group_name_H-M "C C"
_symmetry_group_IT_number 9
_symmetry_cell_setting 'monoclinic'
loop_
_space_group_symop_operation_xyz
x,y,z
x,-y,1/2+z
1/2+x,1/2+y,z
1/2+x,1/2-y,1/2+z
loop_
_atom_site_type_symbol
_atom_site_label
_atom_site_fract_x
_atom_site_fract_y
_atom_site_fract_z
Si Si1 0.299490 0.861735 0.137980
Si Si2 0.194143 0.539715 0.905841
Si Si3 0.251925 0.361738 0.311177
Si Si4 0.357275 0.039716 0.543318
Si Si5 0.544445 0.339050 0.158499
Si Si6 0.506973 0.660950 0.790661
Si Si7 0.602672 0.274409 0.493809
Si Si8 0.948746 0.225593 0.455351
O O1 0.519166 0.856501 0.314786
O O2 0.319831 0.875497 0.081432
O O3 0.211254 0.052047 0.095506
O O4 0.137629 0.731151 0.049227
O O5 0.231582 0.624499 0.867724
O O6 0.100971 0.343923 0.833342
O O7 0.401389 0.495119 0.078064
O O8 0.413790 0.231156 0.399934
O O9 0.340162 0.552051 0.353651
O O10 0.032251 0.356501 0.134371
O O11 0.450449 0.843925 0.615819
O O12 0.150028 0.995119 0.371096
O O13 0.767562 0.356572 0.331057
O O14 0.522479 0.322050 0.072249
O O15 0.283856 0.643431 0.618103
O O16 0.528939 0.677951 0.876911
#
# Coordination Sequence:
#
# PCOD9141196 Si02
#       8
#     4   4   4   4   4   4   4   4
#     4   8  14  26  44  66  87 121 158 186 221 289
#     4   8  14  25  44  64  86 114 158 192 218 263
#     4   8  14  26  44  66  87 121 158 186 221 289
#     4   8  14  25  44  64  86 114 158 192 218 263
#     4   9  16  26  44  71  92 116 154 201 232 270
#     4   9  16  26  44  71  92 116 154 201 232 270
#     4   9  16  26  44  67  93 117 154 195 235 271
#     4   9  16  26  44  67  93 117 154 195 235 271
#
# _framework density 26.929252999999999
#
# number of rings (size 3 to 8) (size 9 to 14) (size 15 to 20)
#    0.000    3.500    0.000    1.500    0.000    3.000 
#    0.000    0.000    0.000   33.000    0.000    0.000 
#    0.000    0.000    0.000    0.000    0.000    0.000 
#
# Total GULP energy -89342.303528 kJ/mol
# GULP energy per Si atom -5583.893971 kJ/mol
# Density = 2.686796 g / cm^3
# Si number density = 26.929253 Si / 1000 Ang^3
#
#
#
# Elastic Constant Matrix: (Units=GPa)
#
#
# Indices 1 2 3 4 5 6 
#
# 1 142.6321 17.5605 97.6759 0.0011 41.4876 0.0002
# 2 17.5605 87.7746 33.0355 0.0059 13.9178 0.0001
# 3 97.6759 33.0355 184.0411 0.0112 56.1431 0.0001
# 4 0.0011 0.0059 0.0112 17.1811 -0.0001 8.1490
# 5 41.4876 13.9178 56.1431 -0.0001 60.7316 -0.0007
# 6 0.0002 0.0001 0.0001 8.1490 -0.0007 19.9872
#
#
#
# Elastic Compliance Matrix: (Units=1/GPa)
#
#
# Indices 1 2 3 4 5 6 
#
# 1 0.011410 0.000140 -0.005144 0.000003 -0.003071 -0.000002
# 2 0.000140 0.012271 -0.001936 -0.000004 -0.001118 0.000001
# 3 -0.005144 -0.001936 0.010172 -0.000007 -0.005446 0.000003
# 4 0.000003 -0.000004 -0.000007 0.072157 0.000005 -0.029419
# 5 -0.003071 -0.001118 -0.005446 0.000005 0.023855 -0.000001
# 6 -0.000002 0.000001 0.000003 -0.029419 -0.000001 0.062026
#
#
# Mechanical properties :
#
#
# Convention : Reuss Voigt Hill
#
# Bulk Modulus (GPa) = 50.06480 78.99906 64.53193
# Shear Modulus (GPa) = 23.53742 37.32504 30.43123
#
# Velocity S-wave (km/s) = 2.95963 3.72700 3.36526
# Velocity P-wave (km/s) = 5.50553 6.92244 6.25424
#
# Compressibility (1/GPa) = 0.01997411
#
# Stress axis : x y z
#
# Youngs Moduli (GPa) = 87.64598 81.49504 98.30520
#
# Poissons Ratio (x) = -0.01143 0.50564
# Poissons Ratio (y) = -0.01229 0.19031
# Poissons Ratio (z) = 0.45082 0.15777
#
# Static dielectric constant tensor:
#      x y z
#    x 2.077570 0.000000 0.043090 
#    y 0.000000 2.115100 0.000000 
#    z 0.043090 0.000000 2.178950 
# 
# From -- ./inp_files/19237.got.cif
#   From: 2010.05.17/outbox.cif.g08.bks.cpg/sg9_10_cif.got.tgz:19237.got - 2010.06.03 20:04:27.
