data_PCOD9141495
_publ_section_title
;
Structure prediction by ZEFSAII (Michael W. Deem and Ramdas Pophale) SiO2 
 PCOD9141495
Probable space group: P 2/M
;
_chemical_formula_sum "Si O2"
_cell_formula_units_Z 26
_cell_length_a 15.083565
_cell_length_b 8.239578
_cell_length_c 12.288533
_cell_angle_alpha 90.000000
_cell_angle_beta 75.816270
_cell_angle_gamma 90.000000
_cell_volume 1480.687901
_symmetry_space_group_name_H-M "P 2/M"
_symmetry_group_IT_number 10
_symmetry_cell_setting 'monoclinic'
loop_
_space_group_symop_operation_xyz
x,y,z
-x,y,-z
-x,-y,-z
x,-y,z
loop_
_atom_site_type_symbol
_atom_site_label
_atom_site_fract_x
_atom_site_fract_y
_atom_site_fract_z
Si Si1 0.999460 0.824073 0.632640
Si Si2 0.649244 0.694856 0.936403
Si Si3 0.739828 0.500000 0.615085
Si Si4 0.422785 0.176600 0.616935
Si Si5 0.924502 0.500000 0.424063
Si Si6 0.479465 0.305009 0.828500
Si Si7 0.389902 0.500000 0.537136
Si Si8 0.785171 0.816596 0.740372
O O1 0.894800 0.803896 0.702050
O O2 0.000000 0.830274 0.500000
O O3 0.056729 0.665695 0.645415
O O4 0.033658 0.000000 0.660168
O O5 0.663760 0.500000 0.930478
O O6 0.571025 0.731215 0.869367
O O7 0.739513 0.787442 0.871482
O O8 0.604647 0.736207 0.065597
O O9 0.825833 0.500000 0.507813
O O10 0.648698 0.500000 0.572127
O O11 0.747579 0.665316 0.681480
O O12 0.500000 0.169196 0.500000
O O13 0.470134 0.213744 0.718016
O O14 0.362430 0.333821 0.605371
O O15 0.376990 0.000000 0.633305
O O16 0.000000 0.500000 0.500000
O O17 0.477779 0.500000 0.810917
O O18 0.500000 0.500000 0.500000
O O19 0.762044 0.000000 0.708842
#
# Coordination Sequence:
#
# PCOD9141495 Si02
#       8
#     4   4   2   4   2   4   2   4
#     4   9  16  28  44  69 104 134 160 199 248 309
#     4   9  19  31  50  75 102 135 173 212 261 316
#     4  12  22  34  51  72 104 144 176 217 254 303
#     4  10  21  35  53  72  90 127 178 218 254 297
#     4  10  16  30  50  70  95 138 172 196 256 317
#     4   9  18  35  53  71  98 136 175 220 266 301
#     4  10  24  38  49  66 102 138 175 222 261 287
#     4  11  21  30  48  77 106 138 173 204 251 314
#
# _framework density 17.559405999999999
#
# number of rings (size 3 to 8) (size 9 to 14) (size 15 to 20)
#    0.000    2.154    4.615    0.923    4.308    1.846 
#    0.000    1.538    0.000    0.000    0.000    0.000 
#    0.000    2.462    0.000    4.769    0.000    0.154 
#
# Total GULP energy -144856.526167 kJ/mol
# GULP energy per Si atom -5571.404853 kJ/mol
# Density = 1.751944 g / cm^3
# Si number density = 17.559406 Si / 1000 Ang^3
#
#
#
# Elastic Constant Matrix: (Units=GPa)
#
#
# Indices 1 2 3 4 5 6 
#
# 1 36.0396 15.5302 27.5375 0.0000 -24.3715 0.0000
# 2 15.5302 143.4443 33.4768 0.0000 0.8871 0.0000
# 3 27.5375 33.4768 95.2040 0.0000 -19.2439 0.0000
# 4 0.0000 0.0000 0.0000 -33.8657 0.0000 17.8931
# 5 -24.3715 0.8871 -19.2439 0.0000 30.8410 0.0000
# 6 0.0000 0.0000 0.0000 17.8931 0.0000 -4.8054
#
#
#
# Elastic Compliance Matrix: (Units=1/GPa)
#
#
# Indices 1 2 3 4 5 6 
#
# 1 0.071497 -0.006177 -0.008070 0.000000 0.051642 0.000000
# 2 -0.006177 0.008256 -0.002461 0.000000 -0.006654 0.000000
# 3 -0.008070 -0.002461 0.014223 0.000000 0.002568 0.000000
# 4 0.000000 0.000000 0.000000 0.030525 0.000000 0.113661
# 5 0.051642 -0.006654 0.002568 0.000000 0.075027 0.000000
# 6 0.000000 0.000000 0.000000 0.113661 0.000000 0.215123
#
#
# Mechanical properties :
#
#
# Convention : Reuss Voigt Hill
#
# Bulk Modulus (GPa) = 16.51272 47.53076 32.02174
# Shear Modulus (GPa) = 10.67797 11.64353 11.16075
#
# Velocity S-wave (km/s) = 2.46865 2.57785 2.52384
# Velocity P-wave (km/s) = 4.18927 5.99898 5.17386
#
# Compressibility (1/GPa) = 0.06055939
#
# Stress axis : x y z
#
# Youngs Moduli (GPa) = 13.98653 121.12866 70.31058
#
# Poissons Ratio (x) = 0.74818 0.56740
# Poissons Ratio (y) = 0.08639 0.17307
# Poissons Ratio (z) = 0.11287 0.29815
#
# Static dielectric constant tensor:
#      x y z
#    x 1.563140 0.000000 -0.034180 
#    y 0.000000 1.691450 0.000000 
#    z -0.034180 0.000000 1.589910 
# 
# From -- ./inp_files/48758.got.cif
#   From: 2010.05.17/outbox.cif.g08.bks.cpg/sg10_25_cif.got.tgz:48758.got - 2010.06.03 11:33:40.
