data_PCOD9141088
_publ_section_title
;
Structure prediction by ZEFSAII (Michael W. Deem and Ramdas Pophale) SiO2 
 PCOD9141088
Probable space group: C C
;
_chemical_formula_sum "Si O2"
_cell_formula_units_Z 20
_cell_length_a 24.341816
_cell_length_b 5.095476
_cell_length_c 8.154921
_cell_angle_alpha 90.000000
_cell_angle_beta 134.935628
_cell_angle_gamma 90.000000
_cell_volume 716.027792
_symmetry_space_group_name_H-M "C C"
_symmetry_group_IT_number 9
_symmetry_cell_setting 'monoclinic'
loop_
_space_group_symop_operation_xyz
x,y,z
x,-y,1/2+z
1/2+x,1/2+y,z
1/2+x,1/2-y,1/2+z
loop_
_atom_site_type_symbol
_atom_site_label
_atom_site_fract_x
_atom_site_fract_y
_atom_site_fract_z
Si Si1 0.664430 0.189324 0.768060
Si Si2 0.315586 0.623579 0.503745
Si Si3 0.046310 0.749550 0.260686
Si Si4 0.875316 0.360609 0.300180
Si Si5 0.118529 0.782757 0.049525
O O1 0.679874 0.460998 0.711653
O O2 0.591560 0.077883 0.498262
O O3 0.647464 0.219122 0.919721
O O4 0.728501 0.973619 0.860399
O O5 0.326026 0.734583 0.344028
O O6 0.365091 0.357058 0.636083
O O7 0.345670 0.855701 0.683938
O O8 0.096685 0.762197 0.203850
O O9 0.963613 0.630747 0.046602
O O10 0.041690 0.036284 0.330811
#
# Coordination Sequence:
#
# PCOD9141088 Si02
#       5
#     4   4   4   4   4
#     4   8  16  36  65  92 136 176 235 281 353 419
#     4  12  26  45  73 108 148 191 242 305 371 436
#     4   8  16  36  65  92 136 176 235 281 353 419
#     4  12  26  45  73 108 148 191 242 305 371 436
#     4   6  14  28  62  84 130 158 238 258 354 376
#
# _framework density 27.931875000000002
#
# number of rings (size 3 to 8) (size 9 to 14) (size 15 to 20)
#    2.400    0.000    0.000    3.600    0.000    0.000 
#    0.000    2.000    0.000    0.000    0.000    0.000 
#    0.000    0.000    0.000    0.000    0.000    0.000 
#
# Total GULP energy -55944.785389 kJ/mol
# GULP energy per Si atom -5594.478539 kJ/mol
# Density = 2.786830 g / cm^3
# Si number density = 27.931875 Si / 1000 Ang^3
#
#
#
# Elastic Constant Matrix: (Units=GPa)
#
#
# Indices 1 2 3 4 5 6 
#
# 1 124.7776 53.4099 35.7121 0.0000 -27.3418 0.0000
# 2 53.4099 244.1338 78.3001 0.0000 -23.1847 0.0000
# 3 35.7121 78.3001 122.5145 0.0000 -15.6886 0.0000
# 4 0.0000 0.0000 0.0000 94.0993 0.0000 -17.0154
# 5 -27.3418 -23.1847 -15.6886 0.0000 71.1336 0.0000
# 6 0.0000 0.0000 0.0000 -17.0154 0.0000 30.9646
#
#
#
# Elastic Compliance Matrix: (Units=1/GPa)
#
#
# Indices 1 2 3 4 5 6 
#
# 1 0.009683 -0.001327 -0.001599 0.000000 0.002937 0.000000
# 2 -0.001327 0.005401 -0.002990 0.000000 0.000591 0.000000
# 3 -0.001599 -0.002990 0.010636 0.000000 0.000757 0.000000
# 4 0.000000 0.000000 0.000000 0.011800 0.000000 0.006484
# 5 0.002937 0.000591 0.000757 0.000000 0.015547 0.000000
# 6 0.000000 0.000000 0.000000 0.006484 0.000000 0.035858
#
#
# Mechanical properties :
#
#
# Convention : Reuss Voigt Hill
#
# Bulk Modulus (GPa) = 71.99120 91.80779 81.89949
# Shear Modulus (GPa) = 47.44524 60.83975 54.14250
#
# Velocity S-wave (km/s) = 4.12589 4.67213 4.40748
# Velocity P-wave (km/s) = 6.96614 7.87685 7.43545
#
# Compressibility (1/GPa) = 0.01389059
#
# Stress axis : x y z
#
# Youngs Moduli (GPa) = 103.27092 185.13822 94.02151
#
# Poissons Ratio (x) = 0.24565 0.15030
# Poissons Ratio (y) = 0.13702 0.28109
# Poissons Ratio (z) = 0.16508 0.55349
#
# Static dielectric constant tensor:
#      x y z
#    x 2.032460 0.000000 0.160860 
#    y 0.000000 2.528050 0.000000 
#    z 0.160860 0.000000 2.426780 
# 
# From -- ./inp_files/11949.got.cif
#   From: 2010.05.17/outbox.cif.g08.bks.cpg/sg9_6_cif.got.tgz:11949.got - 2010.06.03 20:04:27.
