data_PCOD9141225
_publ_section_title
;
Structure prediction by ZEFSAII (Michael W. Deem and Ramdas Pophale) SiO2 
 PCOD9141225
Probable space group: C C
;
_chemical_formula_sum "Si O2"
_cell_formula_units_Z 16
_cell_length_a 12.000000
_cell_length_b 9.000000
_cell_length_c 30.000000
_cell_angle_alpha 90.000000
_cell_angle_beta 30.000000
_cell_angle_gamma 90.000000
_cell_volume 1620.000000
_symmetry_space_group_name_H-M "C C"
_symmetry_group_IT_number 9
_symmetry_cell_setting 'monoclinic'
loop_
_space_group_symop_operation_xyz
x,y,z
x,-y,1/2+z
1/2+x,1/2+y,z
1/2+x,1/2-y,1/2+z
loop_
_atom_site_type_symbol
_atom_site_label
_atom_site_fract_x
_atom_site_fract_y
_atom_site_fract_z
Si Si1 0.068140 0.330454 0.155260
Si Si2 0.339315 0.861034 0.145838
Si Si3 0.718235 0.061739 0.278754
Si Si4 0.832574 0.066874 0.832187
Si Si5 0.005370 0.838502 0.950540
Si Si6 0.824136 0.999686 0.645648
Si Si7 0.766505 0.137685 0.441398
Si Si8 0.230412 0.010465 0.943473
O O1 0.150410 0.421792 0.170771
O O2 0.944468 0.413388 0.156883
O O3 0.890873 0.198538 0.224832
O O4 0.291980 0.274988 0.052008
O O5 0.310714 0.680971 0.151869
O O6 0.091787 0.921351 0.229726
O O7 0.518810 0.900002 0.045860
O O8 0.791000 0.965890 0.209702
O O9 0.454604 0.086702 0.362556
O O10 0.717367 0.987525 0.327062
O O11 0.704862 0.221300 0.884460
O O12 0.812118 0.959749 0.882047
O O13 0.931849 0.881794 0.926305
O O14 0.082978 0.981603 0.950934
O O15 0.070022 0.031982 0.540559
O O16 0.781368 0.314653 0.427580
#
# Coordination Sequence:
#
# PCOD9141225 Si02
#       8
#     4   4   4   4   4   4   4   4
#     4   9  20  39  65  89 120 166 209 259 309 369
#     4   9  21  41  62  89 123 165 207 258 317 364
#     4  11  23  35  62  94 127 160 208 252 313 374
#     4  12  25  37  62  96 128 167 203 262 313 377
#     4  10  21  43  66  90 125 164 210 259 314 362
#     4   9  20  41  67  86 124 166 210 260 307 370
#     4  10  23  44  63  89 131 160 210 264 306 375
#     4  10  21  44  67  91 122 172 209 256 317 363
#
# _framework density 9.8765429999999999
#
# number of rings (size 3 to 8) (size 9 to 14) (size 15 to 20)
#    0.000    2.000    1.250    2.250    3.500    2.000 
#    4.500    0.000    5.500    0.000    0.000    0.000 
#    0.000    0.000    0.000    0.000    0.000    0.000 
#
# Total GULP energy -89138.175348 kJ/mol
# GULP energy per Si atom -5571.135959 kJ/mol
# Density = 0.985406 g / cm^3
# Si number density = 9.876543 Si / 1000 Ang^3
#
#
#
# Elastic Constant Matrix: (Units=GPa)
#
#
# Indices 1 2 3 4 5 6 
#
# 1 138.5727 44.9593 54.7851 0.0006 13.3750 0.0005
# 2 44.9593 17.4175 19.5585 -0.0008 8.3640 -0.0004
# 3 54.7851 19.5585 94.3156 0.0049 -6.5846 0.0020
# 4 0.0006 -0.0008 0.0049 25.6225 -0.0003 -2.7542
# 5 13.3750 8.3640 -6.5846 -0.0003 41.3570 0.0000
# 6 0.0005 -0.0004 0.0020 -2.7542 0.0000 32.9555
#
#
#
# Elastic Compliance Matrix: (Units=1/GPa)
#
#
# Indices 1 2 3 4 5 6 
#
# 1 0.048301 -0.129011 -0.000578 -0.000005 0.010378 -0.000003
# 2 -0.129011 0.435114 -0.018731 0.000021 -0.049256 0.000010
# 3 -0.000578 -0.018731 0.015270 -0.000004 0.006406 -0.000001
# 4 -0.000005 0.000021 -0.000004 0.039382 -0.000003 0.003291
# 5 0.010378 -0.049256 0.006406 -0.000003 0.031805 -0.000001
# 6 -0.000003 0.000010 -0.000001 0.003291 -0.000001 0.030619
#
#
# Mechanical properties :
#
#
# Convention : Reuss Voigt Hill
#
# Bulk Modulus (GPa) = 4.94942 54.32351 29.63647
# Shear Modulus (GPa) = 5.18414 28.72053 16.95233
#
# Velocity S-wave (km/s) = 1.62178 3.81724 2.93270
# Velocity P-wave (km/s) = 2.45316 6.85488 5.14817
#
# Compressibility (1/GPa) = 0.20204402
#
# Stress axis : x y z
#
# Youngs Moduli (GPa) = 20.70371 2.29825 65.48733
#
# Poissons Ratio (x) = 0.29650 0.03787
# Poissons Ratio (y) = 2.67102 1.22663
# Poissons Ratio (z) = 0.01197 0.04305
#
# Static dielectric constant tensor:
#      x y z
#    x 1.706180 0.000000 0.002320 
#    y 0.000000 1.701970 0.000000 
#    z 0.002320 0.000000 1.735270 
# 
# From -- ./inp_files/24233.got.cif
#   From: 2010.05.17/outbox.ucp.g08.bks.cvg/sg9_13_cif.got.tgz:24233.got - 2010.06.11 13:03:20.
