data_PCOD9141644
_publ_section_title
;
Structure prediction by ZEFSAII (Michael W. Deem and Ramdas Pophale) SiO2 
 PCOD9141644
Probable space group: P 2/M
;
_chemical_formula_sum "Si O2"
_cell_formula_units_Z 24
_cell_length_a 7.010587
_cell_length_b 9.057984
_cell_length_c 19.432723
_cell_angle_alpha 90.000000
_cell_angle_beta 114.126333
_cell_angle_gamma 90.000000
_cell_volume 1126.217169
_symmetry_space_group_name_H-M "P 2/M"
_symmetry_group_IT_number 10
_symmetry_cell_setting 'monoclinic'
loop_
_space_group_symop_operation_xyz
x,y,z
-x,y,-z
-x,-y,-z
x,-y,z
loop_
_atom_site_type_symbol
_atom_site_label
_atom_site_fract_x
_atom_site_fract_y
_atom_site_fract_z
Si Si1 0.119467 0.176728 0.361995
Si Si2 0.821848 0.675612 0.920164
Si Si3 0.573997 0.173357 0.175076
Si Si4 0.254925 0.168442 0.526195
Si Si5 0.320599 0.674055 0.671772
Si Si6 0.055318 0.827049 0.201708
O O1 0.276466 0.201928 0.448276
O O2 0.919243 0.277736 0.348069
O O3 0.175723 0.204443 0.291140
O O4 0.061559 0.000000 0.357050
O O5 0.801174 0.500000 0.920573
O O6 0.597282 0.750424 0.898136
O O7 0.889586 0.726842 0.854273
O O8 0.000000 0.723185 0.000000
O O9 0.559576 0.242886 0.249288
O O10 0.810176 0.193500 0.183661
O O11 0.534308 0.000000 0.173733
O O12 0.353210 0.271337 0.598615
O O13 0.000000 0.171288 0.500000
O O14 0.323290 0.000000 0.549410
O O15 0.350526 0.500000 0.682050
O O16 0.087595 0.000000 0.189419
#
# Coordination Sequence:
#
# PCOD9141644 Si02
#       6
#     4   4   4   4   4   4
#     4   8  15  28  46  71 105 146 190 231 272 322
#     4  11  25  42  60  86 118 148 179 223 285 349
#     4  10  21  39  62  85 112 149 193 235 276 330
#     4   8  13  23  40  65 102 145 187 229 270 318
#     4  10  17  25  43  74 110 145 184 229 278 328
#     4   9  19  37  61  87 113 147 192 236 278 327
#
# _framework density 21.310279000000001
#
# number of rings (size 3 to 8) (size 9 to 14) (size 15 to 20)
#    0.000    2.667    0.000    4.500    0.000    8.333 
#    0.000    3.333    0.000    1.000    0.000    7.000 
#    0.000    0.000    0.000    0.000    0.000    0.000 
#
# Total GULP energy -134052.431152 kJ/mol
# GULP energy per Si atom -5585.517965 kJ/mol
# Density = 2.126178 g / cm^3
# Si number density = 21.310279 Si / 1000 Ang^3
#
#
#
# Elastic Constant Matrix: (Units=GPa)
#
#
# Indices 1 2 3 4 5 6 
#
# 1 63.6212 6.7687 14.6394 0.0000 6.1543 0.0000
# 2 6.7687 63.8251 33.6241 0.0000 9.5658 0.0000
# 3 14.6394 33.6241 94.7512 0.0000 19.9234 0.0000
# 4 0.0000 0.0000 0.0000 76.7813 0.0000 19.0645
# 5 6.1543 9.5658 19.9234 0.0000 33.8455 0.0000
# 6 0.0000 0.0000 0.0000 19.0645 0.0000 23.3296
#
#
#
# Elastic Compliance Matrix: (Units=1/GPa)
#
#
# Indices 1 2 3 4 5 6 
#
# 1 0.016392 -0.000417 -0.002034 0.000000 -0.001665 0.000000
# 2 -0.000417 0.019359 -0.006472 0.000000 -0.001586 0.000000
# 3 -0.002034 -0.006472 0.014497 0.000000 -0.006335 0.000000
# 4 0.000000 0.000000 0.000000 0.016339 0.000000 -0.013352
# 5 -0.001665 -0.001586 -0.006335 0.000000 0.034026 0.000000
# 6 0.000000 0.000000 0.000000 -0.013352 0.000000 0.053775
#
#
# Mechanical properties :
#
#
# Convention : Reuss Voigt Hill
#
# Bulk Modulus (GPa) = 30.86345 36.91802 33.89073
# Shear Modulus (GPa) = 27.31708 37.93564 32.62636
#
# Velocity S-wave (km/s) = 3.58421 4.22377 3.91706
# Velocity P-wave (km/s) = 5.62522 6.41472 6.03290
#
# Compressibility (1/GPa) = 0.03240079
#
# Stress axis : x y z
#
# Youngs Moduli (GPa) = 61.00685 51.65464 68.97973
#
# Poissons Ratio (x) = 0.02154 0.14034
# Poissons Ratio (y) = 0.02544 0.44644
# Poissons Ratio (z) = 0.12412 0.33431
#
# Static dielectric constant tensor:
#      x y z
#    x 1.865270 0.000000 0.011370 
#    y 0.000000 1.704640 0.000000 
#    z 0.011370 0.000000 1.772570 
# 
# From -- ./inp_files/74182.got.cif
#   From: 2010.05.17/outbox.cif.g08.bks.cpg/sg10_38_cif.got.tgz:74182.got - 2010.06.03 11:33:40.
