data_PCOD9141374
_publ_section_title
;
Structure prediction by ZEFSAII (Michael W. Deem and Ramdas Pophale) SiO2 
 PCOD9141374
Probable space group: P 2/M
;
_chemical_formula_sum "Si O2"
_cell_formula_units_Z 22
_cell_length_a 28.269073
_cell_length_b 7.352044
_cell_length_c 30.777789
_cell_angle_alpha 90.000000
_cell_angle_beta 9.393477
_cell_angle_gamma 90.000000
_cell_volume 1044.031348
_symmetry_space_group_name_H-M "P 2/M"
_symmetry_group_IT_number 10
_symmetry_cell_setting 'monoclinic'
loop_
_space_group_symop_operation_xyz
x,y,z
-x,y,-z
-x,-y,-z
x,-y,z
loop_
_atom_site_type_symbol
_atom_site_label
_atom_site_fract_x
_atom_site_fract_y
_atom_site_fract_z
Si Si1 0.349870 0.721494 0.350172
Si Si2 0.291718 0.722748 0.888974
Si Si3 0.647470 0.708173 0.485142
Si Si4 0.347558 0.500000 0.684961
Si Si5 0.314485 0.281363 0.040260
Si Si6 0.323226 0.785008 0.201183
O O1 0.344488 0.500000 0.353765
O O2 0.529011 0.771901 0.230665
O O3 0.515397 0.783316 0.156739
O O4 0.016946 0.783322 0.655252
O O5 0.280089 0.500000 0.896759
O O6 0.455556 0.788280 0.697383
O O7 0.961437 0.788321 0.191604
O O8 0.712349 0.500000 0.441925
O O9 0.465169 0.671664 0.606565
O O10 0.500000 0.500000 0.500000
O O11 0.000000 0.500000 0.000000
O O12 0.300392 0.500000 0.049651
O O13 0.494030 0.236965 0.920635
O O14 0.000000 0.709108 0.500000
O O15 0.287814 0.000000 0.224788
O O16 0.500000 0.709103 0.000000
#
# Coordination Sequence:
#
# PCOD9141374 Si02
#       6
#     4   4   4   2   4   4
#     4   9  17  26  42  61  86 108 125 166 217 266
#     4   9  13  23  33  48  67  92 124 153 200 263
#     4   8  15  20  30  42  59  89 127 164 206 256
#     4  10  16  22  28  40  62  90 132 184 222 238
#     4  10  19  31  45  69  90 108 136 171 220 261
#     4  10  21  36  52  67  86 115 146 173 204 251
#
# _framework density 21.072165999999999
#
# number of rings (size 3 to 8) (size 9 to 14) (size 15 to 20)
#    0.545    2.182    0.000    3.273    0.000    5.091 
#    0.000    0.000    0.000    0.000    0.000    0.000 
#    0.000    0.000    0.000    0.000    0.000    0.000 
#
# Total GULP energy -122727.538223 kJ/mol
# GULP energy per Si atom -5578.524465 kJ/mol
# Density = 2.102421 g / cm^3
# Si number density = 21.072166 Si / 1000 Ang^3
#
#
#
# Elastic Constant Matrix: (Units=GPa)
#
#
# Indices 1 2 3 4 5 6 
#
# 1 208.6585 -6.4272 139.6622 0.0000 27.6061 0.0000
# 2 -6.4272 69.0898 4.9808 0.0000 8.3379 0.0000
# 3 139.6622 4.9808 272.4815 0.0000 18.5970 0.0000
# 4 0.0000 0.0000 0.0000 33.4696 0.0000 -101.4368
# 5 27.6061 8.3379 18.5970 0.0000 46.8957 0.0000
# 6 0.0000 0.0000 0.0000 -101.4368 0.0000 172.3107
#
#
#
# Elastic Compliance Matrix: (Units=1/GPa)
#
#
# Indices 1 2 3 4 5 6 
#
# 1 0.007829 0.001407 -0.003810 0.000000 -0.003348 0.000000
# 2 0.001407 0.015046 -0.000778 0.000000 -0.003195 0.000000
# 3 -0.003810 -0.000778 0.005627 0.000000 0.000150 0.000000
# 4 0.000000 0.000000 0.000000 -0.038103 0.000000 -0.022431
# 5 -0.003348 -0.003195 0.000150 0.000000 0.023803 0.000000
# 6 0.000000 0.000000 0.000000 -0.022431 0.000000 -0.007401
#
#
# Mechanical properties :
#
#
# Convention : Reuss Voigt Hill
#
# Bulk Modulus (GPa) = 45.16727 91.85128 68.50927
# Shear Modulus (GPa) = 243.37840 78.00280 160.69060
#
# Velocity S-wave (km/s) = 10.75864 6.09076 8.74201
# Velocity P-wave (km/s) = 13.25942 9.65125 11.59653
#
# Compressibility (1/GPa) = 0.02213993
#
# Stress axis : x y z
#
# Youngs Moduli (GPa) = 127.73069 66.46081 177.72026
#
# Poissons Ratio (x) = -0.09351 0.67712
# Poissons Ratio (y) = -0.17972 0.13829
# Poissons Ratio (z) = 0.48666 0.05172
#
# Static dielectric constant tensor:
#      x y z
#    x 1.716990 0.000000 0.048210 
#    y 0.000000 1.851250 0.000000 
#    z 0.048210 0.000000 1.783000 
# 
# From -- ./inp_files/93880.got.cif
#   From: 2010.05.17/outbox.cif.g08.bks.cpg/sg10_47_cif.got.tgz:93880.got - 2010.06.03 11:33:40.
