data_PCOD9141937
_publ_section_title
;
Structure prediction by ZEFSAII (Michael W. Deem and Ramdas Pophale) SiO2 
 PCOD9141937
Probable space group: P 2/M
;
_chemical_formula_sum "Si O2"
_cell_formula_units_Z 32
_cell_length_a 24.157488
_cell_length_b 7.537008
_cell_length_c 13.616856
_cell_angle_alpha 90.000000
_cell_angle_beta 147.160468
_cell_angle_gamma 90.000000
_cell_volume 1344.490138
_symmetry_space_group_name_H-M "P 2/M"
_symmetry_group_IT_number 10
_symmetry_cell_setting 'monoclinic'
loop_
_space_group_symop_operation_xyz
x,y,z
-x,y,-z
-x,-y,-z
x,-y,z
loop_
_atom_site_type_symbol
_atom_site_label
_atom_site_fract_x
_atom_site_fract_y
_atom_site_fract_z
Si Si1 0.751957 0.213420 0.829548
Si Si2 0.730959 0.784077 0.166558
Si Si3 0.579769 0.198342 0.704170
Si Si4 0.125713 0.212180 0.800752
Si Si5 0.059303 0.800694 0.181760
Si Si6 0.728661 0.302218 0.567475
Si Si7 0.496405 0.214002 0.203436
Si Si8 0.079132 0.218265 0.428483
O O1 0.668611 0.292802 0.779481
O O2 0.738392 0.285246 0.700519
O O3 0.735698 0.000000 0.794561
O O4 0.847686 0.237438 0.043721
O O5 0.787905 0.726322 0.148870
O O6 0.809548 0.727972 0.367752
O O7 0.728063 0.000000 0.161404
O O8 0.612533 0.728413 0.006086
O O9 0.500000 0.174564 0.500000
O O10 0.525231 0.273880 0.716877
O O11 0.617625 0.000000 0.791805
O O12 0.008524 0.274065 0.625132
O O13 0.123602 0.000000 0.780874
O O14 0.179149 0.813450 0.335924
O O15 0.055773 0.717849 0.283963
O O16 0.013792 0.000000 0.123056
O O17 0.000000 0.718416 0.000000
O O18 0.756650 0.500000 0.580760
O O19 0.613195 0.269056 0.357782
O O20 0.500054 0.000000 0.202659
O O21 0.079048 0.000000 0.426106
#
# Coordination Sequence:
#
# PCOD9141937 Si02
#       8
#     4   4   4   4   4   4   4   4
#     4  10  17  29  51  78 108 145 183 215 258 326
#     4   9  16  27  49  82 116 145 173 214 269 321
#     4   9  14  23  44  71 100 137 178 214 250 306
#     4   9  15  25  48  82 117 146 170 207 268 336
#     4  10  21  40  63  84 106 140 182 224 271 325
#     4  12  25  37  52  78 110 145 184 233 281 315
#     4  10  18  32  53  78 109 148 185 217 261 327
#     4   9  17  29  49  82 115 137 172 228 277 316
#
# _framework density 23.800844000000001
#
# number of rings (size 3 to 8) (size 9 to 14) (size 15 to 20)
#    0.000    2.250    2.500    2.250    0.000    3.750 
#    0.000    1.875    0.000    4.500    0.000    0.000 
#    0.000    4.000    0.000    0.000    0.000    0.000 
#
# Total GULP energy -178229.524615 kJ/mol
# GULP energy per Si atom -5569.672644 kJ/mol
# Density = 2.374667 g / cm^3
# Si number density = 23.800844 Si / 1000 Ang^3
#
#
#
# Elastic Constant Matrix: (Units=GPa)
#
#
# Indices 1 2 3 4 5 6 
#
# 1 82.3120 0.0895 52.5464 0.0000 13.8174 0.0000
# 2 0.0895 68.1431 17.1166 0.0000 1.6565 0.0000
# 3 52.5464 17.1166 108.5838 0.0000 2.5102 0.0000
# 4 0.0000 0.0000 0.0000 -32.0922 0.0000 -18.9901
# 5 13.8174 1.6565 2.5102 0.0000 44.4553 0.0000
# 6 0.0000 0.0000 0.0000 -18.9901 0.0000 13.3090
#
#
#
# Elastic Compliance Matrix: (Units=1/GPa)
#
#
# Indices 1 2 3 4 5 6 
#
# 1 0.019161 0.002505 -0.009540 0.000000 -0.005510 0.000000
# 2 0.002505 0.015616 -0.003647 0.000000 -0.001155 0.000000
# 3 -0.009540 -0.003647 0.014348 0.000000 0.002291 0.000000
# 4 0.000000 0.000000 0.000000 -0.016895 0.000000 -0.024107
# 5 -0.005510 -0.001155 0.002291 0.000000 0.024121 0.000000
# 6 0.000000 0.000000 0.000000 -0.024107 0.000000 0.040740
#
#
# Mechanical properties :
#
#
# Convention : Reuss Voigt Hill
#
# Bulk Modulus (GPa) = 36.02179 44.28266 40.15223
# Shear Modulus (GPa) = 39.15146 17.75351 28.45248
#
# Velocity S-wave (km/s) = 4.06021 2.73412 3.46126
# Velocity P-wave (km/s) = 6.09491 5.34912 5.73415
#
# Compressibility (1/GPa) = 0.02776097
#
# Stress axis : x y z
#
# Youngs Moduli (GPa) = 52.18810 64.03730 69.69522
#
# Poissons Ratio (x) = -0.16042 0.66491
# Poissons Ratio (y) = -0.13074 0.25419
# Poissons Ratio (z) = 0.49789 0.23356
#
# Static dielectric constant tensor:
#      x y z
#    x 1.907460 0.000000 0.033530 
#    y 0.000000 1.956180 0.000000 
#    z 0.033530 0.000000 2.050270 
# 
# From -- ./inp_files/72223.got.cif
#   From: 2010.05.17/outbox.cif.g08.bks.cpg/sg10_37_cif.got.tgz:72223.got - 2010.06.03 11:33:40.
