data_PCOD9141395
_publ_section_title
;
Structure prediction by ZEFSAII (Michael W. Deem and Ramdas Pophale) SiO2 
 PCOD9141395
Probable space group: P 2/M
;
_chemical_formula_sum "Si O2"
_cell_formula_units_Z 18
_cell_length_a 6.690169
_cell_length_b 19.168634
_cell_length_c 5.467810
_cell_angle_alpha 90.000000
_cell_angle_beta 101.891179
_cell_angle_gamma 90.000000
_cell_volume 686.152376
_symmetry_space_group_name_H-M "P 2/M"
_symmetry_group_IT_number 10
_symmetry_cell_setting 'monoclinic'
loop_
_space_group_symop_operation_xyz
x,y,z
-x,y,-z
-x,-y,-z
x,-y,z
loop_
_atom_site_type_symbol
_atom_site_label
_atom_site_fract_x
_atom_site_fract_y
_atom_site_fract_z
Si Si1 0.250716 0.365418 0.211467
Si Si2 0.718052 0.419041 0.281769
Si Si3 0.264822 0.151120 0.916912
Si Si4 0.746026 0.789383 0.587688
Si Si5 0.129975 0.000000 0.782328
O O1 0.494592 0.383054 0.248282
O O2 0.189913 0.413793 0.424097
O O3 0.218818 0.287315 0.296535
O O4 0.176970 0.379625 0.917554
O O5 0.697290 0.500000 0.210055
O O6 0.179099 0.197424 0.670975
O O7 0.255533 0.071631 0.824088
O O8 0.500000 0.173650 0.000000
O O9 0.185383 0.158773 0.175820
O O10 0.500000 0.798110 0.500000
O O11 0.000000 0.000000 0.500000
O O12 0.000000 0.000000 0.000000
#
# Coordination Sequence:
#
# PCOD9141395 Si02
#       5
#     4   4   4   4   2
#     4  10  16  24  37  56  90 130 182 224 257 300
#     4  10  17  23  34  55  91 136 194 223 248 310
#     4  10  22  37  59  85 111 138 182 232 273 317
#     4  10  18  30  49  75 103 137 177 233 265 320
#     4  12  25  44  65  84 112 146 180 218 285 344
#
# _framework density 26.233243000000002
#
# number of rings (size 3 to 8) (size 9 to 14) (size 15 to 20)
#    0.000    1.778    2.222    6.333    6.222    0.000 
#    0.000    4.444    0.000    0.000    0.000    0.000 
#    0.000    0.000    0.000    0.000    0.000  457.778 
#
# Total GULP energy -100761.137624 kJ/mol
# GULP energy per Si atom -5597.840979 kJ/mol
# Density = 2.617354 g / cm^3
# Si number density = 26.233243 Si / 1000 Ang^3
#
#
#
# Elastic Constant Matrix: (Units=GPa)
#
#
# Indices 1 2 3 4 5 6 
#
# 1 67.3714 -12.3499 47.1520 0.0000 -16.3602 0.0000
# 2 -12.3499 163.4385 75.2492 0.0000 3.0093 0.0000
# 3 47.1520 75.2492 286.6054 0.0000 -13.4118 0.0000
# 4 0.0000 0.0000 0.0000 54.2037 0.0000 -1.3833
# 5 -16.3602 3.0093 -13.4118 0.0000 67.6049 0.0000
# 6 0.0000 0.0000 0.0000 -1.3833 0.0000 25.2702
#
#
#
# Elastic Compliance Matrix: (Units=1/GPa)
#
#
# Indices 1 2 3 4 5 6 
#
# 1 0.018935 0.003091 -0.003754 0.000000 0.003700 0.000000
# 2 0.003091 0.007495 -0.002480 0.000000 -0.000078 0.000000
# 3 -0.003754 -0.002480 0.004765 0.000000 0.000147 0.000000
# 4 0.000000 0.000000 0.000000 0.018475 0.000000 0.001011
# 5 0.003700 -0.000078 0.000147 0.000000 0.015720 0.000000
# 6 0.000000 0.000000 0.000000 0.001011 0.000000 0.039628
#
#
# Mechanical properties :
#
#
# Convention : Reuss Voigt Hill
#
# Bulk Modulus (GPa) = 40.14492 81.94643 61.04568
# Shear Modulus (GPa) = 41.80378 56.57335 49.18857
#
# Velocity S-wave (km/s) = 3.99625 4.64891 4.33488
# Velocity P-wave (km/s) = 6.05224 7.75383 6.95527
#
# Compressibility (1/GPa) = 0.02490975
#
# Stress axis : x y z
#
# Youngs Moduli (GPa) = 52.81151 133.41602 209.87692
#
# Poissons Ratio (x) = -0.41237 0.78779
# Poissons Ratio (y) = -0.16323 0.52051
# Poissons Ratio (z) = 0.19823 0.33088
#
# Static dielectric constant tensor:
#      x y z
#    x 1.862590 0.000000 -0.192540 
#    y 0.000000 1.951750 0.000000 
#    z -0.192540 0.000000 1.918990 
# 
# From -- ./inp_files/4190.got.cif
#   From: 2010.05.17/outbox.cif.g08.bks.cpg/sg10_3_cif.got.tgz:4190.got - 2010.06.03 11:33:40.
