data_PCOD9141598
_publ_section_title
;
Structure prediction by ZEFSAII (Michael W. Deem and Ramdas Pophale) SiO2 
 PCOD9141598
Probable space group: P 2/M
;
_chemical_formula_sum "Si O2"
_cell_formula_units_Z 28
_cell_length_a 23.607878
_cell_length_b 8.256709
_cell_length_c 17.042310
_cell_angle_alpha 90.000000
_cell_angle_beta 31.417087
_cell_angle_gamma 90.000000
_cell_volume 1731.610680
_symmetry_space_group_name_H-M "P 2/M"
_symmetry_group_IT_number 10
_symmetry_cell_setting 'monoclinic'
loop_
_space_group_symop_operation_xyz
x,y,z
-x,y,-z
-x,-y,-z
x,-y,z
loop_
_atom_site_type_symbol
_atom_site_label
_atom_site_fract_x
_atom_site_fract_y
_atom_site_fract_z
Si Si1 0.568637 0.694084 0.158687
Si Si2 0.784954 0.305198 0.996304
Si Si3 0.588920 0.804005 0.957455
Si Si4 0.533545 0.188337 0.573179
Si Si5 0.046554 0.804890 0.322693
Si Si6 0.165653 0.197392 0.342493
Si Si7 0.329068 0.688813 0.719565
O O1 0.566085 0.500000 0.164864
O O2 0.562051 0.750904 0.077444
O O3 0.474900 0.763382 0.326229
O O4 0.683891 0.750714 0.060737
O O5 0.779245 0.500000 0.005409
O O6 0.895731 0.255043 0.823802
O O7 0.762561 0.248101 0.111900
O O8 0.589892 0.000000 0.954736
O O9 0.500000 0.747078 0.000000
O O10 0.711201 0.747089 0.792815
O O11 0.642444 0.224030 0.395446
O O12 0.438291 0.290866 0.643359
O O13 0.506402 0.000000 0.596031
O O14 0.119392 0.753333 0.311798
O O15 0.923918 0.751157 0.487637
O O16 0.047180 0.000000 0.320921
O O17 0.166082 0.000000 0.342279
O O18 0.311237 0.500000 0.724402
#
# Coordination Sequence:
#
# PCOD9141598 Si02
#       7
#     4   4   4   4   4   4   4
#     4  10  19  30  42  57  82 114 143 174 215 258
#     4   9  17  26  38  59  85 111 141 173 206 246
#     4  10  19  31  47  64  83 108 143 185 218 248
#     4  10  17  25  39  58  79 107 145 179 205 245
#     4   9  15  25  43  59  80 111 141 173 206 252
#     4   8  15  27  41  61  82 106 139 174 216 252
#     4   9  16  26  37  54  84 115 139 168 210 254
#
# _framework density 16.169916000000001
#
# number of rings (size 3 to 8) (size 9 to 14) (size 15 to 20)
#    0.000    2.714    1.429    4.714    0.000    3.143 
#    0.000    2.143    0.000    0.000    0.000    0.000 
#    0.000    1.143    0.000   13.143    0.000    3.571 
#
# Total GULP energy -155890.018075 kJ/mol
# GULP energy per Si atom -5567.500646 kJ/mol
# Density = 1.613311 g / cm^3
# Si number density = 16.169916 Si / 1000 Ang^3
#
#
#
# Elastic Constant Matrix: (Units=GPa)
#
#
# Indices 1 2 3 4 5 6 
#
# 1 57.1056 9.0294 61.4414 0.0000 8.0200 0.0000
# 2 9.0294 14.6309 13.2115 0.0000 0.4399 0.0000
# 3 61.4414 13.2115 161.4924 0.0000 31.2765 0.0000
# 4 0.0000 0.0000 0.0000 32.3399 0.0000 13.1472
# 5 8.0200 0.4399 31.2765 0.0000 23.7290 0.0000
# 6 0.0000 0.0000 0.0000 13.1472 0.0000 16.4558
#
#
#
# Elastic Compliance Matrix: (Units=1/GPa)
#
#
# Indices 1 2 3 4 5 6 
#
# 1 0.031312 -0.008332 -0.012369 0.000000 0.005875 0.000000
# 2 -0.008332 0.077427 -0.004608 0.000000 0.007454 0.000000
# 3 -0.012369 -0.004608 0.014031 0.000000 -0.014227 0.000000
# 4 0.000000 0.000000 0.000000 0.045796 0.000000 -0.036588
# 5 0.005875 0.007454 -0.014227 0.000000 0.058771 0.000000
# 6 0.000000 0.000000 0.000000 -0.036588 0.000000 0.090000
#
#
# Mechanical properties :
#
#
# Convention : Reuss Voigt Hill
#
# Bulk Modulus (GPa) = 13.85955 44.51037 29.18496
# Shear Modulus (GPa) = 12.75490 24.47471 18.61480
#
# Velocity S-wave (km/s) = 2.81161 3.89472 3.39661
# Velocity P-wave (km/s) = 4.37379 6.91459 5.78539
#
# Compressibility (1/GPa) = 0.07215242
#
# Stress axis : x y z
#
# Youngs Moduli (GPa) = 31.93656 12.91531 71.27250
#
# Poissons Ratio (x) = 0.10760 0.88159
# Poissons Ratio (y) = 0.26608 0.32843
# Poissons Ratio (z) = 0.39503 0.05952
#
# Static dielectric constant tensor:
#      x y z
#    x 1.514600 0.000000 0.029110 
#    y 0.000000 1.557860 0.000000 
#    z 0.029110 0.000000 1.596990 
# 
# From -- ./inp_files/79842.got.cif
#   From: 2010.05.17/outbox.cif.g08.bks.cpg/sg10_40_cif.got.tgz:79842.got - 2010.06.03 11:33:40.
