data_PCOD9141528
_publ_section_title
;
Structure prediction by ZEFSAII (Michael W. Deem and Ramdas Pophale) SiO2 
 PCOD9141528
Probable space group: P 2/M
;
_chemical_formula_sum "Si O2"
_cell_formula_units_Z 30
_cell_length_a 19.374143
_cell_length_b 15.436280
_cell_length_c 6.230638
_cell_angle_alpha 90.000000
_cell_angle_beta 125.341954
_cell_angle_gamma 90.000000
_cell_volume 1519.972441
_symmetry_space_group_name_H-M "P 2/M"
_symmetry_group_IT_number 10
_symmetry_cell_setting 'monoclinic'
loop_
_space_group_symop_operation_xyz
x,y,z
-x,y,-z
-x,-y,-z
x,-y,z
loop_
_atom_site_type_symbol
_atom_site_label
_atom_site_fract_x
_atom_site_fract_y
_atom_site_fract_z
Si Si1 0.896700 0.402861 0.131192
Si Si2 0.648665 0.094267 0.061655
Si Si3 0.223666 0.173693 0.002260
Si Si4 0.500000 0.847292 0.500000
Si Si5 0.630721 0.775352 0.417185
Si Si6 0.280886 0.594980 0.447458
Si Si7 0.083928 0.771139 0.058098
Si Si8 0.175927 0.325248 0.609437
O O1 0.928918 0.500000 0.148506
O O2 0.800170 0.400391 0.859992
O O3 0.940286 0.320452 0.098814
O O4 0.890376 0.380611 0.371328
O O5 0.632921 0.173346 0.196894
O O6 0.645431 0.000000 0.164320
O O7 0.738159 0.105756 0.098275
O O8 0.573605 0.099759 0.751600
O O9 0.293588 0.181898 0.310901
O O10 0.135671 0.173026 0.976189
O O11 0.219973 0.262110 0.858626
O O12 0.545961 0.791781 0.398229
O O13 0.655099 0.674542 0.456121
O O14 0.318960 0.500000 0.493564
O O15 0.238086 0.609477 0.602405
O O16 0.139913 0.738665 0.360439
O O17 0.000000 0.814025 0.000000
#
# Coordination Sequence:
#
# PCOD9141528 Si02
#       8
#     4   4   4   2   4   4   4   4
#     4   9  18  30  47  75 109 147 195 243 287 336
#     4  11  23  40  65  90 116 147 182 226 284 349
#     4  10  19  36  58  81 114 148 194 231 284 339
#     4  10  25  38  61  88 126 150 177 220 281 342
#     4  11  20  39  58  87 117 151 187 233 280 338
#     4  10  18  31  55  83 111 149 197 241 278 324
#     4  10  20  32  50  78 113 152 196 240 289 340
#     4  10  16  33  51  78 108 150 198 237 286 330
#
# _framework density 19.737200999999999
#
# number of rings (size 3 to 8) (size 9 to 14) (size 15 to 20)
#    0.000    1.867    5.333    1.000    0.000    6.133 
#    0.000    1.000    0.000    2.000    0.000    3.733 
#    0.000    0.000    0.000    0.000    0.000    0.000 
#
# Total GULP energy -167136.462122 kJ/mol
# GULP energy per Si atom -5571.215404 kJ/mol
# Density = 1.969228 g / cm^3
# Si number density = 19.737201 Si / 1000 Ang^3
#
#
#
# Elastic Constant Matrix: (Units=GPa)
#
#
# Indices 1 2 3 4 5 6 
#
# 1 132.2891 32.4681 11.5077 0.0000 -12.1882 0.0000
# 2 32.4681 79.2481 14.6161 0.0000 2.9141 0.0000
# 3 11.5077 14.6161 58.2566 0.0000 -9.5249 0.0000
# 4 0.0000 0.0000 0.0000 8.4145 0.0000 2.7471
# 5 -12.1882 2.9141 -9.5249 0.0000 24.4595 0.0000
# 6 0.0000 0.0000 0.0000 2.7471 0.0000 5.4429
#
#
#
# Elastic Compliance Matrix: (Units=1/GPa)
#
#
# Indices 1 2 3 4 5 6 
#
# 1 0.008958 -0.003851 0.000002 0.000000 0.004923 0.000000
# 2 -0.003851 0.015105 -0.003884 0.000000 -0.005232 0.000000
# 3 0.000002 -0.003884 0.019454 0.000000 0.008039 0.000000
# 4 0.000000 0.000000 0.000000 0.142289 0.000000 -0.071816
# 5 0.004923 -0.005232 0.008039 0.000000 0.047091 0.000000
# 6 0.000000 0.000000 0.000000 -0.071816 0.000000 0.219973
#
#
# Mechanical properties :
#
#
# Convention : Reuss Voigt Hill
#
# Bulk Modulus (GPa) = 35.65160 42.99752 39.32456
# Shear Modulus (GPa) = 10.46708 21.74349 16.10528
#
# Velocity S-wave (km/s) = 2.30537 3.32271 2.85965
# Velocity P-wave (km/s) = 5.01883 6.04590 5.55615
#
# Compressibility (1/GPa) = 0.02804923
#
# Stress axis : x y z
#
# Youngs Moduli (GPa) = 111.63305 66.20179 51.40311
#
# Poissons Ratio (x) = 0.25497 -0.00009
# Poissons Ratio (y) = 0.42995 0.19967
# Poissons Ratio (z) = -0.00020 0.25715
#
# Static dielectric constant tensor:
#      x y z
#    x 1.729300 0.000000 -0.000030 
#    y 0.000000 1.693770 0.000000 
#    z -0.000030 0.000000 1.729110 
# 
# From -- ./inp_files/11640.got.cif
#   From: 2010.05.17/outbox.cif.g08.bks.cpg/sg10_6_cif.got.tgz:11640.got - 2010.06.03 11:33:40.
