data_PCOD9141430
_publ_section_title
;
Structure prediction by ZEFSAII (Michael W. Deem and Ramdas Pophale) SiO2 
 PCOD9141430
Probable space group: P 2/M
;
_chemical_formula_sum "Si O2"
_cell_formula_units_Z 32
_cell_length_a 30.269347
_cell_length_b 8.662330
_cell_length_c 24.148206
_cell_angle_alpha 90.000000
_cell_angle_beta 16.730161
_cell_angle_gamma 90.000000
_cell_volume 1822.682566
_symmetry_space_group_name_H-M "P 2/M"
_symmetry_group_IT_number 10
_symmetry_cell_setting 'monoclinic'
loop_
_space_group_symop_operation_xyz
x,y,z
-x,y,-z
-x,-y,-z
x,-y,z
loop_
_atom_site_type_symbol
_atom_site_label
_atom_site_fract_x
_atom_site_fract_y
_atom_site_fract_z
Si Si1 0.379319 0.685921 0.271149
Si Si2 0.265270 0.186795 0.523889
Si Si3 0.077666 0.814073 0.086242
Si Si4 0.857363 0.184702 0.535790
Si Si5 0.599113 0.684805 0.328299
Si Si6 0.846990 0.186623 0.877644
Si Si7 0.633350 0.319871 0.887060
Si Si8 0.483081 0.186841 0.692259
O O1 0.375931 0.500000 0.273650
O O2 0.342436 0.747470 0.375929
O O3 0.250034 0.748166 0.384138
O O4 0.545339 0.736393 0.047544
O O5 0.365572 0.233603 0.456306
O O6 0.087327 0.234754 0.738684
O O7 0.267826 0.000000 0.517097
O O8 0.088367 0.773697 0.138774
O O9 0.089376 0.000000 0.068726
O O10 0.225400 0.742104 0.879772
O O11 0.779956 0.234263 0.686292
O O12 0.030711 0.239540 0.314854
O O13 0.853046 0.000000 0.536946
O O14 0.500000 0.736484 0.500000
O O15 0.597392 0.500000 0.328286
O O16 0.531196 0.749424 0.352410
O O17 0.843494 0.000000 0.878644
O O18 0.670362 0.238365 0.090136
O O19 0.671451 0.500000 0.847445
O O20 0.500000 0.308898 0.000000
O O21 0.479270 0.000000 0.693685
#
# Coordination Sequence:
#
# PCOD9141430 Si02
#       8
#     4   4   4   4   4   4   4   4
#     4  10  19  29  43  65  98 134 164 203 257 308
#     4  10  19  33  53  77 103 130 166 211 252 296
#     4   9  17  32  53  77 103 130 165 208 247 290
#     4  10  16  25  44  68  94 124 166 216 257 297
#     4  10  21  37  56  79 106 135 168 202 236 286
#     4   8  14  27  46  70  98 124 156 206 254 291
#     4   8  16  28  38  58  93 128 164 208 254 302
#     4   9  19  35  55  77 103 134 165 203 252 297
#
# _framework density 17.556540999999999
#
# number of rings (size 3 to 8) (size 9 to 14) (size 15 to 20)
#    0.000    2.750    1.250    2.625    0.000    4.750 
#    0.000    1.250    0.000    4.500    0.000    5.250 
#    0.000    0.000    0.000    0.000    0.000    0.000 
#
# Total GULP energy -178284.205391 kJ/mol
# GULP energy per Si atom -5571.381418 kJ/mol
# Density = 1.751658 g / cm^3
# Si number density = 17.556541 Si / 1000 Ang^3
#
#
#
# Elastic Constant Matrix: (Units=GPa)
#
#
# Indices 1 2 3 4 5 6 
#
# 1 70.7052 18.0629 69.0887 0.0000 -4.7510 0.0000
# 2 18.0629 17.4266 29.8895 0.0000 0.6727 0.0000
# 3 69.0887 29.8895 157.4330 0.0000 10.7859 0.0000
# 4 0.0000 0.0000 0.0000 9.0048 0.0000 22.5665
# 5 -4.7510 0.6727 10.7859 0.0000 29.3136 0.0000
# 6 0.0000 0.0000 0.0000 22.5665 0.0000 1.0430
#
#
#
# Elastic Compliance Matrix: (Units=1/GPa)
#
#
# Indices 1 2 3 4 5 6 
#
# 1 0.028159 -0.010819 -0.010908 0.000000 0.008826 0.000000
# 2 -0.010819 0.089731 -0.012338 0.000000 0.000727 0.000000
# 3 -0.010908 -0.012338 0.013934 0.000000 -0.006612 0.000000
# 4 0.000000 0.000000 0.000000 -0.002087 0.000000 0.045146
# 5 0.008826 0.000727 -0.006612 0.000000 0.037960 0.000000
# 6 0.000000 0.000000 0.000000 0.045146 0.000000 -0.018015
#
#
# Mechanical properties :
#
#
# Convention : Reuss Voigt Hill
#
# Bulk Modulus (GPa) = 15.69991 53.29413 34.49702
# Shear Modulus (GPa) = 20.91666 16.44051 18.67858
#
# Velocity S-wave (km/s) = 3.45539 3.06344 3.26530
# Velocity P-wave (km/s) = 4.98814 6.55244 5.82306
#
# Compressibility (1/GPa) = 0.06369464
#
# Stress axis : x y z
#
# Youngs Moduli (GPa) = 35.51298 11.14442 71.76547
#
# Poissons Ratio (x) = 0.12057 0.78282
# Poissons Ratio (y) = 0.38420 0.88545
# Poissons Ratio (z) = 0.38738 0.13750
#
# Static dielectric constant tensor:
#      x y z
#    x 1.576360 0.000000 0.000830 
#    y 0.000000 1.593290 0.000000 
#    z 0.000830 0.000000 1.627810 
# 
# From -- ./inp_files/86758.got.cif
#   From: 2010.05.17/outbox.cif.g08.bks.cpg/sg10_44_cif.got.tgz:86758.got - 2010.06.03 11:33:40.
