data_PCOD9141168
_publ_section_title
;
Structure prediction by ZEFSAII (Michael W. Deem and Ramdas Pophale) SiO2 
 PCOD9141168
Probable space group: C C
;
_chemical_formula_sum "Si O2"
_cell_formula_units_Z 28
_cell_length_a 10.865939
_cell_length_b 12.793425
_cell_length_c 9.580135
_cell_angle_alpha 90.000000
_cell_angle_beta 51.168470
_cell_angle_gamma 90.000000
_cell_volume 1037.431161
_symmetry_space_group_name_H-M "C C"
_symmetry_group_IT_number 9
_symmetry_cell_setting 'monoclinic'
loop_
_space_group_symop_operation_xyz
x,y,z
x,-y,1/2+z
1/2+x,1/2+y,z
1/2+x,1/2-y,1/2+z
loop_
_atom_site_type_symbol
_atom_site_label
_atom_site_fract_x
_atom_site_fract_y
_atom_site_fract_z
Si Si1 0.840740 0.411995 0.235520
Si Si2 0.560402 0.511535 0.751367
Si Si3 0.634976 0.680203 0.487868
Si Si4 0.514034 0.968661 0.368767
Si Si5 0.370035 0.678366 0.281033
Si Si6 0.241563 0.617675 0.084922
Si Si7 0.773019 0.207514 0.657463
O O1 0.668259 0.450772 0.305956
O O2 0.872619 0.422178 0.377942
O O3 0.888443 0.289238 0.188884
O O4 0.952974 0.474212 0.048402
O O5 0.643290 0.576743 0.570717
O O6 0.513665 0.394485 0.734056
O O7 0.387372 0.562536 0.904405
O O8 0.697277 0.773063 0.544421
O O9 0.732790 0.689961 0.275854
O O10 0.452315 0.686281 0.573584
O O11 0.586829 0.048330 0.204596
O O12 0.644397 0.878111 0.300633
O O13 0.285862 0.616452 0.217576
O O14 0.269600 0.700767 0.492734
#
# Coordination Sequence:
#
# PCOD9141168 Si02
#       7
#     4   4   4   4   4   4   4
#     4  12  31  56  89 134 180 239 312 380 463 557
#     4  12  29  56  89 134 182 240 314 378 467 558
#     4  12  27  51  88 130 171 242 298 373 458 562
#     4  12  28  57  84 128 180 230 299 380 457 549
#     4  12  29  58  91 128 183 240 302 383 464 545
#     4  12  27  53  90 123 180 238 299 374 469 542
#     4  12  27  55  87 131 180 239 304 380 468 547
#
# _framework density 26.989744000000002
#
# number of rings (size 3 to 8) (size 9 to 14) (size 15 to 20)
#    0.000    0.000    4.286    3.429    6.000    2.286 
#    7.714    0.000    0.000    0.000    0.000    0.000 
#    0.000    0.000    0.000    0.000    0.000    0.000 
#
# Total GULP energy -78382.675714 kJ/mol
# GULP energy per Si atom -5598.762551 kJ/mol
# Density = 2.692831 g / cm^3
# Si number density = 26.989744 Si / 1000 Ang^3
#
#
#
# Elastic Constant Matrix: (Units=GPa)
#
#
# Indices 1 2 3 4 5 6 
#
# 1 157.6573 38.5861 20.9292 0.0000 15.8158 0.0000
# 2 38.5861 136.9578 39.7883 0.0000 5.3278 0.0000
# 3 20.9292 39.7883 101.1417 0.0000 21.8782 0.0000
# 4 0.0000 0.0000 0.0000 55.1216 0.0000 -5.9594
# 5 15.8158 5.3278 21.8782 0.0000 49.7786 0.0000
# 6 0.0000 0.0000 0.0000 -5.9594 0.0000 40.7930
#
#
#
# Elastic Compliance Matrix: (Units=1/GPa)
#
#
# Indices 1 2 3 4 5 6 
#
# 1 0.007019 -0.001807 -0.000332 0.000000 -0.001891 0.000000
# 2 -0.001807 0.008725 -0.003294 0.000000 0.001088 0.000000
# 3 -0.000332 -0.003294 0.012324 0.000000 -0.004958 0.000000
# 4 0.000000 0.000000 0.000000 0.018433 0.000000 0.002693
# 5 -0.001891 0.001088 -0.004958 0.000000 0.022752 0.000000
# 6 0.000000 0.000000 0.000000 0.002693 0.000000 0.024907
#
#
# Mechanical properties :
#
#
# Convention : Reuss Voigt Hill
#
# Bulk Modulus (GPa) = 58.13546 66.04044 62.08795
# Shear Modulus (GPa) = 45.14166 48.90217 47.02191
#
# Velocity S-wave (km/s) = 4.09412 4.26124 4.17851
# Velocity P-wave (km/s) = 6.62840 6.98088 6.80692
#
# Compressibility (1/GPa) = 0.01720120
#
# Stress axis : x y z
#
# Youngs Moduli (GPa) = 142.47016 114.60923 81.14073
#
# Poissons Ratio (x) = 0.20714 0.02698
# Poissons Ratio (y) = 0.25750 0.26726
# Poissons Ratio (z) = 0.04737 0.37750
#
# Static dielectric constant tensor:
#      x y z
#    x 2.145290 0.000000 -0.006050 
#    y 0.000000 2.184510 0.000000 
#    z -0.006050 0.000000 2.060550 
# 
# From -- ./inp_files/16363.got.cif
#   From: 2010.05.17/outbox.cif.g08.bks.cpg/sg9_9_cif.got.tgz:16363.got - 2010.06.03 20:04:27.
