data_PCOD9141107
_publ_section_title
;
Structure prediction by ZEFSAII (Michael W. Deem and Ramdas Pophale) SiO2 
 PCOD9141107
Probable space group: C C
;
_chemical_formula_sum "Si O2"
_cell_formula_units_Z 16
_cell_length_a 10.002620
_cell_length_b 10.159574
_cell_length_c 4.877501
_cell_angle_alpha 90.000000
_cell_angle_beta 119.989918
_cell_angle_gamma 90.000000
_cell_volume 429.300485
_symmetry_space_group_name_H-M "C C"
_symmetry_group_IT_number 9
_symmetry_cell_setting 'monoclinic'
loop_
_space_group_symop_operation_xyz
x,y,z
x,-y,1/2+z
1/2+x,1/2+y,z
1/2+x,1/2-y,1/2+z
loop_
_atom_site_type_symbol
_atom_site_label
_atom_site_fract_x
_atom_site_fract_y
_atom_site_fract_z
Si Si1 0.976060 0.306497 0.372110
Si Si2 0.230158 0.564664 0.362185
Si Si3 0.497749 0.655882 0.848942
Si Si4 0.802807 0.478922 0.687017
O O1 0.886434 0.172190 0.450500
O O2 0.869431 0.408037 0.475969
O O3 0.120883 0.450329 0.455139
O O4 0.034735 0.221407 0.176378
O O5 0.105830 0.708332 0.273893
O O6 0.332301 0.564865 0.776990
O O7 0.626788 0.546220 0.939369
O O8 0.841826 0.385794 0.000385
#
# Coordination Sequence:
#
# PCOD9141107 Si02
#       4
#     4   4   4   4
#     4  12  28  48  81 119 162 217 277 343 425 515
#     4  12  26  52  74 114 160 210 274 344 428 504
#     4  12  28  48  81 119 162 217 277 343 425 515
#     4  12  26  48  80 118 164 218 274 348 432 502
#
# _framework density 37.269934999999997
#
# number of rings (size 3 to 8) (size 9 to 14) (size 15 to 20)
#    0.000    0.000    0.000    9.000   10.500    0.000 
#    0.000    0.000    0.000    0.000    0.000    0.000 
#    0.000    0.000    0.000    0.000    0.000    0.000 
#
# Total GULP energy -44637.230098 kJ/mol
# GULP energy per Si atom -5579.653762 kJ/mol
# Density = 3.718511 g / cm^3
# Si number density = 37.269935 Si / 1000 Ang^3
#
#
#
# Elastic Constant Matrix: (Units=GPa)
#
#
# Indices 1 2 3 4 5 6 
#
# 1 357.9350 83.0715 242.2059 0.0000 1.8018 0.0000
# 2 83.0715 337.7073 151.2958 0.0000 0.1695 0.0000
# 3 242.2059 151.2958 461.5725 0.0000 -68.8485 0.0000
# 4 0.0000 0.0000 0.0000 148.1741 0.0000 -4.4552
# 5 1.8018 0.1695 -68.8485 0.0000 168.3597 0.0000
# 6 0.0000 0.0000 0.0000 -4.4552 0.0000 94.8948
#
#
#
# Elastic Compliance Matrix: (Units=1/GPa)
#
#
# Indices 1 2 3 4 5 6 
#
# 1 0.004510 0.000028 -0.002538 0.000000 -0.001086 0.000000
# 2 0.000028 0.003511 -0.001242 0.000000 -0.000512 0.000000
# 3 -0.002538 -0.001242 0.004163 0.000000 0.001731 0.000000
# 4 0.000000 0.000000 0.000000 0.006758 0.000000 0.000317
# 5 -0.001086 -0.000512 0.001731 0.000000 0.006660 0.000000
# 6 0.000000 0.000000 0.000000 0.000317 0.000000 0.010553
#
#
# Mechanical properties :
#
#
# Convention : Reuss Voigt Hill
#
# Bulk Modulus (GPa) = 213.62103 234.48457 224.05280
# Shear Modulus (GPa) = 110.57351 127.66182 119.11766
#
# Velocity S-wave (km/s) = 5.45277 5.85898 5.65952
# Velocity P-wave (km/s) = 9.85319 10.43178 10.14661
#
# Compressibility (1/GPa) = 0.00468119
#
# Stress axis : x y z
#
# Youngs Moduli (GPa) = 221.72857 284.83070 240.18503
#
# Poissons Ratio (x) = -0.00800 0.60954
# Poissons Ratio (y) = -0.00623 0.29828
# Poissons Ratio (z) = 0.56270 0.35372
#
# Static dielectric constant tensor:
#      x y z
#    x 3.969480 0.000000 0.052520 
#    y 0.000000 4.374760 0.000000 
#    z 0.052520 0.000000 2.530230 
# 
# From -- ./inp_files/415.got.cif
#   From: 2010.05.17/outbox.cif.g08.bks.cpg/sg9_1_cif.got.tgz:415.got - 2010.06.03 20:04:27.
