data_PCOD9141670
_publ_section_title
;
Structure prediction by ZEFSAII (Michael W. Deem and Ramdas Pophale) SiO2 
 PCOD9141670
Probable space group: P 2/M
;
_chemical_formula_sum "Si O2"
_cell_formula_units_Z 26
_cell_length_a 12.917658
_cell_length_b 24.472677
_cell_length_c 13.316672
_cell_angle_alpha 90.000000
_cell_angle_beta 22.476821
_cell_angle_gamma 90.000000
_cell_volume 1609.445292
_symmetry_space_group_name_H-M "P 2/M"
_symmetry_group_IT_number 10
_symmetry_cell_setting 'monoclinic'
loop_
_space_group_symop_operation_xyz
x,y,z
-x,y,-z
-x,-y,-z
x,-y,z
loop_
_atom_site_type_symbol
_atom_site_label
_atom_site_fract_x
_atom_site_fract_y
_atom_site_fract_z
Si Si1 0.795080 0.000000 0.281532
Si Si2 0.314796 0.755023 0.996761
Si Si3 0.085497 0.562297 0.541243
Si Si4 0.146547 0.820643 0.470598
Si Si5 0.585178 0.630540 0.040990
Si Si6 0.249831 0.114934 0.569909
Si Si7 0.203153 0.819275 0.907297
O O1 0.500000 0.000000 0.500000
O O2 0.796224 0.946451 0.351020
O O3 0.000000 0.000000 0.000000
O O4 0.338645 0.690839 0.992214
O O5 0.059170 0.780858 0.284336
O O6 0.584475 0.785795 0.793278
O O7 0.296912 0.770019 0.894574
O O8 0.145384 0.500000 0.517501
O O9 0.000000 0.560424 0.500000
O O10 0.834252 0.588844 0.823228
O O11 0.336721 0.603190 0.321753
O O12 0.231161 0.870367 0.468454
O O13 0.000000 0.838195 0.500000
O O14 0.500000 0.634944 0.000000
O O15 0.532576 0.143278 0.353366
O O16 0.994498 0.145007 0.847041
O O17 0.000000 0.802843 0.000000
#
# Coordination Sequence:
#
# PCOD9141670 Si02
#       7
#     2   4   4   4   4   4   4
#     4  12  22  34  53  74  97 120 154 202 239 270
#     4  10  20  30  47  72  93 121 160 192 227 279
#     4   9  17  27  39  57  85 121 153 182 222 267
#     4  10  19  33  49  67  96 127 155 188 228 275
#     4  10  17  26  41  61  88 117 149 188 222 261
#     4  10  21  33  50  74  94 122 157 187 230 285
#     4  10  19  34  51  69  97 124 149 188 239 283
#
# _framework density 16.154634000000001
#
# number of rings (size 3 to 8) (size 9 to 14) (size 15 to 20)
#    0.000    2.000    0.000    5.538    0.000    3.077 
#    0.000    0.385    0.000    0.000    0.000    7.538 
#    0.000    3.692    0.000    0.000    0.000    0.000 
#
# Total GULP energy -144848.018325 kJ/mol
# GULP energy per Si atom -5571.077628 kJ/mol
# Density = 1.611787 g / cm^3
# Si number density = 16.154634 Si / 1000 Ang^3
#
#
#
# Elastic Constant Matrix: (Units=GPa)
#
#
# Indices 1 2 3 4 5 6 
#
# 1 81.8127 36.8865 -1.1135 0.0000 -8.4547 0.0000
# 2 36.8865 96.5615 26.9181 0.0000 -1.2314 0.0000
# 3 -1.1135 26.9181 73.8962 0.0000 -14.7311 0.0000
# 4 0.0000 0.0000 0.0000 14.6582 0.0000 11.3067
# 5 -8.4547 -1.2314 -14.7311 0.0000 19.2806 0.0000
# 6 0.0000 0.0000 0.0000 11.3067 0.0000 -20.5688
#
#
#
# Elastic Compliance Matrix: (Units=1/GPa)
#
#
# Indices 1 2 3 4 5 6 
#
# 1 0.016950 -0.007809 0.005288 0.000000 0.010974 0.000000
# 2 -0.007809 0.015265 -0.007274 0.000000 -0.008007 0.000000
# 3 0.005288 -0.007274 0.019620 0.000000 0.016844 0.000000
# 4 0.000000 0.000000 0.000000 0.047908 0.000000 0.026335
# 5 0.010974 -0.008007 0.016844 0.000000 0.069036 0.000000
# 6 0.000000 0.000000 0.000000 0.026335 0.000000 -0.034141
#
#
# Mechanical properties :
#
#
# Convention : Reuss Voigt Hill
#
# Bulk Modulus (GPa) = 31.01441 41.96143 36.48792
# Shear Modulus (GPa) = 30.30736 15.31263 22.80999
#
# Velocity S-wave (km/s) = 4.33607 3.08210 3.76171
# Velocity P-wave (km/s) = 6.65649 6.22070 6.44228
#
# Compressibility (1/GPa) = 0.03224308
#
# Stress axis : x y z
#
# Youngs Moduli (GPa) = 58.99767 65.51000 50.96857
#
# Poissons Ratio (x) = 0.51156 -0.26950
# Poissons Ratio (y) = 0.46071 0.37077
# Poissons Ratio (z) = -0.31195 0.47655
#
# Static dielectric constant tensor:
#      x y z
#    x 1.563190 0.000000 0.001100 
#    y 0.000000 1.577580 0.000000 
#    z 0.001100 0.000000 1.552440 
# 
# From -- ./inp_files/67808.got.cif
#   From: 2010.05.17/outbox.cif.g08.bks.cpg/sg10_34_cif.got.tgz:67808.got - 2010.06.03 11:33:40.
