data_PCOD9141351
_publ_section_title
;
Structure prediction by ZEFSAII (Michael W. Deem and Ramdas Pophale) SiO2 
 PCOD9141351
Probable space group: P 2/M
;
_chemical_formula_sum "Si O2"
_cell_formula_units_Z 28
_cell_length_a 19.926667
_cell_length_b 7.526502
_cell_length_c 7.150091
_cell_angle_alpha 90.000000
_cell_angle_beta 94.045074
_cell_angle_gamma 90.000000
_cell_volume 1069.685670
_symmetry_space_group_name_H-M "P 2/M"
_symmetry_group_IT_number 10
_symmetry_cell_setting 'monoclinic'
loop_
_space_group_symop_operation_xyz
x,y,z
-x,y,-z
-x,-y,-z
x,-y,z
loop_
_atom_site_type_symbol
_atom_site_label
_atom_site_fract_x
_atom_site_fract_y
_atom_site_fract_z
Si Si1 0.210746 0.213463 0.037377
Si Si2 0.353515 0.296701 0.080072
Si Si3 0.222613 0.218154 0.603832
Si Si4 0.924499 0.203844 0.455674
Si Si5 0.071135 0.796084 0.988222
Si Si6 0.508448 0.213436 0.784427
Si Si7 0.369051 0.797478 0.655501
O O1 0.218974 0.267657 0.822787
O O2 0.138545 0.283516 0.086511
O O3 0.206001 0.000000 0.041560
O O4 0.279799 0.262906 0.147423
O O5 0.358301 0.500000 0.025832
O O6 0.413751 0.256626 0.234237
O O7 0.360719 0.193449 0.883719
O O8 0.150209 0.275248 0.504088
O O9 0.298368 0.280083 0.568196
O O10 0.222712 0.000000 0.590551
O O11 0.918609 0.194530 0.230849
O O12 0.000000 0.282762 0.500000
O O13 0.928238 0.000000 0.528315
O O14 0.065124 0.000000 0.057184
O O15 0.000000 0.705365 0.000000
O O16 0.444366 0.282402 0.656063
O O17 0.503089 0.000000 0.777701
O O18 0.500000 0.272254 0.000000
O O19 0.372000 0.000000 0.585868
#
# Coordination Sequence:
#
# PCOD9141351 Si02
#       7
#     4   4   4   4   4   4   4
#     4   8  13  22  33  42  57  83 112 139 166 199
#     4  10  16  19  26  41  60  80 105 138 171 203
#     4   7  10  17  28  40  55  79 109 133 156 194
#     4   8  12  17  27  46  71  92 108 136 179 212
#     4   8  13  21  34  50  65  86 119 150 170 198
#     4   8  13  20  28  37  52  78 110 138 165 199
#     4   8  13  21  30  38  53  81 113 140 165 198
#
# _framework density 26.175913999999999
#
# number of rings (size 3 to 8) (size 9 to 14) (size 15 to 20)
#    0.000    3.857    0.000    4.714    0.000    2.571 
#    0.000    0.000    0.000    0.429    0.000    0.000 
#    0.000   46.286    0.000    1.286    0.000   36.286 
#
# Total GULP energy -155996.865962 kJ/mol
# GULP energy per Si atom -5571.316641 kJ/mol
# Density = 2.611634 g / cm^3
# Si number density = 26.175914 Si / 1000 Ang^3
#
#
#
# Elastic Constant Matrix: (Units=GPa)
#
#
# Indices 1 2 3 4 5 6 
#
# 1 379.8714 14.2072 27.5072 0.0000 47.2543 0.0000
# 2 14.2072 80.0323 -4.2891 0.0000 -1.0713 0.0000
# 3 27.5072 -4.2891 111.9562 0.0000 22.6989 0.0000
# 4 0.0000 0.0000 0.0000 -9.3686 0.0000 3.5156
# 5 47.2543 -1.0713 22.6989 0.0000 20.4428 0.0000
# 6 0.0000 0.0000 0.0000 3.5156 0.0000 -48.2357
#
#
#
# Elastic Compliance Matrix: (Units=1/GPa)
#
#
# Indices 1 2 3 4 5 6 
#
# 1 0.003841 -0.000760 0.001078 0.000000 -0.010116 0.000000
# 2 -0.000760 0.012671 0.000234 0.000000 0.002160 0.000000
# 3 0.001078 0.000234 0.011846 0.000000 -0.015633 0.000000
# 4 0.000000 0.000000 0.000000 -0.109740 0.000000 -0.007998
# 5 -0.010116 0.002160 -0.015633 0.000000 0.089771 0.000000
# 6 0.000000 0.000000 0.000000 -0.007998 0.000000 -0.021314
#
#
# Mechanical properties :
#
#
# Convention : Reuss Voigt Hill
#
# Bulk Modulus (GPa) = 33.94004 71.85671 52.89837
# Shear Modulus (GPa) = -1187.70775 28.19667 -579.75554
#
# Velocity S-wave (km/s) = -21.32430 3.28563 -14.89850
# Velocity P-wave (km/s) = 24.35789 6.47340 16.60424
#
# Compressibility (1/GPa) = 0.02946373
#
# Stress axis : x y z
#
# Youngs Moduli (GPa) = 260.33650 78.91885 84.41907
#
# Poissons Ratio (x) = 0.05994 -0.09101
# Poissons Ratio (y) = 0.19773 -0.01977
# Poissons Ratio (z) = -0.28067 -0.01848
#
# Static dielectric constant tensor:
#      x y z
#    x 2.211900 0.000000 0.061530 
#    y 0.000000 1.954840 0.000000 
#    z 0.061530 0.000000 1.445450 
# 
# From -- ./inp_files/52431.got.cif
#   From: 2010.05.17/outbox.cif.g08.bks.cpg/sg10_27_cif.got.tgz:52431.got - 2010.06.03 11:33:40.
