data_PCOD9141974
_publ_section_title
;
Structure prediction by ZEFSAII (Michael W. Deem and Ramdas Pophale) SiO2 
 PCOD9141974
Probable space group: P 2/M
;
_chemical_formula_sum "Si O2"
_cell_formula_units_Z 32
_cell_length_a 9.360651
_cell_length_b 19.751852
_cell_length_c 9.616937
_cell_angle_alpha 90.000000
_cell_angle_beta 66.158791
_cell_angle_gamma 90.000000
_cell_volume 1626.352557
_symmetry_space_group_name_H-M "P 2/M"
_symmetry_group_IT_number 10
_symmetry_cell_setting 'monoclinic'
loop_
_space_group_symop_operation_xyz
x,y,z
-x,y,-z
-x,-y,-z
x,-y,z
loop_
_atom_site_type_symbol
_atom_site_label
_atom_site_fract_x
_atom_site_fract_y
_atom_site_fract_z
Si Si1 0.138719 0.141803 0.858980
Si Si2 0.528746 0.921233 0.324693
Si Si3 0.757336 0.711048 0.438872
Si Si4 0.684806 0.571338 0.456050
Si Si5 0.032146 0.202602 0.329421
Si Si6 0.373276 0.795324 0.261285
Si Si7 0.310947 0.722665 0.854826
Si Si8 0.185860 0.576291 0.907893
O O1 0.293436 0.098539 0.779895
O O2 0.188441 0.214378 0.910065
O O3 0.062589 0.157354 0.740262
O O4 0.000000 0.109128 0.000000
O O5 0.500000 0.907113 0.500000
O O6 0.426519 0.871668 0.269392
O O7 0.497657 0.000000 0.312457
O O8 0.730578 0.638476 0.517262
O O9 0.681934 0.766026 0.568126
O O10 0.678835 0.714074 0.318282
O O11 0.940978 0.726089 0.352486
O O12 0.500000 0.573611 0.500000
O O13 0.721462 0.500000 0.511199
O O14 0.771044 0.574035 0.273114
O O15 0.216436 0.207761 0.232099
O O16 0.000000 0.179053 0.500000
O O17 0.522972 0.751027 0.158611
O O18 0.260794 0.648185 0.929100
O O19 0.233030 0.500000 0.942996
O O20 0.000000 0.581884 0.000000
#
# Coordination Sequence:
#
# PCOD9141974 Si02
#       8
#     4   4   4   4   4   4   4   4
#     4  10  20  35  56  80 106 135 171 216 259 303
#     4  10  20  35  56  80 106 139 176 210 251 309
#     4   9  15  26  47  71  97 131 171 211 251 298
#     4   9  16  25  40  66  95 124 164 212 254 293
#     4   9  18  31  52  78 105 137 174 210 254 307
#     4  10  17  30  50  72  99 130 168 210 252 299
#     4   9  16  27  46  70  97 130 169 210 254 301
#     4   9  16  25  39  63  95 128 165 209 251 293
#
# _framework density 19.675930999999999
#
# number of rings (size 3 to 8) (size 9 to 14) (size 15 to 20)
#    0.000    2.625    0.000    5.250    0.000    0.250 
#    0.000    3.125    0.000   10.125    0.000    0.000 
#    0.000   20.000    0.000    0.000    0.000    0.000 
#
# Total GULP energy -178248.534852 kJ/mol
# GULP energy per Si atom -5570.266714 kJ/mol
# Density = 1.963115 g / cm^3
# Si number density = 19.675931 Si / 1000 Ang^3
#
#
#
# Elastic Constant Matrix: (Units=GPa)
#
#
# Indices 1 2 3 4 5 6 
#
# 1 104.6006 37.9304 19.6202 0.0000 -22.0284 0.0000
# 2 37.9304 122.2239 9.3235 0.0000 -13.9594 0.0000
# 3 19.6202 9.3235 60.7478 0.0000 -19.6050 0.0000
# 4 0.0000 0.0000 0.0000 2.7656 0.0000 -9.0965
# 5 -22.0284 -13.9594 -19.6050 0.0000 33.8685 0.0000
# 6 0.0000 0.0000 0.0000 -9.0965 0.0000 2.6269
#
#
#
# Elastic Compliance Matrix: (Units=1/GPa)
#
#
# Indices 1 2 3 4 5 6 
#
# 1 0.012157 -0.002994 -0.001615 0.000000 0.005738 0.000000
# 2 -0.002994 0.009326 0.000182 0.000000 0.002001 0.000000
# 3 -0.001615 0.000182 0.020463 0.000000 0.010870 0.000000
# 4 0.000000 0.000000 0.000000 -0.034803 0.000000 -0.120513
# 5 0.005738 0.002001 0.010870 0.000000 0.040375 0.000000
# 6 0.000000 0.000000 0.000000 -0.120513 0.000000 -0.036639
#
#
# Mechanical properties :
#
#
# Convention : Reuss Voigt Hill
#
# Bulk Modulus (GPa) = 30.21993 46.81339 38.51666
# Shear Modulus (GPa) = 162.52165 22.56543 92.54354
#
# Velocity S-wave (km/s) = 9.09827 3.39020 6.86557
# Velocity P-wave (km/s) = 11.21443 6.25847 9.08108
#
# Compressibility (1/GPa) = 0.03309074
#
# Stress axis : x y z
#
# Youngs Moduli (GPa) = 82.25477 107.23109 48.86825
#
# Poissons Ratio (x) = 0.32108 0.07893
# Poissons Ratio (y) = 0.24629 -0.00888
# Poissons Ratio (z) = 0.13285 -0.01948
#
# Static dielectric constant tensor:
#      x y z
#    x 1.695700 0.000000 -0.010900 
#    y 0.000000 1.742000 0.000000 
#    z -0.010900 0.000000 1.747340 
# 
# From -- ./inp_files/43523.got.cif
#   From: 2010.05.17/outbox.cif.g08.bks.cpg/sg10_22_cif.got.tgz:43523.got - 2010.06.03 11:33:40.
