data_PCOD9141475
_publ_section_title
;
Structure prediction by ZEFSAII (Michael W. Deem and Ramdas Pophale) SiO2 
 PCOD9141475
Probable space group: P 2/M
;
_chemical_formula_sum "Si O2"
_cell_formula_units_Z 32
_cell_length_a 9.631969
_cell_length_b 19.805106
_cell_length_c 12.433925
_cell_angle_alpha 90.000000
_cell_angle_beta 130.770881
_cell_angle_gamma 90.000000
_cell_volume 1796.321031
_symmetry_space_group_name_H-M "P 2/M"
_symmetry_group_IT_number 10
_symmetry_cell_setting 'monoclinic'
loop_
_space_group_symop_operation_xyz
x,y,z
-x,y,-z
-x,-y,-z
x,-y,z
loop_
_atom_site_type_symbol
_atom_site_label
_atom_site_fract_x
_atom_site_fract_y
_atom_site_fract_z
Si Si1 0.577805 0.578689 0.206733
Si Si2 0.658658 0.579244 0.502965
Si Si3 0.572204 0.283924 0.916951
Si Si4 0.901447 0.817225 0.063226
Si Si5 0.962870 0.362955 0.354376
Si Si6 0.579390 0.079550 0.919538
Si Si7 0.689369 0.820877 0.322525
Si Si8 0.028389 0.205215 0.352880
O O1 0.537959 0.500000 0.163667
O O2 0.607640 0.585608 0.350876
O O3 0.431260 0.635930 0.102154
O O4 0.765386 0.602090 0.240899
O O5 0.500000 0.608552 0.500000
O O6 0.670809 0.500000 0.532652
O O7 0.862940 0.607706 0.620194
O O8 0.426188 0.246626 0.764889
O O9 0.500000 0.268977 0.000000
O O10 0.765165 0.247207 0.000414
O O11 0.036940 0.812828 0.232849
O O12 0.772525 0.882440 0.011090
O O13 0.000000 0.818206 0.000000
O O14 0.000000 0.373253 0.500000
O O15 0.971399 0.283511 0.337313
O O16 0.448168 0.117543 0.767871
O O17 0.590845 0.000000 0.906190
O O18 0.500000 0.090578 0.000000
O O19 0.790153 0.810809 0.487063
O O20 0.855566 0.830902 0.322056
#
# Coordination Sequence:
#
# PCOD9141475 Si02
#       8
#     4   4   4   4   4   4   4   4
#     4  10  19  30  48  75 101 136 187 235 281 331
#     4   9  18  30  43  65 103 144 178 222 285 348
#     4  11  19  37  56  76 108 148 185 229 285 338
#     4  11  23  38  58  84 116 150 186 225 275 339
#     4  10  16  28  50  76 102 135 181 240 288 322
#     4  10  20  38  62  87 116 152 187 218 268 334
#     4  10  17  33  60  84 109 139 184 232 268 320
#     4  11  18  33  56  86 111 141 183 233 278 315
#
# _framework density 17.814188000000001
#
# number of rings (size 3 to 8) (size 9 to 14) (size 15 to 20)
#    0.000    1.750    5.000    1.875    0.000    3.000 
#    0.000    4.375    0.000    1.125    0.000    0.000 
#    0.000    0.000    0.000    0.000    0.000    0.000 
#
# Total GULP energy -178466.410298 kJ/mol
# GULP energy per Si atom -5577.075322 kJ/mol
# Density = 1.777364 g / cm^3
# Si number density = 17.814188 Si / 1000 Ang^3
#
#
#
# Elastic Constant Matrix: (Units=GPa)
#
#
# Indices 1 2 3 4 5 6 
#
# 1 102.9559 32.6586 28.7144 0.0000 -9.0068 0.0000
# 2 32.6586 118.8474 38.4947 0.0000 5.0257 0.0000
# 3 28.7144 38.4947 111.0683 0.0000 -8.9397 0.0000
# 4 0.0000 0.0000 0.0000 7.5580 0.0000 -4.5558
# 5 -9.0068 5.0257 -8.9397 0.0000 15.8323 0.0000
# 6 0.0000 0.0000 0.0000 -4.5558 0.0000 3.8480
#
#
#
# Elastic Compliance Matrix: (Units=1/GPa)
#
#
# Indices 1 2 3 4 5 6 
#
# 1 0.011665 -0.003034 -0.001417 0.000000 0.006799 0.000000
# 2 -0.003034 0.010677 -0.003486 0.000000 -0.007084 0.000000
# 3 -0.001417 -0.003486 0.011107 0.000000 0.006572 0.000000
# 4 0.000000 0.000000 0.000000 0.462065 0.000000 0.547059
# 5 0.006799 -0.007084 0.006572 0.000000 0.072989 0.000000
# 6 0.000000 0.000000 0.000000 0.547059 0.000000 0.907563
#
#
# Mechanical properties :
#
#
# Convention : Reuss Voigt Hill
#
# Bulk Modulus (GPa) = 56.90050 59.17857 58.03953
# Shear Modulus (GPa) = 3.33823 20.98126 12.15974
#
# Velocity S-wave (km/s) = 1.37040 3.43561 2.61547
# Velocity P-wave (km/s) = 5.87490 7.00214 6.46314
#
# Compressibility (1/GPa) = 0.01757454
#
# Stress axis : x y z
#
# Youngs Moduli (GPa) = 85.72382 93.66270 90.03324
#
# Poissons Ratio (x) = 0.28419 0.12758
# Poissons Ratio (y) = 0.26010 0.31386
# Poissons Ratio (z) = 0.12147 0.32652
#
# Static dielectric constant tensor:
#      x y z
#    x 1.608570 0.000000 0.004590 
#    y 0.000000 1.611960 0.000000 
#    z 0.004590 0.000000 1.640140 
# 
# From -- ./inp_files/43621.got.cif
#   From: 2010.05.17/outbox.cif.g08.bks.cpg/sg10_22_cif.got.tgz:43621.got - 2010.06.03 11:33:40.
