data_PCOD9141194
_publ_section_title
;
Structure prediction by ZEFSAII (Michael W. Deem and Ramdas Pophale) SiO2 
 PCOD9141194
Probable space group: C C
;
_chemical_formula_sum "Si O2"
_cell_formula_units_Z 32
_cell_length_a 6.758886
_cell_length_b 22.514271
_cell_length_c 9.763768
_cell_angle_alpha 90.000000
_cell_angle_beta 116.276790
_cell_angle_gamma 90.000000
_cell_volume 1332.235762
_symmetry_space_group_name_H-M "C C"
_symmetry_group_IT_number 9
_symmetry_cell_setting 'monoclinic'
loop_
_space_group_symop_operation_xyz
x,y,z
x,-y,1/2+z
1/2+x,1/2+y,z
1/2+x,1/2-y,1/2+z
loop_
_atom_site_type_symbol
_atom_site_label
_atom_site_fract_x
_atom_site_fract_y
_atom_site_fract_z
Si Si1 0.789450 0.799959 0.522760
Si Si2 0.031162 0.557825 0.228244
Si Si3 0.517473 0.700041 0.766215
Si Si4 0.275766 0.942175 0.060729
Si Si5 0.958712 0.894919 0.765966
Si Si6 0.348216 0.605081 0.523008
Si Si7 0.365992 0.816664 0.596366
Si Si8 0.440933 0.183336 0.692609
O O1 0.950606 0.849049 0.640963
O O2 0.571968 0.806642 0.554916
O O3 0.672203 0.809902 0.341866
O O4 0.894440 0.735133 0.570242
O O5 0.246900 0.562463 0.195314
O O6 0.139109 0.566139 0.412892
O O7 0.893184 0.617140 0.159795
O O8 0.903464 0.500000 0.144486
O O9 0.356320 0.650951 0.648011
O O10 0.412484 0.764867 0.718733
O O11 0.734957 0.693357 0.734058
O O12 0.634722 0.690098 0.947109
O O13 0.903463 0.860081 0.894487
O O14 0.413743 0.882860 0.129180
O O15 0.167819 0.933860 0.876082
O O16 0.060028 0.937537 0.093659
#
# Coordination Sequence:
#
# PCOD9141194 Si02
#       8
#     4   4   4   4   4   4   4   4
#     4   9  14  22  32  53  75  88 125 140 183 215
#     4   8  14  25  35  49  72  98 125 141 173 215
#     4   9  14  22  32  53  75  88 125 140 183 215
#     4   8  14  25  35  49  72  98 125 141 173 215
#     4   7  15  24  36  51  69  99 117 150 176 202
#     4   7  15  24  36  51  69  99 117 150 176 202
#     4   9  15  19  35  51  72 102 110 148 176 213
#     4   9  15  19  35  51  72 102 110 148 176 213
#
# _framework density 24.019773000000001
#
# number of rings (size 3 to 8) (size 9 to 14) (size 15 to 20)
#    1.500    2.000    0.000    1.500    3.500    0.000 
#    0.000    1.250    0.000    0.000    0.000    0.000 
#    0.000   32.000    0.000    0.000    0.000    1.000 
#
# Total GULP energy -89249.365794 kJ/mol
# GULP energy per Si atom -5578.085362 kJ/mol
# Density = 2.396510 g / cm^3
# Si number density = 24.019773 Si / 1000 Ang^3
#
#
#
# Elastic Constant Matrix: (Units=GPa)
#
#
# Indices 1 2 3 4 5 6 
#
# 1 70.9742 51.8488 49.7254 0.0000 9.9134 0.0000
# 2 51.8488 234.3520 148.0876 0.0000 39.8072 0.0000
# 3 49.7254 148.0876 216.1665 0.0000 36.2807 0.0000
# 4 0.0000 0.0000 0.0000 46.6405 0.0000 13.6281
# 5 9.9134 39.8072 36.2807 0.0000 50.1457 0.0000
# 6 0.0000 0.0000 0.0000 13.6281 0.0000 21.1808
#
#
#
# Elastic Compliance Matrix: (Units=1/GPa)
#
#
# Indices 1 2 3 4 5 6 
#
# 1 0.017497 -0.002361 -0.002437 0.000000 0.000179 0.000000
# 2 -0.002361 0.008142 -0.004585 0.000000 -0.002679 0.000000
# 3 -0.002437 -0.004585 0.008691 0.000000 -0.002167 0.000000
# 4 0.000000 0.000000 0.000000 0.026405 0.000000 -0.016989
# 5 0.000179 -0.002679 -0.002167 0.000000 0.023601 0.000000
# 6 0.000000 0.000000 0.000000 -0.016989 0.000000 0.058144
#
#
# Mechanical properties :
#
#
# Convention : Reuss Voigt Hill
#
# Bulk Modulus (GPa) = 64.25315 113.42404 88.83860
# Shear Modulus (GPa) = 30.04186 41.71548 35.87867
#
# Velocity S-wave (km/s) = 3.54038 4.17191 3.86905
# Velocity P-wave (km/s) = 6.59701 8.39822 7.55151
#
# Compressibility (1/GPa) = 0.01556344
#
# Stress axis : x y z
#
# Youngs Moduli (GPa) = 57.15170 122.82419 115.05904
#
# Poissons Ratio (x) = 0.29004 0.28043
# Poissons Ratio (y) = 0.13496 0.52751
# Poissons Ratio (z) = 0.13929 0.56311
#
# Static dielectric constant tensor:
#      x y z
#    x 2.193750 0.000000 -0.035210 
#    y 0.000000 1.814580 0.000000 
#    z -0.035210 0.000000 1.922910 
# 
# From -- ./inp_files/9786.got.cif
#   From: 2010.05.17/outbox.cif.g08.bks.cpg/sg9_5_cif.got.tgz:9786.got - 2010.06.03 20:04:27.
