data_PCOD9141567
_publ_section_title
;
Structure prediction by ZEFSAII (Michael W. Deem and Ramdas Pophale) SiO2 
 PCOD9141567
Probable space group: P 2/M
;
_chemical_formula_sum "Si O2"
_cell_formula_units_Z 32
_cell_length_a 17.014515
_cell_length_b 9.267598
_cell_length_c 23.624232
_cell_angle_alpha 90.000000
_cell_angle_beta 36.695945
_cell_angle_gamma 90.000000
_cell_volume 2226.035493
_symmetry_space_group_name_H-M "P 2/M"
_symmetry_group_IT_number 10
_symmetry_cell_setting 'monoclinic'
loop_
_space_group_symop_operation_xyz
x,y,z
-x,y,-z
-x,-y,-z
x,-y,z
loop_
_atom_site_type_symbol
_atom_site_label
_atom_site_fract_x
_atom_site_fract_y
_atom_site_fract_z
Si Si1 0.975445 0.666506 0.946206
Si Si2 0.288247 0.170585 0.884092
Si Si3 0.560079 0.671800 0.741772
Si Si4 0.697651 0.328845 0.540648
Si Si5 0.760903 0.829694 0.222452
Si Si6 0.936671 0.831842 0.448067
Si Si7 0.799746 0.169431 0.651234
Si Si8 0.522053 0.672607 0.421031
O O1 0.967736 0.500000 0.932164
O O2 0.100546 0.749281 0.848592
O O3 0.000000 0.665550 0.000000
O O4 0.839712 0.751804 0.016156
O O5 0.421746 0.247382 0.826340
O O6 0.276501 0.187055 0.822511
O O7 0.289143 0.000000 0.895776
O O8 0.545696 0.500000 0.756685
O O9 0.616560 0.699142 0.645569
O O10 0.669110 0.736403 0.721260
O O11 0.718550 0.500000 0.525372
O O12 0.838388 0.252722 0.464243
O O13 0.605801 0.283722 0.541670
O O14 0.647098 0.756938 0.324885
O O15 0.772725 0.000000 0.226816
O O16 0.869014 0.823140 0.549344
O O17 0.086923 0.781588 0.370450
O O18 0.940697 0.000000 0.430233
O O19 0.770190 0.000000 0.678315
O O20 0.500000 0.697655 0.500000
O O21 0.541347 0.500000 0.400903
#
# Coordination Sequence:
#
# PCOD9141567 Si02
#       8
#     4   4   4   4   4   4   4   4
#     4   9  17  28  43  60  79 103 132 166 202 244
#     4  10  18  27  40  59  82 108 136 167 203 243
#     4  10  17  24  37  56  79 106 136 168 201 237
#     4   9  17  27  39  55  74  99 134 173 208 242
#     4  10  19  30  44  60  79 103 134 173 211 248
#     4   8  14  24  38  52  70  98 130 162 198 241
#     4   8  14  24  35  51  74 100 130 161 195 237
#     4  10  20  33  46  59  79 108 141 177 216 252
#
# _framework density 14.375332
#
# number of rings (size 3 to 8) (size 9 to 14) (size 15 to 20)
#    0.000    2.750    1.250    2.250    0.000    4.250 
#    0.000    2.500    0.000    0.000    0.000    0.000 
#    0.000    0.000    0.000    1.125    0.000   21.750 
#
# Total GULP energy -178205.587362 kJ/mol
# GULP energy per Si atom -5568.924605 kJ/mol
# Density = 1.434261 g / cm^3
# Si number density = 14.375332 Si / 1000 Ang^3
#
#
#
# Elastic Constant Matrix: (Units=GPa)
#
#
# Indices 1 2 3 4 5 6 
#
# 1 88.7811 58.2058 60.4509 0.0000 -36.8508 0.0000
# 2 58.2058 84.0945 61.1318 0.0000 -29.4086 0.0000
# 3 60.4509 61.1318 70.2168 0.0000 -31.7010 0.0000
# 4 0.0000 0.0000 0.0000 21.5409 0.0000 -10.6034
# 5 -36.8508 -29.4086 -31.7010 0.0000 31.8476 0.0000
# 6 0.0000 0.0000 0.0000 -10.6034 0.0000 21.0560
#
#
#
# Elastic Compliance Matrix: (Units=1/GPa)
#
#
# Indices 1 2 3 4 5 6 
#
# 1 0.032425 -0.004850 -0.015938 0.000000 0.017175 0.000000
# 2 -0.004850 0.033314 -0.024470 0.000000 0.000793 0.000000
# 3 -0.015938 -0.024470 0.055829 0.000000 0.014534 0.000000
# 4 0.000000 0.000000 0.000000 0.061724 0.000000 0.031083
# 5 0.017175 0.000793 0.014534 0.000000 0.066472 0.000000
# 6 0.000000 0.000000 0.000000 0.031083 0.000000 0.063145
#
#
# Mechanical properties :
#
#
# Convention : Reuss Voigt Hill
#
# Bulk Modulus (GPa) = 32.20571 66.96324 49.58447
# Shear Modulus (GPa) = 12.08384 19.10916 15.59650
#
# Velocity S-wave (km/s) = 2.90245 3.64992 3.29743
# Velocity P-wave (km/s) = 5.80382 8.02781 7.00464
#
# Compressibility (1/GPa) = 0.03105039
#
# Stress axis : x y z
#
# Youngs Moduli (GPa) = 30.84054 30.01736 17.91195
#
# Poissons Ratio (x) = 0.14559 0.28549
# Poissons Ratio (y) = 0.14959 0.43830
# Poissons Ratio (z) = 0.49155 0.73452
#
# Static dielectric constant tensor:
#      x y z
#    x 1.471730 0.000000 -0.021820 
#    y 0.000000 1.477990 0.000000 
#    z -0.021820 0.000000 1.449370 
# 
# From -- ./inp_files/54906.got.cif
#   From: 2010.05.17/outbox.cif.g08.bks.cpg/sg10_28_cif.got.tgz:54906.got - 2010.06.03 11:33:40.
