data_PCOD9141881
_publ_section_title
;
Structure prediction by ZEFSAII (Michael W. Deem and Ramdas Pophale) SiO2 
 PCOD9141881
Probable space group: P 2/M
;
_chemical_formula_sum "Si O2"
_cell_formula_units_Z 28
_cell_length_a 14.520986
_cell_length_b 11.453457
_cell_length_c 8.691728
_cell_angle_alpha 90.000000
_cell_angle_beta 77.841359
_cell_angle_gamma 90.000000
_cell_volume 1413.142254
_symmetry_space_group_name_H-M "P 2/M"
_symmetry_group_IT_number 10
_symmetry_cell_setting 'monoclinic'
loop_
_space_group_symop_operation_xyz
x,y,z
-x,y,-z
-x,-y,-z
x,-y,z
loop_
_atom_site_type_symbol
_atom_site_label
_atom_site_fract_x
_atom_site_fract_y
_atom_site_fract_z
Si Si1 0.051812 0.137657 0.143637
Si Si2 0.724376 0.139170 0.577456
Si Si3 0.972415 0.500000 0.336304
Si Si4 0.205897 0.745631 0.929513
Si Si5 0.890326 0.751611 0.355712
Si Si6 0.446027 0.138726 0.170041
Si Si7 0.631952 0.864668 0.274375
Si Si8 0.891159 0.500000 0.970722
O O1 0.992871 0.190607 0.304292
O O2 0.048874 0.000000 0.153483
O O3 0.157021 0.182970 0.083677
O O4 0.000000 0.174431 0.000000
O O5 0.821808 0.208010 0.515461
O O6 0.655267 0.182991 0.736917
O O7 0.664616 0.152003 0.438703
O O8 0.743937 0.000000 0.588347
O O9 0.910581 0.614909 0.330951
O O10 0.000000 0.500000 0.500000
O O11 0.073273 0.500000 0.215866
O O12 0.162760 0.790408 0.781826
O O13 0.313595 0.777263 0.860631
O O14 0.169018 0.613989 0.966510
O O15 0.521467 0.149132 0.281786
O O16 0.431302 0.000000 0.148222
O O17 0.500000 0.184986 0.000000
O O18 0.656266 0.000000 0.224734
O O19 0.000000 0.500000 0.000000
#
# Coordination Sequence:
#
# PCOD9141881 Si02
#       8
#     4   4   2   4   4   4   4   2
#     4   9  15  24  44  75 105 128 155 201 255 301
#     4   9  17  30  52  78 102 130 166 208 256 304
#     4  12  24  38  52  71 100 139 183 218 251 299
#     4  10  17  28  52  76 100 129 170 214 252 293
#     4  10  18  32  50  73 100 133 169 211 252 300
#     4   9  17  31  49  71 103 138 167 200 246 306
#     4   9  17  29  48  78 107 131 165 207 252 302
#     4  12  18  36  56  73  96 135 179 216 253 297
#
# _framework density 19.813998999999999
#
# number of rings (size 3 to 8) (size 9 to 14) (size 15 to 20)
#    0.000    2.286    2.857    1.714    0.000    5.143 
#    2.571    0.000    0.000    2.571    0.000    5.000 
#    0.000    0.000    0.000    0.000    0.000    0.000 
#
# Total GULP energy -155969.848487 kJ/mol
# GULP energy per Si atom -5570.351732 kJ/mol
# Density = 1.976890 g / cm^3
# Si number density = 19.813999 Si / 1000 Ang^3
#
#
#
# Elastic Constant Matrix: (Units=GPa)
#
#
# Indices 1 2 3 4 5 6 
#
# 1 50.3526 15.1630 35.9756 0.0000 -23.3813 0.0000
# 2 15.1630 50.9520 30.7726 0.0000 -30.1300 0.0000
# 3 35.9756 30.7726 118.2727 0.0000 -47.2270 0.0000
# 4 0.0000 0.0000 0.0000 2.3472 0.0000 -12.1044
# 5 -23.3813 -30.1300 -47.2270 0.0000 45.2016 0.0000
# 6 0.0000 0.0000 0.0000 -12.1044 0.0000 8.0435
#
#
#
# Elastic Compliance Matrix: (Units=1/GPa)
#
#
# Indices 1 2 3 4 5 6 
#
# 1 0.027532 0.000271 -0.004609 0.000000 0.009606 0.000000
# 2 0.000271 0.032406 0.000287 0.000000 0.022041 0.000000
# 3 -0.004609 0.000287 0.015283 0.000000 0.013775 0.000000
# 4 0.000000 0.000000 0.000000 -0.063018 0.000000 -0.094834
# 5 0.009606 0.022041 0.013775 0.000000 0.056176 0.000000
# 6 0.000000 0.000000 0.000000 -0.094834 0.000000 -0.018390
#
#
# Mechanical properties :
#
#
# Convention : Reuss Voigt Hill
#
# Bulk Modulus (GPa) = 14.89897 42.59998 28.74947
# Shear Modulus (GPa) = 62.13960 20.29620 41.21790
#
# Velocity S-wave (km/s) = 5.60621 3.20400 4.56591
# Velocity P-wave (km/s) = 7.03149 5.93583 6.50676
#
# Compressibility (1/GPa) = 0.06711873
#
# Stress axis : x y z
#
# Youngs Moduli (GPa) = 36.32105 30.85843 65.43385
#
# Poissons Ratio (x) = -0.00836 0.30160
# Poissons Ratio (y) = -0.00984 -0.01879
# Poissons Ratio (z) = 0.16741 -0.00886
#
# Static dielectric constant tensor:
#      x y z
#    x 1.760810 0.000000 0.003140 
#    y 0.000000 1.649730 0.000000 
#    z 0.003140 0.000000 1.867610 
# 
# From -- ./inp_files/28527.got.cif
#   From: 2010.05.17/outbox.cif.g08.bks.cpg/sg10_15_cif.got.tgz:28527.got - 2010.06.03 11:33:40.
