data_PCOD9141212
_publ_section_title
;
Structure prediction by ZEFSAII (Michael W. Deem and Ramdas Pophale) SiO2 
 PCOD9141212
Probable space group: C C
;
_chemical_formula_sum "Si O2"
_cell_formula_units_Z 16
_cell_length_a 15.000000
_cell_length_b 18.000000
_cell_length_c 9.000000
_cell_angle_alpha 90.000000
_cell_angle_beta 140.000000
_cell_angle_gamma 90.000000
_cell_volume 1561.973892
_symmetry_space_group_name_H-M "C C"
_symmetry_group_IT_number 9
_symmetry_cell_setting 'monoclinic'
loop_
_space_group_symop_operation_xyz
x,y,z
x,-y,1/2+z
1/2+x,1/2+y,z
1/2+x,1/2-y,1/2+z
loop_
_atom_site_type_symbol
_atom_site_label
_atom_site_fract_x
_atom_site_fract_y
_atom_site_fract_z
Si Si1 0.835420 0.440884 0.457580
Si Si2 0.119525 0.607282 0.669652
Si Si3 0.838150 0.194180 0.554891
Si Si4 0.563656 0.180713 0.904148
Si Si5 0.795051 0.409747 0.731739
Si Si6 0.299338 0.790197 0.227681
Si Si7 0.648979 0.937377 0.764879
Si Si8 0.643608 0.260570 0.535209
O O1 0.759265 0.430551 0.516919
O O2 0.784909 0.517749 0.320789
O O3 0.800577 0.368865 0.313939
O O4 0.006929 0.445859 0.682657
O O5 0.115203 0.631780 0.834044
O O6 0.174995 0.521274 0.734165
O O7 0.174323 0.681458 0.655425
O O8 0.957911 0.605825 0.423567
O O9 0.859116 0.225979 0.414840
O O10 0.784735 0.107963 0.499343
O O11 0.712616 0.243270 0.463001
O O12 0.980974 0.217972 0.818374
O O13 0.402143 0.199584 0.719696
O O14 0.648407 0.257398 0.002771
O O15 0.599765 0.125593 0.085807
O O16 0.718365 0.335479 0.686532
#
# Coordination Sequence:
#
# PCOD9141212 Si02
#       8
#     4   4   4   4   4   4   4   4
#     4  10  21  39  64  94 126 170 218 268 323 392
#     4  11  24  39  64  93 133 167 218 265 328 387
#     4  11  21  41  69  92 128 163 223 260 324 394
#     4  10  23  37  62  93 123 165 210 266 317 391
#     4  11  24  39  65  93 128 171 221 269 322 392
#     4  10  20  39  62  91 122 163 209 261 324 384
#     4   9  22  38  65  93 122 168 213 267 316 393
#     4  12  23  40  65  97 128 171 216 272 326 391
#
# _framework density 10.243449
#
# number of rings (size 3 to 8) (size 9 to 14) (size 15 to 20)
#    0.000    1.500    2.500    3.000   14.000    0.000 
#    0.000    2.500    0.000    0.000    0.000    0.000 
#    0.000    0.000    0.000    0.000    0.000    0.000 
#
# Total GULP energy -89122.547707 kJ/mol
# GULP energy per Si atom -5570.159232 kJ/mol
# Density = 1.022013 g / cm^3
# Si number density = 10.243449 Si / 1000 Ang^3
#
#
#
# Elastic Constant Matrix: (Units=GPa)
#
#
# Indices 1 2 3 4 5 6 
#
# 1 32.0947 18.2257 18.9744 0.0000 17.7343 0.0000
# 2 18.2257 185.5700 36.5652 0.0000 22.0647 0.0000
# 3 18.9744 36.5652 40.4531 0.0000 8.6964 0.0000
# 4 0.0000 0.0000 0.0000 32.6832 0.0000 7.8902
# 5 17.7343 22.0647 8.6964 0.0000 10.6486 0.0000
# 6 0.0000 0.0000 0.0000 7.8902 0.0000 23.2346
#
#
#
# Elastic Compliance Matrix: (Units=1/GPa)
#
#
# Indices 1 2 3 4 5 6 
#
# 1 -0.687006 -0.111472 0.154501 0.000000 1.248954 0.000000
# 2 -0.111472 -0.010368 0.020776 0.000000 0.190163 0.000000
# 3 0.154501 0.020776 -0.002375 0.000000 -0.298419 0.000000
# 4 0.000000 0.000000 0.000000 0.033329 0.000000 -0.011318
# 5 1.248954 0.190163 -0.298419 0.000000 -2.136439 0.000000
# 6 0.000000 0.000000 0.000000 -0.011318 0.000000 0.046883
#
#
# Mechanical properties :
#
#
# Convention : Reuss Voigt Hill
#
# Bulk Modulus (GPa) = -1.74783 45.07203 21.66210
# Shear Modulus (GPa) = -1.62639 25.60346 11.98854
#
# Velocity S-wave (km/s) = -0.89196 3.53901 2.42167
# Velocity P-wave (km/s) = 1.38412 6.22476 4.29138
#
# Compressibility (1/GPa) = -0.57213862
#
# Stress axis : x y z
#
# Youngs Moduli (GPa) = -1.45559 -96.45488 -421.13802
#
# Poissons Ratio (x) = -10.75205 65.06622
# Poissons Ratio (y) = -0.16226 8.74969
# Poissons Ratio (z) = 0.22489 2.00398
#
# Static dielectric constant tensor:
#      x y z
#    x 1.820480 0.000000 -0.106430 
#    y 0.000000 1.718960 0.000000 
#    z -0.106430 0.000000 1.868700 
# 
# From -- ./inp_files/9957.got.cif
#   From: 2010.05.17/outbox.ucp.g08.bks.cvg/sg9_5_cif.got.tgz:9957.got - 2010.06.11 13:03:20.
