data_PCOD9141560
_publ_section_title
;
Structure prediction by ZEFSAII (Michael W. Deem and Ramdas Pophale) SiO2 
 PCOD9141560
Probable space group: P 2/M
;
_chemical_formula_sum "Si O2"
_cell_formula_units_Z 28
_cell_length_a 7.805444
_cell_length_b 19.545206
_cell_length_c 17.048524
_cell_angle_alpha 90.000000
_cell_angle_beta 144.865821
_cell_angle_gamma 90.000000
_cell_volume 1496.803708
_symmetry_space_group_name_H-M "P 2/M"
_symmetry_group_IT_number 10
_symmetry_cell_setting 'monoclinic'
loop_
_space_group_symop_operation_xyz
x,y,z
-x,y,-z
-x,-y,-z
x,-y,z
loop_
_atom_site_type_symbol
_atom_site_label
_atom_site_fract_x
_atom_site_fract_y
_atom_site_fract_z
Si Si1 0.096433 0.282020 0.943146
Si Si2 0.732094 0.713322 0.237897
Si Si3 0.476481 0.203737 0.289732
Si Si4 0.197983 0.181505 0.427588
Si Si5 0.096210 0.573603 0.127668
Si Si6 0.784134 0.421266 0.347238
Si Si7 0.225081 0.077259 0.658564
O O1 0.860884 0.227754 0.821431
O O2 0.033785 0.357365 0.885384
O O3 0.450293 0.272498 0.076497
O O4 0.000000 0.284140 0.000000
O O5 0.623568 0.746567 0.280121
O O6 0.790521 0.634120 0.279898
O O7 0.025174 0.754957 0.324449
O O8 0.686465 0.205579 0.443960
O O9 0.505923 0.126957 0.266240
O O10 0.500000 0.158964 0.500000
O O11 0.964822 0.119660 0.348984
O O12 0.008812 0.500000 0.129683
O O13 0.451051 0.579600 0.257261
O O14 0.000000 0.572135 0.000000
O O15 0.847752 0.500000 0.346711
O O16 0.000000 0.402704 0.500000
O O17 0.000000 0.073605 0.500000
O O18 0.305661 0.000000 0.710562
#
# Coordination Sequence:
#
# PCOD9141560 Si02
#       7
#     4   4   4   4   4   4   4
#     4   9  15  25  42  67  90 120 147 188 232 274
#     4  10  17  29  46  65  92 121 152 194 234 272
#     4   9  16  29  48  69  93 117 148 184 227 272
#     4  10  20  31  46  67  92 124 156 187 222 266
#     4   9  14  22  35  59  95 119 142 185 238 280
#     4  10  17  23  37  65  95 120 149 190 239 281
#     4   8  15  29  50  74  96 118 146 183 225 268
#
# _framework density 18.706527999999999
#
# number of rings (size 3 to 8) (size 9 to 14) (size 15 to 20)
#    0.000    2.714    4.286    2.143    0.000    0.286 
#    0.000    0.714    0.000   11.143    0.000    0.000 
#    0.000   25.143    0.000    0.000    0.000    0.000 
#
# Total GULP energy -155891.240251 kJ/mol
# GULP energy per Si atom -5567.544295 kJ/mol
# Density = 1.866395 g / cm^3
# Si number density = 18.706528 Si / 1000 Ang^3
#
#
#
# Elastic Constant Matrix: (Units=GPa)
#
#
# Indices 1 2 3 4 5 6 
#
# 1 26.6840 14.7782 11.3323 0.0000 2.1629 0.0000
# 2 14.7782 144.5046 45.9605 0.0000 16.7059 0.0000
# 3 11.3323 45.9605 116.0525 0.0000 20.7213 0.0000
# 4 0.0000 0.0000 0.0000 15.4431 0.0000 0.0646
# 5 2.1629 16.7059 20.7213 0.0000 12.9791 0.0000
# 6 0.0000 0.0000 0.0000 0.0646 0.0000 3.1423
#
#
#
# Elastic Compliance Matrix: (Units=1/GPa)
#
#
# Indices 1 2 3 4 5 6 
#
# 1 0.040479 -0.003471 -0.003037 0.000000 0.002571 0.000000
# 2 -0.003471 0.008735 -0.001701 0.000000 -0.007949 0.000000
# 3 -0.003037 -0.001701 0.012736 0.000000 -0.017638 0.000000
# 4 0.000000 0.000000 0.000000 0.064760 0.000000 -0.001331
# 5 0.002571 -0.007949 -0.017638 0.000000 0.115010 0.000000
# 6 0.000000 0.000000 0.000000 -0.001331 0.000000 0.318261
#
#
# Mechanical properties :
#
#
# Convention : Reuss Voigt Hill
#
# Bulk Modulus (GPa) = 21.96235 47.93146 34.94690
# Shear Modulus (GPa) = 8.45199 20.65758 14.55478
#
# Velocity S-wave (km/s) = 2.12791 3.32670 2.79240
# Velocity P-wave (km/s) = 4.21940 6.35881 5.39619
#
# Compressibility (1/GPa) = 0.04553247
#
# Stress axis : x y z
#
# Youngs Moduli (GPa) = 24.70390 114.47922 78.51525
#
# Poissons Ratio (x) = 0.39735 0.23846
# Poissons Ratio (y) = 0.08575 0.13357
# Poissons Ratio (z) = 0.07503 0.19475
#
# Static dielectric constant tensor:
#      x y z
#    x 1.676560 0.000000 0.000680 
#    y 0.000000 1.686400 0.000000 
#    z 0.000680 0.000000 1.630230 
# 
# From -- ./inp_files/83028.got.cif
#   From: 2010.05.17/outbox.cif.g08.bks.cpg/sg10_42_cif.got.tgz:83028.got - 2010.06.03 11:33:40.
