data_PCOD9141150
_publ_section_title
;
Structure prediction by ZEFSAII (Michael W. Deem and Ramdas Pophale) SiO2 
 PCOD9141150
Probable space group: C C
;
_chemical_formula_sum "Si O2"
_cell_formula_units_Z 24
_cell_length_a 17.209455
_cell_length_b 7.094220
_cell_length_c 10.996119
_cell_angle_alpha 90.000000
_cell_angle_beta 128.067822
_cell_angle_gamma 90.000000
_cell_volume 1056.917794
_symmetry_space_group_name_H-M "C C"
_symmetry_group_IT_number 9
_symmetry_cell_setting 'monoclinic'
loop_
_space_group_symop_operation_xyz
x,y,z
x,-y,1/2+z
1/2+x,1/2+y,z
1/2+x,1/2-y,1/2+z
loop_
_atom_site_type_symbol
_atom_site_label
_atom_site_fract_x
_atom_site_fract_y
_atom_site_fract_z
Si Si1 0.838030 0.096290 0.529300
Si Si2 0.480653 0.956727 0.301737
Si Si3 0.703282 0.242759 0.813457
Si Si4 0.042087 0.938218 0.825651
Si Si5 0.659046 0.793624 0.013405
Si Si6 0.369943 0.969030 0.438695
O O1 0.766423 0.199992 0.556786
O O2 0.849450 0.244981 0.430440
O O3 0.779064 0.902777 0.448298
O O4 0.947583 0.046660 0.680258
O O5 0.500013 0.740022 0.356132
O O6 0.428526 0.031478 0.374146
O O7 0.582256 0.066817 0.374892
O O8 0.420565 0.974452 0.117189
O O9 0.612575 0.331505 0.798086
O O10 0.664962 0.139354 0.656918
O O11 0.767690 0.420924 0.834765
O O12 0.109979 0.088091 0.959609
#
# Coordination Sequence:
#
# PCOD9141150 Si02
#       6
#     4   4   4   4   4   4
#     4  12  27  48  75 110 151 197 251 310 378 444
#     4  12  27  48  78 113 151 199 255 309 376 452
#     4  12  28  46  75 110 151 195 253 310 375 445
#     4  12  27  48  75 110 151 197 251 310 378 444
#     4  12  28  46  75 110 151 195 253 310 375 445
#     4  12  27  48  78 113 151 199 255 309 376 452
#
# _framework density 22.707536999999999
#
# number of rings (size 3 to 8) (size 9 to 14) (size 15 to 20)
#    0.000    0.000    6.667    2.000    4.667    1.333 
#    0.000    0.000    0.000    0.000    0.000    0.000 
#    0.000    0.000    0.000    0.000    0.000    0.000 
#
# Total GULP energy -67070.858174 kJ/mol
# GULP energy per Si atom -5589.238181 kJ/mol
# Density = 2.265585 g / cm^3
# Si number density = 22.707537 Si / 1000 Ang^3
#
#
#
# Elastic Constant Matrix: (Units=GPa)
#
#
# Indices 1 2 3 4 5 6 
#
# 1 130.0946 10.7659 37.9801 0.0000 11.0681 0.0000
# 2 10.7659 88.2372 12.8512 0.0000 18.1998 0.0000
# 3 37.9801 12.8512 100.3471 0.0000 13.4580 0.0000
# 4 0.0000 0.0000 0.0000 31.0214 0.0000 17.0860
# 5 11.0681 18.1998 13.4580 0.0000 34.5331 0.0000
# 6 0.0000 0.0000 0.0000 17.0860 0.0000 32.5331
#
#
#
# Elastic Compliance Matrix: (Units=1/GPa)
#
#
# Indices 1 2 3 4 5 6 
#
# 1 0.008732 -0.000323 -0.003072 0.000000 -0.001432 0.000000
# 2 -0.000323 0.012784 -0.000660 0.000000 -0.006377 0.000000
# 3 -0.003072 -0.000660 0.011642 0.000000 -0.003205 0.000000
# 4 0.000000 0.000000 0.000000 0.045356 0.000000 -0.023820
# 5 -0.001432 -0.006377 -0.003205 0.000000 0.034026 0.000000
# 6 0.000000 0.000000 0.000000 -0.023820 0.000000 0.043248
#
#
# Mechanical properties :
#
#
# Convention : Reuss Voigt Hill
#
# Bulk Modulus (GPa) = 39.92058 49.09702 44.50880
# Shear Modulus (GPa) = 29.02819 36.75629 32.89224
#
# Velocity S-wave (km/s) = 3.57928 4.02765 3.81007
# Velocity P-wave (km/s) = 5.89068 6.58010 6.24491
#
# Compressibility (1/GPa) = 0.02504974
#
# Stress axis : x y z
#
# Youngs Moduli (GPa) = 114.52201 78.22365 85.89367
#
# Poissons Ratio (x) = 0.02525 0.26383
# Poissons Ratio (y) = 0.03696 0.05667
# Poissons Ratio (z) = 0.35177 0.05161
#
# Static dielectric constant tensor:
#      x y z
#    x 1.840890 0.000000 -0.006030 
#    y 0.000000 1.874630 0.000000 
#    z -0.006030 0.000000 1.803030 
# 
# From -- ./inp_files/18869.got.cif
#   From: 2010.05.17/outbox.cif.g08.bks.cpg/sg9_10_cif.got.tgz:18869.got - 2010.06.03 20:04:27.
