data_PCOD9141593
_publ_section_title
;
Structure prediction by ZEFSAII (Michael W. Deem and Ramdas Pophale) SiO2 
 PCOD9141593
Probable space group: P 2/M
;
_chemical_formula_sum "Si O2"
_cell_formula_units_Z 28
_cell_length_a 30.277712
_cell_length_b 9.622149
_cell_length_c 27.614333
_cell_angle_alpha 90.000000
_cell_angle_beta 170.397899
_cell_angle_gamma 90.000000
_cell_volume 1341.956690
_symmetry_space_group_name_H-M "P 2/M"
_symmetry_group_IT_number 10
_symmetry_cell_setting 'monoclinic'
loop_
_space_group_symop_operation_xyz
x,y,z
-x,y,-z
-x,-y,-z
x,-y,z
loop_
_atom_site_type_symbol
_atom_site_label
_atom_site_fract_x
_atom_site_fract_y
_atom_site_fract_z
Si Si1 0.109307 0.802483 0.384327
Si Si2 0.781375 0.500000 0.467820
Si Si3 0.464807 0.766137 0.227140
Si Si4 0.192065 0.166663 0.753138
Si Si5 0.386181 0.669348 0.324708
Si Si6 0.723554 0.500000 0.039709
Si Si7 0.771898 0.668052 0.653816
Si Si8 0.222129 0.159762 0.618677
O O1 0.138561 0.634711 0.415053
O O2 0.338123 0.848705 0.595299
O O3 0.168428 0.841888 0.503498
O O4 0.804657 0.838179 0.045842
O O5 0.962483 0.500000 0.616406
O O6 0.469191 0.500000 0.123180
O O7 0.634064 0.715837 0.455500
O O8 0.357202 0.635093 0.079135
O O9 0.000000 0.185377 0.500000
O O10 0.029102 0.219528 0.623761
O O11 0.234805 0.000000 0.806686
O O12 0.485599 0.224317 0.060246
O O13 0.500000 0.710999 0.500000
O O14 0.383427 0.500000 0.320591
O O15 0.586674 0.713463 0.498690
O O16 0.079384 0.714128 0.987966
O O17 0.774951 0.500000 0.657913
O O18 0.240590 0.000000 0.656788
#
# Coordination Sequence:
#
# PCOD9141593 Si02
#       8
#     4   2   4   4   4   2   4   4
#     4  10  19  29  43  62  88 116 143 180 215 250
#     4   8  16  26  40  56  79 108 139 176 208 236
#     4  10  17  27  39  58  81 107 146 179 216 246
#     4   9  17  30  49  71  92 112 140 181 218 250
#     4   9  17  26  35  50  73 102 142 185 220 261
#     4   8  14  24  36  52  73 100 133 176 212 236
#     4  10  17  25  39  54  73 106 143 181 223 252
#     4  10  19  31  47  69  94 118 144 170 212 267
#
# _framework density 20.865054000000001
#
# number of rings (size 3 to 8) (size 9 to 14) (size 15 to 20)
#    0.000    2.571    0.714    2.571    0.000    3.429 
#    0.000    0.000    0.000    0.000    0.000    3.000 
#    0.000    0.000    0.000    0.000    0.000   50.000 
#
# Total GULP energy -156030.356236 kJ/mol
# GULP energy per Si atom -5572.512723 kJ/mol
# Density = 2.081756 g / cm^3
# Si number density = 20.865054 Si / 1000 Ang^3
#
#
#
# Elastic Constant Matrix: (Units=GPa)
#
#
# Indices 1 2 3 4 5 6 
#
# 1 85.6182 -2.7112 22.3940 0.0000 30.8205 0.0000
# 2 -2.7112 51.3999 -5.6530 0.0000 6.4352 0.0000
# 3 22.3940 -5.6530 134.0943 0.0000 39.0376 0.0000
# 4 0.0000 0.0000 0.0000 -13.4345 0.0000 -14.5000
# 5 30.8205 6.4352 39.0376 0.0000 46.2482 0.0000
# 6 0.0000 0.0000 0.0000 -14.5000 0.0000 14.9635
#
#
#
# Elastic Compliance Matrix: (Units=1/GPa)
#
#
# Indices 1 2 3 4 5 6 
#
# 1 0.015664 0.002351 0.000818 0.000000 -0.011457 0.000000
# 2 0.002351 0.020641 0.002346 0.000000 -0.006419 0.000000
# 3 0.000818 0.002346 0.010173 0.000000 -0.009459 0.000000
# 4 0.000000 0.000000 0.000000 -0.036383 0.000000 -0.035256
# 5 -0.011457 -0.006419 -0.009459 0.000000 0.038135 0.000000
# 6 0.000000 0.000000 0.000000 -0.035256 0.000000 0.032665
#
#
# Mechanical properties :
#
#
# Convention : Reuss Voigt Hill
#
# Bulk Modulus (GPa) = 17.38846 33.24135 25.31491
# Shear Modulus (GPa) = 56.15759 26.69427 41.42593
#
# Velocity S-wave (km/s) = 5.19356 3.58072 4.46064
# Velocity P-wave (km/s) = 6.65703 5.74992 6.22003
#
# Compressibility (1/GPa) = 0.05750940
#
# Stress axis : x y z
#
# Youngs Moduli (GPa) = 63.83949 48.44734 98.29532
#
# Poissons Ratio (x) = -0.11388 -0.08045
# Poissons Ratio (y) = -0.15006 -0.23063
# Poissons Ratio (z) = -0.05225 -0.11367
#
# Static dielectric constant tensor:
#      x y z
#    x 1.757950 0.000000 0.081580 
#    y 0.000000 1.788610 0.000000 
#    z 0.081580 0.000000 1.788500 
# 
# From -- ./inp_files/12593.got.cif
#   From: 2010.05.17/outbox.cif.g08.bks.cpg/sg10_7_cif.got.tgz:12593.got - 2010.06.03 11:33:40.
