data_PCOD9141947
_publ_section_title
;
Structure prediction by ZEFSAII (Michael W. Deem and Ramdas Pophale) SiO2 
 PCOD9141947
Probable space group: P 2/M
;
_chemical_formula_sum "Si O2"
_cell_formula_units_Z 26
_cell_length_a 15.116185
_cell_length_b 8.633169
_cell_length_c 14.461655
_cell_angle_alpha 90.000000
_cell_angle_beta 37.951605
_cell_angle_gamma 90.000000
_cell_volume 1160.653243
_symmetry_space_group_name_H-M "P 2/M"
_symmetry_group_IT_number 10
_symmetry_cell_setting 'monoclinic'
loop_
_space_group_symop_operation_xyz
x,y,z
-x,y,-z
-x,-y,-z
x,-y,z
loop_
_atom_site_type_symbol
_atom_site_label
_atom_site_fract_x
_atom_site_fract_y
_atom_site_fract_z
Si Si1 0.339307 0.829720 0.591961
Si Si2 0.654334 0.164851 0.975786
Si Si3 0.711850 0.500000 0.863803
Si Si4 0.466999 0.748992 0.296499
Si Si5 0.989141 0.500000 0.276473
Si Si6 0.263891 0.500000 0.371867
Si Si7 0.234043 0.672011 0.848433
Si Si8 0.054905 0.174102 0.146894
O O1 0.500000 0.818816 0.500000
O O2 0.366330 0.815466 0.460794
O O3 0.251558 0.709301 0.726031
O O4 0.285961 0.000000 0.660706
O O5 0.546481 0.156615 0.151317
O O6 0.643089 0.000000 0.931914
O O7 0.634236 0.334763 0.946974
O O8 0.814909 0.168847 0.886088
O O9 0.846744 0.500000 0.822523
O O10 0.757730 0.500000 0.719502
O O11 0.361700 0.640274 0.326198
O O12 0.606426 0.678112 0.235796
O O13 0.969505 0.332939 0.241756
O O14 0.883754 0.500000 0.450594
O O15 0.176245 0.500000 0.911139
O O16 0.133271 0.792655 0.984637
O O17 0.989634 0.000000 0.202885
#
# Coordination Sequence:
#
# PCOD9141947 Si02
#       8
#     4   4   2   4   2   2   4   4
#     4   9  18  30  48  78 119 157 186 220 265 324
#     4   9  18  35  60  85 112 145 180 228 285 340
#     4  10  22  40  61  83 107 139 194 247 285 333
#     4  10  20  32  52  80 120 151 182 219 273 343
#     4  10  21  40  61  80 106 144 196 244 283 330
#     4  12  24  38  55  81 111 153 184 231 293 343
#     4  10  17  29  54  87 115 145 184 228 272 325
#     4   9  17  33  59  86 109 140 188 241 283 321
#
# _framework density 22.401176
#
# number of rings (size 3 to 8) (size 9 to 14) (size 15 to 20)
#    0.000    2.308    1.538    1.615    3.231    5.846 
#    0.000    4.615    0.000    5.538    0.000    2.154 
#    0.000    0.000    0.000    0.000    0.000    0.000 
#
# Total GULP energy -144889.372706 kJ/mol
# GULP energy per Si atom -5572.668181 kJ/mol
# Density = 2.235019 g / cm^3
# Si number density = 22.401176 Si / 1000 Ang^3
#
#
#
# Elastic Constant Matrix: (Units=GPa)
#
#
# Indices 1 2 3 4 5 6 
#
# 1 64.8719 21.1976 12.6742 0.0000 -5.9426 0.0000
# 2 21.1976 193.4187 51.7759 0.0000 19.6602 0.0000
# 3 12.6742 51.7759 73.7166 0.0000 21.7438 0.0000
# 4 0.0000 0.0000 0.0000 14.2604 0.0000 21.0652
# 5 -5.9426 19.6602 21.7438 0.0000 22.6274 0.0000
# 6 0.0000 0.0000 0.0000 21.0652 0.0000 -19.1058
#
#
#
# Elastic Compliance Matrix: (Units=1/GPa)
#
#
# Indices 1 2 3 4 5 6 
#
# 1 0.018023 -0.001725 -0.005199 0.000000 0.011228 0.000000
# 2 -0.001725 0.006581 -0.003497 0.000000 -0.002811 0.000000
# 3 -0.005199 -0.003497 0.022918 0.000000 -0.020350 0.000000
# 4 0.000000 0.000000 0.000000 0.026677 0.000000 0.029413
# 5 0.011228 -0.002811 -0.020350 0.000000 0.069141 0.000000
# 6 0.000000 0.000000 0.000000 0.029413 0.000000 -0.019911
#
#
# Mechanical properties :
#
#
# Convention : Reuss Voigt Hill
#
# Bulk Modulus (GPa) = 37.48024 55.92250 46.70137
# Shear Modulus (GPa) = 32.64514 19.98038 26.31276
#
# Velocity S-wave (km/s) = 3.82160 2.98977 3.43098
# Velocity P-wave (km/s) = 6.02001 6.07755 6.04885
#
# Compressibility (1/GPa) = 0.02668072
#
# Stress axis : x y z
#
# Youngs Moduli (GPa) = 55.48504 151.95630 43.63414
#
# Poissons Ratio (x) = 0.26208 0.22686
# Poissons Ratio (y) = 0.09570 0.15257
# Poissons Ratio (z) = 0.28848 0.53132
#
# Static dielectric constant tensor:
#      x y z
#    x 1.805690 0.000000 -0.019500 
#    y 0.000000 1.887750 0.000000 
#    z -0.019500 0.000000 1.799790 
# 
# From -- ./inp_files/66826.got.cif
#   From: 2010.05.17/outbox.cif.g08.bks.cpg/sg10_34_cif.got.tgz:66826.got - 2010.06.03 11:33:40.
