data_PCOD9141613
_publ_section_title
;
Structure prediction by ZEFSAII (Michael W. Deem and Ramdas Pophale) SiO2 
 PCOD9141613
Probable space group: P 2/M
;
_chemical_formula_sum "Si O2"
_cell_formula_units_Z 28
_cell_length_a 11.319055
_cell_length_b 7.521581
_cell_length_c 22.333297
_cell_angle_alpha 90.000000
_cell_angle_beta 51.053836
_cell_angle_gamma 90.000000
_cell_volume 1478.784446
_symmetry_space_group_name_H-M "P 2/M"
_symmetry_group_IT_number 10
_symmetry_cell_setting 'monoclinic'
loop_
_space_group_symop_operation_xyz
x,y,z
-x,y,-z
-x,-y,-z
x,-y,z
loop_
_atom_site_type_symbol
_atom_site_label
_atom_site_fract_x
_atom_site_fract_y
_atom_site_fract_z
Si Si1 0.465938 0.208345 0.261007
Si Si2 0.758667 0.286374 0.571526
Si Si3 0.348554 0.706145 0.077931
Si Si4 0.791092 0.783566 0.116319
Si Si5 0.218732 0.294894 0.241527
Si Si6 0.874952 0.215428 0.956296
Si Si7 0.007874 0.282979 0.593044
O O1 0.399517 0.228287 0.349098
O O2 0.636037 0.276528 0.196576
O O3 0.348811 0.293420 0.251143
O O4 0.465237 0.000000 0.246594
O O5 0.755056 0.500000 0.570975
O O6 0.829717 0.225339 0.485594
O O7 0.883922 0.234776 0.581701
O O8 0.387399 0.500000 0.079594
O O9 0.286985 0.786903 0.159478
O O10 0.217669 0.713660 0.070082
O O11 0.500000 0.786557 0.000000
O O12 0.949164 0.727286 0.096195
O O13 0.793295 0.000000 0.116790
O O14 0.799009 0.732033 0.043848
O O15 0.181503 0.500000 0.239075
O O16 0.067047 0.218338 0.321352
O O17 0.871445 0.000000 0.954643
O O18 0.010082 0.500000 0.594753
#
# Coordination Sequence:
#
# PCOD9141613 Si02
#       7
#     4   4   4   4   4   4   4
#     4  10  17  25  40  64  89 108 134 172 211 246
#     4   8  13  23  38  56  79 107 139 169 202 245
#     4  10  20  31  43  64  92 113 132 168 214 248
#     4   8  16  30  46  63  83 109 139 173 208 241
#     4   9  17  29  42  57  84 119 144 163 199 249
#     4   9  17  32  50  62  78 110 148 174 197 239
#     4   7  11  22  39  54  73 109 147 167 188 239
#
# _framework density 18.934472
#
# number of rings (size 3 to 8) (size 9 to 14) (size 15 to 20)
#    0.000    3.286    0.000    3.857    0.000    0.857 
#    0.000    9.286    0.000    0.000    0.000    1.000 
#    0.000    8.000    0.000    0.000    0.000    0.000 
#
# Total GULP energy -155868.409517 kJ/mol
# GULP energy per Si atom -5566.728911 kJ/mol
# Density = 1.889138 g / cm^3
# Si number density = 18.934472 Si / 1000 Ang^3
#
#
#
# Elastic Constant Matrix: (Units=GPa)
#
#
# Indices 1 2 3 4 5 6 
#
# 1 44.4128 -7.4555 59.5469 0.0000 -8.2069 0.0000
# 2 -7.4555 46.3461 3.0100 0.0000 1.0836 0.0000
# 3 59.5469 3.0100 225.7810 0.0000 -23.2625 0.0000
# 4 0.0000 0.0000 0.0000 9.4733 0.0000 -0.7969
# 5 -8.2069 1.0836 -23.2625 0.0000 25.6873 0.0000
# 6 0.0000 0.0000 0.0000 -0.7969 0.0000 30.4306
#
#
#
# Elastic Compliance Matrix: (Units=1/GPa)
#
#
# Indices 1 2 3 4 5 6 
#
# 1 0.036907 0.006488 -0.009522 0.000000 0.002895 0.000000
# 2 0.006488 0.022775 -0.002096 0.000000 -0.000786 0.000000
# 3 -0.009522 -0.002096 0.007350 0.000000 0.003702 0.000000
# 4 0.000000 0.000000 0.000000 0.105793 0.000000 0.002770
# 5 0.002895 -0.000786 0.003702 0.000000 0.043240 0.000000
# 6 0.000000 0.000000 0.000000 0.002770 0.000000 0.032934
#
#
# Mechanical properties :
#
#
# Convention : Reuss Voigt Hill
#
# Bulk Modulus (GPa) = 17.61444 47.41587 32.51516
# Shear Modulus (GPa) = 17.97384 30.54748 24.26066
#
# Velocity S-wave (km/s) = 3.08436 4.02098 3.58340
# Velocity P-wave (km/s) = 4.69120 6.83039 5.85925
#
# Compressibility (1/GPa) = 0.05677159
#
# Stress axis : x y z
#
# Youngs Moduli (GPa) = 27.09547 43.90793 136.05949
#
# Poissons Ratio (x) = -0.28486 1.29554
# Poissons Ratio (y) = -0.17579 0.28513
# Poissons Ratio (z) = 0.25800 0.09202
#
# Static dielectric constant tensor:
#      x y z
#    x 1.605030 0.000000 -0.028000 
#    y 0.000000 1.719990 0.000000 
#    z -0.028000 0.000000 1.744000 
# 
# From -- ./inp_files/54528.got.cif
#   From: 2010.05.17/outbox.cif.g08.bks.cpg/sg10_28_cif.got.tgz:54528.got - 2010.06.03 11:33:40.
