data_PCOD9141879
_publ_section_title
;
Structure prediction by ZEFSAII (Michael W. Deem and Ramdas Pophale) SiO2 
 PCOD9141879
Probable space group: P 2/M
;
_chemical_formula_sum "Si O2"
_cell_formula_units_Z 30
_cell_length_a 25.383431
_cell_length_b 8.183962
_cell_length_c 14.924854
_cell_angle_alpha 90.000000
_cell_angle_beta 27.784648
_cell_angle_gamma 90.000000
_cell_volume 1445.271176
_symmetry_space_group_name_H-M "P 2/M"
_symmetry_group_IT_number 10
_symmetry_cell_setting 'monoclinic'
loop_
_space_group_symop_operation_xyz
x,y,z
-x,y,-z
-x,-y,-z
x,-y,z
loop_
_atom_site_type_symbol
_atom_site_label
_atom_site_fract_x
_atom_site_fract_y
_atom_site_fract_z
Si Si1 0.075401 0.690936 0.566816
Si Si2 0.241770 0.688142 0.042749
Si Si3 0.846900 0.695876 0.009958
Si Si4 0.432291 0.807380 0.888053
Si Si5 0.682659 0.807264 0.756886
Si Si6 0.000000 0.249925 0.500000
Si Si7 0.656492 0.692232 0.606061
Si Si8 0.128728 0.299619 0.827292
O O1 0.066615 0.500000 0.548253
O O2 0.196639 0.719848 0.425269
O O3 0.977703 0.717626 0.785563
O O4 0.054521 0.806735 0.512247
O O5 0.277391 0.500000 0.981801
O O6 0.222654 0.758509 0.971433
O O7 0.118575 0.685962 0.276992
O O8 0.335992 0.776430 0.959493
O O9 0.827150 0.500000 0.041349
O O10 0.832889 0.757175 0.131518
O O11 0.553524 0.723867 0.692949
O O12 0.452426 0.000000 0.864710
O O13 0.382887 0.744646 0.057314
O O14 0.627975 0.777584 0.742957
O O15 0.699314 0.000000 0.744303
O O16 0.665973 0.500000 0.608659
O O17 0.776127 0.751720 0.386752
O O18 0.128126 0.500000 0.828795
O O19 0.000000 0.248806 0.000000
#
# Coordination Sequence:
#
# PCOD9141879 Si02
#       8
#     4   4   4   4   4   2   4   4
#     4  10  17  29  53  83 113 145 182 222 269 323
#     4  10  18  32  56  84 114 148 187 229 272 325
#     4   8  16  30  53  85 117 145 178 229 284 324
#     4  11  24  40  55  77 114 154 185 225 279 333
#     4  11  23  37  53  78 113 151 184 225 279 332
#     4  10  17  28  51  84 115 142 179 230 269 308
#     4  11  23  38  61  85 105 141 189 234 277 329
#     4   9  17  33  58  89 116 137 173 229 286 333
#
# _framework density 20.757351
#
# number of rings (size 3 to 8) (size 9 to 14) (size 15 to 20)
#    0.000    2.000    1.333    4.400    0.000    5.333 
#    0.000    4.000    0.000   12.800    0.000    0.000 
#    0.000    0.000    0.000    0.000    0.000    0.000 
#
# Total GULP energy -167159.071263 kJ/mol
# GULP energy per Si atom -5571.969042 kJ/mol
# Density = 2.071011 g / cm^3
# Si number density = 20.757351 Si / 1000 Ang^3
#
#
#
# Elastic Constant Matrix: (Units=GPa)
#
#
# Indices 1 2 3 4 5 6 
#
# 1 111.3896 -3.3145 43.4474 0.0000 -4.6728 0.0000
# 2 -3.3145 24.1854 8.1813 0.0000 0.8360 0.0000
# 3 43.4474 8.1813 69.5368 0.0000 -12.4677 0.0000
# 4 0.0000 0.0000 0.0000 12.4139 0.0000 4.9453
# 5 -4.6728 0.8360 -12.4677 0.0000 39.5918 0.0000
# 6 0.0000 0.0000 0.0000 4.9453 0.0000 -6.3153
#
#
#
# Elastic Compliance Matrix: (Units=1/GPa)
#
#
# Indices 1 2 3 4 5 6 
#
# 1 0.012382 0.004623 -0.008516 0.000000 -0.001318 0.000000
# 2 0.004623 0.045052 -0.008756 0.000000 -0.003163 0.000000
# 3 -0.008516 -0.008756 0.021817 0.000000 0.006050 0.000000
# 4 0.000000 0.000000 0.000000 0.061401 0.000000 0.048081
# 5 -0.001318 -0.003163 0.006050 0.000000 0.027074 0.000000
# 6 0.000000 0.000000 0.000000 0.048081 0.000000 -0.120695
#
#
# Mechanical properties :
#
#
# Convention : Reuss Voigt Hill
#
# Bulk Modulus (GPa) = 18.53506 33.52669 26.03088
# Shear Modulus (GPa) = 55.36201 19.59124 37.47663
#
# Velocity S-wave (km/s) = 5.17000 3.07550 4.25368
# Velocity P-wave (km/s) = 6.67738 5.36641 6.05746
#
# Compressibility (1/GPa) = 0.05395181
#
# Stress axis : x y z
#
# Youngs Moduli (GPa) = 80.76485 22.19640 45.83560
#
# Poissons Ratio (x) = -0.10262 0.39036
# Poissons Ratio (y) = -0.37340 0.40136
# Poissons Ratio (z) = 0.68783 0.19436
#
# Static dielectric constant tensor:
#      x y z
#    x 1.751550 0.000000 0.011350 
#    y 0.000000 1.747020 0.000000 
#    z 0.011350 0.000000 1.715970 
# 
# From -- ./inp_files/71307.got.cif
#   From: 2010.05.17/outbox.cif.g08.bks.cpg/sg10_36_cif.got.tgz:71307.got - 2010.06.03 11:33:40.
