data_PCOD9141548
_publ_section_title
;
Structure prediction by ZEFSAII (Michael W. Deem and Ramdas Pophale) SiO2 
 PCOD9141548
Probable space group: P 2/M
;
_chemical_formula_sum "Si O2"
_cell_formula_units_Z 32
_cell_length_a 21.700014
_cell_length_b 8.832327
_cell_length_c 11.582302
_cell_angle_alpha 90.000000
_cell_angle_beta 115.000853
_cell_angle_gamma 90.000000
_cell_volume 2011.883064
_symmetry_space_group_name_H-M "P 2/M"
_symmetry_group_IT_number 10
_symmetry_cell_setting 'monoclinic'
loop_
_space_group_symop_operation_xyz
x,y,z
-x,y,-z
-x,-y,-z
x,-y,z
loop_
_atom_site_type_symbol
_atom_site_label
_atom_site_fract_x
_atom_site_fract_y
_atom_site_fract_z
Si Si1 0.154024 0.321340 0.216737
Si Si2 0.401205 0.319510 0.979646
Si Si3 0.434173 0.184322 0.519273
Si Si4 0.982368 0.822792 0.848785
Si Si5 0.129081 0.182213 0.944757
Si Si6 0.534068 0.817475 0.193710
Si Si7 0.293412 0.817877 0.293775
Si Si8 0.276650 0.180822 0.008770
O O1 0.158908 0.500000 0.226062
O O2 0.086811 0.265629 0.230475
O O3 0.226703 0.248206 0.302877
O O4 0.141018 0.266664 0.074896
O O5 0.408411 0.500000 0.982799
O O6 0.459135 0.247714 0.108229
O O7 0.328226 0.269709 0.969089
O O8 0.417873 0.250631 0.867329
O O9 0.500000 0.236513 0.500000
O O10 0.441976 0.224736 0.659379
O O11 0.363657 0.234865 0.406227
O O12 0.433992 0.000000 0.513718
O O13 0.053147 0.778183 0.842951
O O14 0.969579 0.000000 0.818582
O O15 0.000000 0.806213 0.000000
O O16 0.128636 0.000000 0.967958
O O17 0.196561 0.212212 0.924196
O O18 0.532016 0.000000 0.182299
O O19 0.291109 0.780544 0.155116
O O20 0.289681 0.000000 0.297593
O O21 0.287798 0.000000 0.004740
#
# Coordination Sequence:
#
# PCOD9141548 Si02
#       8
#     4   4   4   4   4   4   4   4
#     4  10  17  23  34  55  83 114 146 177 210 252
#     4  11  21  32  46  65  91 118 144 177 217 259
#     4   9  17  30  50  72  88 106 140 184 222 255
#     4   8  13  23  37  52  74 108 146 179 214 253
#     4   8  15  26  39  55  78 110 146 182 217 255
#     4  10  19  33  52  69  85 110 146 183 217 256
#     4   9  17  30  46  63  86 115 146 181 219 260
#     4   9  16  28  46  65  86 115 149 181 215 256
#
# _framework density 15.905497
#
# number of rings (size 3 to 8) (size 9 to 14) (size 15 to 20)
#    0.000    2.750    0.000    5.625    0.000    6.250 
#    0.000    1.250    0.000    2.625    0.000    0.000 
#    0.000    1.000    0.000   11.500    0.000    6.625 
#
# Total GULP energy -178186.258243 kJ/mol
# GULP energy per Si atom -5568.320570 kJ/mol
# Density = 1.586930 g / cm^3
# Si number density = 15.905497 Si / 1000 Ang^3
#
#
#
# Elastic Constant Matrix: (Units=GPa)
#
#
# Indices 1 2 3 4 5 6 
#
# 1 154.2523 47.9320 45.0704 0.0000 27.3008 0.0000
# 2 47.9320 45.5481 16.5918 0.0000 6.3537 0.0000
# 3 45.0704 16.5918 42.9911 0.0000 13.1583 0.0000
# 4 0.0000 0.0000 0.0000 0.2425 0.0000 0.4857
# 5 27.3008 6.3537 13.1583 0.0000 18.5569 0.0000
# 6 0.0000 0.0000 0.0000 0.4857 0.0000 5.0442
#
#
#
# Elastic Compliance Matrix: (Units=1/GPa)
#
#
# Indices 1 2 3 4 5 6 
#
# 1 0.013817 -0.010390 -0.006823 0.000000 -0.011932 0.000000
# 2 -0.010390 0.033433 -0.004068 0.000000 0.006724 0.000000
# 3 -0.006823 -0.004068 0.036381 0.000000 -0.014366 0.000000
# 4 0.000000 0.000000 0.000000 5.109978 0.000000 -0.492010
# 5 -0.011932 0.006724 -0.014366 0.000000 0.079326 0.000000
# 6 0.000000 0.000000 0.000000 -0.492010 0.000000 0.245622
#
#
# Mechanical properties :
#
#
# Convention : Reuss Voigt Hill
#
# Bulk Modulus (GPa) = 24.35018 51.33110 37.84064
# Shear Modulus (GPa) = 0.89689 13.64853 7.27271
#
# Velocity S-wave (km/s) = 0.75174 2.93251 2.14065
# Velocity P-wave (km/s) = 4.01198 6.61882 5.47288
#
# Compressibility (1/GPa) = 0.04106746
#
# Stress axis : x y z
#
# Youngs Moduli (GPa) = 72.37478 29.91081 27.48696
#
# Poissons Ratio (x) = 0.31078 0.18755
# Poissons Ratio (y) = 0.75199 0.11182
# Poissons Ratio (z) = 0.49384 0.12168
#
# Static dielectric constant tensor:
#      x y z
#    x 1.576980 0.000000 0.019120 
#    y 0.000000 1.526630 0.000000 
#    z 0.019120 0.000000 1.511700 
# 
# From -- ./inp_files/56293.got.cif
#   From: 2010.05.17/outbox.cif.g08.bks.cpg/sg10_29_cif.got.tgz:56293.got - 2010.06.03 11:33:40.
