data_PCOD9141038
_publ_section_title
;
Structure prediction by ZEFSAII (Michael W. Deem and Ramdas Pophale) SiO2 
 PCOD9141038
Probable space group: C C
;
_chemical_formula_sum "Si O2"
_cell_formula_units_Z 32
_cell_length_a 9.546779
_cell_length_b 11.488875
_cell_length_c 14.848693
_cell_angle_alpha 90.000000
_cell_angle_beta 62.517211
_cell_angle_gamma 90.000000
_cell_volume 1444.838855
_symmetry_space_group_name_H-M "C C"
_symmetry_group_IT_number 9
_symmetry_cell_setting 'monoclinic'
loop_
_space_group_symop_operation_xyz
x,y,z
x,-y,1/2+z
1/2+x,1/2+y,z
1/2+x,1/2-y,1/2+z
loop_
_atom_site_type_symbol
_atom_site_label
_atom_site_fract_x
_atom_site_fract_y
_atom_site_fract_z
Si Si1 0.921230 0.708575 0.595960
Si Si2 0.267844 0.602200 0.524924
Si Si3 0.300790 0.991889 0.707811
Si Si4 0.785239 0.057559 0.194458
Si Si5 0.464921 0.829652 0.517787
Si Si6 0.328055 0.743903 0.927670
Si Si7 0.936149 0.505926 0.357359
Si Si8 0.949840 0.977019 0.311959
O O1 0.805180 0.599590 0.638052
O O2 0.856095 0.813286 0.674749
O O3 0.908578 0.759764 0.500734
O O4 0.093759 0.657235 0.564926
O O5 0.270756 0.503448 0.601484
O O6 0.379023 0.708546 0.521899
O O7 0.328794 0.543983 0.414475
O O8 0.393993 0.889206 0.629284
O O9 0.380534 0.038725 0.775974
O O10 0.119168 0.965960 0.779668
O O11 0.614497 0.049852 0.290930
O O12 0.903688 0.987645 0.222329
O O13 0.650632 0.805511 0.475576
O O14 0.434383 0.916112 0.441130
O O15 0.330563 0.879244 0.901693
O O16 0.436665 0.659482 0.836549
#
# Coordination Sequence:
#
# PCOD9141038 Si02
#       8
#     4   4   4   4   4   4   4   4
#     4  12  25  47  76 105 147 195 249 308 373 442
#     4  12  28  48  74 109 152 194 250 312 373 446
#     4  12  27  46  73 109 146 196 253 303 377 448
#     4  12  26  48  76 107 153 197 247 311 372 445
#     4  12  28  48  74 109 152 194 250 312 373 446
#     4  12  25  47  76 105 147 195 249 308 373 442
#     4  12  26  48  76 107 153 197 247 311 372 445
#     4  12  27  46  73 109 146 196 253 303 377 448
#
# _framework density 22.147797000000001
#
# number of rings (size 3 to 8) (size 9 to 14) (size 15 to 20)
#    0.000    0.000    5.000    4.500    7.000    3.000 
#    0.000    0.000    0.000    0.000    0.000    0.000 
#    0.000    0.000    0.000    0.000    0.000    0.000 
#
# Total GULP energy -89502.107443 kJ/mol
# GULP energy per Si atom -5593.881715 kJ/mol
# Density = 2.209739 g / cm^3
# Si number density = 22.147797 Si / 1000 Ang^3
#
#
#
# Elastic Constant Matrix: (Units=GPa)
#
#
# Indices 1 2 3 4 5 6 
#
# 1 118.6303 17.2272 31.0422 0.0000 -8.9503 0.0000
# 2 17.2272 103.5814 12.6306 0.0000 -12.2991 0.0000
# 3 31.0422 12.6306 41.7780 0.0000 -18.8404 0.0000
# 4 0.0000 0.0000 0.0000 41.5707 0.0000 -1.3073
# 5 -8.9503 -12.2991 -18.8404 0.0000 36.1686 0.0000
# 6 0.0000 0.0000 0.0000 -1.3073 0.0000 36.3331
#
#
#
# Elastic Compliance Matrix: (Units=1/GPa)
#
#
# Indices 1 2 3 4 5 6 
#
# 1 0.010660 -0.000982 -0.008606 0.000000 -0.002179 0.000000
# 2 -0.000982 0.010275 -0.001190 0.000000 0.002631 0.000000
# 3 -0.008606 -0.001190 0.038620 0.000000 0.017583 0.000000
# 4 0.000000 0.000000 0.000000 0.024083 0.000000 0.000867
# 5 -0.002179 0.002631 0.017583 0.000000 0.037163 0.000000
# 6 0.000000 0.000000 0.000000 0.000867 0.000000 0.027554
#
#
# Mechanical properties :
#
#
# Convention : Reuss Voigt Hill
#
# Bulk Modulus (GPa) = 26.31758 42.86552 34.59155
# Shear Modulus (GPa) = 27.38563 36.35377 31.86970
#
# Velocity S-wave (km/s) = 3.52020 4.05584 3.79747
# Velocity P-wave (km/s) = 5.33206 6.42879 5.90594
#
# Compressibility (1/GPa) = 0.03799741
#
# Stress axis : x y z
#
# Youngs Moduli (GPa) = 93.81040 97.32239 25.89346
#
# Poissons Ratio (x) = 0.09559 0.22285
# Poissons Ratio (y) = 0.09214 0.03082
# Poissons Ratio (z) = 0.80736 0.11583
#
# Static dielectric constant tensor:
#      x y z
#    x 1.822180 0.000000 0.001450 
#    y 0.000000 1.847750 0.000000 
#    z 0.001450 0.000000 1.862030 
# 
# From -- ./inp_files/22849.got.cif
#   From: 2010.05.17/outbox.cif.g08.bks.cpg/sg9_12_cif.got.tgz:22849.got - 2010.06.03 20:04:27.
