data_PCOD9141561
_publ_section_title
;
Structure prediction by ZEFSAII (Michael W. Deem and Ramdas Pophale) SiO2 
 PCOD9141561
Probable space group: P 2/M
;
_chemical_formula_sum "Si O2"
_cell_formula_units_Z 28
_cell_length_a 23.655111
_cell_length_b 8.346493
_cell_length_c 17.087891
_cell_angle_alpha 90.000000
_cell_angle_beta 148.887509
_cell_angle_gamma 90.000000
_cell_volume 1743.302498
_symmetry_space_group_name_H-M "P 2/M"
_symmetry_group_IT_number 10
_symmetry_cell_setting 'monoclinic'
loop_
_space_group_symop_operation_xyz
x,y,z
-x,y,-z
-x,-y,-z
x,-y,z
loop_
_atom_site_type_symbol
_atom_site_label
_atom_site_fract_x
_atom_site_fract_y
_atom_site_fract_z
Si Si1 0.332270 0.693334 0.340063
Si Si2 0.071390 0.195528 0.844648
Si Si3 0.844372 0.313619 0.285284
Si Si4 0.057743 0.812361 0.452300
Si Si5 0.910791 0.193205 0.956413
Si Si6 0.450473 0.306694 0.319248
Si Si7 0.713160 0.190850 0.997086
O O1 0.328340 0.500000 0.335321
O O2 0.212218 0.759531 0.211739
O O3 0.425862 0.742416 0.512797
O O4 0.376686 0.743260 0.306800
O O5 0.971765 0.246339 0.669896
O O6 0.071123 0.000000 0.843888
O O7 0.066646 0.251041 0.928205
O O8 0.185815 0.245147 0.939583
O O9 0.869021 0.500000 0.302893
O O10 0.853878 0.274403 0.388340
O O11 0.941401 0.212474 0.358997
O O12 0.736542 0.267819 0.109319
O O13 0.083610 0.000000 0.480719
O O14 0.916773 0.000000 0.965392
O O15 0.000000 0.252055 0.000000
O O16 0.447739 0.500000 0.312905
O O17 0.396928 0.239113 0.177648
O O18 0.719265 0.000000 0.011830
#
# Coordination Sequence:
#
# PCOD9141561 Si02
#       7
#     4   4   4   4   4   4   4
#     4   9  18  31  45  62  86 113 144 180 223 264
#     4   8  15  26  39  57  80 109 143 178 215 250
#     4  10  17  24  35  55  82 109 139 171 211 255
#     4   9  15  25  38  52  76 108 144 177 209 253
#     4  10  19  31  46  64  87 115 151 189 219 250
#     4   9  17  29  44  63  86 113 143 180 219 260
#     4  10  17  26  41  60  84 113 145 175 209 257
#
# _framework density 16.061468999999999
#
# number of rings (size 3 to 8) (size 9 to 14) (size 15 to 20)
#    0.000    2.714    1.429    4.714    0.000    0.857 
#    0.000    2.143    0.000    0.000    0.000    0.000 
#    0.000    1.143    0.000   13.143    0.000    3.571 
#
# Total GULP energy -155905.004471 kJ/mol
# GULP energy per Si atom -5568.035874 kJ/mol
# Density = 1.602491 g / cm^3
# Si number density = 16.061469 Si / 1000 Ang^3
#
#
#
# Elastic Constant Matrix: (Units=GPa)
#
#
# Indices 1 2 3 4 5 6 
#
# 1 51.7709 7.3356 54.3271 0.0000 -5.3411 0.0000
# 2 7.3356 17.3482 16.4821 0.0000 -4.1101 0.0000
# 3 54.3271 16.4821 146.5335 0.0000 -29.5286 0.0000
# 4 0.0000 0.0000 0.0000 28.5037 0.0000 -4.7581
# 5 -5.3411 -4.1101 -29.5286 0.0000 24.2925 0.0000
# 6 0.0000 0.0000 0.0000 -4.7581 0.0000 7.1729
#
#
#
# Elastic Compliance Matrix: (Units=1/GPa)
#
#
# Indices 1 2 3 4 5 6 
#
# 1 0.033584 -0.003184 -0.014189 0.000000 -0.010402 0.000000
# 2 -0.003184 0.064983 -0.005369 0.000000 0.003768 0.000000
# 3 -0.014189 -0.005369 0.015730 0.000000 0.015093 0.000000
# 4 0.000000 0.000000 0.000000 0.039452 0.000000 0.026170
# 5 -0.010402 0.003768 0.015093 0.000000 0.057861 0.000000
# 6 0.000000 0.000000 0.000000 0.026170 0.000000 0.156773
#
#
# Mechanical properties :
#
#
# Convention : Reuss Voigt Hill
#
# Bulk Modulus (GPa) = 14.53250 41.32692 27.92971
# Shear Modulus (GPa) = 11.44672 21.16101 16.30386
#
# Velocity S-wave (km/s) = 2.67251 3.63368 3.18951
# Velocity P-wave (km/s) = 4.31170 6.58720 5.56695
#
# Compressibility (1/GPa) = 0.06881126
#
# Stress axis : x y z
#
# Youngs Moduli (GPa) = 29.77640 15.38856 63.57140
#
# Poissons Ratio (x) = 0.04900 0.90202
# Poissons Ratio (y) = 0.09482 0.34134
# Poissons Ratio (z) = 0.42250 0.08263
#
# Static dielectric constant tensor:
#      x y z
#    x 1.525880 0.000000 -0.044530 
#    y 0.000000 1.546870 0.000000 
#    z -0.044530 0.000000 1.577330 
# 
# From -- ./inp_files/79869.got.cif
#   From: 2010.05.17/outbox.cif.g08.bks.cpg/sg10_40_cif.got.tgz:79869.got - 2010.06.03 11:33:40.
