data_PCOD9141091
_publ_section_title
;
Structure prediction by ZEFSAII (Michael W. Deem and Ramdas Pophale) SiO2 
 PCOD9141091
Probable space group: C C
;
_chemical_formula_sum "Si O2"
_cell_formula_units_Z 28
_cell_length_a 12.527303
_cell_length_b 6.427429
_cell_length_c 15.542792
_cell_angle_alpha 90.000000
_cell_angle_beta 66.040394
_cell_angle_gamma 90.000000
_cell_volume 1143.642428
_symmetry_space_group_name_H-M "C C"
_symmetry_group_IT_number 9
_symmetry_cell_setting 'monoclinic'
loop_
_space_group_symop_operation_xyz
x,y,z
x,-y,1/2+z
1/2+x,1/2+y,z
1/2+x,1/2-y,1/2+z
loop_
_atom_site_type_symbol
_atom_site_label
_atom_site_fract_x
_atom_site_fract_y
_atom_site_fract_z
Si Si1 0.915500 0.067919 0.470590
Si Si2 0.724604 0.753082 0.592500
Si Si3 0.251825 0.303459 0.249580
Si Si4 0.842998 0.814412 0.820277
Si Si5 0.922283 0.447489 0.585457
Si Si6 0.665425 0.517344 0.436294
Si Si7 0.561778 0.065153 0.683085
O O1 0.908357 0.050624 0.370879
O O2 0.932987 0.307097 0.496511
O O3 0.030722 0.958936 0.468327
O O4 0.799109 0.959697 0.544008
O O5 0.818341 0.609915 0.608259
O O6 0.684383 0.633785 0.520109
O O7 0.613352 0.833513 0.682292
O O8 0.282727 0.534923 0.271647
O O9 0.203676 0.171061 0.345725
O O10 0.155623 0.297668 0.204703
O O11 0.371811 0.213273 0.172440
O O12 0.745935 0.682892 0.901844
O O13 0.937686 0.651314 0.754474
O O14 0.038307 0.550462 0.587510
#
# Coordination Sequence:
#
# PCOD9141091 Si02
#       7
#     4   4   4   4   4   4   4
#     4  12  26  46  73 105 146 193 248 303 367 439
#     4  12  27  48  73 110 145 197 249 303 369 445
#     4  12  27  47  73 108 146 192 245 302 376 439
#     4  12  27  48  73 110 145 197 249 303 369 445
#     4  12  27  47  73 108 146 192 245 302 376 439
#     4  12  26  46  73 105 146 193 248 303 367 439
#     4  12  26  46  76 108 150 188 242 306 364 446
#
# _framework density 24.483176
#
# number of rings (size 3 to 8) (size 9 to 14) (size 15 to 20)
#    0.000    0.000    8.571    0.857    0.000    6.857 
#    0.000    0.000    0.000    0.000    0.000    0.000 
#    0.000    0.000    0.000    0.000    0.000    0.000 
#
# Total GULP energy -78302.096411 kJ/mol
# GULP energy per Si atom -5593.006887 kJ/mol
# Density = 2.442745 g / cm^3
# Si number density = 24.483176 Si / 1000 Ang^3
#
#
#
# Elastic Constant Matrix: (Units=GPa)
#
#
# Indices 1 2 3 4 5 6 
#
# 1 178.7526 28.9570 18.8539 0.0000 18.6555 0.0000
# 2 28.9570 59.2233 14.2344 0.0000 6.8010 0.0000
# 3 18.8539 14.2344 47.5552 0.0000 5.5182 0.0000
# 4 0.0000 0.0000 0.0000 49.8404 0.0000 -0.5281
# 5 18.6555 6.8010 5.5182 0.0000 42.0731 0.0000
# 6 0.0000 0.0000 0.0000 -0.5281 0.0000 38.6973
#
#
#
# Elastic Compliance Matrix: (Units=1/GPa)
#
#
# Indices 1 2 3 4 5 6 
#
# 1 0.006394 -0.002503 -0.001527 0.000000 -0.002230 0.000000
# 2 -0.002503 0.019388 -0.004647 0.000000 -0.001415 0.000000
# 3 -0.001527 -0.004647 0.023212 0.000000 -0.001616 0.000000
# 4 0.000000 0.000000 0.000000 0.020067 0.000000 0.000274
# 5 -0.002230 -0.001415 -0.001616 0.000000 0.025198 0.000000
# 6 0.000000 0.000000 0.000000 0.000274 0.000000 0.025845
#
#
# Mechanical properties :
#
#
# Convention : Reuss Voigt Hill
#
# Bulk Modulus (GPa) = 31.60505 45.51353 38.55929
# Shear Modulus (GPa) = 33.78278 41.02121 37.40200
#
# Velocity S-wave (km/s) = 3.71865 4.09771 3.91277
# Velocity P-wave (km/s) = 5.60131 6.40456 6.01635
#
# Compressibility (1/GPa) = 0.03164051
#
# Stress axis : x y z
#
# Youngs Moduli (GPa) = 156.40661 51.57712 43.08114
#
# Poissons Ratio (x) = 0.12910 0.06578
# Poissons Ratio (y) = 0.39149 0.20019
# Poissons Ratio (z) = 0.23881 0.23967
#
# Static dielectric constant tensor:
#      x y z
#    x 1.913950 0.000000 0.008630 
#    y 0.000000 1.947480 0.000000 
#    z 0.008630 0.000000 1.912540 
# 
# From -- ./inp_files/29635.got.cif
#   From: 2010.05.17/outbox.cif.g08.bks.cpg/sg9_15_cif.got.tgz:29635.got - 2010.06.03 20:04:27.
