data_PCOD9141876
_publ_section_title
;
Structure prediction by ZEFSAII (Michael W. Deem and Ramdas Pophale) SiO2 
 PCOD9141876
Probable space group: P 2/M
;
_chemical_formula_sum "Si O2"
_cell_formula_units_Z 28
_cell_length_a 24.617408
_cell_length_b 7.823269
_cell_length_c 21.297553
_cell_angle_alpha 90.000000
_cell_angle_beta 20.456775
_cell_angle_gamma 90.000000
_cell_volume 1433.534894
_symmetry_space_group_name_H-M "P 2/M"
_symmetry_group_IT_number 10
_symmetry_cell_setting 'monoclinic'
loop_
_space_group_symop_operation_xyz
x,y,z
-x,y,-z
-x,-y,-z
x,-y,z
loop_
_atom_site_type_symbol
_atom_site_label
_atom_site_fract_x
_atom_site_fract_y
_atom_site_fract_z
Si Si1 0.250691 0.701142 0.094234
Si Si2 0.338872 0.000000 0.092055
Si Si3 0.037640 0.198423 0.757809
Si Si4 0.605189 0.708638 0.328892
Si Si5 0.679660 0.706118 0.116613
Si Si6 0.883824 0.689105 0.457622
Si Si7 0.291996 0.000000 0.287735
Si Si8 0.040631 0.706114 0.025288
O O1 0.284193 0.500000 0.070983
O O2 0.066899 0.711081 0.276281
O O3 0.287509 0.831473 0.109624
O O4 0.343283 0.758375 0.930614
O O5 0.269905 0.000000 0.236719
O O6 0.524911 0.000000 0.896817
O O7 0.127818 0.296682 0.605480
O O8 0.063995 0.237533 0.802509
O O9 0.062214 0.000000 0.719290
O O10 0.856032 0.242360 0.942857
O O11 0.500000 0.770935 0.500000
O O12 0.595355 0.500000 0.339465
O O13 0.576279 0.764406 0.287952
O O14 0.781956 0.756087 0.153270
O O15 0.675908 0.500000 0.119831
O O16 0.835777 0.500000 0.529825
O O17 0.786948 0.834902 0.595970
O O18 0.034374 0.500000 0.031523
O O19 0.000000 0.768918 0.000000
#
# Coordination Sequence:
#
# PCOD9141876 Si02
#       8
#     4   2   4   4   4   4   2   4
#     4   9  19  36  61  91 114 145 192 244 290 326
#     4  11  25  41  61  81 124 157 186 225 268 355
#     4  10  17  28  51  79 105 136 180 228 285 336
#     4   8  13  24  44  67  95 131 172 221 268 317
#     4   8  15  28  48  77 106 133 179 229 278 334
#     4  10  20  38  64  90 116 144 191 245 285 334
#     4  11  25  43  57  87 118 161 190 213 282 343
#     4   9  17  29  44  67  99 137 181 223 271 329
#
# _framework density 19.532136999999999
#
# number of rings (size 3 to 8) (size 9 to 14) (size 15 to 20)
#    0.000    2.714    0.714    3.429    3.000    2.571 
#    0.000    4.286    0.000   10.286    0.000    0.000 
#    0.000    0.000    0.000    0.000    0.000    0.000 
#
# Total GULP energy -156028.118184 kJ/mol
# GULP energy per Si atom -5572.432792 kJ/mol
# Density = 1.948768 g / cm^3
# Si number density = 19.532137 Si / 1000 Ang^3
#
#
#
# Elastic Constant Matrix: (Units=GPa)
#
#
# Indices 1 2 3 4 5 6 
#
# 1 127.2372 46.4629 40.8697 0.0000 41.7534 0.0000
# 2 46.4629 111.9998 26.7986 0.0000 9.6307 0.0000
# 3 40.8697 26.7986 65.6557 0.0000 42.1408 0.0000
# 4 0.0000 0.0000 0.0000 13.2874 0.0000 7.2021
# 5 41.7534 9.6307 42.1408 0.0000 35.0632 0.0000
# 6 0.0000 0.0000 0.0000 7.2021 0.0000 24.3650
#
#
#
# Elastic Compliance Matrix: (Units=1/GPa)
#
#
# Indices 1 2 3 4 5 6 
#
# 1 0.019720 -0.009332 0.021700 0.000000 -0.047000 0.000000
# 2 -0.009332 0.015064 -0.021070 0.000000 0.032297 0.000000
# 3 0.021700 -0.021070 0.101463 0.000000 -0.141998 0.000000
# 4 0.000000 0.000000 0.000000 0.089618 0.000000 -0.026490
# 5 -0.047000 0.032297 -0.141998 0.000000 0.246277 0.000000
# 6 0.000000 0.000000 0.000000 -0.026490 0.000000 0.048873
#
#
# Mechanical properties :
#
#
# Convention : Reuss Voigt Hill
#
# Bulk Modulus (GPa) = 8.41432 59.23946 33.82689
# Shear Modulus (GPa) = 8.65005 27.26054 17.95530
#
# Velocity S-wave (km/s) = 2.10671 3.73993 3.03523
# Velocity P-wave (km/s) = 3.19921 7.00318 5.44424
#
# Compressibility (1/GPa) = 0.11884498
#
# Stress axis : x y z
#
# Youngs Moduli (GPa) = 50.71053 66.38348 9.85577
#
# Poissons Ratio (x) = 0.61946 -0.21387
# Poissons Ratio (y) = 0.47321 0.20766
# Poissons Ratio (z) = -1.10042 1.39867
#
# Static dielectric constant tensor:
#      x y z
#    x 1.713610 0.000000 0.027540 
#    y 0.000000 1.681870 0.000000 
#    z 0.027540 0.000000 1.678030 
# 
# From -- ./inp_files/86507.got.cif
#   From: 2010.05.17/outbox.cif.g08.bks.cpg/sg10_44_cif.got.tgz:86507.got - 2010.06.03 11:33:40.
