data_PCOD9141472
_publ_section_title
;
Structure prediction by ZEFSAII (Michael W. Deem and Ramdas Pophale) SiO2 
 PCOD9141472
Probable space group: P 2/M
;
_chemical_formula_sum "Si O2"
_cell_formula_units_Z 19
_cell_length_a 15.990288
_cell_length_b 9.813408
_cell_length_c 11.868425
_cell_angle_alpha 90.000000
_cell_angle_beta 154.382481
_cell_angle_gamma 90.000000
_cell_volume 805.223095
_symmetry_space_group_name_H-M "P 2/M"
_symmetry_group_IT_number 10
_symmetry_cell_setting 'monoclinic'
loop_
_space_group_symop_operation_xyz
x,y,z
-x,y,-z
-x,-y,-z
x,-y,z
loop_
_atom_site_type_symbol
_atom_site_label
_atom_site_fract_x
_atom_site_fract_y
_atom_site_fract_z
Si Si1 0.823744 0.500000 0.896232
Si Si2 0.679044 0.000000 0.635552
Si Si3 0.704268 0.728038 0.033308
Si Si4 0.914914 0.210571 0.058662
Si Si5 0.479290 0.500000 0.665692
Si Si6 0.000000 0.500000 0.500000
Si Si7 0.757872 0.000000 0.490718
Si Si8 0.764481 0.000000 0.237825
O O1 0.659068 0.500000 0.794432
O O2 0.706985 0.500000 0.638414
O O3 0.945180 0.364990 0.061251
O O4 0.500000 0.000000 0.500000
O O5 0.623459 0.000000 0.437593
O O6 0.805639 0.130223 0.826558
O O7 0.778989 0.784688 0.004015
O O8 0.860499 0.620677 0.273328
O O9 0.687009 0.859518 0.090750
O O10 0.513196 0.636639 0.779393
O O11 0.104251 0.130065 0.322455
O O12 0.709487 0.000000 0.302005
O O13 0.000000 0.000000 0.500000
#
# Coordination Sequence:
#
# PCOD9141472 Si02
#       8
#     2   2   4   4   2   1   2   2
#     4   9  18  32  57  92 125 158 205 248 313 374
#     4  11  26  41  61  86 125 166 208 256 317 370
#     4  10  18  29  53  89 125 163 206 245 304 358
#     4  10  19  36  62  92 126 158 204 255 308 368
#     4   8  18  30  46  85 135 163 201 244 293 379
#     4  10  16  28  44  84 132 160 196 248 292 366
#     4  11  22  41  59  91 132 159 204 264 306 364
#     4  12  18  32  57  90 122 160 212 252 302 368
#
# _framework density 23.595945
#
# number of rings (size 3 to 8) (size 9 to 14) (size 15 to 20)
#    0.000    1.895    3.158    2.526    5.895    0.000 
#    0.000    2.105    0.000    2.526    0.000    1.474 
#    0.000    0.000    0.000    0.000    0.000    0.000 
#
# Total GULP energy -106106.767205 kJ/mol
# GULP energy per Si atom -5584.566695 kJ/mol
# Density = 2.354224 g / cm^3
# Si number density = 23.595945 Si / 1000 Ang^3
#
#
#
# Elastic Constant Matrix: (Units=GPa)
#
#
# Indices 1 2 3 4 5 6 
#
# 1 139.2159 56.9246 36.4098 0.0000 -30.9430 0.0000
# 2 56.9246 226.0268 77.4639 0.0000 -28.8364 0.0000
# 3 36.4098 77.4639 111.4600 0.0000 -38.3232 0.0000
# 4 0.0000 0.0000 0.0000 -59.2885 0.0000 21.9258
# 5 -30.9430 -28.8364 -38.3232 0.0000 43.7447 0.0000
# 6 0.0000 0.0000 0.0000 21.9258 0.0000 2.7599
#
#
#
# Elastic Compliance Matrix: (Units=1/GPa)
#
#
# Indices 1 2 3 4 5 6 
#
# 1 0.009019 -0.001588 -0.000013 0.000000 0.005321 0.000000
# 2 -0.001588 0.006093 -0.003894 0.000000 -0.000518 0.000000
# 3 -0.000013 -0.003894 0.015450 0.000000 0.010960 0.000000
# 4 0.000000 0.000000 0.000000 -0.004283 0.000000 0.034027
# 5 0.005321 -0.000518 0.010960 0.000000 0.035884 0.000000
# 6 0.000000 0.000000 0.000000 0.034027 0.000000 0.092010
#
#
# Mechanical properties :
#
#
# Convention : Reuss Voigt Hill
#
# Bulk Modulus (GPa) = 51.09211 90.92216 71.00714
# Shear Modulus (GPa) = 29.12307 17.83686 23.47997
#
# Velocity S-wave (km/s) = 3.51699 2.75240 3.15792
# Velocity P-wave (km/s) = 6.17998 6.97980 6.59203
#
# Compressibility (1/GPa) = 0.01957249
#
# Stress axis : x y z
#
# Youngs Moduli (GPa) = 110.88318 164.13526 64.72330
#
# Poissons Ratio (x) = 0.26066 0.00082
# Poissons Ratio (y) = 0.17609 0.25201
# Poissons Ratio (z) = 0.00141 0.63909
#
# Static dielectric constant tensor:
#      x y z
#    x 1.929580 0.000000 0.027740 
#    y 0.000000 1.876730 0.000000 
#    z 0.027740 0.000000 1.896110 
# 
# From -- ./inp_files/53182.got.cif
#   From: 2010.05.17/outbox.cif.g08.bks.cpg/sg10_27_cif.got.tgz:53182.got - 2010.06.03 11:33:40.
