data_PCOD9141667
_publ_section_title
;
Structure prediction by ZEFSAII (Michael W. Deem and Ramdas Pophale) SiO2 
 PCOD9141667
Probable space group: P 2/M
;
_chemical_formula_sum "Si O2"
_cell_formula_units_Z 28
_cell_length_a 14.687287
_cell_length_b 8.032047
_cell_length_c 22.972564
_cell_angle_alpha 90.000000
_cell_angle_beta 137.958265
_cell_angle_gamma 90.000000
_cell_volume 1814.843867
_symmetry_space_group_name_H-M "P 2/M"
_symmetry_group_IT_number 10
_symmetry_cell_setting 'monoclinic'
loop_
_space_group_symop_operation_xyz
x,y,z
-x,y,-z
-x,-y,-z
x,-y,z
loop_
_atom_site_type_symbol
_atom_site_label
_atom_site_fract_x
_atom_site_fract_y
_atom_site_fract_z
Si Si1 0.553488 0.303611 0.588615
Si Si2 0.273729 0.196594 0.486592
Si Si3 0.167433 0.804691 0.309974
Si Si4 0.598721 0.000000 0.134212
Si Si5 0.972369 0.700472 0.552318
Si Si6 0.780338 0.306501 0.244167
Si Si7 0.300774 0.000000 0.953049
Si Si8 0.872591 0.686178 0.153027
O O1 0.500000 0.242158 0.500000
O O2 0.578000 0.500000 0.596562
O O3 0.423636 0.270975 0.567360
O O4 0.698799 0.218683 0.666088
O O5 0.209671 0.260065 0.394708
O O6 0.165778 0.232359 0.485353
O O7 0.291614 0.000000 0.488072
O O8 0.033734 0.713632 0.224169
O O9 0.134101 0.000000 0.299547
O O10 0.662901 0.832048 0.191560
O O11 0.647382 0.000000 0.089600
O O12 0.435989 0.000000 0.056021
O O13 0.961433 0.500000 0.546144
O O14 0.000000 0.759513 0.500000
O O15 0.098571 0.740490 0.654428
O O16 0.739461 0.500000 0.235714
O O17 0.839043 0.301143 0.206228
O O18 0.210552 0.834139 0.916773
O O19 0.833864 0.500000 0.115641
#
# Coordination Sequence:
#
# PCOD9141667 Si02
#       8
#     4   4   4   2   4   4   2   4
#     4   9  17  27  39  57  81 110 148 182 213 256
#     4  10  19  28  42  59  82 113 147 188 223 255
#     4  10  17  26  41  60  86 115 148 183 215 256
#     4   9  18  30  47  58  83 109 143 179 226 265
#     4  10  20  32  45  62  85 114 151 193 228 256
#     4   9  18  30  45  62  82 113 149 183 221 263
#     4   9  18  30  40  64  84 108 139 184 218 264
#     4  10  17  26  43  62  85 116 146 177 218 260
#
# _framework density 15.428324999999999
#
# number of rings (size 3 to 8) (size 9 to 14) (size 15 to 20)
#    0.000    2.429    2.143    1.286    1.000    3.714 
#    0.000    2.857    0.000    0.000    0.000    0.000 
#    0.000    0.000    0.000    2.571    0.000   15.714 
#
# Total GULP energy -155988.022486 kJ/mol
# GULP energy per Si atom -5571.000803 kJ/mol
# Density = 1.539321 g / cm^3
# Si number density = 15.428325 Si / 1000 Ang^3
#
#
#
# Elastic Constant Matrix: (Units=GPa)
#
#
# Indices 1 2 3 4 5 6 
#
# 1 62.0614 23.0625 33.0171 0.0000 18.4547 0.0000
# 2 23.0625 76.5349 38.2257 0.0000 17.9041 0.0000
# 3 33.0171 38.2257 50.9593 0.0000 24.9679 0.0000
# 4 0.0000 0.0000 0.0000 12.0832 0.0000 4.6062
# 5 18.4547 17.9041 24.9679 0.0000 23.4392 0.0000
# 6 0.0000 0.0000 0.0000 4.6062 0.0000 16.1987
#
#
#
# Elastic Compliance Matrix: (Units=1/GPa)
#
#
# Indices 1 2 3 4 5 6 
#
# 1 0.024902 0.000801 -0.014284 0.000000 -0.005003 0.000000
# 2 0.000801 0.020946 -0.016907 0.000000 0.001379 0.000000
# 3 -0.014284 -0.016907 0.062170 0.000000 -0.042064 0.000000
# 4 0.000000 0.000000 0.000000 0.092821 0.000000 -0.026394
# 5 -0.005003 0.001379 -0.042064 0.000000 0.090356 0.000000
# 6 0.000000 0.000000 0.000000 -0.026394 0.000000 0.069239
#
#
# Mechanical properties :
#
#
# Convention : Reuss Voigt Hill
#
# Bulk Modulus (GPa) = 21.16924 42.01846 31.59385
# Shear Modulus (GPa) = 11.44268 16.69425 14.06847
#
# Velocity S-wave (km/s) = 2.72631 3.29302 3.02298
# Velocity P-wave (km/s) = 4.86428 6.46161 5.71899
#
# Compressibility (1/GPa) = 0.04723836
#
# Stress axis : x y z
#
# Youngs Moduli (GPa) = 40.15689 47.74145 16.08500
#
# Poissons Ratio (x) = -0.03822 0.22976
# Poissons Ratio (y) = -0.03215 0.27194
# Poissons Ratio (z) = 0.57360 0.80715
#
# Static dielectric constant tensor:
#      x y z
#    x 1.511880 0.000000 0.021110 
#    y 0.000000 1.537570 0.000000 
#    z 0.021110 0.000000 1.494740 
# 
# From -- ./inp_files/54742.got.cif
#   From: 2010.05.17/outbox.cif.g08.bks.cpg/sg10_28_cif.got.tgz:54742.got - 2010.06.03 11:33:40.
