data_PCOD9141022
_publ_section_title
;
Structure prediction by ZEFSAII (Michael W. Deem and Ramdas Pophale) SiO2 
 PCOD9141022
Probable space group: C C
;
_chemical_formula_sum "Si O2"
_cell_formula_units_Z 32
_cell_length_a 16.194407
_cell_length_b 16.849887
_cell_length_c 9.459797
_cell_angle_alpha 90.000000
_cell_angle_beta 148.946466
_cell_angle_gamma 90.000000
_cell_volume 1331.551027
_symmetry_space_group_name_H-M "C C"
_symmetry_group_IT_number 9
_symmetry_cell_setting 'monoclinic'
loop_
_space_group_symop_operation_xyz
x,y,z
x,-y,1/2+z
1/2+x,1/2+y,z
1/2+x,1/2-y,1/2+z
loop_
_atom_site_type_symbol
_atom_site_label
_atom_site_fract_x
_atom_site_fract_y
_atom_site_fract_z
Si Si1 0.133650 0.011883 0.442900
Si Si2 0.575721 0.253009 0.161774
Si Si3 0.586243 0.319854 0.722737
Si Si4 0.474435 0.430845 0.974530
Si Si5 0.470216 0.067295 0.354278
Si Si6 0.620678 0.971089 0.351558
Si Si7 0.447906 0.183333 0.713455
Si Si8 0.429948 0.751317 0.740685
O O1 0.097307 0.096485 0.317222
O O2 0.102173 0.023020 0.562502
O O3 0.307609 0.978548 0.657681
O O4 0.006973 0.953200 0.184046
O O5 0.510257 0.337929 0.014238
O O6 0.558608 0.251006 0.304845
O O7 0.763704 0.242235 0.414108
O O8 0.480731 0.189668 0.929195
O O9 0.544359 0.252112 0.774533
O O10 0.462367 0.311573 0.411765
O O11 0.760964 0.304364 0.914128
O O12 0.300222 0.455211 0.665632
O O13 0.603422 0.035889 0.658710
O O14 0.437955 0.160795 0.319924
O O15 0.538970 0.048163 0.300193
O O16 0.510937 0.899757 0.250064
#
# Coordination Sequence:
#
# PCOD9141022 Si02
#       8
#     4   4   4   4   4   4   4   4
#     4  12  27  48  76 105 152 195 244 304 381 444
#     4  12  27  46  72 107 147 189 247 308 367 437
#     4  12  26  47  74 105 143 198 243 302 368 445
#     4  12  27  47  72 107 147 193 246 306 371 443
#     4  12  27  49  74 107 148 197 245 306 372 446
#     4  12  27  46  72 106 146 192 246 304 372 443
#     4  12  25  46  72 102 144 192 244 298 371 440
#     4  12  28  47  74 109 149 190 251 308 368 438
#
# _framework density 24.032124
#
# number of rings (size 3 to 8) (size 9 to 14) (size 15 to 20)
#    0.000    0.000    5.000    4.500    3.500    3.000 
#    0.000    0.000    0.000    0.000    0.000    0.000 
#    0.000    0.000    0.000    0.000    0.000    0.000 
#
# Total GULP energy -89685.343844 kJ/mol
# GULP energy per Si atom -5605.333990 kJ/mol
# Density = 2.397743 g / cm^3
# Si number density = 24.032124 Si / 1000 Ang^3
#
#
#
# Elastic Constant Matrix: (Units=GPa)
#
#
# Indices 1 2 3 4 5 6 
#
# 1 61.4863 -0.8341 -7.0427 0.0000 -10.8452 0.0000
# 2 -0.8341 53.5584 0.6734 0.0000 0.0361 0.0000
# 3 -7.0427 0.6734 96.1344 0.0000 6.9357 0.0000
# 4 0.0000 0.0000 0.0000 13.3675 0.0000 -3.9951
# 5 -10.8452 0.0361 6.9357 0.0000 48.4459 0.0000
# 6 0.0000 0.0000 0.0000 -3.9951 0.0000 33.0201
#
#
#
# Elastic Compliance Matrix: (Units=1/GPa)
#
#
# Indices 1 2 3 4 5 6 
#
# 1 0.017027 0.000250 0.000981 0.000000 0.003671 0.000000
# 2 0.000250 0.018677 -0.000117 0.000000 0.000059 0.000000
# 3 0.000981 -0.000117 0.010568 0.000000 -0.001293 0.000000
# 4 0.000000 0.000000 0.000000 0.077615 0.000000 0.009391
# 5 0.003671 0.000059 -0.001293 0.000000 0.021649 0.000000
# 6 0.000000 0.000000 0.000000 0.009391 0.000000 0.031421
#
#
# Mechanical properties :
#
#
# Convention : Reuss Voigt Hill
#
# Bulk Modulus (GPa) = 20.61833 21.86357 21.24095
# Shear Modulus (GPa) = 26.19261 33.52555 29.85908
#
# Velocity S-wave (km/s) = 3.30494 3.73906 3.52869
# Velocity P-wave (km/s) = 4.81266 5.26860 5.04578
#
# Compressibility (1/GPa) = 0.04850053
#
# Stress axis : x y z
#
# Youngs Moduli (GPa) = 58.73003 53.54315 94.62453
#
# Poissons Ratio (x) = -0.01341 -0.09281
# Poissons Ratio (y) = -0.01470 0.01104
# Poissons Ratio (z) = -0.05760 0.00625
#
# Static dielectric constant tensor:
#      x y z
#    x 1.894430 0.000000 -0.021890 
#    y 0.000000 1.909220 0.000000 
#    z -0.021890 0.000000 1.865090 
# 
# From -- ./inp_files/10108.got.cif
#   From: 2010.05.17/outbox.cif.g08.bks.cpg/sg9_6_cif.got.tgz:10108.got - 2010.06.03 20:04:27.
