data_PCOD9141916
_publ_section_title
;
Structure prediction by ZEFSAII (Michael W. Deem and Ramdas Pophale) SiO2 
 PCOD9141916
Probable space group: P 2/M
;
_chemical_formula_sum "Si O2"
_cell_formula_units_Z 32
_cell_length_a 20.893855
_cell_length_b 7.833022
_cell_length_c 26.180594
_cell_angle_alpha 90.000000
_cell_angle_beta 22.907999
_cell_angle_gamma 90.000000
_cell_volume 1667.857289
_symmetry_space_group_name_H-M "P 2/M"
_symmetry_group_IT_number 10
_symmetry_cell_setting 'monoclinic'
loop_
_space_group_symop_operation_xyz
x,y,z
-x,y,-z
-x,-y,-z
x,-y,z
loop_
_atom_site_type_symbol
_atom_site_label
_atom_site_fract_x
_atom_site_fract_y
_atom_site_fract_z
Si Si1 0.338368 0.798623 0.148568
Si Si2 0.847801 0.791750 0.147538
Si Si3 0.135984 0.699442 0.208129
Si Si4 0.459061 0.297442 0.910212
Si Si5 0.649918 0.205446 0.119465
Si Si6 0.182057 0.200548 0.615164
Si Si7 0.971237 0.209440 0.166789
Si Si8 0.470580 0.209651 0.681265
O O1 0.184884 0.721087 0.231457
O O2 0.383073 0.767225 0.174439
O O3 0.329036 0.000000 0.146884
O O4 0.500000 0.728804 0.000000
O O5 0.880784 0.737982 0.181302
O O6 0.676637 0.738029 0.248237
O O7 0.848557 0.000000 0.146829
O O8 0.000000 0.737806 0.000000
O O9 0.121540 0.500000 0.207037
O O10 0.966939 0.782593 0.315168
O O11 0.291042 0.770615 0.061028
O O12 0.456974 0.500000 0.917756
O O13 0.449944 0.253352 0.857647
O O14 0.572957 0.265903 0.229284
O O15 0.656509 0.000000 0.117072
O O16 0.838546 0.265619 0.974761
O O17 0.117562 0.271123 0.716622
O O18 0.352712 0.271066 0.468193
O O19 0.211665 0.000000 0.602288
O O20 0.973546 0.000000 0.166008
O O21 0.471878 0.000000 0.681185
#
# Coordination Sequence:
#
# PCOD9141916 Si02
#       8
#     4   4   4   4   4   4   4   4
#     4   9  17  29  48  75 104 133 163 201 248 295
#     4   9  14  24  42  68 100 130 161 205 259 303
#     4  10  19  31  48  71 101 136 168 202 246 295
#     4  10  19  30  47  74 103 130 165 209 247 289
#     4  10  17  29  48  71  97 130 168 205 249 299
#     4  10  19  31  46  71 102 131 167 210 251 295
#     4   9  16  25  44  69  96 129 164 204 251 300
#     4   9  18  29  45  70 101 132 165 208 256 302
#
# _framework density 19.186294
#
# number of rings (size 3 to 8) (size 9 to 14) (size 15 to 20)
#    0.000    2.500    2.500    1.125    0.000    3.000 
#    0.000    3.125    0.000    0.750    0.000   10.500 
#    0.000    0.000    0.000    0.000    0.000    0.000 
#
# Total GULP energy -178467.700649 kJ/mol
# GULP energy per Si atom -5577.115645 kJ/mol
# Density = 1.914263 g / cm^3
# Si number density = 19.186294 Si / 1000 Ang^3
#
#
#
# Elastic Constant Matrix: (Units=GPa)
#
#
# Indices 1 2 3 4 5 6 
#
# 1 173.7688 -5.6713 76.9979 0.0000 -3.6210 0.0000
# 2 -5.6713 22.5488 4.1272 0.0000 5.8477 0.0000
# 3 76.9979 4.1272 123.5579 0.0000 3.6823 0.0000
# 4 0.0000 0.0000 0.0000 -1.6123 0.0000 13.3869
# 5 -3.6210 5.8477 3.6823 0.0000 20.6934 0.0000
# 6 0.0000 0.0000 0.0000 13.3869 0.0000 -36.9620
#
#
#
# Elastic Compliance Matrix: (Units=1/GPa)
#
#
# Indices 1 2 3 4 5 6 
#
# 1 0.008197 0.002598 -0.005244 0.000000 0.001633 0.000000
# 2 0.002598 0.048857 -0.002868 0.000000 -0.012841 0.000000
# 3 -0.005244 -0.002868 0.011521 0.000000 -0.002157 0.000000
# 4 0.000000 0.000000 0.000000 0.309008 0.000000 0.111917
# 5 0.001633 -0.012841 -0.002157 0.000000 0.052623 0.000000
# 6 0.000000 0.000000 0.000000 0.111917 0.000000 0.013479
#
#
# Mechanical properties :
#
#
# Convention : Reuss Voigt Hill
#
# Bulk Modulus (GPa) = 17.37707 52.30926 34.84317
# Shear Modulus (GPa) = 10.55085 12.71859 11.63472
#
# Velocity S-wave (km/s) = 2.34757 2.57748 2.46521
# Velocity P-wave (km/s) = 4.05275 6.01506 5.12863
#
# Compressibility (1/GPa) = 0.05754710
#
# Stress axis : x y z
#
# Youngs Moduli (GPa) = 121.99462 20.46797 86.79679
#
# Poissons Ratio (x) = -0.05317 0.45513
# Poissons Ratio (y) = -0.31692 0.24895
# Poissons Ratio (z) = 0.63970 0.05871
#
# Static dielectric constant tensor:
#      x y z
#    x 1.676400 0.000000 0.004000 
#    y 0.000000 1.685800 0.000000 
#    z 0.004000 0.000000 1.651710 
# 
# From -- ./inp_files/79945.got.cif
#   From: 2010.05.17/outbox.cif.g08.bks.cpg/sg10_40_cif.got.tgz:79945.got - 2010.06.03 11:33:40.
