data_PCOD9141530
_publ_section_title
;
Structure prediction by ZEFSAII (Michael W. Deem and Ramdas Pophale) SiO2 
 PCOD9141530
Probable space group: P 2/M
;
_chemical_formula_sum "Si O2"
_cell_formula_units_Z 30
_cell_length_a 15.947376
_cell_length_b 13.137955
_cell_length_c 15.901017
_cell_angle_alpha 90.000000
_cell_angle_beta 27.789138
_cell_angle_gamma 90.000000
_cell_volume 1553.215851
_symmetry_space_group_name_H-M "P 2/M"
_symmetry_group_IT_number 10
_symmetry_cell_setting 'monoclinic'
loop_
_space_group_symop_operation_xyz
x,y,z
-x,y,-z
-x,-y,-z
x,-y,z
loop_
_atom_site_type_symbol
_atom_site_label
_atom_site_fract_x
_atom_site_fract_y
_atom_site_fract_z
Si Si1 0.667398 0.683108 0.695796
Si Si2 0.500000 0.245263 0.000000
Si Si3 0.341381 0.702501 0.870772
Si Si4 0.413784 0.381065 0.483990
Si Si5 0.036193 0.611810 0.368070
Si Si6 0.890533 0.886686 0.509630
Si Si7 0.979412 0.378535 0.114703
Si Si8 0.788144 0.189591 0.868386
O O1 0.482602 0.658700 0.813490
O O2 0.829728 0.615286 0.519460
O O3 0.745933 0.799062 0.618246
O O4 0.621536 0.681904 0.834890
O O5 0.620152 0.176151 0.954694
O O6 0.466749 0.694939 0.677677
O O7 0.157511 0.647123 0.008847
O O8 0.276214 0.803295 0.978636
O O9 0.500000 0.383366 0.500000
O O10 0.423766 0.500000 0.444209
O O11 0.207093 0.346135 0.676414
O O12 0.115068 0.500000 0.288063
O O13 0.000000 0.631957 0.500000
O O14 0.139188 0.698778 0.226289
O O15 0.000000 0.864835 0.500000
O O16 0.045993 0.881495 0.301272
O O17 0.814219 0.000000 0.584072
O O18 0.963434 0.500000 0.122746
O O19 0.000000 0.339806 0.000000
#
# Coordination Sequence:
#
# PCOD9141530 Si02
#       8
#     4   2   4   4   4   4   4   4
#     4  10  20  35  52  76 111 142 190 236 286 338
#     4  10  16  34  50  64 108 150 172 236 284 324
#     4  11  23  33  53  79 112 154 183 227 292 343
#     4  10  20  36  56  79 111 151 198 246 289 335
#     4  10  19  33  49  65  95 147 198 233 270 316
#     4  10  19  37  63  84 105 144 193 241 299 360
#     4  10  20  36  56  79 111 151 198 246 289 335
#     4  10  20  35  52  76 111 142 190 236 286 338
#
# _framework density 19.314764
#
# number of rings (size 3 to 8) (size 9 to 14) (size 15 to 20)
#    0.000    1.867    4.000    1.200    3.733    2.133 
#    0.000    6.000    0.000    0.000    0.000    0.000 
#    0.000   10.667    0.000    0.000    0.000    0.000 
#
# Total GULP energy -167055.151768 kJ/mol
# GULP energy per Si atom -5568.505059 kJ/mol
# Density = 1.927080 g / cm^3
# Si number density = 19.314764 Si / 1000 Ang^3
#
#
#
# Elastic Constant Matrix: (Units=GPa)
#
#
# Indices 1 2 3 4 5 6 
#
# 1 58.4524 6.9456 40.0627 0.0000 0.8302 0.0000
# 2 6.9456 66.7920 12.3052 0.0000 2.8037 0.0000
# 3 40.0627 12.3052 130.6820 0.0000 -9.2547 0.0000
# 4 0.0000 0.0000 0.0000 7.5961 0.0000 1.5507
# 5 0.8302 2.8037 -9.2547 0.0000 35.6589 0.0000
# 6 0.0000 0.0000 0.0000 1.5507 0.0000 4.0547
#
#
#
# Elastic Compliance Matrix: (Units=1/GPa)
#
#
# Indices 1 2 3 4 5 6 
#
# 1 0.021898 -0.000936 -0.006780 0.000000 -0.002196 0.000000
# 2 -0.000936 0.015366 -0.001267 0.000000 -0.001515 0.000000
# 3 -0.006780 -0.001267 0.010053 0.000000 0.002867 0.000000
# 4 0.000000 0.000000 0.000000 0.142795 0.000000 -0.054611
# 5 -0.002196 -0.001515 0.002867 0.000000 0.028958 0.000000
# 6 0.000000 0.000000 0.000000 -0.054611 0.000000 0.267510
#
#
# Mechanical properties :
#
#
# Convention : Reuss Voigt Hill
#
# Bulk Modulus (GPa) = 34.07166 41.61702 37.84434
# Shear Modulus (GPa) = 9.72138 22.56947 16.14543
#
# Velocity S-wave (km/s) = 2.24590 3.42205 2.89435
# Velocity P-wave (km/s) = 4.94003 6.09979 5.55029
#
# Compressibility (1/GPa) = 0.02934990
#
# Stress axis : x y z
#
# Youngs Moduli (GPa) = 45.66710 65.07764 99.47099
#
# Poissons Ratio (x) = 0.06090 0.67446
# Poissons Ratio (y) = 0.04273 0.12606
# Poissons Ratio (z) = 0.30964 0.08248
#
# Static dielectric constant tensor:
#      x y z
#    x 1.750760 0.000000 0.003860 
#    y 0.000000 1.663350 0.000000 
#    z 0.003860 0.000000 1.748170 
# 
# From -- ./inp_files/67581.got.cif
#   From: 2010.05.17/outbox.cif.g08.bks.cpg/sg10_34_cif.got.tgz:67581.got - 2010.06.03 11:33:40.
