data_PCOD9141227
_publ_section_title
;
Structure prediction by ZEFSAII (Michael W. Deem and Ramdas Pophale) SiO2 
 PCOD9141227
Probable space group: C C
;
_chemical_formula_sum "Si O2"
_cell_formula_units_Z 16
_cell_length_a 21.000000
_cell_length_b 12.000000
_cell_length_c 12.000000
_cell_angle_alpha 90.000000
_cell_angle_beta 150.000000
_cell_angle_gamma 90.000000
_cell_volume 1512.000000
_symmetry_space_group_name_H-M "C C"
_symmetry_group_IT_number 9
_symmetry_cell_setting 'monoclinic'
loop_
_space_group_symop_operation_xyz
x,y,z
x,-y,1/2+z
1/2+x,1/2+y,z
1/2+x,1/2-y,1/2+z
loop_
_atom_site_type_symbol
_atom_site_label
_atom_site_fract_x
_atom_site_fract_y
_atom_site_fract_z
Si Si1 0.630340 0.963319 0.744120
Si Si2 0.555489 0.319541 0.722776
Si Si3 0.399043 0.121334 0.465611
Si Si4 0.990748 0.315390 0.709362
Si Si5 0.962495 0.455858 0.302825
Si Si6 0.605302 0.377606 0.547487
Si Si7 0.824439 0.276571 0.235336
Si Si8 0.408759 0.428301 0.704183
O O1 0.511078 0.048693 0.579429
O O2 0.598403 0.868156 0.788042
O O3 0.600901 0.933828 0.569999
O O4 0.767637 0.018799 0.970055
O O5 0.439008 0.245363 0.497198
O O6 0.621069 0.351055 0.703785
O O7 0.477706 0.396514 0.691731
O O8 0.672888 0.270708 0.976751
O O9 0.434339 0.112826 0.649018
O O10 0.250016 0.096129 0.224225
O O11 0.951027 0.417251 0.734634
O O12 0.879867 0.279941 0.448804
O O13 0.045933 0.217374 0.873469
O O14 0.867735 0.395869 0.247655
O O15 0.505929 0.479421 0.398025
O O16 0.889399 0.176137 0.260853
#
# Coordination Sequence:
#
# PCOD9141227 Si02
#       8
#     4   4   4   4   4   4   4   4
#     4  10  24  47  76 104 149 199 243 307 375 453
#     4  12  25  45  76  99 154 196 249 298 376 463
#     4  11  23  44  73 102 139 196 244 296 370 443
#     4  10  26  47  75 109 149 193 253 311 373 445
#     4  10  21  43  74 103 140 192 247 288 375 445
#     4  12  29  46  72 115 146 196 252 317 372 449
#     4  11  24  50  72 110 146 198 247 315 376 444
#     4  12  28  46  72 116 149 198 251 312 385 442
#
# _framework density 10.582011
#
# number of rings (size 3 to 8) (size 9 to 14) (size 15 to 20)
#    0.000    1.000    3.750    0.750   10.500    2.000 
#    0.000    0.000    0.000    0.000    0.000    0.000 
#    0.000    0.000    0.000    0.000    0.000    0.000 
#
# Total GULP energy -89115.198599 kJ/mol
# GULP energy per Si atom -5569.699912 kJ/mol
# Density = 1.055793 g / cm^3
# Si number density = 10.582011 Si / 1000 Ang^3
#
#
#
# Elastic Constant Matrix: (Units=GPa)
#
#
# Indices 1 2 3 4 5 6 
#
# 1 82.5490 35.5159 54.6559 0.0000 -4.7444 0.0000
# 2 35.5159 78.5804 47.3368 0.0000 4.3133 0.0000
# 3 54.6559 47.3368 170.5338 0.0000 10.7033 0.0000
# 4 0.0000 0.0000 0.0000 35.6341 0.0000 3.5728
# 5 -4.7444 4.3133 10.7033 0.0000 50.6767 0.0000
# 6 0.0000 0.0000 0.0000 3.5728 0.0000 38.9294
#
#
#
# Elastic Compliance Matrix: (Units=1/GPa)
#
#
# Indices 1 2 3 4 5 6 
#
# 1 0.017473 -0.005494 -0.004264 0.000000 0.003004 0.000000
# 2 -0.005494 0.017017 -0.002878 0.000000 -0.001355 0.000000
# 3 -0.004264 -0.002878 0.008147 0.000000 -0.001875 0.000000
# 4 0.000000 0.000000 0.000000 0.028324 0.000000 -0.002599
# 5 0.003004 -0.001355 -0.001875 0.000000 0.020525 0.000000
# 6 0.000000 0.000000 0.000000 -0.002599 0.000000 0.025926
#
#
# Mechanical properties :
#
#
# Convention : Reuss Voigt Hill
#
# Bulk Modulus (GPa) = 57.58220 67.40895 62.49557
# Shear Modulus (GPa) = 33.67645 37.99169 35.83407
#
# Velocity S-wave (km/s) = 3.99333 4.24147 4.11927
# Velocity P-wave (km/s) = 6.96627 7.47707 7.22618
#
# Compressibility (1/GPa) = 0.01736648
#
# Stress axis : x y z
#
# Youngs Moduli (GPa) = 57.22995 58.76559 122.74541
#
# Poissons Ratio (x) = 0.32285 0.52336
# Poissons Ratio (y) = 0.31441 0.35323
# Poissons Ratio (z) = 0.24401 0.16911
#
# Static dielectric constant tensor:
#      x y z
#    x 1.848090 0.000000 -0.041510 
#    y 0.000000 1.869800 0.000000 
#    z -0.041510 0.000000 1.766320 
# 
# From -- ./inp_files/20274.got.cif
#   From: 2010.05.17/outbox.ucp.g08.bks.cvg/sg9_11_cif.got.tgz:20274.got - 2010.06.11 13:03:20.
