data_PCOD9141393
_publ_section_title
;
Structure prediction by ZEFSAII (Michael W. Deem and Ramdas Pophale) SiO2 
 PCOD9141393
Probable space group: P 2/M
;
_chemical_formula_sum "Si O2"
_cell_formula_units_Z 24
_cell_length_a 5.176879
_cell_length_b 23.117151
_cell_length_c 11.608345
_cell_angle_alpha 90.000000
_cell_angle_beta 120.268450
_cell_angle_gamma 90.000000
_cell_volume 1199.836568
_symmetry_space_group_name_H-M "P 2/M"
_symmetry_group_IT_number 10
_symmetry_cell_setting 'monoclinic'
loop_
_space_group_symop_operation_xyz
x,y,z
-x,y,-z
-x,-y,-z
x,-y,z
loop_
_atom_site_type_symbol
_atom_site_label
_atom_site_fract_x
_atom_site_fract_y
_atom_site_fract_z
Si Si1 0.488037 0.288282 0.121223
Si Si2 0.214733 0.179025 0.159815
Si Si3 0.854411 0.000000 0.096923
Si Si4 0.725278 0.119679 0.160424
Si Si5 0.000000 0.387177 0.000000
Si Si6 0.322228 0.432862 0.287878
Si Si7 0.911769 0.638790 0.356361
O O1 0.337486 0.243832 0.175484
O O2 0.791930 0.313036 0.241370
O O3 0.500000 0.257478 0.000000
O O4 0.276786 0.343314 0.048953
O O5 0.495772 0.135151 0.211112
O O6 0.989762 0.166502 0.212781
O O7 0.000000 0.169807 0.000000
O O8 0.896231 0.058597 0.179766
O O9 0.500000 0.000000 0.000000
O O10 0.000000 0.000000 0.000000
O O11 0.500000 0.122840 0.000000
O O12 0.916635 0.424680 0.870213
O O13 0.358890 0.500000 0.323496
O O14 0.633830 0.404756 0.317333
O O15 0.180667 0.396756 0.360291
O O16 0.000000 0.663471 0.500000
#
# Coordination Sequence:
#
# PCOD9141393 Si02
#       7
#     4   4   2   4   2   4   4
#     4  11  20  35  55  76 106 137 173 216 260 308
#     4  10  18  27  44  68  93 122 169 215 250 293
#     4  10  16  24  36  50  86 132 167 200 245 298
#     4   9  17  26  37  61  91 128 170 208 247 298
#     4  10  21  36  54  86 108 133 174 216 268 308
#     4  11  23  40  62  82 108 137 172 216 261 314
#     4  11  25  41  58  82 110 140 174 211 263 320
#
# _framework density 20.002725999999999
#
# number of rings (size 3 to 8) (size 9 to 14) (size 15 to 20)
#    0.000    1.667    2.500    5.250    0.000    2.000 
#    0.000    2.500    0.000    0.000    0.000    0.000 
#    0.000    0.000    0.000    4.500    0.000    4.167 
#
# Total GULP energy -133821.464468 kJ/mol
# GULP energy per Si atom -5575.894353 kJ/mol
# Density = 1.995720 g / cm^3
# Si number density = 20.002726 Si / 1000 Ang^3
#
#
#
# Elastic Constant Matrix: (Units=GPa)
#
#
# Indices 1 2 3 4 5 6 
#
# 1 111.9846 34.4066 -3.7265 0.0000 0.7117 0.0000
# 2 34.4066 97.9436 6.4396 0.0000 5.2993 0.0000
# 3 -3.7265 6.4396 56.8978 0.0000 -1.5858 0.0000
# 4 0.0000 0.0000 0.0000 -10.3881 0.0000 -2.2277
# 5 0.7117 5.2993 -1.5858 0.0000 16.3530 0.0000
# 6 0.0000 0.0000 0.0000 -2.2277 0.0000 28.1575
#
#
#
# Elastic Compliance Matrix: (Units=1/GPa)
#
#
# Indices 1 2 3 4 5 6 
#
# 1 0.010086 -0.003662 0.001099 0.000000 0.000854 0.000000
# 2 -0.003662 0.011814 -0.001684 0.000000 -0.003832 0.000000
# 3 0.001099 -0.001684 0.017900 0.000000 0.002234 0.000000
# 4 0.000000 0.000000 0.000000 -0.094659 0.000000 -0.007489
# 5 0.000854 -0.003832 0.002234 0.000000 0.062572 0.000000
# 6 0.000000 0.000000 0.000000 -0.007489 0.000000 0.034922
#
#
# Mechanical properties :
#
#
# Convention : Reuss Voigt Hill
#
# Bulk Modulus (GPa) = 31.94138 37.89617 34.91878
# Shear Modulus (GPa) = 81.21529 22.13825 51.67677
#
# Velocity S-wave (km/s) = 6.37889 3.33041 5.08832
# Velocity P-wave (km/s) = 8.38194 5.81167 7.21222
#
# Compressibility (1/GPa) = 0.03130735
#
# Stress axis : x y z
#
# Youngs Moduli (GPa) = 99.14813 84.64332 55.86542
#
# Poissons Ratio (x) = 0.30993 -0.06138
# Poissons Ratio (y) = 0.36304 0.09406
# Poissons Ratio (z) = -0.10894 0.14252
#
# Static dielectric constant tensor:
#      x y z
#    x 1.750020 0.000000 -0.041160 
#    y 0.000000 1.773410 0.000000 
#    z -0.041160 0.000000 1.696130 
# 
# From -- ./inp_files/39902.got.cif
#   From: 2010.05.17/outbox.cif.g08.bks.cpg/sg10_20_cif.got.tgz:39902.got - 2010.06.03 11:33:40.
