data_PCOD9141798
_publ_section_title
;
Structure prediction by ZEFSAII (Michael W. Deem and Ramdas Pophale) SiO2 
 PCOD9141798
Probable space group: P 2/M
;
_chemical_formula_sum "Si O2"
_cell_formula_units_Z 30
_cell_length_a 12.446289
_cell_length_b 7.679570
_cell_length_c 14.802738
_cell_angle_alpha 90.000000
_cell_angle_beta 88.631281
_cell_angle_gamma 90.000000
_cell_volume 1414.473795
_symmetry_space_group_name_H-M "P 2/M"
_symmetry_group_IT_number 10
_symmetry_cell_setting 'monoclinic'
loop_
_space_group_symop_operation_xyz
x,y,z
-x,y,-z
-x,-y,-z
x,-y,z
loop_
_atom_site_type_symbol
_atom_site_label
_atom_site_fract_x
_atom_site_fract_y
_atom_site_fract_z
Si Si1 0.621503 0.792499 0.985247
Si Si2 0.128013 0.289717 0.686141
Si Si3 0.261935 0.713097 0.501661
Si Si4 0.500000 0.754292 0.500000
Si Si5 0.490584 0.302926 0.289557
Si Si6 0.108592 0.700610 0.344511
Si Si7 0.721709 0.799912 0.798861
Si Si8 0.700473 0.289271 0.179086
O O1 0.682222 0.724845 0.895414
O O2 0.610504 0.000000 0.970179
O O3 0.500000 0.722322 0.000000
O O4 0.685436 0.762607 0.076105
O O5 0.118127 0.500000 0.696546
O O6 0.202815 0.261080 0.597642
O O7 0.192760 0.225717 0.772346
O O8 0.008438 0.220549 0.670718
O O9 0.284449 0.500000 0.491323
O O10 0.375259 0.810956 0.495505
O O11 0.181818 0.771922 0.424041
O O12 0.491957 0.685837 0.603665
O O13 0.474450 0.500000 0.256702
O O14 0.382888 0.205546 0.263579
O O15 0.595350 0.229393 0.237420
O O16 0.090111 0.500000 0.372491
O O17 0.181376 0.706726 0.253853
O O18 0.755082 0.000000 0.810735
O O19 0.700346 0.500000 0.184198
#
# Coordination Sequence:
#
# PCOD9141798 Si02
#       8
#     4   4   4   2   4   4   4   4
#     4  10  21  38  57  78 107 143 180 220 275 340
#     4   9  18  33  52  81 115 145 182 226 266 313
#     4  10  17  27  50  83 115 146 178 216 262 317
#     4  12  19  28  51  88 125 146 173 216 265 324
#     4  11  20  32  54  84 116 147 177 216 266 322
#     4  10  20  35  57  80 107 147 191 226 262 313
#     4  11  23  38  56  78 108 143 181 228 275 325
#     4  10  20  33  55  85 113 139 176 228 275 317
#
# _framework density 21.209299999999999
#
# number of rings (size 3 to 8) (size 9 to 14) (size 15 to 20)
#    0.000    1.733    4.000    2.000    0.000    2.933 
#    0.000    1.667    0.000    6.400    0.000    0.000 
#    0.000    0.000    0.000    0.000    0.000    0.000 
#
# Total GULP energy -167282.715323 kJ/mol
# GULP energy per Si atom -5576.090511 kJ/mol
# Density = 2.116103 g / cm^3
# Si number density = 21.209300 Si / 1000 Ang^3
#
#
#
# Elastic Constant Matrix: (Units=GPa)
#
#
# Indices 1 2 3 4 5 6 
#
# 1 154.3160 3.5392 49.3567 0.0000 25.5006 0.0000
# 2 3.5392 38.6279 -4.8607 0.0000 1.1299 0.0000
# 3 49.3567 -4.8607 138.3260 0.0000 19.3112 0.0000
# 4 0.0000 0.0000 0.0000 84.8447 0.0000 10.3720
# 5 25.5006 1.1299 19.3112 0.0000 20.4966 0.0000
# 6 0.0000 0.0000 0.0000 10.3720 0.0000 14.1271
#
#
#
# Elastic Compliance Matrix: (Units=1/GPa)
#
#
# Indices 1 2 3 4 5 6 
#
# 1 0.008551 -0.000756 -0.001840 0.000000 -0.008863 0.000000
# 2 -0.000756 0.026195 0.001451 0.000000 -0.001871 0.000000
# 3 -0.001840 0.001451 0.008784 0.000000 -0.006066 0.000000
# 4 0.000000 0.000000 0.000000 0.012948 0.000000 -0.009507
# 5 -0.008863 -0.001871 -0.006066 0.000000 0.065633 0.000000
# 6 0.000000 0.000000 0.000000 -0.009507 0.000000 0.077766
#
#
# Mechanical properties :
#
#
# Convention : Reuss Voigt Hill
#
# Bulk Modulus (GPa) = 24.24845 47.48225 35.86535
# Shear Modulus (GPa) = 23.15751 42.77600 32.96676
#
# Velocity S-wave (km/s) = 3.30791 4.49581 3.94681
# Velocity P-wave (km/s) = 5.10367 7.02750 6.14139
#
# Compressibility (1/GPa) = 0.04123975
#
# Stress axis : x y z
#
# Youngs Moduli (GPa) = 116.94958 38.17579 113.84557
#
# Poissons Ratio (x) = 0.02885 0.20951
# Poissons Ratio (y) = 0.08839 -0.16523
# Poissons Ratio (z) = 0.21522 -0.05541
#
# Static dielectric constant tensor:
#      x y z
#    x 1.751430 0.000000 0.006010 
#    y 0.000000 1.800420 0.000000 
#    z 0.006010 0.000000 1.734510 
# 
# From -- ./inp_files/63449.got.cif
#   From: 2010.05.17/outbox.cif.g08.bks.cpg/sg10_32_cif.got.tgz:63449.got - 2010.06.03 11:33:40.
