data_PCOD9141950
_publ_section_title
;
Structure prediction by ZEFSAII (Michael W. Deem and Ramdas Pophale) SiO2 
 PCOD9141950
Probable space group: P 2/M
;
_chemical_formula_sum "Si O2"
_cell_formula_units_Z 32
_cell_length_a 24.419141
_cell_length_b 13.436734
_cell_length_c 9.178702
_cell_angle_alpha 90.000000
_cell_angle_beta 28.332058
_cell_angle_gamma 90.000000
_cell_volume 1429.274073
_symmetry_space_group_name_H-M "P 2/M"
_symmetry_group_IT_number 10
_symmetry_cell_setting 'monoclinic'
loop_
_space_group_symop_operation_xyz
x,y,z
-x,y,-z
-x,-y,-z
x,-y,z
loop_
_atom_site_type_symbol
_atom_site_label
_atom_site_fract_x
_atom_site_fract_y
_atom_site_fract_z
Si Si1 0.270370 0.678391 0.161922
Si Si2 0.672819 0.612617 0.269767
Si Si3 0.990155 0.888401 0.856425
Si Si4 0.815692 0.250824 0.134559
Si Si5 0.746927 0.105046 0.798940
Si Si6 0.649448 0.115332 0.713768
Si Si7 0.460148 0.698102 0.935732
Si Si8 0.009934 0.389783 0.805003
O O1 0.311014 0.500000 0.710316
O O2 0.132131 0.665496 0.491521
O O3 0.318599 0.609448 0.923532
O O4 0.335254 0.665379 0.164575
O O5 0.767275 0.691548 0.108646
O O6 0.552415 0.657646 0.606074
O O7 0.697035 0.790625 0.964864
O O8 0.117345 0.892836 0.493244
O O9 0.945405 0.000000 0.983851
O O10 0.909939 0.836269 0.925502
O O11 0.000000 0.843893 0.000000
O O12 0.708852 0.194160 0.464385
O O13 0.893034 0.335233 0.031599
O O14 0.734783 0.106273 0.651915
O O15 0.697011 0.000000 0.969203
O O16 0.628085 0.000000 0.716112
O O17 0.546462 0.180951 0.028391
O O18 0.500000 0.658154 0.000000
O O19 0.017987 0.500000 0.718692
O O20 0.000000 0.399077 0.000000
#
# Coordination Sequence:
#
# PCOD9141950 Si02
#       8
#     4   4   4   4   4   4   4   4
#     4  11  24  46  71  96 139 184 228 281 349 424
#     4  12  29  49  68  93 132 187 239 288 353 413
#     4  10  17  29  59  99 138 177 215 262 327 401
#     4  12  21  39  61  99 139 177 223 276 322 408
#     4   9  17  33  61  97 134 173 216 265 327 407
#     4  10  20  38  68 106 141 174 217 274 347 413
#     4  11  24  47  74 105 129 167 229 301 346 404
#     4  11  23  38  64 100 134 176 228 289 342 391
#
# _framework density 22.38899
#
# number of rings (size 3 to 8) (size 9 to 14) (size 15 to 20)
#    0.000    1.250    3.750    3.375    0.000    2.500 
#    0.000    3.125    0.000    4.500    0.000    0.000 
#    0.000    0.000    0.000    0.000    0.000    0.000 
#
# Total GULP energy -178227.992806 kJ/mol
# GULP energy per Si atom -5569.624775 kJ/mol
# Density = 2.233803 g / cm^3
# Si number density = 22.388990 Si / 1000 Ang^3
#
#
#
# Elastic Constant Matrix: (Units=GPa)
#
#
# Indices 1 2 3 4 5 6 
#
# 1 86.3435 45.1362 29.8099 0.0000 -19.8968 0.0000
# 2 45.1362 149.7464 20.3425 0.0000 2.4939 0.0000
# 3 29.8099 20.3425 55.7778 0.0000 -6.4087 0.0000
# 4 0.0000 0.0000 0.0000 -270.9622 0.0000 183.4764
# 5 -19.8968 2.4939 -6.4087 0.0000 28.6285 0.0000
# 6 0.0000 0.0000 0.0000 183.4764 0.0000 -89.5129
#
#
#
# Elastic Compliance Matrix: (Units=1/GPa)
#
#
# Indices 1 2 3 4 5 6 
#
# 1 0.019628 -0.005149 -0.007178 0.000000 0.012483 0.000000
# 2 -0.005149 0.008418 -0.000835 0.000000 -0.004499 0.000000
# 3 -0.007178 -0.000835 0.022072 0.000000 0.000025 0.000000
# 4 0.000000 0.000000 0.000000 0.009514 0.000000 0.019500
# 5 0.012483 -0.004499 0.000025 0.000000 0.044003 0.000000
# 6 0.000000 0.000000 0.000000 0.019500 0.000000 0.028798
#
#
# Mechanical properties :
#
#
# Convention : Reuss Voigt Hill
#
# Bulk Modulus (GPa) = 42.02744 53.60498 47.81621
# Shear Modulus (GPa) = 29.99591 -53.26404 -11.63407
#
# Velocity S-wave (km/s) = 3.66425 -4.88282 -2.28202
# Velocity P-wave (km/s) = 6.05925 2.79190 3.80262
#
# Compressibility (1/GPa) = 0.02379398
#
# Stress axis : x y z
#
# Youngs Moduli (GPa) = 50.94752 118.78795 45.30643
#
# Poissons Ratio (x) = 0.61164 0.32520
# Poissons Ratio (y) = 0.26233 0.03784
# Poissons Ratio (z) = 0.36569 0.09922
#
# Static dielectric constant tensor:
#      x y z
#    x 1.848580 0.000000 -0.044450 
#    y 0.000000 1.893200 0.000000 
#    z -0.044450 0.000000 1.870320 
# 
# From -- ./inp_files/36368.got.cif
#   From: 2010.05.17/outbox.cif.g08.bks.cpg/sg10_19_cif.got.tgz:36368.got - 2010.06.03 11:33:40.
