data_PCOD9141080
_publ_section_title
;
Structure prediction by ZEFSAII (Michael W. Deem and Ramdas Pophale) SiO2 
 PCOD9141080
Probable space group: C C
;
_chemical_formula_sum "Si O2"
_cell_formula_units_Z 24
_cell_length_a 14.185591
_cell_length_b 10.272219
_cell_length_c 7.861681
_cell_angle_alpha 90.000000
_cell_angle_beta 126.781358
_cell_angle_gamma 90.000000
_cell_volume 917.528659
_symmetry_space_group_name_H-M "C C"
_symmetry_group_IT_number 9
_symmetry_cell_setting 'monoclinic'
loop_
_space_group_symop_operation_xyz
x,y,z
x,-y,1/2+z
1/2+x,1/2+y,z
1/2+x,1/2-y,1/2+z
loop_
_atom_site_type_symbol
_atom_site_label
_atom_site_fract_x
_atom_site_fract_y
_atom_site_fract_z
Si Si1 0.156490 0.512289 0.664930
Si Si2 0.528611 0.625786 0.737247
Si Si3 0.998868 0.389912 0.739251
Si Si4 0.256931 0.059131 0.780726
Si Si5 0.892810 0.894658 0.756080
Si Si6 0.750562 0.713878 0.411860
O O1 0.119718 0.402711 0.760222
O O2 0.036060 0.512012 0.425830
O O3 0.271468 0.464967 0.686214
O O4 0.178353 0.656110 0.772073
O O5 0.502626 0.748273 0.825516
O O6 0.655904 0.605709 0.799214
O O7 0.480034 0.499224 0.773356
O O8 0.449047 0.658692 0.487063
O O9 0.879985 0.417941 0.511902
O O10 0.234339 0.137595 0.578622
O O11 0.246545 0.900457 0.768201
O O12 0.872048 0.786051 0.591341
#
# Coordination Sequence:
#
# PCOD9141080 Si02
#       6
#     4   4   4   4   4   4
#     4  12  27  50  82 116 159 217 268 335 411 492
#     4  12  28  48  80 115 162 208 271 337 409 483
#     4  12  28  48  79 117 160 210 268 336 413 488
#     4  12  29  50  76 119 163 217 267 347 397 481
#     4  12  25  52  78 115 157 216 268 334 404 492
#     4  12  27  52  79 116 167 204 284 323 418 476
#
# _framework density 26.157221
#
# number of rings (size 3 to 8) (size 9 to 14) (size 15 to 20)
#    0.000    0.000    5.000    3.000    7.000    2.667 
#    0.000    0.000    0.000    0.000    0.000    0.000 
#    0.000    0.000    0.000    0.000    0.000    0.000 
#
# Total GULP energy -67021.208862 kJ/mol
# GULP energy per Si atom -5585.100739 kJ/mol
# Density = 2.609769 g / cm^3
# Si number density = 26.157221 Si / 1000 Ang^3
#
#
#
# Elastic Constant Matrix: (Units=GPa)
#
#
# Indices 1 2 3 4 5 6 
#
# 1 126.7886 42.0363 27.1466 0.0000 16.6132 0.0000
# 2 42.0363 131.6133 1.1597 0.0000 7.9754 0.0000
# 3 27.1466 1.1597 123.1994 0.0000 17.2123 0.0000
# 4 0.0000 0.0000 0.0000 49.7373 0.0000 -5.6891
# 5 16.6132 7.9754 17.2123 0.0000 37.1799 0.0000
# 6 0.0000 0.0000 0.0000 -5.6891 0.0000 26.9118
#
#
#
# Elastic Compliance Matrix: (Units=1/GPa)
#
#
# Indices 1 2 3 4 5 6 
#
# 1 0.009576 -0.002869 -0.001680 0.000000 -0.002886 0.000000
# 2 -0.002869 0.008561 0.000673 0.000000 -0.000866 0.000000
# 3 -0.001680 0.000673 0.008977 0.000000 -0.003549 0.000000
# 4 0.000000 0.000000 0.000000 0.020604 0.000000 0.004356
# 5 -0.002886 -0.000866 -0.003549 0.000000 0.030015 0.000000
# 6 0.000000 0.000000 0.000000 0.004356 0.000000 0.038079
#
#
# Mechanical properties :
#
#
# Convention : Reuss Voigt Hill
#
# Bulk Modulus (GPa) = 51.64981 58.03184 54.84082
# Shear Modulus (GPa) = 38.45638 43.51637 40.98638
#
# Velocity S-wave (km/s) = 3.83848 4.08321 3.96273
# Velocity P-wave (km/s) = 6.27965 6.66814 6.47681
#
# Compressibility (1/GPa) = 0.01936115
#
# Stress axis : x y z
#
# Youngs Moduli (GPa) = 104.42650 116.81085 111.40037
#
# Poissons Ratio (x) = 0.33511 0.18714
# Poissons Ratio (y) = 0.29959 -0.07492
# Poissons Ratio (z) = 0.17542 -0.07856
#
# Static dielectric constant tensor:
#      x y z
#    x 2.032220 0.000000 -0.032530 
#    y 0.000000 2.102350 0.000000 
#    z -0.032530 0.000000 2.116890 
# 
# From -- ./inp_files/9015.got.cif
#   From: 2010.05.17/outbox.cif.g08.bks.cpg/sg9_5_cif.got.tgz:9015.got - 2010.06.03 20:04:27.
