data_PCOD9141971
_publ_section_title
;
Structure prediction by ZEFSAII (Michael W. Deem and Ramdas Pophale) SiO2 
 PCOD9141971
Probable space group: P 2/M
;
_chemical_formula_sum "Si O2"
_cell_formula_units_Z 24
_cell_length_a 6.717141
_cell_length_b 14.868859
_cell_length_c 13.755482
_cell_angle_alpha 90.000000
_cell_angle_beta 102.838182
_cell_angle_gamma 90.000000
_cell_volume 1339.501497
_symmetry_space_group_name_H-M "P 2/M"
_symmetry_group_IT_number 10
_symmetry_cell_setting 'monoclinic'
loop_
_space_group_symop_operation_xyz
x,y,z
-x,y,-z
-x,-y,-z
x,-y,z
loop_
_atom_site_type_symbol
_atom_site_label
_atom_site_fract_x
_atom_site_fract_y
_atom_site_fract_z
Si Si1 0.895067 0.399817 0.825369
Si Si2 0.736892 0.347239 0.018722
Si Si3 0.386342 0.100593 0.778462
Si Si4 0.122934 0.851073 0.926544
Si Si5 0.761347 0.212677 0.745437
Si Si6 0.969745 0.895378 0.609883
O O1 0.863408 0.500000 0.784304
O O2 0.792021 0.319967 0.753265
O O3 0.134773 0.381907 0.874582
O O4 0.808212 0.390552 0.925578
O O5 0.785031 0.240846 0.019256
O O6 0.500000 0.363267 0.000000
O O7 0.299157 0.106569 0.879116
O O8 0.552383 0.175430 0.768931
O O9 0.188766 0.111621 0.687705
O O10 0.472712 0.000000 0.772841
O O11 0.944698 0.824413 0.832437
O O12 0.000000 0.899250 0.000000
O O13 0.808421 0.168725 0.646202
O O14 0.000000 0.875001 0.500000
O O15 0.904486 0.000000 0.612425
#
# Coordination Sequence:
#
# PCOD9141971 Si02
#       6
#     4   4   4   4   4   4
#     4  10  20  32  47  73 102 135 177 218 256 298
#     4  10  17  30  50  70  98 136 178 219 261 296
#     4  10  21  34  53  78 103 137 176 211 255 312
#     4  10  19  32  49  70 105 147 177 211 252 294
#     4  10  19  35  52  74 107 138 169 217 259 306
#     4   9  19  36  58  83 105 125 159 212 270 322
#
# _framework density 17.917111999999999
#
# number of rings (size 3 to 8) (size 9 to 14) (size 15 to 20)
#    0.000    2.167    3.333    2.500    0.000    3.000 
#    0.000    3.333    0.000    0.500    0.000    1.167 
#    0.000    0.000    0.000    0.000    0.000    0.000 
#
# Total GULP energy -133791.158433 kJ/mol
# GULP energy per Si atom -5574.631601 kJ/mol
# Density = 1.787633 g / cm^3
# Si number density = 17.917112 Si / 1000 Ang^3
#
#
#
# Elastic Constant Matrix: (Units=GPa)
#
#
# Indices 1 2 3 4 5 6 
#
# 1 97.4743 43.8483 26.3356 0.0000 -14.3268 0.0000
# 2 43.8483 129.6507 41.5059 0.0000 -15.3702 0.0000
# 3 26.3356 41.5059 68.6938 0.0000 -22.7269 0.0000
# 4 0.0000 0.0000 0.0000 32.7003 0.0000 -14.0039
# 5 -14.3268 -15.3702 -22.7269 0.0000 18.1936 0.0000
# 6 0.0000 0.0000 0.0000 -14.0039 0.0000 22.9328
#
#
#
# Elastic Compliance Matrix: (Units=1/GPa)
#
#
# Indices 1 2 3 4 5 6 
#
# 1 0.012920 -0.003353 -0.000849 0.000000 0.006280 0.000000
# 2 -0.003353 0.010456 -0.005085 0.000000 -0.000159 0.000000
# 3 -0.000849 -0.005085 0.027803 0.000000 0.029767 0.000000
# 4 0.000000 0.000000 0.000000 0.041410 0.000000 0.025287
# 5 0.006280 -0.000159 0.029767 0.000000 0.096960 0.000000
# 6 0.000000 0.000000 0.000000 0.025287 0.000000 0.059047
#
#
# Mechanical properties :
#
#
# Convention : Reuss Voigt Hill
#
# Bulk Modulus (GPa) = 30.67020 57.68870 44.17945
# Shear Modulus (GPa) = 17.98307 27.04061 22.51184
#
# Velocity S-wave (km/s) = 3.17153 3.88906 3.54848
# Velocity P-wave (km/s) = 5.52869 7.24112 6.44206
#
# Compressibility (1/GPa) = 0.03260494
#
# Stress axis : x y z
#
# Youngs Moduli (GPa) = 77.39893 95.63835 35.96670
#
# Poissons Ratio (x) = 0.32069 0.03055
# Poissons Ratio (y) = 0.25953 0.18288
# Poissons Ratio (z) = 0.06575 0.48630
#
# Static dielectric constant tensor:
#      x y z
#    x 1.645590 0.000000 -0.010560 
#    y 0.000000 1.655350 0.000000 
#    z -0.010560 0.000000 1.612860 
# 
# From -- ./inp_files/59091.got.cif
#   From: 2010.05.17/outbox.cif.g08.bks.cpg/sg10_30_cif.got.tgz:59091.got - 2010.06.03 11:33:40.
