data_PCOD9141290
_publ_section_title
;
Structure prediction by ZEFSAII (Michael W. Deem and Ramdas Pophale) SiO2 
 PCOD9141290
Probable space group: C C
;
_chemical_formula_sum "Si O2"
_cell_formula_units_Z 16
_cell_length_a 18.000000
_cell_length_b 15.000000
_cell_length_c 12.000000
_cell_angle_alpha 90.000000
_cell_angle_beta 150.000000
_cell_angle_gamma 90.000000
_cell_volume 1620.000000
_symmetry_space_group_name_H-M "C C"
_symmetry_group_IT_number 9
_symmetry_cell_setting 'monoclinic'
loop_
_space_group_symop_operation_xyz
x,y,z
x,-y,1/2+z
1/2+x,1/2+y,z
1/2+x,1/2-y,1/2+z
loop_
_atom_site_type_symbol
_atom_site_label
_atom_site_fract_x
_atom_site_fract_y
_atom_site_fract_z
Si Si1 0.634560 0.980884 0.303190
Si Si2 0.632072 0.650606 0.267757
Si Si3 0.721038 0.134485 0.112940
Si Si4 0.961118 0.667546 0.107410
Si Si5 0.198362 0.172087 0.952232
Si Si6 0.904326 0.677229 0.441565
Si Si7 0.887767 0.701630 0.759148
Si Si8 0.939066 0.972156 0.065310
O O1 0.664003 0.947134 0.465797
O O2 0.522149 0.906202 0.102865
O O3 0.545886 0.073664 0.199108
O O4 0.799189 0.992929 0.460599
O O5 0.763975 0.665096 0.345621
O O6 0.511445 0.734389 0.103929
O O7 0.748285 0.647077 0.524294
O O8 0.529382 0.559804 0.133803
O O9 0.820490 0.198293 0.161909
O O10 0.839768 0.093577 0.355682
O O11 0.560222 0.180932 0.942452
O O12 0.089077 0.740879 0.304144
O O13 0.818951 0.665872 0.006861
O O14 0.894724 0.689971 0.900456
O O15 0.075487 0.090384 0.791006
O O16 0.311840 0.178404 0.205168
#
# Coordination Sequence:
#
# PCOD9141290 Si02
#       8
#     4   4   4   4   4   4   4   4
#     4  12  27  46  71 105 146 190 240 298 358 429
#     4  12  26  48  73 106 142 190 239 298 361 431
#     4  12  27  48  75 106 146 190 247 302 360 426
#     4  12  26  46  74 101 147 188 242 299 359 433
#     4  12  28  47  70 107 143 195 233 296 368 431
#     4  12  27  48  71 104 147 190 235 294 365 434
#     4  12  24  50  75 104 142 188 247 300 355 424
#     4  12  29  45  71 109 143 191 243 293 364 430
#
# _framework density 9.8765429999999999
#
# number of rings (size 3 to 8) (size 9 to 14) (size 15 to 20)
#    0.000    0.000    5.000    3.750    8.750    0.000 
#    0.000    0.000    0.000    0.000    0.000    0.000 
#    0.000    0.000    0.000    0.000    0.000    0.000 
#
# Total GULP energy -89124.840058 kJ/mol
# GULP energy per Si atom -5570.302504 kJ/mol
# Density = 0.985406 g / cm^3
# Si number density = 9.876543 Si / 1000 Ang^3
#
#
#
# Elastic Constant Matrix: (Units=GPa)
#
#
# Indices 1 2 3 4 5 6 
#
# 1 116.7497 23.2194 46.0735 0.0000 37.4615 0.0000
# 2 23.2194 146.8523 51.2548 0.0000 24.6254 0.0000
# 3 46.0735 51.2548 192.1845 0.0000 16.8350 0.0000
# 4 0.0000 0.0000 0.0000 54.1864 0.0000 11.6389
# 5 37.4615 24.6254 16.8350 0.0000 58.9776 0.0000
# 6 0.0000 0.0000 0.0000 11.6389 0.0000 33.8975
#
#
#
# Elastic Compliance Matrix: (Units=1/GPa)
#
#
# Indices 1 2 3 4 5 6 
#
# 1 0.011592 0.000071 -0.002205 0.000000 -0.006763 0.000000
# 2 0.000071 0.007929 -0.001885 0.000000 -0.002818 0.000000
# 3 -0.002205 -0.001885 0.006198 0.000000 0.000419 0.000000
# 4 0.000000 0.000000 0.000000 0.019924 0.000000 -0.006841
# 5 -0.006763 -0.002818 0.000419 0.000000 0.022308 0.000000
# 6 0.000000 0.000000 0.000000 -0.006841 0.000000 0.031850
#
#
# Mechanical properties :
#
#
# Convention : Reuss Voigt Hill
#
# Bulk Modulus (GPa) = 56.56142 77.43133 66.99638
# Shear Modulus (GPa) = 43.96301 51.76154 47.86228
#
# Velocity S-wave (km/s) = 4.72277 5.12457 4.92777
# Velocity P-wave (km/s) = 7.64433 8.61972 8.14664
#
# Compressibility (1/GPa) = 0.01767990
#
# Stress axis : x y z
#
# Youngs Moduli (GPa) = 86.26969 126.12511 161.34126
#
# Poissons Ratio (x) = -0.00896 0.35583
# Poissons Ratio (y) = -0.00613 0.30409
# Poissons Ratio (z) = 0.19026 0.23771
#
# Static dielectric constant tensor:
#      x y z
#    x 1.753170 0.000000 -0.047660 
#    y 0.000000 1.749610 0.000000 
#    z -0.047660 0.000000 1.686820 
# 
# From -- ./inp_files/7384.got.cif
#   From: 2010.05.17/outbox.ucp.g08.bks.cvg/sg9_4_cif.got.tgz:7384.got - 2010.06.11 13:03:20.
