data_PCOD9141048
_publ_section_title
;
Structure prediction by ZEFSAII (Michael W. Deem and Ramdas Pophale) SiO2 
 PCOD9141048
Probable space group: C C
;
_chemical_formula_sum "Si O2"
_cell_formula_units_Z 32
_cell_length_a 8.535261
_cell_length_b 16.785689
_cell_length_c 14.416854
_cell_angle_alpha 90.000000
_cell_angle_beta 41.632847
_cell_angle_gamma 90.000000
_cell_volume 1372.228897
_symmetry_space_group_name_H-M "C C"
_symmetry_group_IT_number 9
_symmetry_cell_setting 'monoclinic'
loop_
_space_group_symop_operation_xyz
x,y,z
x,-y,1/2+z
1/2+x,1/2+y,z
1/2+x,1/2-y,1/2+z
loop_
_atom_site_type_symbol
_atom_site_label
_atom_site_fract_x
_atom_site_fract_y
_atom_site_fract_z
Si Si1 0.375000 0.072357 0.201080
Si Si2 0.561250 0.907569 0.142392
Si Si3 0.573907 0.572718 0.143805
Si Si4 0.098524 0.889108 0.127296
Si Si5 0.299900 0.665359 0.929644
Si Si6 0.546046 0.323735 0.973443
Si Si7 0.105163 0.636864 0.428282
Si Si8 0.177790 0.185551 0.923846
O O1 0.193881 0.070816 0.193077
O O2 0.261124 0.131702 0.326330
O O3 0.460136 0.993086 0.218695
O O4 0.609313 0.102861 0.047797
O O5 0.396118 0.844192 0.266166
O O6 0.518851 0.916846 0.051318
O O7 0.824939 0.872674 0.025647
O O8 0.591578 0.481546 0.103665
O O9 0.303364 0.597024 0.279707
O O10 0.664959 0.634602 0.024687
O O11 0.992782 0.871135 0.273975
O O12 0.949160 0.839837 0.120460
O O13 0.355582 0.853689 0.989453
O O14 0.149559 0.733849 0.941573
O O15 0.447805 0.681076 0.958963
O O16 0.198322 0.720029 0.427972
#
# Coordination Sequence:
#
# PCOD9141048 Si02
#       8
#     4   4   4   4   4   4   4   4
#     4  12  28  48  75 111 156 199 254 321 382 455
#     4  12  27  50  76 108 158 202 257 317 382 455
#     4  12  28  46  77 114 151 200 256 317 388 456
#     4  12  27  48  76 109 153 206 255 315 384 456
#     4  12  28  50  75 108 156 201 256 320 382 453
#     4  12  29  48  77 113 152 205 259 314 384 462
#     4  12  25  48  76 104 156 203 254 314 383 450
#     4  12  28  48  78 111 150 204 257 316 387 455
#
# _framework density 23.319724000000001
#
# number of rings (size 3 to 8) (size 9 to 14) (size 15 to 20)
#    0.000    0.000    5.000    3.000   10.500    0.000 
#    0.000    0.000    0.000    0.000    0.000    0.000 
#    0.000    0.000    0.000    0.000    0.000    0.000 
#
# Total GULP energy -89107.871742 kJ/mol
# GULP energy per Si atom -5569.241984 kJ/mol
# Density = 2.326665 g / cm^3
# Si number density = 23.319724 Si / 1000 Ang^3
#
#
#
# Elastic Constant Matrix: (Units=GPa)
#
#
# Indices 1 2 3 4 5 6 
#
# 1 54.9651 3.0935 13.7431 -0.0001 -0.5124 0.0004
# 2 3.0935 122.4824 25.8915 -0.0004 -7.7823 0.0009
# 3 13.7431 25.8915 103.5515 -0.0009 -2.8420 0.0001
# 4 -0.0001 -0.0004 -0.0009 64.2070 0.0001 -56.2478
# 5 -0.5124 -7.7823 -2.8420 0.0001 34.8616 0.0003
# 6 0.0004 0.0009 0.0001 -56.2478 0.0003 193.8057
#
#
#
# Elastic Compliance Matrix: (Units=1/GPa)
#
#
# Indices 1 2 3 4 5 6 
#
# 1 0.018818 0.000061 -0.002510 0.000000 0.000085 0.000000
# 2 0.000061 0.008728 -0.002142 0.000000 0.001775 0.000000
# 3 -0.002510 -0.002142 0.010535 0.000000 0.000344 0.000000
# 4 0.000000 0.000000 0.000000 0.020885 0.000000 0.006061
# 5 0.000085 0.001775 0.000344 0.000000 0.029110 0.000000
# 6 0.000000 0.000000 0.000000 0.006061 0.000000 0.006919
#
#
# Mechanical properties :
#
#
# Convention : Reuss Voigt Hill
#
# Bulk Modulus (GPa) = 34.60293 40.71726 37.66010
# Shear Modulus (GPa) = 43.93222 74.45958 59.19590
#
# Velocity S-wave (km/s) = 4.34511 5.65678 5.04377
# Velocity P-wave (km/s) = 6.32803 7.75654 7.07842
#
# Compressibility (1/GPa) = 0.02889928
#
# Stress axis : x y z
#
# Youngs Moduli (GPa) = 53.13939 114.56827 94.92025
#
# Poissons Ratio (x) = -0.00697 0.23829
# Poissons Ratio (y) = -0.00323 0.20330
# Poissons Ratio (z) = 0.13340 0.24538
#
# Static dielectric constant tensor:
#      x y z
#    x 2.137420 0.000000 -0.033240 
#    y 0.000000 1.865820 0.000000 
#    z -0.033240 0.000000 1.757720 
# 
# From -- ./inp_files/23480.got.cif
#   From: 2010.05.17/outbox.cif.g08.bks.cpg/sg9_12_cif.got.tgz:23480.got - 2010.06.03 20:04:27.
