data_PCOD9141285
_publ_section_title
;
Structure prediction by ZEFSAII (Michael W. Deem and Ramdas Pophale) SiO2 
 PCOD9141285
Probable space group: C C
;
_chemical_formula_sum "Si O2"
_cell_formula_units_Z 16
_cell_length_a 6.000000
_cell_length_b 18.000000
_cell_length_c 15.000000
_cell_angle_alpha 90.000000
_cell_angle_beta 60.000000
_cell_angle_gamma 90.000000
_cell_volume 1402.961154
_symmetry_space_group_name_H-M "C C"
_symmetry_group_IT_number 9
_symmetry_cell_setting 'monoclinic'
loop_
_space_group_symop_operation_xyz
x,y,z
x,-y,1/2+z
1/2+x,1/2+y,z
1/2+x,1/2-y,1/2+z
loop_
_atom_site_type_symbol
_atom_site_label
_atom_site_fract_x
_atom_site_fract_y
_atom_site_fract_z
Si Si1 0.680780 0.083526 0.674980
Si Si2 0.157290 0.182180 0.784688
Si Si3 0.176006 0.195197 0.585613
Si Si4 0.264130 0.073999 0.026665
Si Si5 0.732191 0.817145 0.898931
Si Si6 0.331162 0.489177 0.472909
Si Si7 0.573564 0.214606 0.938730
Si Si8 0.895236 0.038691 0.265261
O O1 0.395667 0.121891 0.740767
O O2 0.930653 0.138829 0.633737
O O3 0.725977 0.048741 0.567220
O O4 0.721315 0.020432 0.743930
O O5 0.202052 0.220441 0.681033
O O6 0.202412 0.241427 0.851282
O O7 0.839917 0.174571 0.852103
O O8 0.458756 0.165228 0.501008
O O9 0.120596 0.262204 0.530799
O O10 0.554817 0.042140 0.989332
O O11 0.060446 0.048387 0.988794
O O12 0.117795 0.058044 0.149346
O O13 0.335944 0.158174 0.987271
O O14 0.773145 0.883441 0.820892
O O15 0.978094 0.792549 0.911278
O O16 0.466709 0.508370 0.350428
#
# Coordination Sequence:
#
# PCOD9141285 Si02
#       8
#     4   4   4   4   4   4   4   4
#     4  11  27  51  78 118 159 218 272 338 426 506
#     4  11  26  46  82 111 155 215 270 336 420 496
#     4  11  25  47  76 111 156 207 268 332 417 495
#     4  11  30  49  78 121 162 215 273 348 407 504
#     4  11  27  49  76 116 153 210 271 343 412 492
#     4  11  28  52  77 116 165 211 277 335 418 499
#     4  11  27  48  75 119 159 207 276 346 411 494
#     4  11  28  50  80 114 163 215 275 340 421 502
#
# _framework density 11.404450000000001
#
# number of rings (size 3 to 8) (size 9 to 14) (size 15 to 20)
#    0.000    1.000    0.000    3.000   19.250    3.000 
#    4.500    0.000    0.000    0.000    0.000    0.000 
#    0.000    0.000    0.000    0.000    0.000    0.000 
#
# Total GULP energy -89178.694822 kJ/mol
# GULP energy per Si atom -5573.668426 kJ/mol
# Density = 1.137849 g / cm^3
# Si number density = 11.404450 Si / 1000 Ang^3
#
#
#
# Elastic Constant Matrix: (Units=GPa)
#
#
# Indices 1 2 3 4 5 6 
#
# 1 147.1749 55.4931 73.3737 0.0000 -7.6769 0.0000
# 2 55.4931 95.0138 57.4322 0.0000 -4.6927 0.0000
# 3 73.3737 57.4322 189.2655 0.0000 6.3697 0.0000
# 4 0.0000 0.0000 0.0000 46.6635 0.0000 5.6815
# 5 -7.6769 -4.6927 6.3697 0.0000 58.7986 0.0000
# 6 0.0000 0.0000 0.0000 5.6815 0.0000 41.7175
#
#
#
# Elastic Compliance Matrix: (Units=1/GPa)
#
#
# Indices 1 2 3 4 5 6 
#
# 1 0.009655 -0.004031 -0.002561 0.000000 0.001216 0.000000
# 2 -0.004031 0.014698 -0.002930 0.000000 0.000964 0.000000
# 3 -0.002561 -0.002930 0.007211 0.000000 -0.001349 0.000000
# 4 0.000000 0.000000 0.000000 0.021791 0.000000 -0.002968
# 5 0.001216 0.000964 -0.001349 0.000000 0.017389 0.000000
# 6 0.000000 0.000000 0.000000 -0.002968 0.000000 0.024375
#
#
# Mechanical properties :
#
#
# Convention : Reuss Voigt Hill
#
# Bulk Modulus (GPa) = 79.86984 89.33912 84.60448
# Shear Modulus (GPa) = 42.25326 45.77960 44.01643
#
# Velocity S-wave (km/s) = 4.30873 4.48492 4.39771
# Velocity P-wave (km/s) = 7.73605 8.12852 7.93471
#
# Compressibility (1/GPa) = 0.01252037
#
# Stress axis : x y z
#
# Youngs Moduli (GPa) = 103.57833 68.03849 138.68318
#
# Poissons Ratio (x) = 0.27426 0.35511
# Poissons Ratio (y) = 0.41752 0.40630
# Poissons Ratio (z) = 0.26522 0.19933
#
# Static dielectric constant tensor:
#      x y z
#    x 1.889560 0.000000 -0.005030 
#    y 0.000000 1.932380 0.000000 
#    z -0.005030 0.000000 1.836270 
# 
# From -- ./inp_files/22044.got.cif
#   From: 2010.05.17/outbox.ucp.g08.bks.cvg/sg9_12_cif.got.tgz:22044.got - 2010.06.11 13:03:20.
