data_PCOD9141232
_publ_section_title
;
Structure prediction by ZEFSAII (Michael W. Deem and Ramdas Pophale) SiO2 
 PCOD9141232
Probable space group: C C
;
_chemical_formula_sum "Si O2"
_cell_formula_units_Z 12
_cell_length_a 12.000000
_cell_length_b 15.000000
_cell_length_c 12.000000
_cell_angle_alpha 90.000000
_cell_angle_beta 150.000000
_cell_angle_gamma 90.000000
_cell_volume 1080.000000
_symmetry_space_group_name_H-M "C C"
_symmetry_group_IT_number 9
_symmetry_cell_setting 'monoclinic'
loop_
_space_group_symop_operation_xyz
x,y,z
x,-y,1/2+z
1/2+x,1/2+y,z
1/2+x,1/2-y,1/2+z
loop_
_atom_site_type_symbol
_atom_site_label
_atom_site_fract_x
_atom_site_fract_y
_atom_site_fract_z
Si Si1 0.998160 0.674389 0.069660
Si Si2 0.616028 0.914548 0.904711
Si Si3 0.954108 0.136313 0.408463
Si Si4 0.081914 0.957535 0.213157
Si Si5 0.844159 0.590037 0.580751
Si Si6 0.051244 0.703132 0.570348
O O1 0.064577 0.654966 0.256983
O O2 0.190839 0.637294 0.152708
O O3 0.960917 0.774577 0.992918
O O4 0.773688 0.617086 0.868865
O O5 0.577482 0.868153 0.990845
O O6 0.475644 0.006223 0.754433
O O7 0.878563 0.935451 0.118987
O O8 0.979382 0.045593 0.501617
O O9 0.160441 0.135972 0.502489
O O10 0.197973 0.045033 0.356446
O O11 0.996620 0.658469 0.643658
O O12 0.307948 0.747135 0.817660
#
# Coordination Sequence:
#
# PCOD9141232 Si02
#       6
#     4   4   4   4   4   4
#     4  10  22  39  70 107 131 181 247 315 359 436
#     4  10  26  47  76 102 147 199 254 304 376 460
#     4  11  22  39  72 101 137 178 246 303 367 436
#     4  10  23  43  70 102 143 183 253 303 379 435
#     4  11  27  47  72 104 151 199 245 309 380 460
#     4  12  32  51  78 114 161 204 253 318 393 453
#
# _framework density 11.111110999999999
#
# number of rings (size 3 to 8) (size 9 to 14) (size 15 to 20)
#    0.000    1.333    1.667    1.000   14.000    5.333 
#    0.000    0.000    0.000    0.000    0.000    0.000 
#    0.000    0.000    0.000    0.000    0.000    0.000 
#
# Total GULP energy -66854.786010 kJ/mol
# GULP energy per Si atom -5571.232168 kJ/mol
# Density = 1.108582 g / cm^3
# Si number density = 11.111111 Si / 1000 Ang^3
#
#
#
# Elastic Constant Matrix: (Units=GPa)
#
#
# Indices 1 2 3 4 5 6 
#
# 1 142.8767 22.5543 11.6685 0.0001 33.1350 0.0001
# 2 22.5543 56.1013 22.0657 0.0000 7.1414 0.0001
# 3 11.6685 22.0657 84.8728 0.0001 33.9942 0.0002
# 4 0.0001 0.0000 0.0001 33.2738 0.0000 6.9292
# 5 33.1350 7.1414 33.9942 0.0000 48.4127 0.0001
# 6 0.0001 0.0001 0.0002 6.9292 0.0001 44.1482
#
#
#
# Elastic Compliance Matrix: (Units=1/GPa)
#
#
# Indices 1 2 3 4 5 6 
#
# 1 0.009149 -0.003804 0.002803 0.000000 -0.007669 0.000000
# 2 -0.003804 0.021470 -0.006724 0.000000 0.004159 0.000000
# 3 0.002803 -0.006724 0.018805 0.000000 -0.014131 0.000000
# 4 0.000000 0.000000 0.000000 0.031069 0.000000 -0.004876
# 5 -0.007669 0.004159 -0.014131 0.000000 0.035214 0.000000
# 6 0.000000 0.000000 0.000000 -0.004876 0.000000 0.023416
#
#
# Mechanical properties :
#
#
# Convention : Reuss Voigt Hill
#
# Bulk Modulus (GPa) = 29.43587 44.04754 36.74170
# Shear Modulus (GPa) = 30.13875 40.33775 35.23825
#
# Velocity S-wave (km/s) = 3.68672 4.26514 3.98643
# Velocity P-wave (km/s) = 5.60334 6.64226 6.14480
#
# Compressibility (1/GPa) = 0.03397216
#
# Stress axis : x y z
#
# Youngs Moduli (GPa) = 109.29892 46.57688 53.17696
#
# Poissons Ratio (x) = 0.17720 -0.14905
# Poissons Ratio (y) = 0.41582 0.35759
# Poissons Ratio (z) = -0.30635 0.31320
#
# Static dielectric constant tensor:
#      x y z
#    x 1.837770 0.000000 0.014360 
#    y 0.000000 1.841980 0.000000 
#    z 0.014360 0.000000 1.974120 
# 
# From -- ./inp_files/16904.got.cif
#   From: 2010.05.17/outbox.ucp.g08.bks.cvg/sg9_9_cif.got.tgz:16904.got - 2010.06.11 13:03:20.
