data_PCOD9141441
_publ_section_title
;
Structure prediction by ZEFSAII (Michael W. Deem and Ramdas Pophale) SiO2 
 PCOD9141441
Probable space group: P 2/M
;
_chemical_formula_sum "Si O2"
_cell_formula_units_Z 22
_cell_length_a 12.905816
_cell_length_b 20.081364
_cell_length_c 5.095268
_cell_angle_alpha 90.000000
_cell_angle_beta 78.011374
_cell_angle_gamma 90.000000
_cell_volume 1291.720106
_symmetry_space_group_name_H-M "P 2/M"
_symmetry_group_IT_number 10
_symmetry_cell_setting 'monoclinic'
loop_
_space_group_symop_operation_xyz
x,y,z
-x,y,-z
-x,-y,-z
x,-y,z
loop_
_atom_site_type_symbol
_atom_site_label
_atom_site_fract_x
_atom_site_fract_y
_atom_site_fract_z
Si Si1 0.425740 0.423518 0.292880
Si Si2 0.128907 0.212155 0.403683
Si Si3 0.114550 0.579533 0.824923
Si Si4 0.210535 0.358142 0.269886
Si Si5 0.127380 0.862585 0.898742
Si Si6 0.078860 0.000000 0.714633
O O1 0.500000 0.408410 0.500000
O O2 0.384457 0.500000 0.346000
O O3 0.328148 0.374086 0.307952
O O4 0.500000 0.422203 0.000000
O O5 0.176536 0.281510 0.284888
O O6 0.165619 0.193123 0.675773
O O7 0.000000 0.216312 0.500000
O O8 0.161502 0.155040 0.175926
O O9 0.122029 0.500000 0.818984
O O10 0.134535 0.606602 0.524124
O O11 0.196481 0.609728 0.990955
O O12 0.000000 0.599002 0.000000
O O13 0.144349 0.932637 0.737957
O O14 0.000000 0.857831 0.000000
O O15 0.000000 0.000000 0.500000
O O16 0.000000 0.000000 0.000000
#
# Coordination Sequence:
#
# PCOD9141441 Si02
#       6
#     4   4   4   4   4   2
#     4  10  21  37  55  73  91 116 159 213 262 305
#     4  10  19  30  44  66  97 129 159 190 230 286
#     4  11  22  34  49  71  97 126 164 202 236 287
#     4  12  22  35  53  71  96 131 161 200 255 306
#     4   9  17  28  42  63  92 127 165 198 222 260
#     4  10  16  26  44  64  88 128 174 204 226 252
#
# _framework density 17.031552999999999
#
# number of rings (size 3 to 8) (size 9 to 14) (size 15 to 20)
#    0.000    1.636    0.000    8.182    0.000    4.364 
#    0.000    0.000    0.000    0.000    0.000    0.000 
#    0.000    0.000    0.000   16.364    0.000    1.818 
#
# Total GULP energy -122628.512638 kJ/mol
# GULP energy per Si atom -5574.023302 kJ/mol
# Density = 1.699279 g / cm^3
# Si number density = 17.031553 Si / 1000 Ang^3
#
#
#
# Elastic Constant Matrix: (Units=GPa)
#
#
# Indices 1 2 3 4 5 6 
#
# 1 44.5286 16.9524 14.8903 0.0000 7.0663 0.0000
# 2 16.9524 65.6270 14.5131 0.0000 4.7314 0.0000
# 3 14.8903 14.5131 73.6502 0.0000 20.3078 0.0000
# 4 0.0000 0.0000 0.0000 -24.4982 0.0000 18.0183
# 5 7.0663 4.7314 20.3078 0.0000 22.6453 0.0000
# 6 0.0000 0.0000 0.0000 18.0183 0.0000 7.9618
#
#
#
# Elastic Compliance Matrix: (Units=1/GPa)
#
#
# Indices 1 2 3 4 5 6 
#
# 1 0.026366 -0.005838 -0.002986 0.000000 -0.004329 0.000000
# 2 -0.005838 0.017233 -0.002292 0.000000 0.000276 0.000000
# 3 -0.002986 -0.002292 0.018923 0.000000 -0.015559 0.000000
# 4 0.000000 0.000000 0.000000 -0.015320 0.000000 0.034670
# 5 -0.004329 0.000276 -0.015559 0.000000 0.059406 0.000000
# 6 0.000000 0.000000 0.000000 0.034670 0.000000 0.047138
#
#
# Mechanical properties :
#
#
# Convention : Reuss Voigt Hill
#
# Bulk Modulus (GPa) = 24.82039 30.72415 27.77227
# Shear Modulus (GPa) = 26.39805 10.38509 18.39157
#
# Velocity S-wave (km/s) = 3.94121 2.47200 3.28968
# Velocity P-wave (km/s) = 5.94270 5.12118 5.54717
#
# Compressibility (1/GPa) = 0.04028946
#
# Stress axis : x y z
#
# Youngs Moduli (GPa) = 37.92796 58.02961 52.84501
#
# Poissons Ratio (x) = 0.33878 0.15781
# Poissons Ratio (y) = 0.22143 0.12110
# Poissons Ratio (z) = 0.11326 0.13298
#
# Static dielectric constant tensor:
#      x y z
#    x 1.567620 0.000000 0.018670 
#    y 0.000000 1.647790 0.000000 
#    z 0.018670 0.000000 1.575940 
# 
# From -- ./inp_files/7147.got.cif
#   From: 2010.05.17/outbox.cif.g08.bks.cpg/sg10_4_cif.got.tgz:7147.got - 2010.06.03 11:33:40.
