data_PCOD9141483
_publ_section_title
;
Structure prediction by ZEFSAII (Michael W. Deem and Ramdas Pophale) SiO2 
 PCOD9141483
Probable space group: P 2/M
;
_chemical_formula_sum "Si O2"
_cell_formula_units_Z 24
_cell_length_a 12.901708
_cell_length_b 7.495063
_cell_length_c 16.589612
_cell_angle_alpha 90.000000
_cell_angle_beta 125.632938
_cell_angle_gamma 90.000000
_cell_volume 1303.839821
_symmetry_space_group_name_H-M "P 2/M"
_symmetry_group_IT_number 10
_symmetry_cell_setting 'monoclinic'
loop_
_space_group_symop_operation_xyz
x,y,z
-x,y,-z
-x,-y,-z
x,-y,z
loop_
_atom_site_type_symbol
_atom_site_label
_atom_site_fract_x
_atom_site_fract_y
_atom_site_fract_z
Si Si1 0.674495 0.284967 0.394530
Si Si2 0.801881 0.500000 0.862172
Si Si3 0.055628 0.204493 0.770847
Si Si4 0.596714 0.297002 0.679390
Si Si5 0.916548 0.500000 0.088124
Si Si6 0.765396 0.282971 0.614172
Si Si7 0.096771 0.205974 0.610487
O O1 0.677364 0.500000 0.386259
O O2 0.528264 0.221264 0.335096
O O3 0.736902 0.238645 0.508993
O O4 0.763420 0.212231 0.364456
O O5 0.714926 0.333618 0.793174
O O6 0.936218 0.500000 0.876298
O O7 0.831012 0.500000 0.969520
O O8 0.901835 0.210963 0.702142
O O9 0.103213 0.328779 0.864272
O O10 0.091089 0.279808 0.698160
O O11 0.099248 0.000000 0.798598
O O12 0.554910 0.500000 0.636045
O O13 0.655104 0.217518 0.624673
O O14 0.770830 0.500000 0.623258
O O15 0.000000 0.286456 0.500000
O O16 0.055459 0.000000 0.602192
#
# Coordination Sequence:
#
# PCOD9141483 Si02
#       7
#     4   2   4   4   2   4   4
#     4  10  19  27  51  78 106 141 183 206 253 325
#     4   9  18  34  61  78 108 134 172 227 275 319
#     4  11  21  34  54  79 111 141 177 221 265 315
#     4   8  15  31  49  77 107 138 172 215 266 314
#     4  11  20  38  59  81 104 143 176 221 284 323
#     4  10  16  29  49  77 110 146 168 210 259 319
#     4  10  21  34  47  69 107 146 177 218 259 301
#
# _framework density 18.407170000000001
#
# number of rings (size 3 to 8) (size 9 to 14) (size 15 to 20)
#    0.500    1.667    4.167    0.500    1.167    2.333 
#    0.000    2.500    0.000    4.000    0.000    2.333 
#    0.000    0.000    0.000    0.000    0.000    0.000 
#
# Total GULP energy -133772.508292 kJ/mol
# GULP energy per Si atom -5573.854512 kJ/mol
# Density = 1.836527 g / cm^3
# Si number density = 18.407170 Si / 1000 Ang^3
#
#
#
# Elastic Constant Matrix: (Units=GPa)
#
#
# Indices 1 2 3 4 5 6 
#
# 1 102.9341 -0.3074 17.8780 0.0000 -25.2479 0.0000
# 2 -0.3074 63.6929 22.6856 0.0000 -11.2598 0.0000
# 3 17.8780 22.6856 85.5093 0.0000 -28.5292 0.0000
# 4 0.0000 0.0000 0.0000 7.7607 0.0000 -6.0142
# 5 -25.2479 -11.2598 -28.5292 0.0000 29.4229 0.0000
# 6 0.0000 0.0000 0.0000 -6.0142 0.0000 24.4339
#
#
#
# Elastic Compliance Matrix: (Units=1/GPa)
#
#
# Indices 1 2 3 4 5 6 
#
# 1 0.012625 0.001911 0.001052 0.000000 0.012585 0.000000
# 2 0.001911 0.017836 -0.003410 0.000000 0.005159 0.000000
# 3 0.001052 -0.003410 0.018101 0.000000 0.017149 0.000000
# 4 0.000000 0.000000 0.000000 0.159228 0.000000 0.039193
# 5 0.012585 0.005159 0.017149 0.000000 0.063389 0.000000
# 6 0.000000 0.000000 0.000000 0.039193 0.000000 0.050574
#
#
# Mechanical properties :
#
#
# Convention : Reuss Voigt Hill
#
# Bulk Modulus (GPa) = 20.97850 36.96094 28.96972
# Shear Modulus (GPa) = 14.76947 26.44883 20.60915
#
# Velocity S-wave (km/s) = 2.83570 3.79473 3.34971
# Velocity P-wave (km/s) = 4.70566 6.27082 5.54375
#
# Compressibility (1/GPa) = 0.04766784
#
# Stress axis : x y z
#
# Youngs Moduli (GPa) = 79.20929 56.06575 55.24571
#
# Poissons Ratio (x) = -0.10714 -0.05814
# Poissons Ratio (y) = -0.15136 0.18841
# Poissons Ratio (z) = -0.08336 0.19120
#
# Static dielectric constant tensor:
#      x y z
#    x 1.654660 0.000000 -0.004800 
#    y 0.000000 1.704840 0.000000 
#    z -0.004800 0.000000 1.612260 
# 
# From -- ./inp_files/63251.got.cif
#   From: 2010.05.17/outbox.cif.g08.bks.cpg/sg10_32_cif.got.tgz:63251.got - 2010.06.03 11:33:40.
