data_PCOD9141105
_publ_section_title
;
Structure prediction by ZEFSAII (Michael W. Deem and Ramdas Pophale) SiO2 
 PCOD9141105
Probable space group: C C
;
_chemical_formula_sum "Si O2"
_cell_formula_units_Z 28
_cell_length_a 14.576501
_cell_length_b 6.308118
_cell_length_c 23.522830
_cell_angle_alpha 90.000000
_cell_angle_beta 30.855667
_cell_angle_gamma 90.000000
_cell_volume 1109.317919
_symmetry_space_group_name_H-M "C C"
_symmetry_group_IT_number 9
_symmetry_cell_setting 'monoclinic'
loop_
_space_group_symop_operation_xyz
x,y,z
x,-y,1/2+z
1/2+x,1/2+y,z
1/2+x,1/2-y,1/2+z
loop_
_atom_site_type_symbol
_atom_site_label
_atom_site_fract_x
_atom_site_fract_y
_atom_site_fract_z
Si Si1 0.590150 0.711125 0.413670
Si Si2 0.409954 0.869037 0.609310
Si Si3 0.740410 0.006598 0.069095
Si Si4 0.722622 0.979539 0.758636
Si Si5 0.853297 0.334406 0.286822
Si Si6 0.615586 0.662090 0.716064
Si Si7 0.237280 0.472293 0.940756
O O1 0.587967 0.850944 0.472910
O O2 0.408499 0.580581 0.515372
O O3 0.580919 0.868082 0.365747
O O4 0.754759 0.554096 0.322741
O O5 0.370040 0.649043 0.659433
O O6 0.239893 0.968830 0.670800
O O7 0.523991 0.042100 0.581333
O O8 0.564637 0.870743 0.178321
O O9 0.693029 0.241428 0.116546
O O10 0.809882 0.000222 0.967955
O O11 0.795188 0.833405 0.770200
O O12 0.644786 0.843646 0.748538
O O13 0.766033 0.252375 0.392384
O O14 0.412226 0.596187 0.818756
#
# Coordination Sequence:
#
# PCOD9141105 Si02
#       7
#     4   4   4   4   4   4   4
#     4  12  26  49  75 107 146 202 248 302 382 435
#     4  12  26  49  75 107 146 202 248 302 382 435
#     4  12  27  46  77 107 153 195 246 313 374 444
#     4  12  26  48  78 102 154 200 248 314 360 458
#     4  12  28  50  72 117 149 193 259 306 371 458
#     4  12  28  50  72 117 149 193 259 306 371 458
#     4  12  27  46  77 107 153 195 246 313 374 444
#
# _framework density 25.240738
#
# number of rings (size 3 to 8) (size 9 to 14) (size 15 to 20)
#    0.000    0.000    2.857    6.857    8.000    1.143 
#    0.000    0.000    0.000    0.000    0.000    0.000 
#    0.000    0.000    0.000    0.000    0.000    0.000 
#
# Total GULP energy -78222.530385 kJ/mol
# GULP energy per Si atom -5587.323599 kJ/mol
# Density = 2.518329 g / cm^3
# Si number density = 25.240738 Si / 1000 Ang^3
#
#
#
# Elastic Constant Matrix: (Units=GPa)
#
#
# Indices 1 2 3 4 5 6 
#
# 1 67.9203 23.6751 28.4934 -0.0004 -8.5700 0.0001
# 2 23.6751 82.5488 31.9524 -0.0009 4.0123 0.0003
# 3 28.4934 31.9524 109.9940 -0.0004 -16.6951 0.0002
# 4 -0.0004 -0.0009 -0.0004 59.0901 0.0001 -3.3714
# 5 -8.5700 4.0123 -16.6951 0.0001 68.4401 0.0000
# 6 0.0001 0.0003 0.0002 -3.3714 0.0000 31.2271
#
#
#
# Elastic Compliance Matrix: (Units=1/GPa)
#
#
# Indices 1 2 3 4 5 6 
#
# 1 0.017628 -0.003906 -0.003180 0.000000 0.001661 0.000000
# 2 -0.003906 0.014740 -0.003609 0.000000 -0.002234 0.000000
# 3 -0.003180 -0.003609 0.011356 0.000000 0.002583 0.000000
# 4 0.000000 0.000000 0.000000 0.017028 0.000000 0.001838
# 5 0.001661 -0.002234 0.002583 0.000000 0.015580 0.000000
# 6 0.000000 0.000000 0.000000 0.001838 0.000000 0.032222
#
#
# Mechanical properties :
#
#
# Convention : Reuss Voigt Hill
#
# Bulk Modulus (GPa) = 44.77409 47.63390 46.20399
# Shear Modulus (GPa) = 36.39332 43.50760 39.95046
#
# Velocity S-wave (km/s) = 3.80129 4.15626 3.98273
# Velocity P-wave (km/s) = 6.08635 6.47653 6.28447
#
# Compressibility (1/GPa) = 0.02233435
#
# Stress axis : x y z
#
# Youngs Moduli (GPa) = 56.72779 67.84385 88.06175
#
# Poissons Ratio (x) = 0.26497 0.28002
# Poissons Ratio (y) = 0.22156 0.31782
# Poissons Ratio (z) = 0.18039 0.24485
#
# Static dielectric constant tensor:
#      x y z
#    x 2.262710 0.000000 0.077160 
#    y 0.000000 2.073240 0.000000 
#    z 0.077160 0.000000 2.013130 
# 
# From -- ./inp_files/36814.got.cif
#   From: 2010.05.17/outbox.cif.g08.bks.cpg/sg9_19_cif.got.tgz:36814.got - 2010.06.03 20:04:27.
