data_PCOD9141980
_publ_section_title
;
Structure prediction by ZEFSAII (Michael W. Deem and Ramdas Pophale) SiO2 
 PCOD9141980
Probable space group: P 2/M
;
_chemical_formula_sum "Si O2"
_cell_formula_units_Z 28
_cell_length_a 14.762179
_cell_length_b 16.655104
_cell_length_c 13.827840
_cell_angle_alpha 90.000000
_cell_angle_beta 150.638000
_cell_angle_gamma 90.000000
_cell_volume 1667.005137
_symmetry_space_group_name_H-M "P 2/M"
_symmetry_group_IT_number 10
_symmetry_cell_setting 'monoclinic'
loop_
_space_group_symop_operation_xyz
x,y,z
-x,y,-z
-x,-y,-z
x,-y,z
loop_
_atom_site_type_symbol
_atom_site_label
_atom_site_fract_x
_atom_site_fract_y
_atom_site_fract_z
Si Si1 0.205283 0.091838 0.234690
Si Si2 0.931309 0.286877 0.538838
Si Si3 0.952736 0.342105 0.062047
Si Si4 0.780953 0.216954 0.585852
Si Si5 0.401019 0.234426 0.311403
Si Si6 0.591143 0.592425 0.191039
Si Si7 0.196286 0.410455 0.890359
O O1 0.196667 0.136458 0.330175
O O2 0.330388 0.147064 0.281157
O O3 0.267344 0.000000 0.299295
O O4 0.000000 0.093295 0.000000
O O5 0.872871 0.223092 0.566339
O O6 0.755433 0.345623 0.360319
O O7 0.000000 0.254102 0.500000
O O8 0.094384 0.343248 0.732529
O O9 0.896347 0.405006 0.090904
O O10 0.118177 0.287052 0.257901
O O11 0.776406 0.283864 0.884901
O O12 0.000000 0.374104 0.000000
O O13 0.561091 0.231262 0.380791
O O14 0.500000 0.269333 0.500000
O O15 0.656624 0.500000 0.261782
O O16 0.500000 0.601220 0.000000
O O17 0.415826 0.604238 0.098455
O O18 0.172045 0.500000 0.825982
#
# Coordination Sequence:
#
# PCOD9141980 Si02
#       7
#     4   4   4   4   4   4   4
#     4  10  18  32  55  83 110 131 159 198 243 292
#     4  11  21  34  53  74  97 129 173 214 253 300
#     4  11  18  33  49  69 102 132 168 203 244 297
#     4  10  20  32  50  75 102 133 165 201 248 297
#     4  10  17  30  51  74 100 136 160 194 247 290
#     4  10  19  33  51  72  98 127 164 218 273 299
#     4  10  22  34  50  71  96 132 169 213 260 299
#
# _framework density 16.796589000000001
#
# number of rings (size 3 to 8) (size 9 to 14) (size 15 to 20)
#    0.000    1.714    5.714    1.286    0.000    3.429 
#    0.000    0.000    0.000    0.857    0.000    0.000 
#    0.000    2.857    0.000    0.000    0.000    0.000 
#
# Total GULP energy -156107.937802 kJ/mol
# GULP energy per Si atom -5575.283493 kJ/mol
# Density = 1.675836 g / cm^3
# Si number density = 16.796589 Si / 1000 Ang^3
#
#
#
# Elastic Constant Matrix: (Units=GPa)
#
#
# Indices 1 2 3 4 5 6 
#
# 1 119.7841 18.2313 15.2856 0.0000 3.9538 0.0000
# 2 18.2313 55.1511 15.0301 0.0000 5.7839 0.0000
# 3 15.2856 15.0301 49.7383 0.0000 17.8677 0.0000
# 4 0.0000 0.0000 0.0000 8.1743 0.0000 -6.3816
# 5 3.9538 5.7839 17.8677 0.0000 25.7360 0.0000
# 6 0.0000 0.0000 0.0000 -6.3816 0.0000 12.2478
#
#
#
# Elastic Compliance Matrix: (Units=1/GPa)
#
#
# Indices 1 2 3 4 5 6 
#
# 1 0.008986 -0.002423 -0.002304 0.000000 0.000763 0.000000
# 2 -0.002423 0.020415 -0.005209 0.000000 -0.000599 0.000000
# 3 -0.002304 -0.005209 0.029096 0.000000 -0.018676 0.000000
# 4 0.000000 0.000000 0.000000 0.206220 0.000000 0.107449
# 5 0.000763 -0.000599 -0.018676 0.000000 0.051840 0.000000
# 6 0.000000 0.000000 0.000000 0.107449 0.000000 0.137633
#
#
# Mechanical properties :
#
#
# Convention : Reuss Voigt Hill
#
# Bulk Modulus (GPa) = 25.88912 35.75193 30.82052
# Shear Modulus (GPa) = 10.26827 20.97341 15.62084
#
# Velocity S-wave (km/s) = 2.47519 3.53749 3.05290
# Velocity P-wave (km/s) = 4.85958 6.16575 5.55122
#
# Compressibility (1/GPa) = 0.03862627
#
# Stress axis : x y z
#
# Youngs Moduli (GPa) = 111.28598 48.98258 34.36848
#
# Poissons Ratio (x) = 0.11867 0.07917
# Poissons Ratio (y) = 0.26961 0.17904
# Poissons Ratio (z) = 0.25636 0.25517
#
# Static dielectric constant tensor:
#      x y z
#    x 1.608130 0.000000 0.007440 
#    y 0.000000 1.542590 0.000000 
#    z 0.007440 0.000000 1.584180 
# 
# From -- ./inp_files/67647.got.cif
#   From: 2010.05.17/outbox.cif.g08.bks.cpg/sg10_34_cif.got.tgz:67647.got - 2010.06.03 11:33:40.
