data_PCOD9141730
_publ_section_title
;
Structure prediction by ZEFSAII (Michael W. Deem and Ramdas Pophale) SiO2 
 PCOD9141730
Probable space group: P 2/M
;
_chemical_formula_sum "Si O2"
_cell_formula_units_Z 28
_cell_length_a 26.799195
_cell_length_b 7.462452
_cell_length_c 13.216437
_cell_angle_alpha 90.000000
_cell_angle_beta 33.707038
_cell_angle_gamma 90.000000
_cell_volume 1466.793235
_symmetry_space_group_name_H-M "P 2/M"
_symmetry_group_IT_number 10
_symmetry_cell_setting 'monoclinic'
loop_
_space_group_symop_operation_xyz
x,y,z
-x,y,-z
-x,-y,-z
x,-y,z
loop_
_atom_site_type_symbol
_atom_site_label
_atom_site_fract_x
_atom_site_fract_y
_atom_site_fract_z
Si Si1 0.089485 0.218830 0.071804
Si Si2 0.405217 0.284837 0.039200
Si Si3 0.114124 0.780794 0.636244
Si Si4 0.096445 0.781144 0.290421
Si Si5 0.393513 0.284150 0.289335
Si Si6 0.221006 0.211997 0.258630
Si Si7 0.796601 0.788787 0.307267
O O1 0.161207 0.281688 0.867644
O O2 0.091241 0.000000 0.071918
O O3 0.105375 0.279769 0.159811
O O4 0.989415 0.269324 0.204670
O O5 0.408088 0.500000 0.038782
O O6 0.380222 0.221686 0.195263
O O7 0.327056 0.236582 0.093715
O O8 0.506910 0.223377 0.845761
O O9 0.172028 0.717446 0.442357
O O10 0.155838 0.716265 0.671464
O O11 0.117628 0.000000 0.631069
O O12 0.174231 0.719354 0.235818
O O13 0.000000 0.729803 0.500000
O O14 0.097159 0.000000 0.286580
O O15 0.394637 0.500000 0.285090
O O16 0.309828 0.231054 0.498771
O O17 0.203533 0.000000 0.288177
O O18 0.816736 0.000000 0.273002
#
# Coordination Sequence:
#
# PCOD9141730 Si02
#       7
#     4   4   4   4   4   4   4
#     4   9  16  26  41  64  96 129 154 177 215 268
#     4   9  18  32  48  66  89 119 149 181 229 280
#     4   9  15  24  39  66  97 121 145 178 220 263
#     4   9  15  25  42  66  94 123 154 185 216 256
#     4   9  18  32  48  65  89 120 150 180 224 282
#     4  10  17  26  46  72  94 115 148 191 224 254
#     4  10  18  27  44  70  96 120 148 186 226 261
#
# _framework density 19.089262000000002
#
# number of rings (size 3 to 8) (size 9 to 14) (size 15 to 20)
#    0.000    2.714    2.857    1.286    0.000    2.286 
#    0.000    1.429    0.000    4.714    0.000    6.000 
#    0.000    0.000    0.000    0.000    0.000    0.000 
#
# Total GULP energy -156218.759654 kJ/mol
# GULP energy per Si atom -5579.241416 kJ/mol
# Density = 1.904581 g / cm^3
# Si number density = 19.089262 Si / 1000 Ang^3
#
#
#
# Elastic Constant Matrix: (Units=GPa)
#
#
# Indices 1 2 3 4 5 6 
#
# 1 161.2192 3.8709 114.1882 0.0000 -3.3129 0.0000
# 2 3.8709 52.5602 -2.5250 0.0000 6.9060 0.0000
# 3 114.1882 -2.5250 151.3842 0.0000 4.0697 0.0000
# 4 0.0000 0.0000 0.0000 20.3215 0.0000 -13.3377
# 5 -3.3129 6.9060 4.0697 0.0000 30.5434 0.0000
# 6 0.0000 0.0000 0.0000 -13.3377 0.0000 7.5518
#
#
#
# Elastic Compliance Matrix: (Units=1/GPa)
#
#
# Indices 1 2 3 4 5 6 
#
# 1 0.013751 -0.001955 -0.010495 0.000000 0.003332 0.000000
# 2 -0.001955 0.019917 0.001940 0.000000 -0.004974 0.000000
# 3 -0.010495 0.001940 0.014649 0.000000 -0.003529 0.000000
# 4 0.000000 0.000000 0.000000 -0.309119 0.000000 -0.545953
# 5 0.003332 -0.004974 -0.003529 0.000000 0.034696 0.000000
# 6 0.000000 0.000000 0.000000 -0.545953 0.000000 -0.831820
#
#
# Mechanical properties :
#
#
# Convention : Reuss Voigt Hill
#
# Bulk Modulus (GPa) = 36.63179 66.24798 51.43988
# Shear Modulus (GPa) = -4.86472 28.32532 11.73030
#
# Velocity S-wave (km/s) = -1.59811 3.85624 2.48159
# Velocity P-wave (km/s) = 3.97821 7.38966 5.93436
#
# Compressibility (1/GPa) = 0.02729870
#
# Stress axis : x y z
#
# Youngs Moduli (GPa) = 72.72031 50.20960 68.26387
#
# Poissons Ratio (x) = 0.09814 0.71641
# Poissons Ratio (y) = 0.14215 -0.13245
# Poissons Ratio (z) = 0.76318 -0.09742
#
# Static dielectric constant tensor:
#      x y z
#    x 1.657200 0.000000 -0.003960 
#    y 0.000000 1.731740 0.000000 
#    z -0.003960 0.000000 1.649200 
# 
# From -- ./inp_files/50405.got.cif
#   From: 2010.05.17/outbox.cif.g08.bks.cpg/sg10_26_cif.got.tgz:50405.got - 2010.06.03 11:33:40.
