data_PCOD9141653
_publ_section_title
;
Structure prediction by ZEFSAII (Michael W. Deem and Ramdas Pophale) SiO2 
 PCOD9141653
Probable space group: P 2/M
;
_chemical_formula_sum "Si O2"
_cell_formula_units_Z 32
_cell_length_a 19.197191
_cell_length_b 8.435467
_cell_length_c 14.207500
_cell_angle_alpha 90.000000
_cell_angle_beta 68.804724
_cell_angle_gamma 90.000000
_cell_volume 2145.088131
_symmetry_space_group_name_H-M "P 2/M"
_symmetry_group_IT_number 10
_symmetry_cell_setting 'monoclinic'
loop_
_space_group_symop_operation_xyz
x,y,z
-x,y,-z
-x,-y,-z
x,-y,z
loop_
_atom_site_type_symbol
_atom_site_label
_atom_site_fract_x
_atom_site_fract_y
_atom_site_fract_z
Si Si1 0.735462 0.690340 0.775988
Si Si2 0.733632 0.187914 0.991307
Si Si3 0.964807 0.692938 0.161332
Si Si4 0.576294 0.186531 0.849140
Si Si5 0.963144 0.306583 0.373616
Si Si6 0.884130 0.693125 0.599032
Si Si7 0.882187 0.691927 0.015048
Si Si8 0.578090 0.313127 0.061232
O O1 0.735518 0.500000 0.779551
O O2 0.655354 0.746327 0.775946
O O3 0.805525 0.746309 0.679673
O O4 0.744188 0.750937 0.878880
O O5 0.805500 0.236492 0.016081
O O6 0.656746 0.264151 0.067601
O O7 0.724787 0.000000 0.993168
O O8 0.963750 0.500000 0.162600
O O9 0.949057 0.748921 0.274543
O O10 0.907169 0.741186 0.107920
O O11 0.048132 0.737032 0.086337
O O12 0.499247 0.264633 0.851506
O O13 0.572892 0.000000 0.836625
O O14 0.578317 0.224805 0.960156
O O15 0.961914 0.500000 0.373056
O O16 0.905325 0.255706 0.482920
O O17 0.045984 0.261091 0.368903
O O18 0.882819 0.500000 0.599267
O O19 0.876533 0.500000 0.015496
O O20 0.577376 0.500000 0.043326
#
# Coordination Sequence:
#
# PCOD9141653 Si02
#       8
#     4   4   4   4   4   4   4   4
#     4  10  17  26  39  57  79 107 138 169 197 232
#     4  11  20  28  38  56  80 108 135 166 201 237
#     4   8  14  24  41  59  80 105 134 168 204 238
#     4  10  17  26  38  55  79 106 132 161 194 235
#     4   8  12  21  35  57  83 106 129 165 208 238
#     4   8  14  21  35  58  83 104 131 167 203 235
#     4   9  16  27  41  60  79 103 136 170 201 237
#     4  10  17  27  41  56  75 103 134 164 193 232
#
# _framework density 14.917802
#
# number of rings (size 3 to 8) (size 9 to 14) (size 15 to 20)
#    0.000    2.750    0.000    8.250    0.000    2.000 
#    0.000    1.250    0.000    0.000    0.000   18.375 
#    0.000    1.000    0.000   11.750    0.000    2.250 
#
# Total GULP energy -178205.912101 kJ/mol
# GULP energy per Si atom -5568.934753 kJ/mol
# Density = 1.488385 g / cm^3
# Si number density = 14.917802 Si / 1000 Ang^3
#
#
#
# Elastic Constant Matrix: (Units=GPa)
#
#
# Indices 1 2 3 4 5 6 
#
# 1 129.1426 16.8060 61.1011 0.0000 -18.2916 0.0000
# 2 16.8060 25.3863 11.0666 0.0000 -1.5790 0.0000
# 3 61.1011 11.0666 90.5496 0.0000 -7.4143 0.0000
# 4 0.0000 0.0000 0.0000 -0.9046 0.0000 15.8000
# 5 -18.2916 -1.5790 -7.4143 0.0000 24.7539 0.0000
# 6 0.0000 0.0000 0.0000 15.8000 0.0000 5.8666
#
#
#
# Elastic Compliance Matrix: (Units=1/GPa)
#
#
# Indices 1 2 3 4 5 6 
#
# 1 0.012945 -0.004834 -0.007572 0.000000 0.006989 0.000000
# 2 -0.004834 0.043446 -0.002166 0.000000 -0.001450 0.000000
# 3 -0.007572 -0.002166 0.016349 0.000000 -0.000836 0.000000
# 4 0.000000 0.000000 0.000000 -0.023011 0.000000 0.061974
# 5 0.006989 -0.001450 -0.000836 0.000000 0.045219 0.000000
# 6 0.000000 0.000000 0.000000 0.061974 0.000000 0.003548
#
#
# Mechanical properties :
#
#
# Convention : Reuss Voigt Hill
#
# Bulk Modulus (GPa) = 22.93836 47.00286 34.97061
# Shear Modulus (GPa) = 35.16838 16.35016 25.75927
#
# Velocity S-wave (km/s) = 4.86065 3.31421 4.15992
# Velocity P-wave (km/s) = 6.84917 6.79865 6.82396
#
# Compressibility (1/GPa) = 0.04359509
#
# Stress axis : x y z
#
# Youngs Moduli (GPa) = 77.25070 23.01716 61.16470
#
# Poissons Ratio (x) = 0.11127 0.46313
# Poissons Ratio (y) = 0.37344 0.13251
# Poissons Ratio (z) = 0.58493 0.04987
#
# Static dielectric constant tensor:
#      x y z
#    x 1.515320 0.000000 -0.020110 
#    y 0.000000 1.503640 0.000000 
#    z -0.020110 0.000000 1.492490 
# 
# From -- ./inp_files/68224.got.cif
#   From: 2010.05.17/outbox.cif.g08.bks.cpg/sg10_35_cif.got.tgz:68224.got - 2010.06.03 11:33:40.
