data_PCOD9141938
_publ_section_title
;
Structure prediction by ZEFSAII (Michael W. Deem and Ramdas Pophale) SiO2 
 PCOD9141938
Probable space group: P 2/M
;
_chemical_formula_sum "Si O2"
_cell_formula_units_Z 18
_cell_length_a 7.573326
_cell_length_b 8.255484
_cell_length_c 12.348146
_cell_angle_alpha 90.000000
_cell_angle_beta 82.533691
_cell_angle_gamma 90.000000
_cell_volume 765.478607
_symmetry_space_group_name_H-M "P 2/M"
_symmetry_group_IT_number 10
_symmetry_cell_setting 'monoclinic'
loop_
_space_group_symop_operation_xyz
x,y,z
-x,y,-z
-x,-y,-z
x,-y,z
loop_
_atom_site_type_symbol
_atom_site_label
_atom_site_fract_x
_atom_site_fract_y
_atom_site_fract_z
Si Si1 0.857297 0.821519 0.262772
Si Si2 0.288146 0.181078 0.487188
Si Si3 0.843461 0.173341 0.923438
Si Si4 0.293800 0.500000 0.353421
Si Si5 0.656488 0.500000 0.217591
Si Si6 0.671976 0.500000 0.894621
O O1 0.824837 0.808462 0.393188
O O2 0.765646 0.664678 0.218031
O O3 0.055643 0.824313 0.200133
O O4 0.779573 0.000000 0.237714
O O5 0.500000 0.189492 0.500000
O O6 0.242918 0.335135 0.417539
O O7 0.258557 0.000000 0.442173
O O8 0.730041 0.333112 0.942335
O O9 0.749012 0.000000 0.942114
O O10 0.000000 0.177924 0.000000
O O11 0.510484 0.500000 0.326193
O O12 0.235085 0.500000 0.233301
O O13 0.533473 0.500000 0.121893
#
# Coordination Sequence:
#
# PCOD9141938 Si02
#       6
#     4   4   4   2   2   2
#     4  10  20  35  58  85 110 145 191 231 266 316
#     4  10  17  29  51  79 113 147 181 221 263 319
#     4  10  22  42  63  79 104 146 191 231 274 330
#     4  10  20  31  49  80 114 148 173 209 276 327
#     4  10  20  33  55  84 115 147 174 226 279 324
#     4  10  22  37  58  84 113 148 178 224 287 330
#
# _framework density 23.514699
#
# number of rings (size 3 to 8) (size 9 to 14) (size 15 to 20)
#    0.667    1.333    2.222    2.000    0.000    1.778 
#    0.000    4.444    0.000    8.000    0.000    0.000 
#    0.000    0.000    0.000    0.000    0.000    0.000 
#
# Total GULP energy -100582.065352 kJ/mol
# GULP energy per Si atom -5587.892520 kJ/mol
# Density = 2.346118 g / cm^3
# Si number density = 23.514699 Si / 1000 Ang^3
#
#
#
# Elastic Constant Matrix: (Units=GPa)
#
#
# Indices 1 2 3 4 5 6 
#
# 1 31.1648 64.6012 18.7977 0.0000 -6.9068 0.0000
# 2 64.6012 303.9776 54.4856 0.0000 19.8880 0.0000
# 3 18.7977 54.4856 84.6273 0.0000 -24.5376 0.0000
# 4 0.0000 0.0000 0.0000 -69.3534 0.0000 34.3407
# 5 -6.9068 19.8880 -24.5376 0.0000 34.1412 0.0000
# 6 0.0000 0.0000 0.0000 34.3407 0.0000 -35.0528
#
#
#
# Elastic Compliance Matrix: (Units=1/GPa)
#
#
# Indices 1 2 3 4 5 6 
#
# 1 0.073765 -0.018101 0.003352 0.000000 0.027876 0.000000
# 2 -0.018101 0.008951 -0.005452 0.000000 -0.012794 0.000000
# 3 0.003352 -0.005452 0.019832 0.000000 0.018107 0.000000
# 4 0.000000 0.000000 0.000000 -0.028003 0.000000 -0.027434
# 5 0.027876 -0.012794 0.018107 0.000000 0.055396 0.000000
# 6 0.000000 0.000000 0.000000 -0.027434 0.000000 -0.055405
#
#
# Mechanical properties :
#
#
# Convention : Reuss Voigt Hill
#
# Bulk Modulus (GPa) = 16.09116 77.28207 46.68662
# Shear Modulus (GPa) = 36.85841 4.73936 20.79889
#
# Velocity S-wave (km/s) = 3.96341 1.42122 2.97729
# Velocity P-wave (km/s) = 5.27283 5.96908 5.63173
#
# Compressibility (1/GPa) = 0.06214593
#
# Stress axis : x y z
#
# Youngs Moduli (GPa) = 13.55649 111.72174 50.42289
#
# Poissons Ratio (x) = 2.02229 -0.16900
# Poissons Ratio (y) = 0.24539 0.27489
# Poissons Ratio (z) = -0.04544 0.60908
#
# Static dielectric constant tensor:
#      x y z
#    x 1.860890 0.000000 -0.012520 
#    y 0.000000 1.860740 0.000000 
#    z -0.012520 0.000000 1.948210 
# 
# From -- ./inp_files/40832.got.cif
#   From: 2010.05.17/outbox.cif.g08.bks.cpg/sg10_21_cif.got.tgz:40832.got - 2010.06.03 11:33:40.
