data_PCOD9141347
_publ_section_title
;
Structure prediction by ZEFSAII (Michael W. Deem and Ramdas Pophale) SiO2 
 PCOD9141347
Probable space group: P 2/M
;
_chemical_formula_sum "Si O2"
_cell_formula_units_Z 30
_cell_length_a 15.067238
_cell_length_b 7.923126
_cell_length_c 13.156620
_cell_angle_alpha 90.000000
_cell_angle_beta 105.704918
_cell_angle_gamma 90.000000
_cell_volume 1511.998327
_symmetry_space_group_name_H-M "P 2/M"
_symmetry_group_IT_number 10
_symmetry_cell_setting 'monoclinic'
loop_
_space_group_symop_operation_xyz
x,y,z
-x,y,-z
-x,-y,-z
x,-y,z
loop_
_atom_site_type_symbol
_atom_site_label
_atom_site_fract_x
_atom_site_fract_y
_atom_site_fract_z
Si Si1 0.006197 0.198761 0.221924
Si Si2 0.799701 0.796723 0.197752
Si Si3 0.493363 0.704452 0.616785
Si Si4 0.785666 0.192037 0.969993
Si Si5 0.308309 0.800482 0.261181
Si Si6 0.819839 0.696225 0.599324
Si Si7 0.000000 0.250638 0.000000
Si Si8 0.293078 0.701416 0.623780
O O1 0.091049 0.218916 0.323698
O O2 0.908561 0.241566 0.242433
O O3 0.003811 0.000000 0.187885
O O4 0.016324 0.308885 0.122227
O O5 0.740741 0.733810 0.273313
O O6 0.792843 0.000000 0.192948
O O7 0.771424 0.730504 0.077068
O O8 0.500000 0.751423 0.500000
O O9 0.497370 0.500000 0.623726
O O10 0.582628 0.775124 0.701130
O O11 0.395907 0.764231 0.631582
O O12 0.736867 0.268754 0.856592
O O13 0.895829 0.182479 0.985951
O O14 0.750454 0.000000 0.964604
O O15 0.262084 0.712662 0.343838
O O16 0.285605 0.000000 0.262052
O O17 0.843350 0.500000 0.592476
O O18 0.780301 0.768451 0.481694
O O19 0.296464 0.500000 0.607789
#
# Coordination Sequence:
#
# PCOD9141347 Si02
#       8
#     4   4   4   4   4   4   2   4
#     4  10  19  33  55  83 111 148 188 227 273 323
#     4   9  20  37  58  81 110 148 188 227 270 323
#     4  10  20  39  60  79 109 147 182 224 282 337
#     4   9  17  31  54  82 112 145 177 220 278 325
#     4  11  21  34  57  89 115 138 179 233 281 329
#     4  11  22  36  54  80 115 151 183 225 279 330
#     4  10  15  28  55  80 109 146 181 220 271 324
#     4  10  22  40  59  76 106 151 188 222 275 335
#
# _framework density 19.841291999999999
#
# number of rings (size 3 to 8) (size 9 to 14) (size 15 to 20)
#    0.000    2.000    2.667    2.800    0.000    2.933 
#    0.000    5.000    0.000    4.000    0.000    0.000 
#    0.000    0.000    0.000    0.000    0.000    0.000 
#
# Total GULP energy -167162.062995 kJ/mol
# GULP energy per Si atom -5572.068766 kJ/mol
# Density = 1.979613 g / cm^3
# Si number density = 19.841292 Si / 1000 Ang^3
#
#
#
# Elastic Constant Matrix: (Units=GPa)
#
#
# Indices 1 2 3 4 5 6 
#
# 1 93.4229 0.8382 56.6884 0.0000 -9.5238 0.0000
# 2 0.8382 28.6371 0.8236 0.0000 2.5090 0.0000
# 3 56.6884 0.8236 134.2587 0.0000 -0.0695 0.0000
# 4 0.0000 0.0000 0.0000 16.2348 0.0000 3.5763
# 5 -9.5238 2.5090 -0.0695 0.0000 37.7592 0.0000
# 6 0.0000 0.0000 0.0000 3.5763 0.0000 19.8942
#
#
#
# Elastic Compliance Matrix: (Units=1/GPa)
#
#
# Indices 1 2 3 4 5 6 
#
# 1 0.014913 -0.000588 -0.006291 0.000000 0.003789 0.000000
# 2 -0.000588 0.035154 0.000031 0.000000 -0.002484 0.000000
# 3 -0.006291 0.000031 0.010104 0.000000 -0.001570 0.000000
# 4 0.000000 0.000000 0.000000 0.064136 0.000000 -0.011529
# 5 0.003789 -0.002484 -0.001570 0.000000 0.027601 0.000000
# 6 0.000000 0.000000 0.000000 -0.011529 0.000000 0.052338
#
#
# Mechanical properties :
#
#
# Convention : Reuss Voigt Hill
#
# Bulk Modulus (GPa) = 21.51685 41.44657 31.48171
# Shear Modulus (GPa) = 21.41942 27.97552 24.69747
#
# Velocity S-wave (km/s) = 3.28920 3.75902 3.53193
# Velocity P-wave (km/s) = 5.02922 6.30672 5.70385
#
# Compressibility (1/GPa) = 0.04647520
#
# Stress axis : x y z
#
# Youngs Moduli (GPa) = 67.05566 28.44650 98.97412
#
# Poissons Ratio (x) = 0.01671 0.62266
# Poissons Ratio (y) = 0.03940 -0.00308
# Poissons Ratio (z) = 0.42186 -0.00089
#
# Static dielectric constant tensor:
#      x y z
#    x 1.659820 0.000000 0.005930 
#    y 0.000000 1.755390 0.000000 
#    z 0.005930 0.000000 1.713940 
# 
# From -- ./inp_files/50006.got.cif
#   From: 2010.05.17/outbox.cif.g08.bks.cpg/sg10_26_cif.got.tgz:50006.got - 2010.06.03 11:33:40.
