data_PCOD9141160
_publ_section_title
;
Structure prediction by ZEFSAII (Michael W. Deem and Ramdas Pophale) SiO2 
 PCOD9141160
Probable space group: C C
;
_chemical_formula_sum "Si O2"
_cell_formula_units_Z 16
_cell_length_a 18.392630
_cell_length_b 4.518190
_cell_length_c 8.455072
_cell_angle_alpha 90.000000
_cell_angle_beta 124.076998
_cell_angle_gamma 90.000000
_cell_volume 581.976717
_symmetry_space_group_name_H-M "C C"
_symmetry_group_IT_number 9
_symmetry_cell_setting 'monoclinic'
loop_
_space_group_symop_operation_xyz
x,y,z
x,-y,1/2+z
1/2+x,1/2+y,z
1/2+x,1/2-y,1/2+z
loop_
_atom_site_type_symbol
_atom_site_label
_atom_site_fract_x
_atom_site_fract_y
_atom_site_fract_z
Si Si1 0.348190 0.857778 0.427210
Si Si2 0.423275 0.337376 0.693518
Si Si3 0.657568 0.563780 0.283894
Si Si4 0.597772 0.049348 0.410509
O O1 0.404462 0.675132 0.625714
O O2 0.366116 0.740799 0.275926
O O3 0.386566 0.184923 0.490419
O O4 0.247248 0.897108 0.351769
O O5 0.516452 0.175640 0.832675
O O6 0.593466 0.304702 0.269700
O O7 0.669449 0.812377 0.434752
O O8 0.621167 0.757825 0.093272
#
# Coordination Sequence:
#
# PCOD9141160 Si02
#       4
#     4   4   4   4
#     4  12  27  50  77 112 158 209 261 325 398 473
#     4  12  27  50  77 112 158 209 261 325 398 473
#     4  12  27  50  80 118 159 209 267 331 399 477
#     4  12  27  50  80 118 159 209 267 331 399 477
#
# _framework density 27.492508999999998
#
# number of rings (size 3 to 8) (size 9 to 14) (size 15 to 20)
#    0.000    0.000    0.000    9.000    0.000    8.000 
#    0.000    5.000    0.000    0.000    0.000    0.000 
#    0.000    0.000    0.000    0.000    0.000    0.000 
#
# Total GULP energy -44799.792271 kJ/mol
# GULP energy per Si atom -5599.974034 kJ/mol
# Density = 2.742994 g / cm^3
# Si number density = 27.492509 Si / 1000 Ang^3
#
#
#
# Elastic Constant Matrix: (Units=GPa)
#
#
# Indices 1 2 3 4 5 6 
#
# 1 188.1099 94.5024 87.9147 0.0000 23.9748 0.0000
# 2 94.5024 186.1598 58.6641 -0.0002 -12.0996 0.0002
# 3 87.9147 58.6641 122.9605 0.0000 -4.4953 0.0000
# 4 0.0000 -0.0002 0.0000 39.0934 0.0000 -26.9237
# 5 23.9748 -12.0996 -4.4953 0.0000 35.9073 0.0000
# 6 0.0000 0.0002 0.0000 -26.9237 0.0000 39.2062
#
#
#
# Elastic Compliance Matrix: (Units=1/GPa)
#
#
# Indices 1 2 3 4 5 6 
#
# 1 0.012300 -0.004759 -0.006914 0.000000 -0.010682 0.000000
# 2 -0.004759 0.008277 -0.000329 0.000000 0.005925 0.000000
# 3 -0.006914 -0.000329 0.013459 0.000000 0.006190 0.000000
# 4 0.000000 0.000000 0.000000 0.048533 0.000000 0.033329
# 5 -0.010682 0.005925 0.006190 0.000000 0.037753 0.000000
# 6 0.000000 0.000000 0.000000 0.033329 0.000000 0.048394
#
#
# Mechanical properties :
#
#
# Convention : Reuss Voigt Hill
#
# Bulk Modulus (GPa) = 99.69390 108.82140 104.25765
# Shear Modulus (GPa) = 25.50177 39.91799 32.70988
#
# Velocity S-wave (km/s) = 3.04894 3.81459 3.45305
# Velocity P-wave (km/s) = 6.98109 7.68568 7.34184
#
# Compressibility (1/GPa) = 0.01003070
#
# Stress axis : x y z
#
# Youngs Moduli (GPa) = 81.30297 120.82159 74.29729
#
# Poissons Ratio (x) = 0.57503 0.51368
# Poissons Ratio (y) = 0.38695 0.02447
# Poissons Ratio (z) = 0.56212 0.03979
#
# Static dielectric constant tensor:
#      x y z
#    x 2.178430 0.000000 0.039560 
#    y 0.000000 2.070840 0.000000 
#    z 0.039560 0.000000 2.156920 
# 
# From -- ./inp_files/10223.got.cif
#   From: 2010.05.17/outbox.cif.g08.bks.cpg/sg9_6_cif.got.tgz:10223.got - 2010.06.03 20:04:27.
