data_PCOD9141128
_publ_section_title
;
Structure prediction by ZEFSAII (Michael W. Deem and Ramdas Pophale) SiO2 
 PCOD9141128
Probable space group: C C
;
_chemical_formula_sum "Si O2"
_cell_formula_units_Z 32
_cell_length_a 22.177631
_cell_length_b 9.114894
_cell_length_c 17.388667
_cell_angle_alpha 90.000000
_cell_angle_beta 21.172525
_cell_angle_gamma 90.000000
_cell_volume 1269.561361
_symmetry_space_group_name_H-M "C C"
_symmetry_group_IT_number 9
_symmetry_cell_setting 'monoclinic'
loop_
_space_group_symop_operation_xyz
x,y,z
x,-y,1/2+z
1/2+x,1/2+y,z
1/2+x,1/2-y,1/2+z
loop_
_atom_site_type_symbol
_atom_site_label
_atom_site_fract_x
_atom_site_fract_y
_atom_site_fract_z
Si Si1 0.668920 0.420349 0.693810
Si Si2 0.063582 0.155903 0.720397
Si Si3 0.191058 0.449382 0.622798
Si Si4 0.587555 0.355001 0.502621
Si Si5 0.632763 0.056836 0.366632
Si Si6 0.822839 0.408930 0.779074
Si Si7 0.919239 0.909695 0.111963
Si Si8 0.033651 0.292143 0.231979
O O1 0.631286 0.588989 0.720012
O O2 0.552161 0.339817 0.769994
O O3 0.856880 0.371450 0.454757
O O4 0.599166 0.377426 0.859655
O O5 0.084290 0.328671 0.704507
O O6 0.198236 0.098693 0.498555
O O7 0.878393 0.109613 0.914908
O O8 0.111450 0.475682 0.801876
O O9 0.176379 0.596152 0.590658
O O10 0.448337 0.475492 0.646139
O O11 0.608145 0.227444 0.415459
O O12 0.558041 0.270711 0.617865
O O13 0.510382 0.963816 0.567643
O O14 0.813350 0.998700 0.175716
O O15 0.836136 0.244321 0.731504
O O16 0.750794 0.542982 0.814372
#
# Coordination Sequence:
#
# PCOD9141128 Si02
#       8
#     4   4   4   4   4   4   4   4
#     4  12  26  51  79 119 160 218 276 344 418 499
#     4  12  27  50  77 116 164 212 272 344 408 496
#     4  12  29  51  82 118 164 217 280 340 422 498
#     4  12  29  52  82 119 166 220 282 350 423 509
#     4  12  28  51  80 120 163 224 274 350 416 505
#     4  12  29  47  80 117 164 213 276 345 420 487
#     4  12  29  50  81 119 169 215 280 348 425 501
#     4  12  29  50  87 118 160 221 284 345 416 503
#
# _framework density 25.205556000000001
#
# number of rings (size 3 to 8) (size 9 to 14) (size 15 to 20)
#    0.000    0.000    2.500    5.250   14.000    0.000 
#    0.000    0.000    0.000    0.000    0.000    0.000 
#    0.000    0.000    0.000    0.000    0.000    0.000 
#
# Total GULP energy -89683.794833 kJ/mol
# GULP energy per Si atom -5605.237177 kJ/mol
# Density = 2.514819 g / cm^3
# Si number density = 25.205556 Si / 1000 Ang^3
#
#
#
# Elastic Constant Matrix: (Units=GPa)
#
#
# Indices 1 2 3 4 5 6 
#
# 1 103.0878 43.4178 40.9714 0.0000 11.4097 0.0000
# 2 43.4178 148.2897 34.8172 0.0000 4.8073 0.0000
# 3 40.9714 34.8172 132.0285 0.0000 12.9877 0.0000
# 4 0.0000 0.0000 0.0000 19.3833 0.0000 -19.7257
# 5 11.4097 4.8073 12.9877 0.0000 35.0106 0.0000
# 6 0.0000 0.0000 0.0000 -19.7257 0.0000 41.8049
#
#
#
# Elastic Compliance Matrix: (Units=1/GPa)
#
#
# Indices 1 2 3 4 5 6 
#
# 1 0.012308 -0.002860 -0.002812 0.000000 -0.002575 0.000000
# 2 -0.002860 0.007856 -0.001214 0.000000 0.000304 0.000000
# 3 -0.002812 -0.001214 0.008988 0.000000 -0.002251 0.000000
# 4 0.000000 0.000000 0.000000 0.099249 0.000000 0.046831
# 5 -0.002575 0.000304 -0.002251 0.000000 0.030195 0.000000
# 6 0.000000 0.000000 0.000000 0.046831 0.000000 0.046018
#
#
# Mechanical properties :
#
#
# Convention : Reuss Voigt Hill
#
# Bulk Modulus (GPa) = 65.01790 69.09096 67.05443
# Shear Modulus (GPa) = 22.37015 36.85307 29.61161
#
# Velocity S-wave (km/s) = 2.98234 3.82789 3.43126
# Velocity P-wave (km/s) = 6.14086 6.85620 6.50837
#
# Compressibility (1/GPa) = 0.01538038
#
# Stress axis : x y z
#
# Youngs Moduli (GPa) = 81.25127 127.28941 111.25545
#
# Poissons Ratio (x) = 0.36403 0.31283
# Poissons Ratio (y) = 0.23237 0.13508
# Poissons Ratio (z) = 0.22846 0.15455
#
# Static dielectric constant tensor:
#      x y z
#    x 1.988460 0.000000 -0.019740 
#    y 0.000000 2.060770 0.000000 
#    z -0.019740 0.000000 1.976810 
# 
# From -- ./inp_files/31289.got.cif
#   From: 2010.05.17/outbox.cif.g08.bks.cpg/sg9_16_cif.got.tgz:31289.got - 2010.06.03 20:04:27.
