data_PCOD9141148
_publ_section_title
;
Structure prediction by ZEFSAII (Michael W. Deem and Ramdas Pophale) SiO2 
 PCOD9141148
Probable space group: C C
;
_chemical_formula_sum "Si O2"
_cell_formula_units_Z 16
_cell_length_a 6.451003
_cell_length_b 23.386127
_cell_length_c 4.743027
_cell_angle_alpha 90.000000
_cell_angle_beta 55.210239
_cell_angle_gamma 90.000000
_cell_volume 587.647853
_symmetry_space_group_name_H-M "C C"
_symmetry_group_IT_number 9
_symmetry_cell_setting 'monoclinic'
loop_
_space_group_symop_operation_xyz
x,y,z
x,-y,1/2+z
1/2+x,1/2+y,z
1/2+x,1/2-y,1/2+z
loop_
_atom_site_type_symbol
_atom_site_label
_atom_site_fract_x
_atom_site_fract_y
_atom_site_fract_z
Si Si1 0.594030 0.311533 0.394740
Si Si2 0.420224 0.799122 0.672057
Si Si3 0.250642 0.962094 0.943283
Si Si4 0.257786 0.395230 0.408499
O O1 0.505553 0.256864 0.278051
O O2 0.710219 0.290419 0.595187
O O3 0.387025 0.360797 0.570832
O O4 0.805502 0.336021 0.019454
O O5 0.629888 0.839135 0.365220
O O6 0.237593 0.978419 0.281274
O O7 0.524633 0.063335 0.151492
O O8 0.991410 0.927457 0.081311
#
# Coordination Sequence:
#
# PCOD9141148 Si02
#       4
#     4   4   4   4
#     4  12  27  47  78 120 166 209 258 316 391 486
#     4  12  27  47  78 120 166 209 258 316 391 486
#     4  12  30  55  80 114 154 205 276 338 392 462
#     4  12  28  51  86 114 160 213 260 328 406 462
#
# _framework density 27.227186
#
# number of rings (size 3 to 8) (size 9 to 14) (size 15 to 20)
#    0.000    0.000    5.000    3.000    3.500    4.000 
#    0.000    0.000    0.000    0.000    0.000    0.000 
#    0.000    0.000    0.000    0.000    0.000    0.000 
#
# Total GULP energy -44694.974020 kJ/mol
# GULP energy per Si atom -5586.871752 kJ/mol
# Density = 2.716522 g / cm^3
# Si number density = 27.227186 Si / 1000 Ang^3
#
#
#
# Elastic Constant Matrix: (Units=GPa)
#
#
# Indices 1 2 3 4 5 6 
#
# 1 193.6418 69.7236 71.5497 0.0000 -3.2279 0.0000
# 2 69.7236 105.5865 29.7727 0.0000 -28.6136 0.0000
# 3 71.5497 29.7727 117.0204 0.0000 -18.7790 0.0000
# 4 0.0000 0.0000 0.0000 44.9981 0.0000 -18.2363
# 5 -3.2279 -28.6136 -18.7790 0.0000 66.5550 0.0000
# 6 0.0000 0.0000 0.0000 -18.2363 0.0000 56.4077
#
#
#
# Elastic Compliance Matrix: (Units=1/GPa)
#
#
# Indices 1 2 3 4 5 6 
#
# 1 0.008671 -0.005317 -0.004450 0.000000 -0.003121 0.000000
# 2 -0.005317 0.014487 0.000548 0.000000 0.006125 0.000000
# 3 -0.004450 0.000548 0.011658 0.000000 0.003309 0.000000
# 4 0.000000 0.000000 0.000000 0.025574 0.000000 0.008268
# 5 -0.003121 0.006125 0.003309 0.000000 0.018441 0.000000
# 6 0.000000 0.000000 0.000000 0.008268 0.000000 0.020401
#
#
# Mechanical properties :
#
#
# Convention : Reuss Voigt Hill
#
# Bulk Modulus (GPa) = 61.05489 84.26008 72.65748
# Shear Modulus (GPa) = 40.60830 49.93899 45.27365
#
# Velocity S-wave (km/s) = 3.86613 4.28735 4.08218
# Velocity P-wave (km/s) = 6.51170 7.45136 6.99732
#
# Compressibility (1/GPa) = 0.01637871
#
# Stress axis : x y z
#
# Youngs Moduli (GPa) = 115.33261 69.02680 85.77968
#
# Poissons Ratio (x) = 0.36699 0.38168
# Poissons Ratio (y) = 0.61318 -0.04699
# Poissons Ratio (z) = 0.51318 -0.03781
#
# Static dielectric constant tensor:
#      x y z
#    x 2.223530 0.000000 -0.199090 
#    y 0.000000 2.282670 0.000000 
#    z -0.199090 0.000000 2.268970 
# 
# From -- ./inp_files/192.got.cif
#   From: 2010.05.17/outbox.cif.g08.bks.cpg/sg9_1_cif.got.tgz:192.got - 2010.06.03 20:04:27.
