data_PCOD9141449
_publ_section_title
;
Structure prediction by ZEFSAII (Michael W. Deem and Ramdas Pophale) SiO2 
 PCOD9141449
Probable space group: P 2/M
;
_chemical_formula_sum "Si O2"
_cell_formula_units_Z 26
_cell_length_a 6.911440
_cell_length_b 28.932286
_cell_length_c 5.339676
_cell_angle_alpha 90.000000
_cell_angle_beta 76.836645
_cell_angle_gamma 90.000000
_cell_volume 1039.686505
_symmetry_space_group_name_H-M "P 2/M"
_symmetry_group_IT_number 10
_symmetry_cell_setting 'monoclinic'
loop_
_space_group_symop_operation_xyz
x,y,z
-x,y,-z
-x,-y,-z
x,-y,z
loop_
_atom_site_type_symbol
_atom_site_label
_atom_site_fract_x
_atom_site_fract_y
_atom_site_fract_z
Si Si1 0.265650 0.596174 0.500555
Si Si2 0.242346 0.947192 0.928886
Si Si3 0.281679 0.369663 0.000905
Si Si4 0.242138 0.211858 0.427988
Si Si5 0.240465 0.734916 0.928789
Si Si6 0.757632 0.893845 0.570954
Si Si7 0.363285 0.500000 0.291970
O O1 0.500000 0.602776 0.500000
O O2 0.196042 0.631866 0.307885
O O3 0.240383 0.546957 0.369499
O O4 0.182780 0.601777 0.804909
O O5 0.300589 0.915401 0.677914
O O6 0.308624 0.000000 0.877224
O O7 0.300553 0.925619 0.177820
O O8 0.000000 0.948052 0.000000
O O9 0.500000 0.389783 0.000000
O O10 0.306443 0.318006 0.890876
O O11 0.300271 0.234154 0.675083
O O12 0.308626 0.158979 0.378883
O O13 0.000000 0.210817 0.500000
O O14 0.300903 0.242767 0.174245
O O15 0.000000 0.733158 0.000000
O O16 0.000000 0.893025 0.500000
O O17 0.500000 0.500000 0.500000
O O18 0.500000 0.500000 0.000000
#
# Coordination Sequence:
#
# PCOD9141449 Si02
#       7
#     4   4   4   4   4   4   2
#     4   9  17  28  44  67  93 118 143 176 215 259
#     4   9  15  21  30  46  69  98 133 169 206 253
#     4  10  19  31  46  67  93 118 144 177 221 264
#     4   9  17  28  42  59  79 106 146 189 220 250
#     4  10  19  31  46  64  85 113 151 188 217 253
#     4   9  15  23  34  48  69  98 133 174 212 245
#     4  10  16  26  44  68  95 120 145 178 217 254
#
# _framework density 25.007538
#
# number of rings (size 3 to 8) (size 9 to 14) (size 15 to 20)
#    0.000    2.615    0.000    4.615    0.000    5.538 
#    0.000    0.000    0.000    0.000    0.000    3.231 
#    0.000    0.000    0.000    0.000    0.000   53.846 
#
# Total GULP energy -145442.801093 kJ/mol
# GULP energy per Si atom -5593.953888 kJ/mol
# Density = 2.495062 g / cm^3
# Si number density = 25.007538 Si / 1000 Ang^3
#
#
#
# Elastic Constant Matrix: (Units=GPa)
#
#
# Indices 1 2 3 4 5 6 
#
# 1 87.7571 -18.3497 17.2673 0.0000 6.7246 0.0000
# 2 -18.3497 171.1072 73.0439 0.0000 14.9110 0.0000
# 3 17.2673 73.0439 208.3779 0.0000 28.5267 0.0000
# 4 0.0000 0.0000 0.0000 49.1098 0.0000 2.5786
# 5 6.7246 14.9110 28.5267 0.0000 48.2437 0.0000
# 6 0.0000 0.0000 0.0000 2.5786 0.0000 16.2202
#
#
#
# Elastic Compliance Matrix: (Units=1/GPa)
#
#
# Indices 1 2 3 4 5 6 
#
# 1 0.012251 0.002103 -0.001556 0.000000 -0.001438 0.000000
# 2 0.002103 0.007260 -0.002581 0.000000 -0.001011 0.000000
# 3 -0.001556 -0.002581 0.006195 0.000000 -0.002649 0.000000
# 4 0.000000 0.000000 0.000000 0.020534 0.000000 -0.003264
# 5 -0.001438 -0.001011 -0.002649 0.000000 0.022807 0.000000
# 6 0.000000 0.000000 0.000000 -0.003264 0.000000 0.062171
#
#
# Mechanical properties :
#
#
# Convention : Reuss Voigt Hill
#
# Bulk Modulus (GPa) = 46.21124 67.90723 57.05924
# Shear Modulus (GPa) = 35.08852 49.06680 42.07766
#
# Velocity S-wave (km/s) = 3.74989 4.43434 4.10640
# Velocity P-wave (km/s) = 6.10474 7.30969 6.73422
#
# Compressibility (1/GPa) = 0.02163976
#
# Stress axis : x y z
#
# Youngs Moduli (GPa) = 81.62513 137.74900 161.41821
#
# Poissons Ratio (x) = -0.28971 0.25110
# Poissons Ratio (y) = -0.17167 0.41656
# Poissons Ratio (z) = 0.12698 0.35548
#
# Static dielectric constant tensor:
#      x y z
#    x 2.109320 0.000000 -0.043180 
#    y 0.000000 1.917050 0.000000 
#    z -0.043180 0.000000 1.989060 
# 
# From -- ./inp_files/5356.got.cif
#   From: 2010.05.17/outbox.cif.g08.bks.cpg/sg10_3_cif.got.tgz:5356.got - 2010.06.03 11:33:40.
