data_PCOD9141077
_publ_section_title
;
Structure prediction by ZEFSAII (Michael W. Deem and Ramdas Pophale) SiO2 
 PCOD9141077
Probable space group: C C
;
_chemical_formula_sum "Si O2"
_cell_formula_units_Z 32
_cell_length_a 14.670220
_cell_length_b 8.179350
_cell_length_c 12.961622
_cell_angle_alpha 90.000000
_cell_angle_beta 119.476248
_cell_angle_gamma 90.000000
_cell_volume 1353.983456
_symmetry_space_group_name_H-M "C C"
_symmetry_group_IT_number 9
_symmetry_cell_setting 'monoclinic'
loop_
_space_group_symop_operation_xyz
x,y,z
x,-y,1/2+z
1/2+x,1/2+y,z
1/2+x,1/2-y,1/2+z
loop_
_atom_site_type_symbol
_atom_site_label
_atom_site_fract_x
_atom_site_fract_y
_atom_site_fract_z
Si Si1 0.101300 0.531575 0.191240
Si Si2 0.149337 0.033698 0.004802
Si Si3 0.951872 0.400893 0.260517
Si Si4 0.748193 0.823131 0.142890
Si Si5 0.443270 0.241996 0.368725
Si Si6 0.992330 0.216028 0.494381
Si Si7 0.283289 0.450691 0.937983
Si Si8 0.809521 0.675000 0.492853
O O1 0.154356 0.437459 0.126458
O O2 0.197141 0.609413 0.308447
O O3 0.050801 0.398359 0.239099
O O4 0.015943 0.656045 0.098774
O O5 0.220389 0.966313 0.949342
O O6 0.050677 0.154667 0.926672
O O7 0.099656 0.876341 0.030449
O O8 0.215663 0.134172 0.125869
O O9 0.951361 0.589013 0.296489
O O10 0.960208 0.300133 0.369460
O O11 0.859956 0.341483 0.134437
O O12 0.848519 0.850651 0.269862
O O13 0.769272 0.857210 0.036512
O O14 0.399169 0.170026 0.453293
O O15 0.901898 0.088514 0.472409
O O16 0.266626 0.642527 0.951779
#
# Coordination Sequence:
#
# PCOD9141077 Si02
#       8
#     4   4   4   4   4   4   4   4
#     4  12  25  51  76 110 160 209 259 335 406 484
#     4  12  26  49  76 115 149 211 265 325 411 485
#     4  12  27  49  78 114 157 206 268 339 400 492
#     4  12  26  49  75 110 155 203 267 332 402 483
#     4  12  26  53  75 115 161 207 267 335 405 491
#     4  12  28  48  79 116 156 211 268 328 415 487
#     4  12  28  50  75 116 159 207 267 338 400 491
#     4  12  26  49  80 114 161 206 269 334 407 485
#
# _framework density 23.633966000000001
#
# number of rings (size 3 to 8) (size 9 to 14) (size 15 to 20)
#    0.000    0.000    3.750    6.000    7.000    0.000 
#    4.500    0.000    0.000    0.000    0.000    0.000 
#    0.000    0.000    0.000    0.000    0.000    0.000 
#
# Total GULP energy -89520.458070 kJ/mol
# GULP energy per Si atom -5595.028629 kJ/mol
# Density = 2.358017 g / cm^3
# Si number density = 23.633966 Si / 1000 Ang^3
#
#
#
# Elastic Constant Matrix: (Units=GPa)
#
#
# Indices 1 2 3 4 5 6 
#
# 1 113.3083 33.1206 40.8888 0.0000 4.8714 0.0000
# 2 33.1206 83.1939 46.5300 0.0000 4.0308 0.0000
# 3 40.8888 46.5300 128.4925 0.0000 0.5587 0.0000
# 4 0.0000 0.0000 0.0000 39.2861 0.0000 0.4905
# 5 4.8714 4.0308 0.5587 0.0000 41.3449 0.0000
# 6 0.0000 0.0000 0.0000 0.4905 0.0000 50.3374
#
#
#
# Elastic Compliance Matrix: (Units=1/GPa)
#
#
# Indices 1 2 3 4 5 6 
#
# 1 0.010535 -0.002854 -0.002315 0.000000 -0.000932 0.000000
# 2 -0.002854 0.015927 -0.004854 0.000000 -0.001151 0.000000
# 3 -0.002315 -0.004854 0.010274 0.000000 0.000607 0.000000
# 4 0.000000 0.000000 0.000000 0.025457 0.000000 -0.000248
# 5 -0.000932 -0.001151 0.000607 0.000000 0.024401 0.000000
# 6 0.000000 0.000000 0.000000 -0.000248 0.000000 0.019868
#
#
# Mechanical properties :
#
#
# Convention : Reuss Voigt Hill
#
# Bulk Modulus (GPa) = 59.91671 62.89706 61.40688
# Shear Modulus (GPa) = 37.85774 39.82405 38.84089
#
# Velocity S-wave (km/s) = 4.00664 4.10937 4.05833
# Velocity P-wave (km/s) = 6.84187 7.01332 6.92813
#
# Compressibility (1/GPa) = 0.01668984
#
# Stress axis : x y z
#
# Youngs Moduli (GPa) = 94.91967 62.78559 97.32954
#
# Poissons Ratio (x) = 0.17922 0.22530
# Poissons Ratio (y) = 0.27094 0.47246
# Poissons Ratio (z) = 0.21972 0.30478
#
# Static dielectric constant tensor:
#      x y z
#    x 1.952070 0.000000 0.040350 
#    y 0.000000 1.901210 0.000000 
#    z 0.040350 0.000000 1.874460 
# 
# From -- ./inp_files/17990.got.cif
#   From: 2010.05.17/outbox.cif.g08.bks.cpg/sg9_9_cif.got.tgz:17990.got - 2010.06.03 20:04:27.
