data_PCOD9141911
_publ_section_title
;
Structure prediction by ZEFSAII (Michael W. Deem and Ramdas Pophale) SiO2 
 PCOD9141911
Probable space group: P 2/M
;
_chemical_formula_sum "Si O2"
_cell_formula_units_Z 32
_cell_length_a 12.164031
_cell_length_b 8.832541
_cell_length_c 22.176129
_cell_angle_alpha 90.000000
_cell_angle_beta 128.394445
_cell_angle_gamma 90.000000
_cell_volume 1867.361972
_symmetry_space_group_name_H-M "P 2/M"
_symmetry_group_IT_number 10
_symmetry_cell_setting 'monoclinic'
loop_
_space_group_symop_operation_xyz
x,y,z
-x,y,-z
-x,-y,-z
x,-y,z
loop_
_atom_site_type_symbol
_atom_site_label
_atom_site_fract_x
_atom_site_fract_y
_atom_site_fract_z
Si Si1 0.951725 0.325170 0.669053
Si Si2 0.159896 0.817796 0.035978
Si Si3 0.277134 0.674699 0.824356
Si Si4 0.951697 0.817149 0.417071
Si Si5 0.356231 0.182031 0.730866
Si Si6 0.131225 0.818132 0.239036
Si Si7 0.161441 0.317746 0.907806
Si Si8 0.349520 0.815920 0.214640
O O1 0.910166 0.500000 0.651895
O O2 0.866266 0.238741 0.691519
O O3 0.114010 0.319942 0.747251
O O4 0.953778 0.249726 0.604260
O O5 0.260095 0.773714 0.125156
O O6 0.166308 0.000000 0.030493
O O7 0.199553 0.739475 0.986904
O O8 0.000000 0.779806 0.000000
O O9 0.322994 0.500000 0.839078
O O10 0.359926 0.765534 0.801726
O O11 0.268115 0.729131 0.890414
O O12 0.791356 0.768851 0.348588
O O13 0.000000 0.770857 0.500000
O O14 0.956993 0.000000 0.415447
O O15 0.491749 0.237118 0.740604
O O16 0.356795 0.000000 0.730636
O O17 0.264496 0.768151 0.244867
O O18 0.990870 0.751110 0.160452
O O19 0.120941 0.000000 0.234001
O O20 0.152179 0.500000 0.902573
O O21 0.352029 0.000000 0.217049
#
# Coordination Sequence:
#
# PCOD9141911 Si02
#       8
#     4   4   4   4   4   4   4   4
#     4   9  17  29  46  72 100 123 155 195 232 274
#     4  10  18  31  47  65  90 122 159 200 240 279
#     4   8  16  30  45  63  91 121 151 191 232 275
#     4   9  17  30  51  78 101 122 153 191 231 277
#     4   9  17  31  50  70  93 121 154 191 230 279
#     4  10  17  29  48  68  93 125 159 196 237 276
#     4  10  19  30  45  68  94 120 157 203 243 279
#     4   9  18  31  47  68  93 122 157 195 237 281
#
# _framework density 17.136474
#
# number of rings (size 3 to 8) (size 9 to 14) (size 15 to 20)
#    0.000    2.750    1.250    1.875    0.000    4.000 
#    0.000    2.500    0.000    4.500    0.000    5.250 
#    0.000    0.000    0.000    0.000    0.000    0.000 
#
# Total GULP energy -178302.460679 kJ/mol
# GULP energy per Si atom -5571.951896 kJ/mol
# Density = 1.709747 g / cm^3
# Si number density = 17.136474 Si / 1000 Ang^3
#
#
#
# Elastic Constant Matrix: (Units=GPa)
#
#
# Indices 1 2 3 4 5 6 
#
# 1 136.9023 31.2993 58.4825 0.0000 -25.9923 0.0000
# 2 31.2993 28.2988 22.1699 0.0000 -9.5103 0.0000
# 3 58.4825 22.1699 73.6256 0.0000 -28.7466 0.0000
# 4 0.0000 0.0000 0.0000 12.5683 0.0000 -1.1687
# 5 -25.9923 -9.5103 -28.7466 0.0000 30.3834 0.0000
# 6 0.0000 0.0000 0.0000 -1.1687 0.0000 -2.6984
#
#
#
# Elastic Compliance Matrix: (Units=1/GPa)
#
#
# Indices 1 2 3 4 5 6 
#
# 1 0.012281 -0.007709 -0.006778 0.000000 0.001681 0.000000
# 2 -0.007709 0.051167 -0.008889 0.000000 0.001011 0.000000
# 3 -0.006778 -0.008889 0.029009 0.000000 0.018865 0.000000
# 4 0.000000 0.000000 0.000000 0.076485 0.000000 -0.033127
# 5 0.001681 0.001011 0.018865 0.000000 0.052515 0.000000
# 6 0.000000 0.000000 0.000000 -0.033127 0.000000 -0.356246
#
#
# Mechanical properties :
#
#
# Convention : Reuss Voigt Hill
#
# Bulk Modulus (GPa) = 21.87953 51.41444 36.64699
# Shear Modulus (GPa) = -68.68005 16.50899 -26.08553
#
# Velocity S-wave (km/s) = -6.33761 3.10721 -3.90580
# Velocity P-wave (km/s) = 6.38421 6.55294 1.04472
#
# Compressibility (1/GPa) = 0.04570482
#
# Stress axis : x y z
#
# Youngs Moduli (GPa) = 81.42363 19.54376 34.47264
#
# Poissons Ratio (x) = 0.15066 0.23365
# Poissons Ratio (y) = 0.62768 0.30644
# Poissons Ratio (z) = 0.55189 0.17373
#
# Static dielectric constant tensor:
#      x y z
#    x 1.595940 0.000000 -0.005150 
#    y 0.000000 1.575570 0.000000 
#    z -0.005150 0.000000 1.570870 
# 
# From -- ./inp_files/52714.got.cif
#   From: 2010.05.17/outbox.cif.g08.bks.cpg/sg10_27_cif.got.tgz:52714.got - 2010.06.03 11:33:40.
