data_PCOD9141174
_publ_section_title
;
Structure prediction by ZEFSAII (Michael W. Deem and Ramdas Pophale) SiO2 
 PCOD9141174
Probable space group: C C
;
_chemical_formula_sum "Si O2"
_cell_formula_units_Z 20
_cell_length_a 9.131887
_cell_length_b 12.300063
_cell_length_c 7.246853
_cell_angle_alpha 90.000000
_cell_angle_beta 58.951302
_cell_angle_gamma 90.000000
_cell_volume 697.366219
_symmetry_space_group_name_H-M "C C"
_symmetry_group_IT_number 9
_symmetry_cell_setting 'monoclinic'
loop_
_space_group_symop_operation_xyz
x,y,z
x,-y,1/2+z
1/2+x,1/2+y,z
1/2+x,1/2-y,1/2+z
loop_
_atom_site_type_symbol
_atom_site_label
_atom_site_fract_x
_atom_site_fract_y
_atom_site_fract_z
Si Si1 0.240910 0.187869 0.919310
Si Si2 0.579023 0.366680 0.874847
Si Si3 0.473329 0.591230 0.829868
Si Si4 0.539977 0.114190 0.454656
Si Si5 0.586143 0.136506 0.002403
O O1 0.384497 0.143076 0.690541
O O2 0.061363 0.145017 0.947586
O O3 0.232662 0.136053 0.129205
O O4 0.202839 0.316430 0.924040
O O5 0.458220 0.464578 0.888864
O O6 0.602237 0.394220 0.074149
O O7 0.528308 0.239620 0.916922
O O8 0.292998 0.642809 0.893243
O O9 0.515513 0.145262 0.256277
O O10 0.564034 0.984636 0.440653
#
# Coordination Sequence:
#
# PCOD9141174 Si02
#       5
#     4   4   4   4   4
#     4  12  29  52  85 118 174 221 286 353 426 507
#     4  12  28  50  90 122 170 224 285 345 441 500
#     4  12  27  52  88 121 173 222 283 356 431 499
#     4  12  29  52  82 125 169 223 286 349 428 510
#     4  12  29  54  87 124 176 224 286 357 428 516
#
# _framework density 28.679338999999999
#
# number of rings (size 3 to 8) (size 9 to 14) (size 15 to 20)
#    0.000    0.000    4.000    3.600    8.400    1.600 
#    0.000    0.000    0.000    0.000    0.000    0.000 
#    0.000    0.000    0.000    0.000    0.000    0.000 
#
# Total GULP energy -56120.072002 kJ/mol
# GULP energy per Si atom -5612.007200 kJ/mol
# Density = 2.861406 g / cm^3
# Si number density = 28.679339 Si / 1000 Ang^3
#
#
#
# Elastic Constant Matrix: (Units=GPa)
#
#
# Indices 1 2 3 4 5 6 
#
# 1 11.2407 16.3005 16.7724 0.0000 -7.3944 0.0000
# 2 16.3005 218.3356 24.2023 0.0000 -9.2368 0.0000
# 3 16.7724 24.2023 185.6139 0.0000 13.6490 0.0000
# 4 0.0000 0.0000 0.0000 52.1698 0.0000 13.2121
# 5 -7.3944 -9.2368 13.6490 0.0000 56.6813 0.0000
# 6 0.0000 0.0000 0.0000 13.2121 0.0000 71.1930
#
#
#
# Elastic Compliance Matrix: (Units=1/GPa)
#
#
# Indices 1 2 3 4 5 6 
#
# 1 0.130453 -0.007598 -0.012173 0.000000 0.018711 0.000000
# 2 -0.007598 0.005137 0.000029 0.000000 -0.000161 0.000000
# 3 -0.012173 0.000029 0.006719 0.000000 -0.003201 0.000000
# 4 0.000000 0.000000 0.000000 0.020114 0.000000 -0.003733
# 5 0.018711 -0.000161 -0.003201 0.000000 0.020828 0.000000
# 6 0.000000 0.000000 0.000000 -0.003733 0.000000 0.014739
#
#
# Mechanical properties :
#
#
# Convention : Reuss Voigt Hill
#
# Bulk Modulus (GPa) = 9.72536 58.86005 34.29271
# Shear Modulus (GPa) = 18.39918 59.86982 39.13450
#
# Velocity S-wave (km/s) = 2.53563 4.57394 3.69799
# Velocity P-wave (km/s) = 3.45991 6.96151 5.49698
#
# Compressibility (1/GPa) = 0.10282397
#
# Stress axis : x y z
#
# Youngs Moduli (GPa) = 7.66558 194.65067 148.82719
#
# Poissons Ratio (x) = 1.47903 1.81170
# Poissons Ratio (y) = 0.05825 -0.00425
# Poissons Ratio (z) = 0.09331 -0.00556
#
# Static dielectric constant tensor:
#      x y z
#    x 2.268740 0.000000 -0.026770 
#    y 0.000000 2.237990 0.000000 
#    z -0.026770 0.000000 2.112380 
# 
# From -- ./inp_files/6914.got.cif
#   From: 2010.05.17/outbox.cif.g08.bks.cpg/sg9_4_cif.got.tgz:6914.got - 2010.06.03 20:04:27.
