data_PCOD9141084
_publ_section_title
;
Structure prediction by ZEFSAII (Michael W. Deem and Ramdas Pophale) SiO2 
 PCOD9141084
Probable space group: C C
;
_chemical_formula_sum "Si O2"
_cell_formula_units_Z 16
_cell_length_a 9.743260
_cell_length_b 9.950745
_cell_length_c 9.188168
_cell_angle_alpha 90.000000
_cell_angle_beta 136.817568
_cell_angle_gamma 90.000000
_cell_volume 609.607508
_symmetry_space_group_name_H-M "C C"
_symmetry_group_IT_number 9
_symmetry_cell_setting 'monoclinic'
loop_
_space_group_symop_operation_xyz
x,y,z
x,-y,1/2+z
1/2+x,1/2+y,z
1/2+x,1/2-y,1/2+z
loop_
_atom_site_type_symbol
_atom_site_label
_atom_site_fract_x
_atom_site_fract_y
_atom_site_fract_z
Si Si1 0.253420 0.942275 0.973140
Si Si2 0.016668 0.899831 0.053981
Si Si3 0.933526 0.308586 0.743963
Si Si4 0.186201 0.411158 0.181007
O O1 0.481901 0.904536 0.114096
O O2 0.119508 0.980267 0.729641
O O3 0.151983 0.855315 0.020880
O O4 0.268743 0.088360 0.061057
O O5 0.989227 0.778470 0.145742
O O6 0.816081 0.960928 0.826704
O O7 0.838609 0.213793 0.795370
O O8 0.104666 0.398320 0.952314
#
# Coordination Sequence:
#
# PCOD9141084 Si02
#       4
#     4   4   4   4
#     4  12  27  50  79 120 161 214 271 329 405 482
#     4  12  26  49  83 117 162 215 267 332 404 479
#     4  12  25  54  81 109 170 212 254 343 402 458
#     4  12  26  49  83 118 161 211 268 332 397 481
#
# _framework density 26.246393999999999
#
# number of rings (size 3 to 8) (size 9 to 14) (size 15 to 20)
#    0.000    0.000    7.500    1.500    0.000    0.000 
#    4.500    2.500    0.000    0.000    0.000    0.000 
#    0.000    0.000    0.000    0.000    0.000    0.000 
#
# Total GULP energy -44755.825609 kJ/mol
# GULP energy per Si atom -5594.478201 kJ/mol
# Density = 2.618666 g / cm^3
# Si number density = 26.246394 Si / 1000 Ang^3
#
#
#
# Elastic Constant Matrix: (Units=GPa)
#
#
# Indices 1 2 3 4 5 6 
#
# 1 224.9756 42.4859 56.8630 0.0000 -9.0489 0.0000
# 2 42.4859 74.9406 48.0430 0.0000 -12.4984 0.0000
# 3 56.8630 48.0430 184.7537 0.0000 -0.0984 0.0000
# 4 0.0000 0.0000 0.0000 38.6572 0.0000 -9.7135
# 5 -9.0489 -12.4984 -0.0984 0.0000 38.9917 0.0000
# 6 0.0000 0.0000 0.0000 -9.7135 0.0000 45.3752
#
#
#
# Elastic Compliance Matrix: (Units=1/GPa)
#
#
# Indices 1 2 3 4 5 6 
#
# 1 0.005132 -0.002178 -0.001013 0.000000 0.000490 0.000000
# 2 -0.002178 0.018031 -0.004015 0.000000 0.005264 0.000000
# 3 -0.001013 -0.004015 0.006768 0.000000 -0.001505 0.000000
# 4 0.000000 0.000000 0.000000 0.027339 0.000000 0.005852
# 5 0.000490 0.005264 -0.001505 0.000000 0.027444 0.000000
# 6 0.000000 0.000000 0.000000 0.005852 0.000000 0.023291
#
#
# Mechanical properties :
#
#
# Convention : Reuss Voigt Hill
#
# Bulk Modulus (GPa) = 64.44392 86.60598 75.52495
# Shear Modulus (GPa) = 39.18776 47.09000 43.13888
#
# Velocity S-wave (km/s) = 3.86822 4.24034 4.05855
# Velocity P-wave (km/s) = 6.67515 7.55267 7.12743
#
# Compressibility (1/GPa) = 0.01551737
#
# Stress axis : x y z
#
# Youngs Moduli (GPa) = 194.85511 55.45966 147.76069
#
# Poissons Ratio (x) = 0.12082 0.14965
# Poissons Ratio (y) = 0.42449 0.59333
# Poissons Ratio (z) = 0.19734 0.22270
#
# Static dielectric constant tensor:
#      x y z
#    x 2.110050 0.000000 0.051910 
#    y 0.000000 2.097260 0.000000 
#    z 0.051910 0.000000 2.089670 
# 
# From -- ./inp_files/4728.got.cif
#   From: 2010.05.17/outbox.cif.g08.bks.cpg/sg9_3_cif.got.tgz:4728.got - 2010.06.03 20:04:27.
