data_PCOD9141538
_publ_section_title
;
Structure prediction by ZEFSAII (Michael W. Deem and Ramdas Pophale) SiO2 
 PCOD9141538
Probable space group: P 2/M
;
_chemical_formula_sum "Si O2"
_cell_formula_units_Z 16
_cell_length_a 9.072481
_cell_length_b 11.923898
_cell_length_c 12.525404
_cell_angle_alpha 90.000000
_cell_angle_beta 33.751122
_cell_angle_gamma 90.000000
_cell_volume 752.814124
_symmetry_space_group_name_H-M "P 2/M"
_symmetry_group_IT_number 10
_symmetry_cell_setting 'monoclinic'
loop_
_space_group_symop_operation_xyz
x,y,z
-x,y,-z
-x,-y,-z
x,-y,z
loop_
_atom_site_type_symbol
_atom_site_label
_atom_site_fract_x
_atom_site_fract_y
_atom_site_fract_z
Si Si1 0.953757 0.133918 0.904460
Si Si2 0.725400 0.500000 0.451958
Si Si3 0.892934 0.253425 0.385102
Si Si4 0.673881 0.500000 0.715621
Si Si5 0.401801 0.251509 0.215205
O O1 0.669176 0.183928 0.042917
O O2 0.956488 0.000000 0.897977
O O3 0.000000 0.167637 0.000000
O O4 0.150194 0.183910 0.696630
O O5 0.500000 0.500000 0.500000
O O6 0.892526 0.384839 0.351439
O O7 0.570944 0.500000 0.657089
O O8 0.685774 0.242893 0.607483
O O9 0.162856 0.214992 0.282047
O O10 0.579530 0.384218 0.821344
O O11 0.000000 0.500000 0.500000
#
# Coordination Sequence:
#
# PCOD9141538 Si02
#       5
#     4   2   4   2   4
#     4  11  27  44  58  87 126 163 210 258 301 358
#     4  10  20  33  62  99 128 156 192 245 306 374
#     4  10  21  40  66  93 123 160 202 247 306 366
#     4  10  16  37  62  95 128 150 192 245 304 374
#     4  10  20  40  68  91 123 161 199 249 308 361
#
# _framework density 21.253587
#
# number of rings (size 3 to 8) (size 9 to 14) (size 15 to 20)
#    0.000    1.750    5.000    0.750    7.000    4.000 
#    0.000    8.750    0.000    0.000    0.000    0.000 
#    0.000    0.000    0.000    0.000    0.000    0.000 
#
# Total GULP energy -89249.935603 kJ/mol
# GULP energy per Si atom -5578.120975 kJ/mol
# Density = 2.120521 g / cm^3
# Si number density = 21.253587 Si / 1000 Ang^3
#
#
#
# Elastic Constant Matrix: (Units=GPa)
#
#
# Indices 1 2 3 4 5 6 
#
# 1 91.0852 17.9814 39.8900 0.0000 24.0296 0.0000
# 2 17.9814 68.8603 34.5129 0.0000 18.4858 0.0000
# 3 39.8900 34.5129 83.8014 0.0000 28.4667 0.0000
# 4 0.0000 0.0000 0.0000 17.4552 0.0000 23.2458
# 5 24.0296 18.4858 28.4667 0.0000 41.8641 0.0000
# 6 0.0000 0.0000 0.0000 23.2458 0.0000 50.6179
#
#
#
# Elastic Compliance Matrix: (Units=1/GPa)
#
#
# Indices 1 2 3 4 5 6 
#
# 1 0.014561 0.000177 -0.005381 0.000000 -0.004777 0.000000
# 2 0.000177 0.018790 -0.006463 0.000000 -0.004004 0.000000
# 3 -0.005381 -0.006463 0.019684 0.000000 -0.007442 0.000000
# 4 0.000000 0.000000 0.000000 0.147498 0.000000 -0.067737
# 5 -0.004777 -0.004004 -0.007442 0.000000 0.033457 0.000000
# 6 0.000000 0.000000 0.000000 -0.067737 0.000000 0.050863
#
#
# Mechanical properties :
#
#
# Convention : Reuss Voigt Hill
#
# Bulk Modulus (GPa) = 33.66843 47.61281 40.64062
# Shear Modulus (GPa) = 15.71898 32.07829 23.89864
#
# Velocity S-wave (km/s) = 2.72249 3.88920 3.35692
# Velocity P-wave (km/s) = 5.07527 6.52830 5.84710
#
# Compressibility (1/GPa) = 0.02970141
#
# Stress axis : x y z
#
# Youngs Moduli (GPa) = 68.67831 53.22009 50.80224
#
# Poissons Ratio (x) = -0.00944 0.27338
# Poissons Ratio (y) = -0.01218 0.32831
# Poissons Ratio (z) = 0.36958 0.34394
#
# Static dielectric constant tensor:
#      x y z
#    x 1.790810 0.000000 0.021900 
#    y 0.000000 1.755420 0.000000 
#    z 0.021900 0.000000 1.838560 
# 
# From -- ./inp_files/23361.got.cif
#   From: 2010.05.17/outbox.cif.g08.bks.cpg/sg10_12_cif.got.tgz:23361.got - 2010.06.03 11:33:40.
