data_PCOD9141912
_publ_section_title
;
Structure prediction by ZEFSAII (Michael W. Deem and Ramdas Pophale) SiO2 
 PCOD9141912
Probable space group: P 2/M
;
_chemical_formula_sum "Si O2"
_cell_formula_units_Z 32
_cell_length_a 12.119325
_cell_length_b 8.834934
_cell_length_c 22.245008
_cell_angle_alpha 90.000000
_cell_angle_beta 128.272625
_cell_angle_gamma 90.000000
_cell_volume 1869.924269
_symmetry_space_group_name_H-M "P 2/M"
_symmetry_group_IT_number 10
_symmetry_cell_setting 'monoclinic'
loop_
_space_group_symop_operation_xyz
x,y,z
-x,y,-z
-x,-y,-z
x,-y,z
loop_
_atom_site_type_symbol
_atom_site_label
_atom_site_fract_x
_atom_site_fract_y
_atom_site_fract_z
Si Si1 0.649032 0.183962 0.786988
Si Si2 0.724758 0.325454 0.177348
Si Si3 0.131106 0.819145 0.236560
Si Si4 0.944090 0.316775 0.415917
Si Si5 0.053288 0.325522 0.329150
Si Si6 0.839890 0.182426 0.964315
Si Si7 0.162947 0.317989 0.908122
Si Si8 0.651783 0.180932 0.273425
O O1 0.734575 0.231414 0.756840
O O2 0.738378 0.228490 0.875783
O O3 0.489124 0.234245 0.740688
O O4 0.647105 0.000000 0.785854
O O5 0.676897 0.500000 0.163382
O O6 0.731908 0.271995 0.110705
O O7 0.646301 0.229952 0.201476
O O8 0.889233 0.323862 0.253124
O O9 0.135045 0.770033 0.307262
O O10 0.991128 0.746724 0.160325
O O11 0.117812 0.000000 0.227481
O O12 0.935593 0.500000 0.410547
O O13 0.790942 0.251495 0.349623
O O14 0.000000 0.271758 0.500000
O O15 0.046970 0.270669 0.395717
O O16 0.100237 0.500000 0.342813
O O17 0.834526 0.000000 0.969015
O O18 0.799803 0.257465 0.013781
O O19 0.000000 0.221894 0.000000
O O20 0.156678 0.500000 0.905110
O O21 0.661171 0.000000 0.279526
#
# Coordination Sequence:
#
# PCOD9141912 Si02
#       8
#     4   4   4   4   4   4   4   4
#     4   9  19  33  47  68  98 129 160 199 244 285
#     4   8  16  31  47  64  94 129 158 195 243 291
#     4  10  17  29  48  68  94 130 165 194 237 289
#     4   9  18  34  55  76 101 130 154 185 235 288
#     4   8  15  28  46  72  99 119 152 200 236 268
#     4  10  18  32  50  66  90 128 168 203 243 291
#     4  10  19  30  45  69  96 120 157 211 253 278
#     4  10  19  32  51  74  99 124 158 201 236 278
#
# _framework density 17.112991000000001
#
# number of rings (size 3 to 8) (size 9 to 14) (size 15 to 20)
#    0.000    2.750    1.250    2.625    0.000    5.500 
#    0.000    4.375    0.000    4.500    0.000    5.250 
#    0.000    0.000    0.000    0.000    0.000    0.000 
#
# Total GULP energy -178298.485168 kJ/mol
# GULP energy per Si atom -5571.827661 kJ/mol
# Density = 1.707404 g / cm^3
# Si number density = 17.112991 Si / 1000 Ang^3
#
#
#
# Elastic Constant Matrix: (Units=GPa)
#
#
# Indices 1 2 3 4 5 6 
#
# 1 118.4049 28.7525 57.2717 0.0000 -23.1960 0.0000
# 2 28.7525 25.5268 20.5343 0.0000 -7.4356 0.0000
# 3 57.2717 20.5343 85.8550 0.0000 -29.1965 0.0000
# 4 0.0000 0.0000 0.0000 217.9564 0.0000 227.9225
# 5 -23.1960 -7.4356 -29.1965 0.0000 28.6010 0.0000
# 6 0.0000 0.0000 0.0000 227.9225 0.0000 301.3218
#
#
#
# Elastic Compliance Matrix: (Units=1/GPa)
#
#
# Indices 1 2 3 4 5 6 
#
# 1 0.014579 -0.010588 -0.006292 0.000000 0.002648 0.000000
# 2 -0.010588 0.056223 -0.006638 0.000000 -0.000747 0.000000
# 3 -0.006292 -0.006638 0.023145 0.000000 0.016798 0.000000
# 4 0.000000 0.000000 0.000000 0.021952 0.000000 -0.016605
# 5 0.002648 -0.000747 0.016798 0.000000 0.054065 0.000000
# 6 0.000000 0.000000 0.000000 -0.016605 0.000000 0.015879
#
#
# Mechanical properties :
#
#
# Convention : Reuss Voigt Hill
#
# Bulk Modulus (GPa) = 21.31743 49.21150 35.26446
# Shear Modulus (GPa) = 20.11937 117.79106 68.95521
#
# Velocity S-wave (km/s) = 3.43254 8.30547 6.35465
# Velocity P-wave (km/s) = 5.30977 10.99062 8.63097
#
# Compressibility (1/GPa) = 0.04690997
#
# Stress axis : x y z
#
# Youngs Moduli (GPa) = 68.59117 17.78635 43.20554
#
# Poissons Ratio (x) = 0.18833 0.27187
# Poissons Ratio (y) = 0.72627 0.28679
# Poissons Ratio (z) = 0.43161 0.11806
#
# Static dielectric constant tensor:
#      x y z
#    x 1.594790 0.000000 -0.028270 
#    y 0.000000 1.577550 0.000000 
#    z -0.028270 0.000000 1.579290 
# 
# From -- ./inp_files/83373.got.cif
#   From: 2010.05.17/outbox.cif.g08.bks.cpg/sg10_42_cif.got.tgz:83373.got - 2010.06.03 11:33:40.
