data_PCOD9141955
_publ_section_title
;
Structure prediction by ZEFSAII (Michael W. Deem and Ramdas Pophale) SiO2 
 PCOD9141955
Probable space group: P 2/M
;
_chemical_formula_sum "Si O2"
_cell_formula_units_Z 32
_cell_length_a 19.367148
_cell_length_b 8.297245
_cell_length_c 12.626613
_cell_angle_alpha 90.000000
_cell_angle_beta 122.714744
_cell_angle_gamma 90.000000
_cell_volume 1707.160575
_symmetry_space_group_name_H-M "P 2/M"
_symmetry_group_IT_number 10
_symmetry_cell_setting 'monoclinic'
loop_
_space_group_symop_operation_xyz
x,y,z
-x,y,-z
-x,-y,-z
x,-y,z
loop_
_atom_site_type_symbol
_atom_site_label
_atom_site_fract_x
_atom_site_fract_y
_atom_site_fract_z
Si Si1 0.732230 0.694416 0.844413
Si Si2 0.979137 0.318177 0.185243
Si Si3 0.283566 0.806576 0.507838
Si Si4 0.593450 0.305039 0.565691
Si Si5 0.238242 0.812447 0.690379
Si Si6 0.943314 0.819633 0.555141
Si Si7 0.197621 0.809570 0.888122
Si Si8 0.857671 0.304926 0.769279
O O1 0.733785 0.500000 0.852666
O O2 0.651372 0.742922 0.712286
O O3 0.810342 0.744648 0.836760
O O4 0.740263 0.766093 0.966982
O O5 0.961997 0.500000 0.135351
O O6 0.891844 0.244865 0.144329
O O7 0.030325 0.309767 0.337351
O O8 0.048523 0.245820 0.164488
O O9 0.360627 0.756582 0.500669
O O10 0.289442 0.743049 0.633709
O O11 0.202448 0.747628 0.376665
O O12 0.277771 0.000000 0.507795
O O13 0.500000 0.250146 0.500000
O O14 0.594132 0.500000 0.562500
O O15 0.147861 0.810690 0.563944
O O16 0.226815 0.740364 0.798363
O O17 0.264144 0.000000 0.725707
O O18 0.000000 0.806270 0.500000
O O19 0.955955 0.000000 0.612550
O O20 0.191328 0.000000 0.867989
O O21 0.860499 0.500000 0.769799
#
# Coordination Sequence:
#
# PCOD9141955 Si02
#       8
#     4   4   4   4   4   4   4   4
#     4   9  19  37  55  74 100 130 168 209 251 302
#     4  11  21  31  46  71  99 134 182 229 266 298
#     4  10  18  30  53  82 107 130 166 214 255 295
#     4   9  19  38  63  86 109 134 155 189 253 320
#     4   9  18  31  48  70 101 140 173 210 259 303
#     4  10  17  30  47  64  94 137 179 221 265 300
#     4  11  22  36  50  68 100 144 184 212 255 308
#     4   9  19  34  50  69 101 139 172 216 271 312
#
# _framework density 18.744574
#
# number of rings (size 3 to 8) (size 9 to 14) (size 15 to 20)
#    0.000    2.250    2.500    1.875    0.000    3.500 
#    0.000    5.000    0.000    0.750    0.000    5.250 
#    0.000    0.000    0.000    0.000    0.000    0.000 
#
# Total GULP energy -178327.191872 kJ/mol
# GULP energy per Si atom -5572.724746 kJ/mol
# Density = 1.870191 g / cm^3
# Si number density = 18.744574 Si / 1000 Ang^3
#
#
#
# Elastic Constant Matrix: (Units=GPa)
#
#
# Indices 1 2 3 4 5 6 
#
# 1 123.3561 12.1169 59.1876 0.0000 -6.9260 0.0000
# 2 12.1169 11.3889 7.3873 0.0000 -0.1532 0.0000
# 3 59.1876 7.3873 90.6464 0.0000 -18.5965 0.0000
# 4 0.0000 0.0000 0.0000 21.7057 0.0000 -4.5994
# 5 -6.9260 -0.1532 -18.5965 0.0000 16.3186 0.0000
# 6 0.0000 0.0000 0.0000 -4.5994 0.0000 31.5016
#
#
#
# Elastic Compliance Matrix: (Units=1/GPa)
#
#
# Indices 1 2 3 4 5 6 
#
# 1 0.012774 -0.008075 -0.008596 0.000000 -0.004450 0.000000
# 2 -0.008075 0.099104 -0.004328 0.000000 -0.007429 0.000000
# 3 -0.008596 -0.004328 0.021196 0.000000 0.020466 0.000000
# 4 0.000000 0.000000 0.000000 0.047542 0.000000 0.006941
# 5 -0.004450 -0.007429 0.020466 0.000000 0.082644 0.000000
# 6 0.000000 0.000000 0.000000 0.006941 0.000000 0.032758
#
#
# Mechanical properties :
#
#
# Convention : Reuss Voigt Hill
#
# Bulk Modulus (GPa) = 10.97985 42.53056 26.75521
# Shear Modulus (GPa) = 13.57316 23.68513 18.62914
#
# Velocity S-wave (km/s) = 2.69385 3.55853 3.15595
# Velocity P-wave (km/s) = 3.94286 6.29468 5.25210
#
# Compressibility (1/GPa) = 0.09107589
#
# Stress axis : x y z
#
# Youngs Moduli (GPa) = 78.28193 10.09045 47.17908
#
# Poissons Ratio (x) = 0.08148 0.40554
# Poissons Ratio (y) = 0.63214 0.20419
# Poissons Ratio (z) = 0.67290 0.04367
#
# Static dielectric constant tensor:
#      x y z
#    x 1.690040 0.000000 -0.034720 
#    y 0.000000 1.672670 0.000000 
#    z -0.034720 0.000000 1.657080 
# 
# From -- ./inp_files/54872.got.cif
#   From: 2010.05.17/outbox.cif.g08.bks.cpg/sg10_28_cif.got.tgz:54872.got - 2010.06.03 11:33:40.
