data_PCOD9141806
_publ_section_title
;
Structure prediction by ZEFSAII (Michael W. Deem and Ramdas Pophale) SiO2 
 PCOD9141806
Probable space group: P 2/M
;
_chemical_formula_sum "Si O2"
_cell_formula_units_Z 32
_cell_length_a 15.455543
_cell_length_b 8.486758
_cell_length_c 16.895112
_cell_angle_alpha 90.000000
_cell_angle_beta 67.432553
_cell_angle_gamma 90.000000
_cell_volume 2046.399365
_symmetry_space_group_name_H-M "P 2/M"
_symmetry_group_IT_number 10
_symmetry_cell_setting 'monoclinic'
loop_
_space_group_symop_operation_xyz
x,y,z
-x,y,-z
-x,-y,-z
x,-y,z
loop_
_atom_site_type_symbol
_atom_site_label
_atom_site_fract_x
_atom_site_fract_y
_atom_site_fract_z
Si Si1 0.591180 0.820335 0.244265
Si Si2 0.739274 0.679437 0.491438
Si Si3 0.763524 0.313660 0.731528
Si Si4 0.371947 0.827202 0.345489
Si Si5 0.563467 0.312984 0.087007
Si Si6 0.893568 0.811187 0.558242
Si Si7 0.402706 0.189524 0.579884
Si Si8 0.362348 0.187768 0.101756
O O1 0.478813 0.829840 0.286894
O O2 0.607523 0.729407 0.156786
O O3 0.611087 0.752103 0.324832
O O4 0.628403 0.000000 0.225515
O O5 0.762211 0.500000 0.464374
O O6 0.654658 0.691877 0.584458
O O7 0.824668 0.756340 0.510975
O O8 0.691006 0.766358 0.435039
O O9 0.690652 0.207319 0.707752
O O10 0.859185 0.267990 0.652653
O O11 0.732527 0.266029 0.830479
O O12 0.651687 0.000000 0.611288
O O13 0.251658 0.500000 0.273772
O O14 0.562001 0.500000 0.076838
O O15 0.455845 0.252821 0.113804
O O16 0.620033 0.233050 0.995590
O O17 0.000000 0.769463 0.500000
O O18 0.886531 0.000000 0.568738
O O19 0.500000 0.241111 0.500000
O O20 0.411831 0.000000 0.582312
O O21 0.359391 0.000000 0.111833
#
# Coordination Sequence:
#
# PCOD9141806 Si02
#       8
#     4   4   4   4   4   4   4   4
#     4  10  19  30  45  61  86 125 165 201 239 280
#     4  11  21  31  46  69  97 125 158 202 248 288
#     4  11  20  30  47  71  96 122 156 198 247 289
#     4  10  17  28  44  61  86 122 162 195 230 278
#     4  11  21  31  44  64  92 122 161 209 250 285
#     4  10  21  37  56  75  97 129 166 201 243 297
#     4  10  19  33  48  64  90 128 171 207 237 281
#     4  11  20  32  47  63  89 125 166 201 238 291
#
# _framework density 15.637221
#
# number of rings (size 3 to 8) (size 9 to 14) (size 15 to 20)
#    0.000    1.500    2.500    7.500    0.000    2.250 
#    0.000    0.000    0.000    0.000    0.000    0.000 
#    0.000    1.000    0.000   10.500    0.000    5.000 
#
# Total GULP energy -178151.216087 kJ/mol
# GULP energy per Si atom -5567.225503 kJ/mol
# Density = 1.560163 g / cm^3
# Si number density = 15.637221 Si / 1000 Ang^3
#
#
#
# Elastic Constant Matrix: (Units=GPa)
#
#
# Indices 1 2 3 4 5 6 
#
# 1 44.9726 15.7950 35.9584 0.0000 -3.1353 0.0000
# 2 15.7950 75.1153 25.2954 0.0000 -4.2010 0.0000
# 3 35.9584 25.2954 105.6809 0.0000 2.4550 0.0000
# 4 0.0000 0.0000 0.0000 16.7440 0.0000 4.9075
# 5 -3.1353 -4.2010 2.4550 0.0000 25.9351 0.0000
# 6 0.0000 0.0000 0.0000 4.9075 0.0000 1.9830
#
#
#
# Elastic Compliance Matrix: (Units=1/GPa)
#
#
# Indices 1 2 3 4 5 6 
#
# 1 0.031728 -0.003003 -0.010177 0.000000 0.004313 0.000000
# 2 -0.003003 0.014953 -0.002611 0.000000 0.002306 0.000000
# 3 -0.010177 -0.002611 0.013618 0.000000 -0.002942 0.000000
# 4 0.000000 0.000000 0.000000 0.217433 0.000000 -0.538093
# 5 0.004313 0.002306 -0.002942 0.000000 0.039731 0.000000
# 6 0.000000 0.000000 0.000000 -0.538093 0.000000 1.835923
#
#
# Mechanical properties :
#
#
# Convention : Reuss Voigt Hill
#
# Bulk Modulus (GPa) = 34.82227 42.20737 38.51482
# Shear Modulus (GPa) = 2.27838 18.84710 10.56274
#
# Velocity S-wave (km/s) = 1.20838 3.47547 2.60183
# Velocity P-wave (km/s) = 4.92586 6.56928 5.80601
#
# Compressibility (1/GPa) = 0.02871726
#
# Stress axis : x y z
#
# Youngs Moduli (GPa) = 31.51749 66.87838 73.42981
#
# Poissons Ratio (x) = 0.20086 0.74730
# Poissons Ratio (y) = 0.09466 0.19170
# Poissons Ratio (z) = 0.32075 0.17459
#
# Static dielectric constant tensor:
#      x y z
#    x 1.517750 0.000000 0.021690 
#    y 0.000000 1.537330 0.000000 
#    z 0.021690 0.000000 1.596140 
# 
# From -- ./inp_files/65991.got.cif
#   From: 2010.05.17/outbox.cif.g08.bks.cpg/sg10_33_cif.got.tgz:65991.got - 2010.06.03 11:33:40.
