data_PCOD9141169
_publ_section_title
;
Structure prediction by ZEFSAII (Michael W. Deem and Ramdas Pophale) SiO2 
 PCOD9141169
Probable space group: C C
;
_chemical_formula_sum "Si O2"
_cell_formula_units_Z 28
_cell_length_a 15.327884
_cell_length_b 8.175575
_cell_length_c 16.571859
_cell_angle_alpha 90.000000
_cell_angle_beta 35.284100
_cell_angle_gamma 90.000000
_cell_volume 1199.560959
_symmetry_space_group_name_H-M "C C"
_symmetry_group_IT_number 9
_symmetry_cell_setting 'monoclinic'
loop_
_space_group_symop_operation_xyz
x,y,z
x,-y,1/2+z
1/2+x,1/2+y,z
1/2+x,1/2-y,1/2+z
loop_
_atom_site_type_symbol
_atom_site_label
_atom_site_fract_x
_atom_site_fract_y
_atom_site_fract_z
Si Si1 0.145360 0.329786 0.481940
Si Si2 0.873243 0.126852 0.097724
Si Si3 0.059381 0.690239 0.593321
Si Si4 0.318768 0.718322 0.697334
Si Si5 0.718270 0.641850 0.588996
Si Si6 0.372733 0.148406 0.897354
Si Si7 0.556232 0.436438 0.829898
O O1 0.120446 0.522533 0.508978
O O2 0.280465 0.281924 0.320905
O O3 0.170512 0.250880 0.549812
O O4 0.994209 0.257119 0.555892
O O5 0.772008 0.247347 0.122135
O O6 0.944674 0.218523 0.120079
O O7 0.785780 0.963591 0.190760
O O8 0.002266 0.059110 0.939807
O O9 0.203544 0.804661 0.498630
O O10 0.978592 0.645966 0.738765
O O11 0.213486 0.850410 0.733914
O O12 0.853256 0.522329 0.458056
O O13 0.582183 0.532546 0.726955
O O14 0.435015 0.293161 0.907060
#
# Coordination Sequence:
#
# PCOD9141169 Si02
#       7
#     4   4   4   4   4   4   4
#     4  12  28  48  78 109 151 202 250 308 376 449
#     4  12  29  48  78 113 152 197 252 311 376 448
#     4  12  28  48  78 109 151 202 250 308 376 449
#     4  12  27  52  74 110 154 197 253 307 379 449
#     4  12  29  48  78 113 152 197 252 311 376 448
#     4  12  27  52  74 110 154 197 253 307 379 449
#     4  12  28  48  78 114 150 198 250 312 378 440
#
# _framework density 23.341871000000001
#
# number of rings (size 3 to 8) (size 9 to 14) (size 15 to 20)
#    0.000    0.000    2.857    5.143   16.000    0.000 
#    0.000    0.000    0.000    0.000    0.000    0.000 
#    0.000    0.000    0.000    0.000    0.000    0.000 
#
# Total GULP energy -78543.591317 kJ/mol
# GULP energy per Si atom -5610.256523 kJ/mol
# Density = 2.328874 g / cm^3
# Si number density = 23.341871 Si / 1000 Ang^3
#
#
#
# Elastic Constant Matrix: (Units=GPa)
#
#
# Indices 1 2 3 4 5 6 
#
# 1 68.1748 5.4793 -14.1894 0.0000 2.4021 0.0000
# 2 5.4793 72.1127 -22.1299 0.0000 1.4248 0.0000
# 3 -14.1894 -22.1299 56.9456 0.0000 11.6653 0.0000
# 4 0.0000 0.0000 0.0000 50.5873 0.0000 9.2196
# 5 2.4021 1.4248 11.6653 0.0000 31.8987 0.0000
# 6 0.0000 0.0000 0.0000 9.2196 0.0000 45.3642
#
#
#
# Elastic Compliance Matrix: (Units=1/GPa)
#
#
# Indices 1 2 3 4 5 6 
#
# 1 0.015707 0.000279 0.004613 0.000000 -0.002882 0.000000
# 2 0.000279 0.016054 0.006983 0.000000 -0.003292 0.000000
# 3 0.004613 0.006983 0.023304 0.000000 -0.009182 0.000000
# 4 0.000000 0.000000 0.000000 0.020528 0.000000 -0.004172
# 5 -0.002882 -0.003292 -0.009182 0.000000 0.035071 0.000000
# 6 0.000000 0.000000 0.000000 -0.004172 0.000000 0.022892
#
#
# Mechanical properties :
#
#
# Convention : Reuss Voigt Hill
#
# Bulk Modulus (GPa) = 12.68809 15.06146 13.87478
# Shear Modulus (GPa) = 36.74330 40.77492 38.75911
#
# Velocity S-wave (km/s) = 3.97184 4.18408 4.07934
# Velocity P-wave (km/s) = 5.14603 5.45972 5.30519
#
# Compressibility (1/GPa) = 0.07881408
#
# Stress axis : x y z
#
# Youngs Moduli (GPa) = 63.66447 62.29045 42.91043
#
# Poissons Ratio (x) = -0.01738 -0.19793
# Poissons Ratio (y) = -0.01776 -0.29962
# Poissons Ratio (z) = -0.29367 -0.43495
#
# Static dielectric constant tensor:
#      x y z
#    x 1.825760 0.000000 0.023750 
#    y 0.000000 1.864500 0.000000 
#    z 0.023750 0.000000 1.857040 
# 
# From -- ./inp_files/8748.got.cif
#   From: 2010.05.17/outbox.cif.g08.bks.cpg/sg9_5_cif.got.tgz:8748.got - 2010.06.03 20:04:27.
