data_PCOD9141563
_publ_section_title
;
Structure prediction by ZEFSAII (Michael W. Deem and Ramdas Pophale) SiO2 
 PCOD9141563
Probable space group: P 2/M
;
_chemical_formula_sum "Si O2"
_cell_formula_units_Z 32
_cell_length_a 5.422397
_cell_length_b 12.252779
_cell_length_c 26.692275
_cell_angle_alpha 90.000000
_cell_angle_beta 78.279077
_cell_angle_gamma 90.000000
_cell_volume 1736.441475
_symmetry_space_group_name_H-M "P 2/M"
_symmetry_group_IT_number 10
_symmetry_cell_setting 'monoclinic'
loop_
_space_group_symop_operation_xyz
x,y,z
-x,y,-z
-x,-y,-z
x,-y,z
loop_
_atom_site_type_symbol
_atom_site_label
_atom_site_fract_x
_atom_site_fract_y
_atom_site_fract_z
Si Si1 0.897252 0.821449 0.352748
Si Si2 0.219291 0.868414 0.530709
Si Si3 0.074212 0.873011 0.175788
Si Si4 0.283447 0.374575 0.966553
Si Si5 0.450943 0.116093 0.299057
Si Si6 0.379275 0.217737 0.870725
Si Si7 0.480361 0.334916 0.769639
Si Si8 0.988902 0.676382 0.261098
O O1 0.836606 0.815274 0.413394
O O2 0.662740 0.876901 0.333435
O O3 0.170390 0.876901 0.333435
O O4 0.929959 0.710597 0.320042
O O5 0.500000 0.841278 0.500000
O O6 0.000000 0.841278 0.500000
O O7 0.211409 0.000000 0.538591
O O8 0.355502 0.847896 0.143004
O O9 0.026113 0.786992 0.223886
O O10 0.858489 0.847896 0.143004
O O11 0.057896 0.000000 0.192104
O O12 0.304727 0.500000 0.945273
O O13 0.325008 0.277730 0.924992
O O14 0.500000 0.365175 0.000000
O O15 0.000000 0.365175 0.000000
O O16 0.490102 0.216406 0.259898
O O17 0.478848 0.000000 0.271152
O O18 0.420622 0.315212 0.829378
O O19 0.750787 0.384230 0.752428
O O20 0.244358 0.384230 0.752428
#
# Coordination Sequence:
#
# PCOD9141563 Si02
#       8
#     4   4   4   4   4   4   4   4
#     4  10  18  26  35  45  61  87 119 162 209 245
#     4  10  19  27  32  39  53  77 114 160 211 258
#     4  10  19  30  47  72  99 127 152 173 213 276
#     4  10  21  38  60  80  94 115 154 200 237 261
#     4  10  17  24  36  53  70  90 121 156 193 242
#     4  10  19  32  50  71  97 123 147 184 228 262
#     4   8  16  25  37  59  83 104 125 155 203 253
#     4   8  16  26  38  57  79 103 135 168 200 247
#
# _framework density 18.428491000000001
#
# number of rings (size 3 to 8) (size 9 to 14) (size 15 to 20)
#    0.000    2.500    0.000    3.000    0.000   10.500 
#    0.000    0.000    0.000    7.500    0.000    0.000 
#    0.000    0.000    0.000    0.000    0.000    0.000 
#
# Total GULP energy -178271.772037 kJ/mol
# GULP energy per Si atom -5570.992876 kJ/mol
# Density = 1.838655 g / cm^3
# Si number density = 18.428491 Si / 1000 Ang^3
#
#
#
# Elastic Constant Matrix: (Units=GPa)
#
#
# Indices 1 2 3 4 5 6 
#
# 1 195.0655 27.0588 43.0074 0.0000 -4.3016 0.0000
# 2 27.0588 87.7829 34.3142 0.0000 0.3119 0.0000
# 3 43.0074 34.3142 97.0426 0.0000 0.0880 0.0000
# 4 0.0000 0.0000 0.0000 559.6300 0.0000 24.4542
# 5 -4.3016 0.3119 0.0880 0.0000 26.1820 0.0000
# 6 0.0000 0.0000 0.0000 24.4542 0.0000 -9.2767
#
#
#
# Elastic Compliance Matrix: (Units=1/GPa)
#
#
# Indices 1 2 3 4 5 6 
#
# 1 0.005767 -0.000907 -0.002236 0.000000 0.000966 0.000000
# 2 -0.000907 0.013362 -0.004323 0.000000 -0.000294 0.000000
# 3 -0.002236 -0.004323 0.012824 0.000000 -0.000359 0.000000
# 4 0.000000 0.000000 0.000000 0.001602 0.000000 0.004224
# 5 0.000966 -0.000294 -0.000359 0.000000 0.038358 0.000000
# 6 0.000000 0.000000 0.000000 0.004224 0.000000 -0.096662
#
#
# Mechanical properties :
#
#
# Convention : Reuss Voigt Hill
#
# Bulk Modulus (GPa) = 58.74657 65.40576 62.07616
# Shear Modulus (GPa) = -1206.45802 133.67442 -536.39180
#
# Velocity S-wave (km/s) = -25.61428 8.52609 -17.07918
# Velocity P-wave (km/s) = 29.03172 11.51062 18.84604
#
# Compressibility (1/GPa) = 0.01702227
#
# Stress axis : x y z
#
# Youngs Moduli (GPa) = 173.41441 74.83888 77.97642
#
# Poissons Ratio (x) = 0.06788 0.17434
# Poissons Ratio (y) = 0.15728 0.33706
# Poissons Ratio (z) = 0.38772 0.32350
#
# Static dielectric constant tensor:
#      x y z
#    x 1.711530 0.000000 -0.004650 
#    y 0.000000 1.633360 0.000000 
#    z -0.004650 0.000000 1.603330 
# 
# From -- ./inp_files/13232.got.cif
#   From: 2010.05.17/outbox.cif.g08.bks.cpg/sg10_7_cif.got.tgz:13232.got - 2010.06.03 11:33:40.
