data_PCOD9141115
_publ_section_title
;
Structure prediction by ZEFSAII (Michael W. Deem and Ramdas Pophale) SiO2 
 PCOD9141115
Probable space group: C C
;
_chemical_formula_sum "Si O2"
_cell_formula_units_Z 32
_cell_length_a 18.114913
_cell_length_b 8.987112
_cell_length_c 13.986833
_cell_angle_alpha 90.000000
_cell_angle_beta 145.827446
_cell_angle_gamma 90.000000
_cell_volume 1278.999172
_symmetry_space_group_name_H-M "C C"
_symmetry_group_IT_number 9
_symmetry_cell_setting 'monoclinic'
loop_
_space_group_symop_operation_xyz
x,y,z
x,-y,1/2+z
1/2+x,1/2+y,z
1/2+x,1/2-y,1/2+z
loop_
_atom_site_type_symbol
_atom_site_label
_atom_site_fract_x
_atom_site_fract_y
_atom_site_fract_z
Si Si1 0.244580 0.930458 0.141900
Si Si2 0.512253 0.346339 0.459114
Si Si3 0.673450 0.888722 0.497377
Si Si4 0.494753 0.442543 0.080458
Si Si5 0.043326 0.622365 0.663628
Si Si6 0.509172 0.880784 0.504882
Si Si7 0.780451 0.519197 0.962681
Si Si8 0.845574 0.842640 0.100531
O O1 0.362155 0.946822 0.342760
O O2 0.122419 0.034230 0.042982
O O3 0.240009 0.750848 0.122719
O O4 0.270671 0.982990 0.063560
O O5 0.419989 0.447078 0.428617
O O6 0.552689 0.221228 0.578366
O O7 0.440456 0.288389 0.288242
O O8 0.623022 0.826776 0.341363
O O9 0.560147 0.915141 0.453607
O O10 0.746287 0.042163 0.546623
O O11 0.641668 0.499519 0.261460
O O12 0.426499 0.435135 0.109371
O O13 0.505350 0.287876 0.035343
O O14 0.091632 0.463441 0.675145
O O15 0.898119 0.584224 0.549357
O O16 0.802772 0.698470 0.993660
#
# Coordination Sequence:
#
# PCOD9141115 Si02
#       8
#     4   4   4   4   4   4   4   4
#     4  12  26  49  79 108 157 205 255 324 396 455
#     4  12  28  48  78 115 151 202 263 318 389 470
#     4  12  29  49  77 114 158 201 262 329 391 469
#     4  12  26  50  79 112 153 206 263 322 396 469
#     4  12  28  48  78 115 151 202 263 318 389 470
#     4  12  26  50  79 112 153 206 263 322 396 469
#     4  12  26  49  79 108 157 205 255 324 396 455
#     4  12  29  49  77 114 158 201 262 329 391 469
#
# _framework density 25.019563999999999
#
# number of rings (size 3 to 8) (size 9 to 14) (size 15 to 20)
#    0.000    0.000    5.000    3.750    3.500    3.000 
#    0.000    0.000    0.000    0.000    0.000    0.000 
#    0.000    0.000    0.000    0.000    0.000    0.000 
#
# Total GULP energy -89380.047261 kJ/mol
# GULP energy per Si atom -5586.252954 kJ/mol
# Density = 2.496262 g / cm^3
# Si number density = 25.019564 Si / 1000 Ang^3
#
#
#
# Elastic Constant Matrix: (Units=GPa)
#
#
# Indices 1 2 3 4 5 6 
#
# 1 50.2979 -15.5391 25.1119 0.0000 -25.2310 0.0000
# 2 -15.5391 73.3227 1.8557 0.0000 5.3876 0.0000
# 3 25.1119 1.8557 90.3169 0.0000 -23.3529 0.0000
# 4 0.0000 0.0000 0.0000 18.8174 0.0000 -16.8540
# 5 -25.2310 5.3876 -23.3529 0.0000 37.8348 0.0000
# 6 0.0000 0.0000 0.0000 -16.8540 0.0000 41.4233
#
#
#
# Elastic Compliance Matrix: (Units=1/GPa)
#
#
# Indices 1 2 3 4 5 6 
#
# 1 0.033250 0.005801 -0.004574 0.000000 0.018524 0.000000
# 2 0.005801 0.014862 -0.001744 0.000000 0.000676 0.000000
# 3 -0.004574 -0.001744 0.013869 0.000000 0.005758 0.000000
# 4 0.000000 0.000000 0.000000 0.083612 0.000000 0.034019
# 5 0.018524 0.000676 0.005758 0.000000 0.042241 0.000000
# 6 0.000000 0.000000 0.000000 0.034019 0.000000 0.037983
#
#
# Mechanical properties :
#
#
# Convention : Reuss Voigt Hill
#
# Bulk Modulus (GPa) = 16.40766 26.31051 21.35909
# Shear Modulus (GPa) = 20.22934 33.11570 26.67252
#
# Velocity S-wave (km/s) = 2.84657 3.64207 3.26861
# Velocity P-wave (km/s) = 4.16847 5.31272 4.77499
#
# Compressibility (1/GPa) = 0.06094713
#
# Stress axis : x y z
#
# Youngs Moduli (GPa) = 30.07546 67.28478 72.10523
#
# Poissons Ratio (x) = -0.39033 0.32984
# Poissons Ratio (y) = -0.17447 0.12572
# Poissons Ratio (z) = 0.13758 0.11731
#
# Static dielectric constant tensor:
#      x y z
#    x 1.997510 0.000000 0.075220 
#    y 0.000000 2.129360 0.000000 
#    z 0.075220 0.000000 1.979060 
# 
# From -- ./inp_files/26749.got.cif
#   From: 2010.05.17/outbox.cif.g08.bks.cpg/sg9_14_cif.got.tgz:26749.got - 2010.06.03 20:04:27.
