data_PCOD9141388
_publ_section_title
;
Structure prediction by ZEFSAII (Michael W. Deem and Ramdas Pophale) SiO2 
 PCOD9141388
Probable space group: P 2/M
;
_chemical_formula_sum "Si O2"
_cell_formula_units_Z 26
_cell_length_a 23.578512
_cell_length_b 11.528720
_cell_length_c 7.875882
_cell_angle_alpha 90.000000
_cell_angle_beta 149.183837
_cell_angle_gamma 90.000000
_cell_volume 1096.752056
_symmetry_space_group_name_H-M "P 2/M"
_symmetry_group_IT_number 10
_symmetry_cell_setting 'monoclinic'
loop_
_space_group_symop_operation_xyz
x,y,z
-x,y,-z
-x,-y,-z
x,-y,z
loop_
_atom_site_type_symbol
_atom_site_label
_atom_site_fract_x
_atom_site_fract_y
_atom_site_fract_z
Si Si1 0.259524 0.634502 0.804951
Si Si2 0.875489 0.252539 0.846294
Si Si3 0.912664 0.269495 0.422030
Si Si4 0.908201 0.000000 0.420327
Si Si5 0.367218 0.000000 0.670596
Si Si6 0.668365 0.259348 0.510258
Si Si7 0.162975 0.000000 0.363046
Si Si8 0.529196 0.361329 0.830983
O O1 0.249060 0.500000 0.731966
O O2 0.192296 0.707628 0.492193
O O3 0.195247 0.656902 0.813408
O O4 0.389432 0.661731 0.117917
O O5 0.795081 0.290536 0.795071
O O6 0.880264 0.113093 0.845714
O O7 0.000899 0.288209 0.198150
O O8 0.000000 0.296833 0.500000
O O9 0.873153 0.135622 0.304540
O O10 0.883793 0.000000 0.566304
O O11 0.000000 0.000000 0.500000
O O12 0.333912 0.119923 0.497120
O O13 0.296992 0.000000 0.669025
O O14 0.500000 0.000000 0.000000
O O15 0.601156 0.308387 0.172412
O O16 0.591391 0.305857 0.462111
O O17 0.517087 0.500000 0.818357
#
# Coordination Sequence:
#
# PCOD9141388 Si02
#       8
#     4   4   4   2   2   4   2   4
#     4  10  21  35  53  78 104 137 179 221 263 310
#     4  10  20  33  53  80 106 138 174 217 265 309
#     4  11  23  37  53  75 106 141 177 218 266 319
#     4  10  21  35  54  79 106 141 180 214 260 319
#     4  10  16  23  41  76 112 136 162 208 262 316
#     4   9  16  26  44  72 105 132 161 205 260 310
#     4  10  19  32  54  81 112 140 174 224 264 307
#     4   9  16  28  47  71 101 132 166 212 262 306
#
# _framework density 23.70636
#
# number of rings (size 3 to 8) (size 9 to 14) (size 15 to 20)
#    0.000    2.154    3.077    1.846    0.000    2.769 
#    0.000    0.000    0.000    0.923    0.000    2.154 
#    0.000   12.308    0.000    0.000    0.000    0.000 
#
# Total GULP energy -144802.017238 kJ/mol
# GULP energy per Si atom -5569.308355 kJ/mol
# Density = 2.365240 g / cm^3
# Si number density = 23.706360 Si / 1000 Ang^3
#
#
#
# Elastic Constant Matrix: (Units=GPa)
#
#
# Indices 1 2 3 4 5 6 
#
# 1 192.0404 35.3167 53.8652 0.0000 41.6631 0.0000
# 2 35.3167 77.5660 16.8229 0.0000 20.2619 0.0000
# 3 53.8652 16.8229 120.9130 0.0000 44.5197 0.0000
# 4 0.0000 0.0000 0.0000 29.1467 0.0000 9.9154
# 5 41.6631 20.2619 44.5197 0.0000 57.8336 0.0000
# 6 0.0000 0.0000 0.0000 9.9154 0.0000 34.4566
#
#
#
# Elastic Compliance Matrix: (Units=1/GPa)
#
#
# Indices 1 2 3 4 5 6 
#
# 1 0.006639 -0.001923 -0.001643 0.000000 -0.002844 0.000000
# 2 -0.001923 0.014752 0.000275 0.000000 -0.003994 0.000000
# 3 -0.001643 0.000275 0.011951 0.000000 -0.008113 0.000000
# 4 0.000000 0.000000 0.000000 0.038032 0.000000 -0.010944
# 5 -0.002844 -0.003994 -0.008113 0.000000 0.026985 0.000000
# 6 0.000000 0.000000 0.000000 -0.010944 0.000000 0.032171
#
#
# Mechanical properties :
#
#
# Convention : Reuss Voigt Hill
#
# Bulk Modulus (GPa) = 37.36977 66.94765 52.15871
# Shear Modulus (GPa) = 34.23917 43.25501 38.74709
#
# Velocity S-wave (km/s) = 3.80452 4.27619 4.04723
# Velocity P-wave (km/s) = 5.92427 7.25829 6.62494
#
# Compressibility (1/GPa) = 0.02675960
#
# Stress axis : x y z
#
# Youngs Moduli (GPa) = 150.63059 67.78846 83.67488
#
# Poissons Ratio (x) = 0.13039 0.13745
# Poissons Ratio (y) = 0.28974 -0.02302
# Poissons Ratio (z) = 0.24743 -0.01865
#
# Static dielectric constant tensor:
#      x y z
#    x 2.024250 0.000000 -0.061980 
#    y 0.000000 1.831050 0.000000 
#    z -0.061980 0.000000 1.984670 
# 
# From -- ./inp_files/34932.got.cif
#   From: 2010.05.17/outbox.cif.g08.bks.cpg/sg10_18_cif.got.tgz:34932.got - 2010.06.03 11:33:40.
