data_PCOD9141040
_publ_section_title
;
Structure prediction by ZEFSAII (Michael W. Deem and Ramdas Pophale) SiO2 
 PCOD9141040
Probable space group: C C
;
_chemical_formula_sum "Si O2"
_cell_formula_units_Z 28
_cell_length_a 7.625631
_cell_length_b 12.384652
_cell_length_c 19.873356
_cell_angle_alpha 90.000000
_cell_angle_beta 144.324212
_cell_angle_gamma 90.000000
_cell_volume 1094.578276
_symmetry_space_group_name_H-M "C C"
_symmetry_group_IT_number 9
_symmetry_cell_setting 'monoclinic'
loop_
_space_group_symop_operation_xyz
x,y,z
x,-y,1/2+z
1/2+x,1/2+y,z
1/2+x,1/2-y,1/2+z
loop_
_atom_site_type_symbol
_atom_site_label
_atom_site_fract_x
_atom_site_fract_y
_atom_site_fract_z
Si Si1 0.217500 0.630901 0.546540
Si Si2 0.309940 0.162075 0.755389
Si Si3 0.795339 0.575158 0.232651
Si Si4 0.339996 0.287576 0.507358
Si Si5 0.813001 0.456220 0.462862
Si Si6 0.360536 0.585415 0.230212
Si Si7 0.365237 0.707973 0.451337
O O1 0.476027 0.647452 0.682109
O O2 0.384184 0.657674 0.530617
O O3 0.970215 0.717451 0.487424
O O4 0.068090 0.516044 0.498776
O O5 0.559509 0.151418 0.889663
O O6 0.331694 0.285473 0.736149
O O7 0.354851 0.048537 0.730823
O O8 0.602560 0.579006 0.243142
O O9 0.105449 0.639975 0.335149
O O10 0.589237 0.636647 0.115373
O O11 0.185870 0.210174 0.514640
O O12 0.514185 0.521875 0.342335
O O13 0.766097 0.331544 0.432248
O O14 0.022965 0.453086 0.598609
#
# Coordination Sequence:
#
# PCOD9141040 Si02
#       7
#     4   4   4   4   4   4   4
#     4  12  25  49  77 113 156 206 267 329 395 484
#     4  12  25  47  79 114 160 209 270 330 405 486
#     4  12  26  45  79 114 155 212 265 336 405 478
#     4  12  26  48  74 115 156 204 269 326 404 484
#     4  12  25  48  81 111 162 211 265 333 409 472
#     4  12  25  48  81 117 159 217 269 335 407 485
#     4  12  26  49  79 112 152 211 263 329 405 473
#
# _framework density 25.580628999999998
#
# number of rings (size 3 to 8) (size 9 to 14) (size 15 to 20)
#    0.000    0.000    7.143    1.714    4.000    0.000 
#    5.143    0.000    0.000    0.000    0.000    0.000 
#    0.000    0.000    0.000    0.000    0.000    0.000 
#
# Total GULP energy -78157.543912 kJ/mol
# GULP energy per Si atom -5582.681708 kJ/mol
# Density = 2.552241 g / cm^3
# Si number density = 25.580629 Si / 1000 Ang^3
#
#
#
# Elastic Constant Matrix: (Units=GPa)
#
#
# Indices 1 2 3 4 5 6 
#
# 1 52.9969 16.6039 12.6442 0.0000 -6.3083 0.0000
# 2 16.6039 186.0104 90.1474 -0.0001 -15.0881 -0.0001
# 3 12.6442 90.1474 181.9701 0.0004 -6.1577 0.0003
# 4 0.0000 -0.0001 0.0004 52.7845 0.0002 3.6439
# 5 -6.3083 -15.0881 -6.1577 0.0002 19.6541 0.0000
# 6 0.0000 -0.0001 0.0003 3.6439 0.0000 27.9699
#
#
#
# Elastic Compliance Matrix: (Units=1/GPa)
#
#
# Indices 1 2 3 4 5 6 
#
# 1 0.019998 -0.001001 -0.000710 0.000000 0.005428 0.000000
# 2 -0.001001 0.007518 -0.003508 0.000000 0.004352 0.000000
# 3 -0.000710 -0.003508 0.007261 0.000000 -0.000646 0.000000
# 4 0.000000 0.000000 0.000000 0.019117 0.000000 -0.002491
# 5 0.005428 0.004352 -0.000646 0.000000 0.055760 0.000000
# 6 0.000000 0.000000 0.000000 -0.002491 0.000000 0.036077
#
#
# Mechanical properties :
#
#
# Convention : Reuss Voigt Hill
#
# Bulk Modulus (GPa) = 41.08485 73.30761 57.19623
# Shear Modulus (GPa) = 30.43548 40.18715 35.31131
#
# Velocity S-wave (km/s) = 3.45307 3.96788 3.71939
# Velocity P-wave (km/s) = 5.65633 7.05066 6.39163
#
# Compressibility (1/GPa) = 0.02433987
#
# Stress axis : x y z
#
# Youngs Moduli (GPa) = 50.00481 133.00824 137.72894
#
# Poissons Ratio (x) = 0.13309 0.09781
# Poissons Ratio (y) = 0.05004 0.48312
# Poissons Ratio (z) = 0.03551 0.46656
#
# Static dielectric constant tensor:
#      x y z
#    x 2.113440 0.000000 -0.081020 
#    y 0.000000 2.062690 0.000000 
#    z -0.081020 0.000000 2.165800 
# 
# From -- ./inp_files/35033.got.cif
#   From: 2010.05.17/outbox.cif.g08.bks.cpg/sg9_18_cif.got.tgz:35033.got - 2010.06.03 20:04:27.
