data_PCOD9141362
_publ_section_title
;
Structure prediction by ZEFSAII (Michael W. Deem and Ramdas Pophale) SiO2 
 PCOD9141362
Probable space group: P 2/M
;
_chemical_formula_sum "Si O2"
_cell_formula_units_Z 20
_cell_length_a 11.112411
_cell_length_b 21.928033
_cell_length_c 7.665292
_cell_angle_alpha 90.000000
_cell_angle_beta 156.887930
_cell_angle_gamma 90.000000
_cell_volume 733.179818
_symmetry_space_group_name_H-M "P 2/M"
_symmetry_group_IT_number 10
_symmetry_cell_setting 'monoclinic'
loop_
_space_group_symop_operation_xyz
x,y,z
-x,y,-z
-x,-y,-z
x,-y,z
loop_
_atom_site_type_symbol
_atom_site_label
_atom_site_fract_x
_atom_site_fract_y
_atom_site_fract_z
Si Si1 0.650097 0.689043 0.896737
Si Si2 0.270708 0.136138 0.029906
Si Si3 0.138626 0.754750 0.382521
Si Si4 0.358997 0.567244 0.505053
Si Si5 0.782382 0.931850 0.540521
O O1 0.500000 0.693737 0.500000
O O2 0.491303 0.741823 0.802456
O O3 0.543622 0.624098 0.828526
O O4 0.001312 0.698233 0.311322
O O5 0.500000 0.143792 0.500000
O O6 0.513733 0.117946 0.205216
O O7 0.022909 0.190310 0.727807
O O8 0.039433 0.079649 0.739755
O O9 0.000000 0.758210 0.000000
O O10 0.500000 0.561787 0.500000
O O11 0.381848 0.500000 0.619744
O O12 0.000000 0.582252 0.000000
O O13 0.655921 0.000000 0.370742
O O14 0.000000 0.926148 0.000000
#
# Coordination Sequence:
#
# PCOD9141362 Si02
#       5
#     4   4   4   4   4
#     4   9  15  21  27  33  39  45  50  55  61  66
#     4  10  16  21  27  33  38  43  49  55  61  67
#     4  10  16  21  27  33  39  44  49  55  61  67
#     4   9  15  21  27  33  39  45  51  56  60  65
#     4   9  16  23  28  32  37  43  49  55  61  67
#
# _framework density 27.27844
#
# number of rings (size 3 to 8) (size 9 to 14) (size 15 to 20)
#    0.000    2.600    0.000    8.400    0.000    2.400 
#    0.000    0.000    0.000    0.000    0.000    0.000 
#    0.000    0.000    0.000    0.000    0.000    0.000 
#
# Total GULP energy -111649.846953 kJ/mol
# GULP energy per Si atom -5582.492348 kJ/mol
# Density = 2.721635 g / cm^3
# Si number density = 27.278440 Si / 1000 Ang^3
#
#
#
# Elastic Constant Matrix: (Units=GPa)
#
#
# Indices 1 2 3 4 5 6 
#
# 1 118.5738 11.6399 48.5763 0.0000 14.1656 0.0000
# 2 11.6399 184.7933 68.8639 0.0000 29.0847 0.0000
# 3 48.5763 68.8639 206.2228 0.0000 37.6486 0.0000
# 4 0.0000 0.0000 0.0000 49.4320 0.0000 1.9964
# 5 14.1656 29.0847 37.6486 0.0000 61.5450 0.0000
# 6 0.0000 0.0000 0.0000 1.9964 0.0000 65.3176
#
#
#
# Elastic Compliance Matrix: (Units=1/GPa)
#
#
# Indices 1 2 3 4 5 6 
#
# 1 0.009401 0.000371 -0.002151 0.000000 -0.001023 0.000000
# 2 0.000371 0.006392 -0.001863 0.000000 -0.001966 0.000000
# 3 -0.002151 -0.001863 0.006447 0.000000 -0.002568 0.000000
# 4 0.000000 0.000000 0.000000 0.020255 0.000000 -0.000619
# 5 -0.001023 -0.001966 -0.002568 0.000000 0.018984 0.000000
# 6 0.000000 0.000000 0.000000 -0.000619 0.000000 0.015329
#
#
# Mechanical properties :
#
#
# Convention : Reuss Voigt Hill
#
# Bulk Modulus (GPa) = 66.87968 85.30555 76.09262
# Shear Modulus (GPa) = 56.13068 60.62626 58.37847
#
# Velocity S-wave (km/s) = 4.54110 4.71945 4.63114
# Velocity P-wave (km/s) = 7.21569 7.81266 7.52010
#
# Compressibility (1/GPa) = 0.01495222
#
# Stress axis : x y z
#
# Youngs Moduli (GPa) = 106.37458 156.45183 155.11691
#
# Poissons Ratio (x) = -0.05797 0.33372
# Poissons Ratio (y) = -0.03942 0.28893
# Poissons Ratio (z) = 0.22885 0.29142
#
# Static dielectric constant tensor:
#      x y z
#    x 2.253920 0.000000 -0.154960 
#    y 0.000000 2.221520 0.000000 
#    z -0.154960 0.000000 2.080910 
# 
# From -- ./inp_files/69446.got.cif
#   From: 2010.05.17/outbox.cif.g08.bks.cpg/sg10_35_cif.got.tgz:69446.got - 2010.06.03 11:33:40.
