data_PCOD9141250
_publ_section_title
;
Structure prediction by ZEFSAII (Michael W. Deem and Ramdas Pophale) SiO2 
 PCOD9141250
Probable space group: C C
;
_chemical_formula_sum "Si O2"
_cell_formula_units_Z 16
_cell_length_a 21.000000
_cell_length_b 12.000000
_cell_length_c 12.000000
_cell_angle_alpha 90.000000
_cell_angle_beta 150.000000
_cell_angle_gamma 90.000000
_cell_volume 1512.000000
_symmetry_space_group_name_H-M "C C"
_symmetry_group_IT_number 9
_symmetry_cell_setting 'monoclinic'
loop_
_space_group_symop_operation_xyz
x,y,z
x,-y,1/2+z
1/2+x,1/2+y,z
1/2+x,1/2-y,1/2+z
loop_
_atom_site_type_symbol
_atom_site_label
_atom_site_fract_x
_atom_site_fract_y
_atom_site_fract_z
Si Si1 0.193790 0.568914 0.301580
Si Si2 0.112913 0.065585 0.976026
Si Si3 0.612220 0.936284 0.415257
Si Si4 0.721775 0.242008 0.935105
Si Si5 0.733640 0.309450 0.461244
Si Si6 0.969977 0.796626 0.445000
Si Si7 0.311243 0.038599 0.464389
Si Si8 0.418652 0.592045 0.104585
O O1 0.153970 0.512682 0.365633
O O2 0.190828 0.701020 0.325250
O O3 0.333229 0.518727 0.487866
O O4 0.134210 0.543123 0.084707
O O5 0.130900 0.142708 0.894341
O O6 0.243781 0.057099 0.243136
O O7 0.019054 0.119562 0.924924
O O8 0.056104 0.946242 0.855520
O O9 0.682616 0.819425 0.490197
O O10 0.460044 0.937407 0.177352
O O11 0.594267 0.224374 0.666578
O O12 0.753037 0.372561 0.965503
O O13 0.843481 0.180902 0.065735
O O14 0.853599 0.270487 0.717489
O O15 0.778151 0.414353 0.454853
O O16 0.928098 0.861256 0.493685
#
# Coordination Sequence:
#
# PCOD9141250 Si02
#       8
#     4   4   4   4   4   4   4   4
#     4  11  27  47  76 113 145 200 241 317 360 446
#     4  11  24  44  70 104 145 191 248 299 367 439
#     4  11  26  49  77 107 152 191 258 295 375 436
#     4  10  23  45  70 105 139 197 240 298 365 436
#     4  12  26  44  70 109 148 189 247 305 375 434
#     4  11  22  43  72 102 146 193 248 298 369 439
#     4  11  27  44  73 107 147 198 238 311 367 444
#     4  11  23  44  74 101 144 193 248 295 370 436
#
# _framework density 10.582011
#
# number of rings (size 3 to 8) (size 9 to 14) (size 15 to 20)
#    0.000    1.000    1.250    5.250    8.750    4.000 
#    2.250    0.000    0.000    0.000    0.000    0.000 
#    0.000    0.000    0.000    0.000    0.000    0.000 
#
# Total GULP energy -89235.198523 kJ/mol
# GULP energy per Si atom -5577.199908 kJ/mol
# Density = 1.055793 g / cm^3
# Si number density = 10.582011 Si / 1000 Ang^3
#
#
#
# Elastic Constant Matrix: (Units=GPa)
#
#
# Indices 1 2 3 4 5 6 
#
# 1 134.8742 47.6608 31.6738 0.0000 -4.1592 0.0000
# 2 47.6608 118.0967 19.8536 0.0000 -3.8314 0.0000
# 3 31.6738 19.8536 99.6099 0.0000 -4.4384 0.0000
# 4 0.0000 0.0000 0.0000 34.6350 0.0000 -7.9728
# 5 -4.1592 -3.8314 -4.4384 0.0000 35.6923 0.0000
# 6 0.0000 0.0000 0.0000 -7.9728 0.0000 47.5475
#
#
#
# Elastic Compliance Matrix: (Units=1/GPa)
#
#
# Indices 1 2 3 4 5 6 
#
# 1 0.009112 -0.003290 -0.002222 0.000000 0.000432 0.000000
# 2 -0.003290 0.009968 -0.000915 0.000000 0.000573 0.000000
# 3 -0.002222 -0.000915 0.010973 0.000000 0.001007 0.000000
# 4 0.000000 0.000000 0.000000 0.030032 0.000000 0.005036
# 5 0.000432 0.000573 0.001007 0.000000 0.028254 0.000000
# 6 0.000000 0.000000 0.000000 0.005036 0.000000 0.021876
#
#
# Mechanical properties :
#
#
# Convention : Reuss Voigt Hill
#
# Bulk Modulus (GPa) = 58.14544 61.21746 59.68145
# Shear Modulus (GPa) = 38.81913 40.46780 39.64346
#
# Velocity S-wave (km/s) = 4.28741 4.37750 4.33269
# Velocity P-wave (km/s) = 7.21405 7.38499 7.30002
#
# Compressibility (1/GPa) = 0.01719825
#
# Stress axis : x y z
#
# Youngs Moduli (GPa) = 109.74442 100.32382 91.13163
#
# Poissons Ratio (x) = 0.33004 0.20254
# Poissons Ratio (y) = 0.36103 0.08340
# Poissons Ratio (z) = 0.24391 0.09181
#
# Static dielectric constant tensor:
#      x y z
#    x 1.763150 0.000000 -0.008860 
#    y 0.000000 1.810730 0.000000 
#    z -0.008860 0.000000 1.801230 
# 
# From -- ./inp_files/20275.got.cif
#   From: 2010.05.17/outbox.ucp.g08.bks.cvg/sg9_11_cif.got.tgz:20275.got - 2010.06.11 13:03:20.
