data_PCOD9141385
_publ_section_title
;
Structure prediction by ZEFSAII (Michael W. Deem and Ramdas Pophale) SiO2 
 PCOD9141385
Probable space group: P 2/M
;
_chemical_formula_sum "Si O2"
_cell_formula_units_Z 24
_cell_length_a 11.223654
_cell_length_b 7.712422
_cell_length_c 17.263940
_cell_angle_alpha 90.000000
_cell_angle_beta 72.321903
_cell_angle_gamma 90.000000
_cell_volume 1423.824717
_symmetry_space_group_name_H-M "P 2/M"
_symmetry_group_IT_number 10
_symmetry_cell_setting 'monoclinic'
loop_
_space_group_symop_operation_xyz
x,y,z
-x,y,-z
-x,-y,-z
x,-y,z
loop_
_atom_site_type_symbol
_atom_site_label
_atom_site_fract_x
_atom_site_fract_y
_atom_site_fract_z
Si Si1 0.313162 0.202035 0.248529
Si Si2 0.823989 0.298601 0.581279
Si Si3 0.909814 0.801857 0.405713
Si Si4 0.546998 0.500000 0.862660
Si Si5 0.700296 0.500000 0.993429
Si Si6 0.960177 0.790191 0.765584
Si Si7 0.095040 0.794790 0.052036
O O1 0.288863 0.226200 0.345164
O O2 0.415371 0.330915 0.194166
O O3 0.179625 0.255415 0.235980
O O4 0.335969 0.000000 0.226615
O O5 0.839598 0.500000 0.597534
O O6 0.823837 0.282169 0.488525
O O7 0.949335 0.203437 0.586371
O O8 0.935732 0.723826 0.315504
O O9 0.868555 0.000000 0.406608
O O10 0.631047 0.500000 0.924075
O O11 0.405289 0.500000 0.919867
O O12 0.786999 0.669930 0.981481
O O13 0.969306 0.744163 0.853499
O O14 0.966709 0.000000 0.758632
O O15 0.129227 0.000000 0.050478
O O16 0.000000 0.773487 0.000000
#
# Coordination Sequence:
#
# PCOD9141385 Si02
#       7
#     4   4   4   2   2   4   4
#     4  10  18  31  47  65  96 131 164 198 236 288
#     4  10  16  23  36  59  89 124 162 192 228 282
#     4   9  15  23  35  56  88 126 159 188 233 282
#     4  11  22  34  50  74  96 135 168 206 241 301
#     4  11  23  36  52  73 102 125 169 210 253 285
#     4   8  15  27  44  65  93 127 160 198 238 287
#     4  10  20  36  56  75  98 130 167 206 250 296
#
# _framework density 16.856007999999999
#
# number of rings (size 3 to 8) (size 9 to 14) (size 15 to 20)
#    0.000    2.333    2.500    4.250    0.000    0.667 
#    1.500    1.667    0.000    0.000    0.000    0.000 
#    0.000    2.667    0.000   10.000    0.000    0.333 
#
# Total GULP energy -133645.863695 kJ/mol
# GULP energy per Si atom -5568.577654 kJ/mol
# Density = 1.681764 g / cm^3
# Si number density = 16.856008 Si / 1000 Ang^3
#
#
#
# Elastic Constant Matrix: (Units=GPa)
#
#
# Indices 1 2 3 4 5 6 
#
# 1 28.9091 20.2397 36.7830 0.0000 1.4249 0.0000
# 2 20.2397 85.7028 46.8063 0.0000 -6.6557 0.0000
# 3 36.7830 46.8063 174.7165 0.0000 -4.5095 0.0000
# 4 0.0000 0.0000 0.0000 28.9385 0.0000 -5.8803
# 5 1.4249 -6.6557 -4.5095 0.0000 15.7342 0.0000
# 6 0.0000 0.0000 0.0000 -5.8803 0.0000 4.9846
#
#
#
# Elastic Compliance Matrix: (Units=1/GPa)
#
#
# Indices 1 2 3 4 5 6 
#
# 1 0.052522 -0.008265 -0.009124 0.000000 -0.010867 0.000000
# 2 -0.008265 0.015333 -0.002197 0.000000 0.006605 0.000000
# 3 -0.009124 -0.002197 0.008292 0.000000 0.002273 0.000000
# 4 0.000000 0.000000 0.000000 0.045451 0.000000 0.053618
# 5 -0.010867 0.006605 0.002273 0.000000 0.067985 0.000000
# 6 0.000000 0.000000 0.000000 0.053618 0.000000 0.263872
#
#
# Mechanical properties :
#
#
# Convention : Reuss Voigt Hill
#
# Bulk Modulus (GPa) = 27.04524 55.22072 41.13298
# Shear Modulus (GPa) = 9.90195 22.29809 16.10002
#
# Velocity S-wave (km/s) = 2.42635 3.64106 3.09390
# Velocity P-wave (km/s) = 4.89176 7.10688 6.10070
#
# Compressibility (1/GPa) = 0.03697508
#
# Stress axis : x y z
#
# Youngs Moduli (GPa) = 19.03972 65.21899 120.60231
#
# Poissons Ratio (x) = 0.53901 1.10035
# Poissons Ratio (y) = 0.15736 0.26499
# Poissons Ratio (z) = 0.17372 0.14330
#
# Static dielectric constant tensor:
#      x y z
#    x 1.514570 0.000000 0.018240 
#    y 0.000000 1.583590 0.000000 
#    z 0.018240 0.000000 1.644430 
# 
# From -- ./inp_files/56330.got.cif
#   From: 2010.05.17/outbox.cif.g08.bks.cpg/sg10_29_cif.got.tgz:56330.got - 2010.06.03 11:33:40.
