data_PCOD9141439
_publ_section_title
;
Structure prediction by ZEFSAII (Michael W. Deem and Ramdas Pophale) SiO2 
 PCOD9141439
Probable space group: P 2/M
;
_chemical_formula_sum "Si O2"
_cell_formula_units_Z 26
_cell_length_a 17.917976
_cell_length_b 19.951089
_cell_length_c 17.170631
_cell_angle_alpha 90.000000
_cell_angle_beta 16.463007
_cell_angle_gamma 90.000000
_cell_volume 1739.545814
_symmetry_space_group_name_H-M "P 2/M"
_symmetry_group_IT_number 10
_symmetry_cell_setting 'monoclinic'
loop_
_space_group_symop_operation_xyz
x,y,z
-x,y,-z
-x,-y,-z
x,-y,z
loop_
_atom_site_type_symbol
_atom_site_label
_atom_site_fract_x
_atom_site_fract_y
_atom_site_fract_z
Si Si1 0.619847 0.419916 0.797354
Si Si2 0.075904 0.580683 0.740207
Si Si3 0.972651 0.214236 0.622255
Si Si4 0.255799 0.000000 0.302464
Si Si5 0.568553 0.419377 0.345547
Si Si6 0.874962 0.360583 0.780988
Si Si7 0.466981 0.861896 0.126639
O O1 0.616804 0.500000 0.797139
O O2 0.914338 0.395208 0.488130
O O3 0.500000 0.397719 0.000000
O O4 0.415033 0.390895 0.939776
O O5 0.077215 0.500000 0.721146
O O6 0.358058 0.601917 0.491177
O O7 0.984153 0.620708 0.756438
O O8 0.862570 0.592532 0.021839
O O9 0.264904 0.194701 0.356390
O O10 0.000000 0.219945 0.500000
O O11 0.877895 0.283046 0.754560
O O12 0.763251 0.156002 0.854831
O O13 0.314180 0.067721 0.292384
O O14 0.000000 0.000000 0.500000
O O15 0.500000 0.000000 0.000000
O O16 0.500000 0.392930 0.500000
O O17 0.537250 0.500000 0.380714
O O18 0.500000 0.857357 0.000000
#
# Coordination Sequence:
#
# PCOD9141439 Si02
#       7
#     4   4   4   2   4   4   4
#     4  11  22  34  46  58  74 103 146 191 230 260
#     4  10  19  30  45  64  83 104 133 172 215 255
#     4  10  19  30  42  57  80 110 142 173 208 250
#     4  10  16  26  44  64  82 100 126 170 221 252
#     4   9  17  30  47  65  83 101 123 159 211 266
#     4  12  22  33  46  61  83 110 141 181 221 260
#     4   9  17  28  42  60  79 101 132 171 211 250
#
# _framework density 14.946429999999999
#
# number of rings (size 3 to 8) (size 9 to 14) (size 15 to 20)
#    0.000    1.846    0.000    7.385    0.000    5.538 
#    0.000    0.000    0.000    0.000    0.000    0.000 
#    0.000    0.000    0.000    0.000    0.000    0.000 
#
# Total GULP energy -144854.330587 kJ/mol
# GULP energy per Si atom -5571.320407 kJ/mol
# Density = 1.491241 g / cm^3
# Si number density = 14.946430 Si / 1000 Ang^3
#
#
#
# Elastic Constant Matrix: (Units=GPa)
#
#
# Indices 1 2 3 4 5 6 
#
# 1 29.8874 5.4037 0.6405 0.0000 3.5517 0.0000
# 2 5.4037 48.2969 11.6799 0.0000 -0.7935 0.0000
# 3 0.6405 11.6799 55.5710 0.0000 -13.4980 0.0000
# 4 0.0000 0.0000 0.0000 47.8391 0.0000 -7.0551
# 5 3.5517 -0.7935 -13.4980 0.0000 16.6500 0.0000
# 6 0.0000 0.0000 0.0000 -7.0551 0.0000 4.8847
#
#
#
# Elastic Compliance Matrix: (Units=1/GPa)
#
#
# Indices 1 2 3 4 5 6 
#
# 1 0.035253 -0.003641 -0.001880 0.000000 -0.009218 0.000000
# 2 -0.003641 0.022340 -0.005237 0.000000 -0.002405 0.000000
# 3 -0.001880 -0.005237 0.023851 0.000000 0.019487 0.000000
# 4 0.000000 0.000000 0.000000 0.026561 0.000000 0.038363
# 5 -0.009218 -0.002405 0.019487 0.000000 0.077710 0.000000
# 6 0.000000 0.000000 0.000000 0.038363 0.000000 0.260130
#
#
# Mechanical properties :
#
#
# Convention : Reuss Voigt Hill
#
# Bulk Modulus (GPa) = 16.68713 18.80039 17.74376
# Shear Modulus (GPa) = 10.25984 21.61018 15.93501
#
# Velocity S-wave (km/s) = 2.62284 3.80655 3.26872
# Velocity P-wave (km/s) = 4.51235 5.65027 5.11306
#
# Compressibility (1/GPa) = 0.05992642
#
# Stress axis : x y z
#
# Youngs Moduli (GPa) = 28.36647 44.76322 41.92723
#
# Poissons Ratio (x) = 0.16299 0.07882
# Poissons Ratio (y) = 0.10328 0.21959
# Poissons Ratio (z) = 0.05333 0.23445
#
# Static dielectric constant tensor:
#      x y z
#    x 1.498410 0.000000 -0.008650 
#    y 0.000000 1.541710 0.000000 
#    z -0.008650 0.000000 1.520310 
# 
# From -- ./inp_files/67805.got.cif
#   From: 2010.05.17/outbox.cif.g08.bks.cpg/sg10_34_cif.got.tgz:67805.got - 2010.06.03 11:33:40.
