data_PCOD9141293
_publ_section_title
;
Structure prediction by ZEFSAII (Michael W. Deem and Ramdas Pophale) SiO2 
 PCOD9141293
Probable space group: C C
;
_chemical_formula_sum "Si O2"
_cell_formula_units_Z 12
_cell_length_a 15.000000
_cell_length_b 12.000000
_cell_length_c 12.000000
_cell_angle_alpha 90.000000
_cell_angle_beta 150.000000
_cell_angle_gamma 90.000000
_cell_volume 1080.000000
_symmetry_space_group_name_H-M "C C"
_symmetry_group_IT_number 9
_symmetry_cell_setting 'monoclinic'
loop_
_space_group_symop_operation_xyz
x,y,z
x,-y,1/2+z
1/2+x,1/2+y,z
1/2+x,1/2-y,1/2+z
loop_
_atom_site_type_symbol
_atom_site_label
_atom_site_fract_x
_atom_site_fract_y
_atom_site_fract_z
Si Si1 0.390090 0.754496 0.117300
Si Si2 0.210743 0.865244 0.537056
Si Si3 0.083700 0.119344 0.148359
Si Si4 0.876851 0.901510 0.833878
Si Si5 0.322629 0.644530 0.521398
Si Si6 0.058371 0.484526 0.358364
O O1 0.419369 0.673919 0.040717
O O2 0.403642 0.678323 0.249799
O O3 0.530457 0.856174 0.289262
O O4 0.228913 0.837765 0.899054
O O5 0.162899 0.838017 0.614709
O O6 0.276603 0.755539 0.541857
O O7 0.372623 0.955086 0.695094
O O8 0.017645 0.898853 0.274858
O O9 0.024679 0.993347 0.040401
O O10 0.702764 0.974556 0.614036
O O11 0.835705 0.832949 0.902817
O O12 0.164690 0.557441 0.380866
#
# Coordination Sequence:
#
# PCOD9141293 Si02
#       6
#     4   4   4   4   4   4
#     4  12  29  54  82 124 167 233 286 352 437 505
#     4  12  27  50  82 120 163 224 279 349 431 502
#     4  12  28  51  84 116 171 221 282 357 425 513
#     4  12  29  53  81 119 171 218 287 353 423 517
#     4  12  27  51  79 125 163 216 287 350 421 514
#     4  12  28  51  82 120 167 224 283 347 437 501
#
# _framework density 11.111110999999999
#
# number of rings (size 3 to 8) (size 9 to 14) (size 15 to 20)
#    0.000    0.000    5.000    3.000    7.000    0.000 
#    0.000    0.000    0.000    0.000    0.000    0.000 
#    0.000    0.000    0.000    0.000    0.000    0.000 
#
# Total GULP energy -66863.742722 kJ/mol
# GULP energy per Si atom -5571.978560 kJ/mol
# Density = 1.108582 g / cm^3
# Si number density = 11.111111 Si / 1000 Ang^3
#
#
#
# Elastic Constant Matrix: (Units=GPa)
#
#
# Indices 1 2 3 4 5 6 
#
# 1 189.9093 69.7360 42.4056 0.0000 -25.5406 0.0000
# 2 69.7360 145.3540 27.2160 0.0000 -8.7613 0.0000
# 3 42.4056 27.2160 105.0518 0.0001 -3.1844 0.0001
# 4 0.0000 0.0000 0.0001 50.1116 0.0000 -3.0144
# 5 -25.5406 -8.7613 -3.1844 0.0000 48.3068 0.0000
# 6 0.0000 0.0000 0.0001 -3.0144 0.0000 48.5029
#
#
#
# Elastic Compliance Matrix: (Units=1/GPa)
#
#
# Indices 1 2 3 4 5 6 
#
# 1 0.007210 -0.002882 -0.002068 0.000000 0.003153 0.000000
# 2 -0.002882 0.008451 -0.001028 0.000000 -0.000059 0.000000
# 3 -0.002068 -0.001028 0.010603 0.000000 -0.000581 0.000000
# 4 0.000000 0.000000 0.000000 0.020030 0.000000 0.001245
# 5 0.003153 -0.000059 -0.000581 0.000000 0.022319 0.000000
# 6 0.000000 0.000000 0.000000 0.001245 0.000000 0.020695
#
#
# Mechanical properties :
#
#
# Convention : Reuss Voigt Hill
#
# Bulk Modulus (GPa) = 69.89157 79.89224 74.89191
# Shear Modulus (GPa) = 47.15525 49.44809 48.30167
#
# Velocity S-wave (km/s) = 4.61150 4.72228 4.66722
# Velocity P-wave (km/s) = 7.73783 8.10943 7.92581
#
# Compressibility (1/GPa) = 0.01430788
#
# Stress axis : x y z
#
# Youngs Moduli (GPa) = 138.70242 118.32574 94.31586
#
# Poissons Ratio (x) = 0.34098 0.19506
# Poissons Ratio (y) = 0.39970 0.09696
# Poissons Ratio (z) = 0.28686 0.12164
#
# Static dielectric constant tensor:
#      x y z
#    x 1.864050 0.000000 0.079410 
#    y 0.000000 1.864990 0.000000 
#    z 0.079410 0.000000 1.933520 
# 
# From -- ./inp_files/18313.got.cif
#   From: 2010.05.17/outbox.ucp.g08.bks.cvg/sg9_10_cif.got.tgz:18313.got - 2010.06.11 13:03:20.
