data_PCOD9141343
_publ_section_title
;
Structure prediction by ZEFSAII (Michael W. Deem and Ramdas Pophale) SiO2 
 PCOD9141343
Probable space group: P 2/M
;
_chemical_formula_sum "Si O2"
_cell_formula_units_Z 32
_cell_length_a 11.979465
_cell_length_b 19.684714
_cell_length_c 19.906968
_cell_angle_alpha 90.000000
_cell_angle_beta 24.355837
_cell_angle_gamma 90.000000
_cell_volume 1935.944016
_symmetry_space_group_name_H-M "P 2/M"
_symmetry_group_IT_number 10
_symmetry_cell_setting 'monoclinic'
loop_
_space_group_symop_operation_xyz
x,y,z
-x,y,-z
-x,-y,-z
x,-y,z
loop_
_atom_site_type_symbol
_atom_site_label
_atom_site_fract_x
_atom_site_fract_y
_atom_site_fract_z
Si Si1 0.257554 0.182101 0.905955
Si Si2 0.448236 0.326125 0.859767
Si Si3 0.809610 0.837696 0.538322
Si Si4 0.730546 0.143366 0.952518
Si Si5 0.282865 0.576879 0.386541
Si Si6 0.957339 0.307373 0.396918
Si Si7 0.774634 0.301062 0.886332
Si Si8 0.138745 0.080397 0.251726
O O1 0.360448 0.257593 0.870073
O O2 0.508368 0.148954 0.729312
O O3 0.193081 0.144031 0.011297
O O4 0.000000 0.186202 0.000000
O O5 0.497915 0.387894 0.782139
O O6 0.742678 0.311713 0.733025
O O7 0.232893 0.337880 0.037677
O O8 0.834056 0.762907 0.491617
O O9 0.000000 0.839118 0.500000
O O10 0.917281 0.889725 0.423498
O O11 0.744578 0.221359 0.920305
O O12 0.899896 0.100684 0.805274
O O13 0.422106 0.116755 0.116372
O O14 0.350905 0.500000 0.368777
O O15 0.217548 0.629270 0.481837
O O16 0.000000 0.574383 0.500000
O O17 0.996709 0.308441 0.295165
O O18 0.500000 0.323661 0.000000
O O19 0.166461 0.000000 0.242795
#
# Coordination Sequence:
#
# PCOD9141343 Si02
#       8
#     4   4   4   4   4   4   4   4
#     4  11  22  34  54  81 110 138 177 229 270 314
#     4   9  16  28  46  71 101 132 172 212 262 307
#     4  12  18  34  55  80 105 134 179 228 268 309
#     4  10  17  34  52  78 112 136 170 219 275 314
#     4   9  16  26  43  71 107 140 171 213 269 321
#     4  10  15  27  50  77  97 132 171 223 265 306
#     4   9  14  23  46  71  97 128 166 211 259 303
#     4  11  21  33  57  86 108 135 178 229 270 317
#
# _framework density 16.529404
#
# number of rings (size 3 to 8) (size 9 to 14) (size 15 to 20)
#    0.000    1.875    6.250    1.875    0.000    0.250 
#    0.000    1.250    0.000    8.250    0.000    0.000 
#    0.000    4.000    0.000    0.000    0.000    0.000 
#
# Total GULP energy -178259.794671 kJ/mol
# GULP energy per Si atom -5570.618583 kJ/mol
# Density = 1.649178 g / cm^3
# Si number density = 16.529404 Si / 1000 Ang^3
#
#
#
# Elastic Constant Matrix: (Units=GPa)
#
#
# Indices 1 2 3 4 5 6 
#
# 1 90.6900 42.4140 59.7515 0.0000 34.0376 0.0000
# 2 42.4140 97.7157 36.3491 0.0000 24.2308 0.0000
# 3 59.7515 36.3491 74.8037 0.0000 33.1734 0.0000
# 4 0.0000 0.0000 0.0000 8.7343 0.0000 10.2466
# 5 34.0376 24.2308 33.1734 0.0000 33.8780 0.0000
# 6 0.0000 0.0000 0.0000 10.2466 0.0000 10.8678
#
#
#
# Elastic Compliance Matrix: (Units=1/GPa)
#
#
# Indices 1 2 3 4 5 6 
#
# 1 0.025879 -0.003441 -0.015131 0.000000 -0.008724 0.000000
# 2 -0.003441 0.013509 -0.001881 0.000000 -0.004363 0.000000
# 3 -0.015131 -0.001881 0.033637 0.000000 -0.016390 0.000000
# 4 0.000000 0.000000 0.000000 -1.079215 0.000000 1.017528
# 5 -0.008724 -0.004363 -0.016390 0.000000 0.057452 0.000000
# 6 0.000000 0.000000 0.000000 1.017528 0.000000 -0.867352
#
#
# Mechanical properties :
#
#
# Convention : Reuss Voigt Hill
#
# Bulk Modulus (GPa) = 31.13362 60.02653 45.58008
# Shear Modulus (GPa) = -2.83370 19.00900 8.08765
#
# Velocity S-wave (km/s) = -1.31075 3.39486 2.21439
# Velocity P-wave (km/s) = 4.07252 7.19448 5.84577
#
# Compressibility (1/GPa) = 0.03211962
#
# Stress axis : x y z
#
# Youngs Moduli (GPa) = 38.64131 74.02483 29.72934
#
# Poissons Ratio (x) = 0.25474 0.44983
# Poissons Ratio (y) = 0.13298 0.05591
# Poissons Ratio (z) = 0.58467 0.13921
#
# Static dielectric constant tensor:
#      x y z
#    x 1.573810 0.000000 0.037060 
#    y 0.000000 1.543780 0.000000 
#    z 0.037060 0.000000 1.568600 
# 
# From -- ./inp_files/84246.got.cif
#   From: 2010.05.17/outbox.cif.g08.bks.cpg/sg10_43_cif.got.tgz:84246.got - 2010.06.03 11:33:40.
