data_PCOD9141692
_publ_section_title
;
Structure prediction by ZEFSAII (Michael W. Deem and Ramdas Pophale) SiO2 
 PCOD9141692
Probable space group: P 2/M
;
_chemical_formula_sum "Si O2"
_cell_formula_units_Z 32
_cell_length_a 29.051724
_cell_length_b 8.355695
_cell_length_c 21.324845
_cell_angle_alpha 90.000000
_cell_angle_beta 159.240829
_cell_angle_gamma 90.000000
_cell_volume 1834.779908
_symmetry_space_group_name_H-M "P 2/M"
_symmetry_group_IT_number 10
_symmetry_cell_setting 'monoclinic'
loop_
_space_group_symop_operation_xyz
x,y,z
-x,y,-z
-x,-y,-z
x,-y,z
loop_
_atom_site_type_symbol
_atom_site_label
_atom_site_fract_x
_atom_site_fract_y
_atom_site_fract_z
Si Si1 0.039398 0.812783 0.453311
Si Si2 0.870203 0.806624 0.990324
Si Si3 0.079034 0.693109 0.162337
Si Si4 0.375511 0.190571 0.083910
Si Si5 0.810789 0.686115 0.248212
Si Si6 0.391428 0.806561 0.412430
Si Si7 0.148019 0.804650 0.889480
Si Si8 0.623728 0.690523 0.468115
O O1 0.156801 0.725894 0.638457
O O2 0.914251 0.787869 0.339253
O O3 0.981926 0.754683 0.313790
O O4 0.069575 0.000000 0.487531
O O5 0.748157 0.755209 0.792313
O O6 0.870091 0.000000 0.991011
O O7 0.851827 0.751347 0.038517
O O8 0.000210 0.747298 0.122794
O O9 0.080527 0.500000 0.161902
O O10 0.228024 0.748988 0.351510
O O11 0.000000 0.750324 0.000000
O O12 0.519330 0.234872 0.288271
O O13 0.363136 0.000000 0.062538
O O14 0.326594 0.268921 0.956897
O O15 0.274228 0.245134 0.009801
O O16 0.837849 0.500000 0.271755
O O17 0.500000 0.762586 0.500000
O O18 0.415894 0.733980 0.511440
O O19 0.392735 0.000000 0.420000
O O20 0.149158 0.000000 0.890728
O O21 0.622103 0.500000 0.458263
#
# Coordination Sequence:
#
# PCOD9141692 Si02
#       8
#     4   4   4   4   4   4   4   4
#     4   9  15  26  44  66  97 137 172 197 239 290
#     4  10  19  32  52  74  94 122 166 207 241 284
#     4  10  21  38  53  67  94 128 161 205 255 294
#     4  10  19  33  51  71 101 133 163 199 248 299
#     4  10  17  26  42  68 101 132 167 203 238 283
#     4  10  20  33  50  72  99 129 160 197 243 293
#     4   8  16  30  48  72 101 130 159 201 245 288
#     4  11  22  35  51  70  95 127 165 205 248 293
#
# _framework density 17.440783
#
# number of rings (size 3 to 8) (size 9 to 14) (size 15 to 20)
#    0.000    2.250    1.250    4.500    0.000    3.500 
#    0.000    5.000    0.000    0.000    0.000    0.875 
#    0.000    7.000    0.000    0.000    0.000    0.000 
#
# Total GULP energy -178432.200454 kJ/mol
# GULP energy per Si atom -5576.006264 kJ/mol
# Density = 1.740109 g / cm^3
# Si number density = 17.440783 Si / 1000 Ang^3
#
#
#
# Elastic Constant Matrix: (Units=GPa)
#
#
# Indices 1 2 3 4 5 6 
#
# 1 15.5375 3.6826 28.9673 0.0000 -4.3066 0.0000
# 2 3.6826 19.2923 17.6159 0.0000 -3.0135 0.0000
# 3 28.9673 17.6159 124.8540 0.0000 -17.6728 0.0000
# 4 0.0000 0.0000 0.0000 26.1407 0.0000 3.9798
# 5 -4.3066 -3.0135 -17.6728 0.0000 33.2158 0.0000
# 6 0.0000 0.0000 0.0000 3.9798 0.0000 18.4716
#
#
#
# Elastic Compliance Matrix: (Units=1/GPa)
#
#
# Indices 1 2 3 4 5 6 
#
# 1 0.113566 0.002758 -0.026623 0.000000 0.000810 0.000000
# 2 0.002758 0.059598 -0.008903 0.000000 0.001028 0.000000
# 3 -0.026623 -0.008903 0.016048 0.000000 0.004279 0.000000
# 4 0.000000 0.000000 0.000000 0.039552 0.000000 -0.008522
# 5 0.000810 0.001028 0.004279 0.000000 0.032581 0.000000
# 6 0.000000 0.000000 0.000000 -0.008522 0.000000 0.055973
#
#
# Mechanical properties :
#
#
# Convention : Reuss Voigt Hill
#
# Bulk Modulus (GPa) = 8.08566 28.91279 18.49923
# Shear Modulus (GPa) = 11.79027 22.86015 17.32521
#
# Velocity S-wave (km/s) = 2.60285 3.62433 3.15520
# Velocity P-wave (km/s) = 3.69855 5.84192 4.88913
#
# Compressibility (1/GPa) = 0.12367572
#
# Stress axis : x y z
#
# Youngs Moduli (GPa) = 8.80548 16.77911 62.31332
#
# Poissons Ratio (x) = -0.04628 1.65896
# Poissons Ratio (y) = -0.02429 0.55479
# Poissons Ratio (z) = 0.23443 0.14939
#
# Static dielectric constant tensor:
#      x y z
#    x 1.580640 0.000000 -0.029980 
#    y 0.000000 1.603690 0.000000 
#    z -0.029980 0.000000 1.622330 
# 
# From -- ./inp_files/54944.got.cif
#   From: 2010.05.17/outbox.cif.g08.bks.cpg/sg10_28_cif.got.tgz:54944.got - 2010.06.03 11:33:40.
