data_PCOD9141074
_publ_section_title
;
Structure prediction by ZEFSAII (Michael W. Deem and Ramdas Pophale) SiO2 
 PCOD9141074
Probable space group: C C
;
_chemical_formula_sum "Si O2"
_cell_formula_units_Z 28
_cell_length_a 8.125723
_cell_length_b 16.639859
_cell_length_c 9.725616
_cell_angle_alpha 90.000000
_cell_angle_beta 58.974165
_cell_angle_gamma 90.000000
_cell_volume 1126.877337
_symmetry_space_group_name_H-M "C C"
_symmetry_group_IT_number 9
_symmetry_cell_setting 'monoclinic'
loop_
_space_group_symop_operation_xyz
x,y,z
x,-y,1/2+z
1/2+x,1/2+y,z
1/2+x,1/2-y,1/2+z
loop_
_atom_site_type_symbol
_atom_site_label
_atom_site_fract_x
_atom_site_fract_y
_atom_site_fract_z
Si Si1 0.333500 0.863925 0.214200
Si Si2 0.075699 0.275741 0.875184
Si Si3 0.781990 0.070433 0.290125
Si Si4 0.146266 0.020966 0.583973
Si Si5 0.278401 0.287486 0.279274
Si Si6 0.034274 0.860532 0.922783
Si Si7 0.000961 0.571144 0.904700
O O1 0.215267 0.797849 0.351559
O O2 0.470082 0.913246 0.255982
O O3 0.184207 0.920867 0.197090
O O4 0.462170 0.815482 0.049821
O O5 0.205189 0.347751 0.756648
O O6 0.923933 0.242175 0.832647
O O7 0.893410 0.095840 0.379203
O O8 0.936229 0.014603 0.148280
O O9 0.603661 0.012458 0.391824
O O10 0.285321 0.945298 0.546299
O O11 0.178971 0.077765 0.437193
O O12 0.403949 0.321849 0.100122
O O13 0.148037 0.210932 0.299691
O O14 0.133693 0.356335 0.396585
#
# Coordination Sequence:
#
# PCOD9141074 Si02
#       7
#     4   4   4   4   4   4   4
#     4  12  26  51  77 115 155 202 267 313 396 468
#     4  12  25  50  80 114 154 207 258 322 388 471
#     4  12  27  48  78 112 159 203 257 328 390 461
#     4  12  26  50  78 116 152 206 260 324 390 466
#     4  12  25  50  80 114 154 207 258 322 388 471
#     4  12  26  51  77 115 155 202 267 313 396 468
#     4  12  27  48  78 112 159 203 257 328 390 461
#
# _framework density 24.847428000000001
#
# number of rings (size 3 to 8) (size 9 to 14) (size 15 to 20)
#    0.000    0.000    5.714    2.571    4.000    0.000 
#    5.143    0.000    0.000    0.000    0.000    0.000 
#    0.000    0.000    0.000    0.000    0.000    0.000 
#
# Total GULP energy -78459.477088 kJ/mol
# GULP energy per Si atom -5604.248363 kJ/mol
# Density = 2.479087 g / cm^3
# Si number density = 24.847428 Si / 1000 Ang^3
#
#
#
# Elastic Constant Matrix: (Units=GPa)
#
#
# Indices 1 2 3 4 5 6 
#
# 1 123.8260 52.6133 6.7468 0.0000 8.8062 0.0000
# 2 52.6133 145.5848 28.0361 0.0000 9.4502 0.0000
# 3 6.7468 28.0361 56.0869 0.0000 -4.3159 0.0000
# 4 0.0000 0.0000 0.0000 48.3498 0.0000 -9.1065
# 5 8.8062 9.4502 -4.3159 0.0000 38.7217 0.0000
# 6 0.0000 0.0000 0.0000 -9.1065 0.0000 78.7777
#
#
#
# Elastic Compliance Matrix: (Units=1/GPa)
#
#
# Indices 1 2 3 4 5 6 
#
# 1 0.009623 -0.003488 0.000487 0.000000 -0.001283 0.000000
# 2 -0.003488 0.009073 -0.004262 0.000000 -0.001896 0.000000
# 3 0.000487 -0.004262 0.020145 0.000000 0.003175 0.000000
# 4 0.000000 0.000000 0.000000 0.021143 0.000000 0.002444
# 5 -0.001283 -0.001896 0.003175 0.000000 0.026934 0.000000
# 6 0.000000 0.000000 0.000000 0.002444 0.000000 0.012976
#
#
# Mechanical properties :
#
#
# Convention : Reuss Voigt Hill
#
# Bulk Modulus (GPa) = 41.12468 55.58780 48.35624
# Shear Modulus (GPa) = 40.80809 49.04329 44.92569
#
# Velocity S-wave (km/s) = 4.05698 4.44754 4.25674
# Velocity P-wave (km/s) = 6.20744 6.98530 6.60782
#
# Compressibility (1/GPa) = 0.02431630
#
# Stress axis : x y z
#
# Youngs Moduli (GPa) = 103.92178 110.21438 49.63904
#
# Poissons Ratio (x) = 0.38444 -0.02419
# Poissons Ratio (y) = 0.36249 0.21155
# Poissons Ratio (z) = -0.05065 0.46970
#
# Static dielectric constant tensor:
#      x y z
#    x 1.924850 0.000000 -0.048850 
#    y 0.000000 1.953990 0.000000 
#    z -0.048850 0.000000 1.999840 
# 
# From -- ./inp_files/14518.got.cif
#   From: 2010.05.17/outbox.cif.g08.bks.cpg/sg9_8_cif.got.tgz:14518.got - 2010.06.03 20:04:27.
