data_PCOD9141090
_publ_section_title
;
Structure prediction by ZEFSAII (Michael W. Deem and Ramdas Pophale) SiO2 
 PCOD9141090
Probable space group: C C
;
_chemical_formula_sum "Si O2"
_cell_formula_units_Z 24
_cell_length_a 6.876891
_cell_length_b 11.796199
_cell_length_c 12.814885
_cell_angle_alpha 90.000000
_cell_angle_beta 98.759672
_cell_angle_gamma 90.000000
_cell_volume 1027.432924
_symmetry_space_group_name_H-M "C C"
_symmetry_group_IT_number 9
_symmetry_cell_setting 'monoclinic'
loop_
_space_group_symop_operation_xyz
x,y,z
x,-y,1/2+z
1/2+x,1/2+y,z
1/2+x,1/2-y,1/2+z
loop_
_atom_site_type_symbol
_atom_site_label
_atom_site_fract_x
_atom_site_fract_y
_atom_site_fract_z
Si Si1 0.910820 0.792916 0.408260
Si Si2 0.781174 0.454739 0.943079
Si Si3 0.626614 0.307272 0.202207
Si Si4 0.458157 0.500051 0.039925
Si Si5 0.066130 0.559835 0.114306
Si Si6 0.010922 0.401356 0.294915
O O1 0.882657 0.665300 0.441335
O O2 0.998573 0.868908 0.508996
O O3 0.692829 0.840097 0.363710
O O4 0.034899 0.797278 0.310912
O O5 0.547412 0.441700 0.942294
O O6 0.859413 0.518088 0.052527
O O7 0.859046 0.532404 0.857098
O O8 0.543556 0.420513 0.139096
O O9 0.573165 0.194081 0.132848
O O10 0.863644 0.314772 0.225740
O O11 0.228779 0.510195 0.048666
O O12 0.097479 0.495613 0.225168
#
# Coordination Sequence:
#
# PCOD9141090 Si02
#       6
#     4   4   4   4   4   4
#     4  12  27  48  74 110 149 193 243 302 362 435
#     4  12  27  48  73 109 147 189 245 305 365 433
#     4  12  27  48  74 110 149 193 243 302 362 435
#     4  12  26  46  76 108 142 194 244 296 366 426
#     4  12  27  48  73 109 147 189 245 305 365 433
#     4  12  26  46  72 108 148 194 244 300 366 428
#
# _framework density 23.359189000000001
#
# number of rings (size 3 to 8) (size 9 to 14) (size 15 to 20)
#    0.000    0.000    8.333    1.000    0.000    6.667 
#    0.000    0.000    0.000    0.000    0.000    0.000 
#    0.000    0.000    0.000    0.000    0.000    0.000 
#
# Total GULP energy -66999.301506 kJ/mol
# GULP energy per Si atom -5583.275126 kJ/mol
# Density = 2.330602 g / cm^3
# Si number density = 23.359189 Si / 1000 Ang^3
#
#
#
# Elastic Constant Matrix: (Units=GPa)
#
#
# Indices 1 2 3 4 5 6 
#
# 1 122.5573 47.9238 32.4407 0.0000 -17.0781 0.0000
# 2 47.9238 154.1283 51.2293 0.0000 10.4043 0.0000
# 3 32.4407 51.2293 59.8553 0.0000 -9.5512 0.0000
# 4 0.0000 0.0000 0.0000 46.0729 0.0000 0.9109
# 5 -17.0781 10.4043 -9.5512 0.0000 50.1363 0.0000
# 6 0.0000 0.0000 0.0000 0.9109 0.0000 32.3941
#
#
#
# Elastic Compliance Matrix: (Units=1/GPa)
#
#
# Indices 1 2 3 4 5 6 
#
# 1 0.010401 -0.002491 -0.002947 0.000000 0.003498 0.000000
# 2 -0.002491 0.010288 -0.008180 0.000000 -0.004542 0.000000
# 3 -0.002947 -0.008180 0.026213 0.000000 0.005687 0.000000
# 4 0.000000 0.000000 0.000000 0.021717 0.000000 -0.000611
# 5 0.003498 -0.004542 0.005687 0.000000 0.023163 0.000000
# 6 0.000000 0.000000 0.000000 -0.000611 0.000000 0.030887
#
#
# Mechanical properties :
#
#
# Convention : Reuss Voigt Hill
#
# Bulk Modulus (GPa) = 50.84918 66.63649 58.74284
# Shear Modulus (GPa) = 31.95685 39.38379 35.67032
#
# Velocity S-wave (km/s) = 3.70275 4.11056 3.91197
# Velocity P-wave (km/s) = 6.33215 7.14967 6.75329
#
# Compressibility (1/GPa) = 0.01966600
#
# Stress axis : x y z
#
# Youngs Moduli (GPa) = 96.14504 97.20026 38.14857
#
# Poissons Ratio (x) = 0.24208 0.11244
# Poissons Ratio (y) = 0.23945 0.31207
# Poissons Ratio (z) = 0.28337 0.79513
#
# Static dielectric constant tensor:
#      x y z
#    x 1.898920 0.000000 -0.002540 
#    y 0.000000 1.872940 0.000000 
#    z -0.002540 0.000000 1.918610 
# 
# From -- ./inp_files/21614.got.cif
#   From: 2010.05.17/outbox.cif.g08.bks.cpg/sg9_11_cif.got.tgz:21614.got - 2010.06.03 20:04:27.
