data_PCOD9141134
_publ_section_title
;
Structure prediction by ZEFSAII (Michael W. Deem and Ramdas Pophale) SiO2 
 PCOD9141134
Probable space group: C C
;
_chemical_formula_sum "Si O2"
_cell_formula_units_Z 20
_cell_length_a 22.881353
_cell_length_b 4.767337
_cell_length_c 12.797001
_cell_angle_alpha 90.000000
_cell_angle_beta 31.092147
_cell_angle_gamma 90.000000
_cell_volume 720.884050
_symmetry_space_group_name_H-M "C C"
_symmetry_group_IT_number 9
_symmetry_cell_setting 'monoclinic'
loop_
_space_group_symop_operation_xyz
x,y,z
x,-y,1/2+z
1/2+x,1/2+y,z
1/2+x,1/2-y,1/2+z
loop_
_atom_site_type_symbol
_atom_site_label
_atom_site_fract_x
_atom_site_fract_y
_atom_site_fract_z
Si Si1 0.602850 0.456959 0.448040
Si Si2 0.783379 0.569217 0.036179
Si Si3 0.899163 0.085586 0.973579
Si Si4 0.355164 0.638016 0.770743
Si Si5 0.123450 0.417819 0.564587
O O1 0.599134 0.162984 0.517524
O O2 0.385724 0.546407 0.607399
O O3 0.669570 0.665384 0.423125
O O4 0.649312 0.547541 0.261634
O O5 0.854153 0.829975 0.969600
O O6 0.830424 0.448131 0.855170
O O7 0.809039 0.321422 0.081883
O O8 0.015762 0.268394 0.784135
O O9 0.228014 0.501276 0.980507
O O10 0.473486 0.563124 0.644289
#
# Coordination Sequence:
#
# PCOD9141134 Si02
#       5
#     4   4   4   4   4
#     4  12  26  51  84 124 169 224 288 357 420 523
#     4  12  26  51  84 124 169 224 288 357 420 523
#     4  12  27  52  83 121 176 221 283 355 429 515
#     4  12  28  52  92 118 172 236 280 352 452 498
#     4  12  27  52  83 121 176 221 283 355 429 515
#
# _framework density 27.743714000000001
#
# number of rings (size 3 to 8) (size 9 to 14) (size 15 to 20)
#    0.000    0.000    6.000    2.400    0.000    6.400 
#    0.000    8.000    0.000    0.000    0.000    0.000 
#    0.000    0.000    0.000    0.000    0.000    0.000 
#
# Total GULP energy -55747.029602 kJ/mol
# GULP energy per Si atom -5574.702960 kJ/mol
# Density = 2.768057 g / cm^3
# Si number density = 27.743714 Si / 1000 Ang^3
#
#
#
# Elastic Constant Matrix: (Units=GPa)
#
#
# Indices 1 2 3 4 5 6 
#
# 1 50.3357 -12.1519 12.2597 -0.0044 -21.0119 0.0021
# 2 -12.1519 166.6792 54.2188 -0.0475 1.3029 0.0346
# 3 12.2597 54.2188 169.7234 -0.0187 6.4140 0.0041
# 4 -0.0044 -0.0475 -0.0187 48.0318 0.0018 11.3988
# 5 -21.0119 1.3029 6.4140 0.0018 32.1711 0.0062
# 6 0.0021 0.0346 0.0041 11.3988 0.0062 8.8992
#
#
#
# Elastic Compliance Matrix: (Units=1/GPa)
#
#
# Indices 1 2 3 4 5 6 
#
# 1 0.030150 0.003345 -0.004016 0.000016 0.020357 -0.000053
# 2 0.003345 0.007067 -0.002591 0.000019 0.002415 -0.000053
# 3 -0.004016 -0.002591 0.007159 -0.000004 -0.003945 0.000015
# 4 0.000016 0.000019 -0.000004 0.029912 0.000016 -0.038314
# 5 0.020357 0.002415 -0.003945 0.000016 0.045069 -0.000065
# 6 -0.000053 -0.000053 0.000015 -0.038314 -0.000065 0.161446
#
#
# Mechanical properties :
#
#
# Convention : Reuss Voigt Hill
#
# Bulk Modulus (GPa) = 26.41733 55.04349 40.73041
# Shear Modulus (GPa) = 16.66987 39.98120 28.32553
#
# Velocity S-wave (km/s) = 2.45389 3.80029 3.19873
# Velocity P-wave (km/s) = 4.19182 6.25614 5.32497
#
# Compressibility (1/GPa) = 0.03785394
#
# Stress axis : x y z
#
# Youngs Moduli (GPa) = 33.16729 141.49743 139.69055
#
# Poissons Ratio (x) = -0.47336 0.56097
# Poissons Ratio (y) = -0.11096 0.36188
# Poissons Ratio (z) = 0.13319 0.36656
#
# Static dielectric constant tensor:
#      x y z
#    x 2.331760 0.000050 -0.028970 
#    y 0.000050 2.288040 -0.000060 
#    z -0.028970 -0.000060 2.454880 
# 
# From -- ./inp_files/21083.got.cif
#   From: 2010.05.17/outbox.cif.g08.bks.cpg/sg9_11_cif.got.tgz:21083.got - 2010.06.03 20:04:27.
