data_PCOD9141372
_publ_section_title
;
Structure prediction by ZEFSAII (Michael W. Deem and Ramdas Pophale) SiO2 
 PCOD9141372
Probable space group: P 2/M
;
_chemical_formula_sum "Si O2"
_cell_formula_units_Z 18
_cell_length_a 12.593038
_cell_length_b 20.473164
_cell_length_c 8.793985
_cell_angle_alpha 90.000000
_cell_angle_beta 19.107638
_cell_angle_gamma 90.000000
_cell_volume 742.173437
_symmetry_space_group_name_H-M "P 2/M"
_symmetry_group_IT_number 10
_symmetry_cell_setting 'monoclinic'
loop_
_space_group_symop_operation_xyz
x,y,z
-x,y,-z
-x,-y,-z
x,-y,z
loop_
_atom_site_type_symbol
_atom_site_label
_atom_site_fract_x
_atom_site_fract_y
_atom_site_fract_z
Si Si1 0.774219 0.148963 0.456581
Si Si2 0.701055 0.633887 0.069747
Si Si3 0.727802 0.926176 0.040989
Si Si4 0.789100 0.703967 0.442364
Si Si5 0.400484 0.500000 0.459017
O O1 0.429796 0.125118 0.861165
O O2 0.799429 0.222163 0.485573
O O3 0.000000 0.149410 0.000000
O O4 0.927895 0.097344 0.363424
O O5 0.500000 0.637822 0.500000
O O6 0.566963 0.687603 0.136392
O O7 0.582191 0.565398 0.156646
O O8 0.057098 0.651438 0.649419
O O9 0.500000 0.925988 0.500000
O O10 0.724093 0.000000 0.987160
O O11 0.000000 0.700583 0.000000
O O12 0.500000 0.500000 0.500000
O O13 0.000000 0.500000 0.000000
#
# Coordination Sequence:
#
# PCOD9141372 Si02
#       5
#     4   4   4   4   2
#     4   9  15  21  27  33  39  45  51  57  63  69
#     4   9  15  21  27  33  39  45  51  57  62  68
#     4   9  15  21  27  33  39  45  51  57  63  69
#     4   9  15  21  27  33  39  45  51  57  63  68
#     4  10  16  22  28  34  40  46  52  56  62  68
#
# _framework density 24.253091999999999
#
# number of rings (size 3 to 8) (size 9 to 14) (size 15 to 20)
#    0.000    2.889    0.000    5.333    0.000    8.000 
#    0.000    0.000    0.000    0.000    0.000    0.000 
#    0.000    0.000    0.000    0.000    0.000    0.000 
#
# Total GULP energy -100424.904132 kJ/mol
# GULP energy per Si atom -5579.161341 kJ/mol
# Density = 2.419789 g / cm^3
# Si number density = 24.253092 Si / 1000 Ang^3
#
#
#
# Elastic Constant Matrix: (Units=GPa)
#
#
# Indices 1 2 3 4 5 6 
#
# 1 40.5500 4.8433 62.2290 0.0000 25.4825 0.0000
# 2 4.8433 130.2227 26.2111 0.0000 -34.7332 0.0000
# 3 62.2290 26.2111 60.9538 0.0000 -51.1772 0.0000
# 4 0.0000 0.0000 0.0000 22.5533 0.0000 -29.1321
# 5 25.4825 -34.7332 -51.1772 0.0000 61.2252 0.0000
# 6 0.0000 0.0000 0.0000 -29.1321 0.0000 3.5821
#
#
#
# Elastic Compliance Matrix: (Units=1/GPa)
#
#
# Indices 1 2 3 4 5 6 
#
# 1 -0.002752 0.000807 0.012772 0.000000 0.012279 0.000000
# 2 0.000807 0.008848 -0.002333 0.000000 0.002733 0.000000
# 3 0.012772 -0.002333 -0.004039 0.000000 -0.010016 0.000000
# 4 0.000000 0.000000 0.000000 -0.004665 0.000000 -0.037938
# 5 0.012279 0.002733 -0.010016 0.000000 0.004401 0.000000
# 6 0.000000 0.000000 0.000000 -0.037938 0.000000 -0.029371
#
#
# Mechanical properties :
#
#
# Convention : Reuss Voigt Hill
#
# Bulk Modulus (GPa) = 40.73843 46.47702 43.60772
# Shear Modulus (GPa) = -119.37156 26.70166 -46.33495
#
# Velocity S-wave (km/s) = -7.02324 3.32167 -4.37564
# Velocity P-wave (km/s) = 6.99530 5.82377 2.74026
#
# Compressibility (1/GPa) = 0.02454685
#
# Stress axis : x y z
#
# Youngs Moduli (GPa) = -363.39032 113.02215 -247.56216
#
# Poissons Ratio (x) = -0.09117 3.16185
# Poissons Ratio (y) = 0.29313 -0.57768
# Poissons Ratio (z) = 4.64121 0.26373
#
# Static dielectric constant tensor:
#      x y z
#    x 1.858070 0.000000 0.094550 
#    y 0.000000 1.957030 0.000000 
#    z 0.094550 0.000000 1.904460 
# 
# From -- ./inp_files/51839.got.cif
#   From: 2010.05.17/outbox.cif.g08.bks.cpg/sg10_26_cif.got.tgz:51839.got - 2010.06.03 11:33:40.
