data_PCOD9141892
_publ_section_title
;
Structure prediction by ZEFSAII (Michael W. Deem and Ramdas Pophale) SiO2 
 PCOD9141892
Probable space group: P 2/M
;
_chemical_formula_sum "Si O2"
_cell_formula_units_Z 24
_cell_length_a 5.562281
_cell_length_b 9.774655
_cell_length_c 25.525132
_cell_angle_alpha 90.000000
_cell_angle_beta 56.990075
_cell_angle_gamma 90.000000
_cell_volume 1163.763944
_symmetry_space_group_name_H-M "P 2/M"
_symmetry_group_IT_number 10
_symmetry_cell_setting 'monoclinic'
loop_
_space_group_symop_operation_xyz
x,y,z
-x,y,-z
-x,-y,-z
x,-y,z
loop_
_atom_site_type_symbol
_atom_site_label
_atom_site_fract_x
_atom_site_fract_y
_atom_site_fract_z
Si Si1 0.302160 0.799428 0.279135
Si Si2 0.327519 0.839576 0.868993
Si Si3 0.683796 0.833618 0.926482
Si Si4 0.911417 0.500000 0.235432
Si Si5 0.335199 0.665384 0.465920
Si Si6 0.311712 0.768480 0.675316
Si Si7 0.598027 0.500000 0.760791
O O1 0.485758 0.830307 0.205697
O O2 0.478362 0.843875 0.308965
O O3 0.293362 0.633361 0.282654
O O4 0.976811 0.843875 0.308964
O O5 0.513944 0.782854 0.895233
O O6 0.009891 0.782853 0.895234
O O7 0.282628 0.000000 0.886949
O O8 0.702393 0.000000 0.919044
O O9 0.500000 0.804385 0.000000
O O10 0.802709 0.634986 0.278915
O O11 0.743869 0.500000 0.200917
O O12 0.251536 0.500000 0.200918
O O13 0.500000 0.706288 0.500000
O O14 0.341930 0.500000 0.463228
O O15 0.510168 0.721941 0.395933
O O16 0.000000 0.706288 0.500000
#
# Coordination Sequence:
#
# PCOD9141892 Si02
#       7
#     4   4   4   2   4   4   2
#     4  10  19  29  46  66  90 125 154 187 228 267
#     4  10  19  31  47  72 101 120 148 191 230 272
#     4   9  17  30  49  71  96 125 151 181 228 281
#     4   8  14  24  38  55  78 112 143 180 207 252
#     4  10  19  28  41  62  89 122 155 187 231 282
#     4  10  17  29  42  60  89 119 157 182 225 277
#     4   8  16  26  40  59  83 114 152 180 203 260
#
# _framework density 20.62274
#
# number of rings (size 3 to 8) (size 9 to 14) (size 15 to 20)
#    0.000    2.500    0.833    2.500    0.000    2.000 
#    0.000    0.000    0.000    0.000    0.000    3.500 
#    0.000   13.333    0.000    0.000    0.000    0.000 
#
# Total GULP energy -133747.113528 kJ/mol
# GULP energy per Si atom -5572.796397 kJ/mol
# Density = 2.057580 g / cm^3
# Si number density = 20.622740 Si / 1000 Ang^3
#
#
#
# Elastic Constant Matrix: (Units=GPa)
#
#
# Indices 1 2 3 4 5 6 
#
# 1 300.2062 5.9452 89.9117 0.0000 -1.2806 0.0000
# 2 5.9452 51.8649 -13.4982 0.0000 -0.2003 0.0000
# 3 89.9117 -13.4982 86.1604 0.0000 -0.9231 0.0000
# 4 0.0000 0.0000 0.0000 24.5141 0.0000 0.4329
# 5 -1.2806 -0.2003 -0.9231 0.0000 42.9360 0.0000
# 6 0.0000 0.0000 0.0000 0.4329 0.0000 -17.5537
#
#
#
# Elastic Compliance Matrix: (Units=1/GPa)
#
#
# Indices 1 2 3 4 5 6 
#
# 1 0.005043 -0.002030 -0.005580 0.000000 0.000021 0.000000
# 2 -0.002030 0.020919 0.005397 0.000000 0.000153 0.000000
# 3 -0.005580 0.005397 0.018277 0.000000 0.000252 0.000000
# 4 0.000000 0.000000 0.000000 0.040775 0.000000 0.001005
# 5 0.000021 0.000153 0.000252 0.000000 0.023297 0.000000
# 6 0.000000 0.000000 0.000000 0.001005 0.000000 -0.056943
#
#
# Mechanical properties :
#
#
# Convention : Reuss Voigt Hill
#
# Bulk Modulus (GPa) = 25.11710 66.99432 46.05571
# Shear Modulus (GPa) = 72.39655 33.70414 53.05035
#
# Velocity S-wave (km/s) = 5.93139 4.04706 5.07741
# Velocity P-wave (km/s) = 7.68858 7.37526 7.53355
#
# Compressibility (1/GPa) = 0.03981352
#
# Stress axis : x y z
#
# Youngs Moduli (GPa) = 198.31377 47.80370 54.71245
#
# Poissons Ratio (x) = 0.09705 0.30529
# Poissons Ratio (y) = 0.40260 -0.29531
# Poissons Ratio (z) = 1.10657 -0.25802
#
# Static dielectric constant tensor:
#      x y z
#    x 1.780980 0.000000 -0.001280 
#    y 0.000000 1.759650 0.000000 
#    z -0.001280 0.000000 1.656550 
# 
# From -- ./inp_files/9301.got.cif
#   From: 2010.05.17/outbox.cif.g08.bks.cpg/sg10_5_cif.got.tgz:9301.got - 2010.06.03 11:33:40.
