data_PCOD9141478
_publ_section_title
;
Structure prediction by ZEFSAII (Michael W. Deem and Ramdas Pophale) SiO2 
 PCOD9141478
Probable space group: P 2/M
;
_chemical_formula_sum "Si O2"
_cell_formula_units_Z 32
_cell_length_a 11.698096
_cell_length_b 17.813198
_cell_length_c 23.159994
_cell_angle_alpha 90.000000
_cell_angle_beta 23.002625
_cell_angle_gamma 90.000000
_cell_volume 1885.907564
_symmetry_space_group_name_H-M "P 2/M"
_symmetry_group_IT_number 10
_symmetry_cell_setting 'monoclinic'
loop_
_space_group_symop_operation_xyz
x,y,z
-x,y,-z
-x,-y,-z
x,-y,z
loop_
_atom_site_type_symbol
_atom_site_label
_atom_site_fract_x
_atom_site_fract_y
_atom_site_fract_z
Si Si1 0.470188 0.415585 0.947963
Si Si2 0.737332 0.277619 0.786311
Si Si3 0.275249 0.913689 0.915196
Si Si4 0.889332 0.796144 0.920669
Si Si5 0.774796 0.413595 0.261045
Si Si6 0.787028 0.730655 0.334737
Si Si7 0.727458 0.786087 0.668776
Si Si8 0.771138 0.681333 0.153666
O O1 0.583587 0.500000 0.895647
O O2 0.647235 0.364273 0.822304
O O3 0.500000 0.386473 0.000000
O O4 0.128614 0.414989 0.092442
O O5 0.839708 0.242712 0.678733
O O6 0.966959 0.274398 0.730779
O O7 0.429862 0.237698 0.944811
O O8 0.531769 0.860084 0.771750
O O9 0.366497 0.000000 0.878820
O O10 0.165353 0.876984 0.026215
O O11 0.000000 0.910213 0.000000
O O12 0.094425 0.785039 0.770386
O O13 0.038855 0.744408 0.900475
O O14 0.679551 0.500000 0.316341
O O15 0.717964 0.350529 0.336701
O O16 0.673092 0.379217 0.247131
O O17 0.500000 0.758620 0.500000
O O18 0.502205 0.723755 0.748303
O O19 0.000000 0.798422 0.500000
O O20 0.000000 0.649918 0.000000
#
# Coordination Sequence:
#
# PCOD9141478 Si02
#       8
#     4   4   4   4   4   4   4   4
#     4  10  16  28  51  77 100 130 180 238 282 316
#     4  11  19  35  55  80 103 144 189 231 273 324
#     4  10  19  35  62  90 115 147 181 218 271 324
#     4  10  18  35  58  81 114 137 183 233 266 318
#     4  10  21  33  52  77 109 143 182 239 292 332
#     4  11  23  33  55  82 110 144 187 234 280 329
#     4  11  23  35  57  82 117 147 179 226 272 329
#     4  11  17  35  56  80 106 144 189 231 272 322
#
# _framework density 16.967957999999999
#
# number of rings (size 3 to 8) (size 9 to 14) (size 15 to 20)
#    0.000    1.500    7.500    0.375    3.500    0.750 
#    0.000    0.625    0.000    7.125    0.000    0.000 
#    0.000    0.000    0.000    0.000    0.000    0.000 
#
# Total GULP energy -178393.820854 kJ/mol
# GULP energy per Si atom -5574.806902 kJ/mol
# Density = 1.692934 g / cm^3
# Si number density = 16.967958 Si / 1000 Ang^3
#
#
#
# Elastic Constant Matrix: (Units=GPa)
#
#
# Indices 1 2 3 4 5 6 
#
# 1 78.7012 36.7156 31.1767 0.0000 15.8322 0.0000
# 2 36.7156 94.5974 31.0537 0.0000 17.0469 0.0000
# 3 31.1767 31.0537 88.4870 0.0000 28.6002 0.0000
# 4 0.0000 0.0000 0.0000 10.0521 0.0000 0.9201
# 5 15.8322 17.0469 28.6002 0.0000 27.1543 0.0000
# 6 0.0000 0.0000 0.0000 0.9201 0.0000 20.4117
#
#
#
# Elastic Compliance Matrix: (Units=1/GPa)
#
#
# Indices 1 2 3 4 5 6 
#
# 1 0.016940 -0.004922 -0.003104 0.000000 -0.003517 0.000000
# 2 -0.004922 0.013782 -0.001870 0.000000 -0.003813 0.000000
# 3 -0.003104 -0.001870 0.018325 0.000000 -0.016317 0.000000
# 4 0.000000 0.000000 0.000000 0.099894 0.000000 -0.004503
# 5 -0.003517 -0.003813 -0.016317 0.000000 0.058456 0.000000
# 6 0.000000 0.000000 0.000000 -0.004503 0.000000 0.049194
#
#
# Mechanical properties :
#
#
# Convention : Reuss Voigt Hill
#
# Bulk Modulus (GPa) = 34.18329 51.07530 42.62929
# Shear Modulus (GPa) = 17.47418 22.37960 19.92689
#
# Velocity S-wave (km/s) = 3.21258 3.63565 3.43065
# Velocity P-wave (km/s) = 5.82670 6.91305 6.39300
#
# Compressibility (1/GPa) = 0.02925406
#
# Stress axis : x y z
#
# Youngs Moduli (GPa) = 59.03293 72.55595 54.57027
#
# Poissons Ratio (x) = 0.35711 0.16940
# Poissons Ratio (y) = 0.29055 0.10207
# Poissons Ratio (z) = 0.18325 0.13571
#
# Static dielectric constant tensor:
#      x y z
#    x 1.611320 0.000000 0.007750 
#    y 0.000000 1.586810 0.000000 
#    z 0.007750 0.000000 1.568680 
# 
# From -- ./inp_files/47805.got.cif
#   From: 2010.05.17/outbox.cif.g08.bks.cpg/sg10_24_cif.got.tgz:47805.got - 2010.06.03 11:33:40.
