data_PCOD9141191
_publ_section_title
;
Structure prediction by ZEFSAII (Michael W. Deem and Ramdas Pophale) SiO2 
 PCOD9141191
Probable space group: C C
;
_chemical_formula_sum "Si O2"
_cell_formula_units_Z 24
_cell_length_a 7.269832
_cell_length_b 13.561397
_cell_length_c 9.606766
_cell_angle_alpha 90.000000
_cell_angle_beta 65.980171
_cell_angle_gamma 90.000000
_cell_volume 865.105812
_symmetry_space_group_name_H-M "C C"
_symmetry_group_IT_number 9
_symmetry_cell_setting 'monoclinic'
loop_
_space_group_symop_operation_xyz
x,y,z
x,-y,1/2+z
1/2+x,1/2+y,z
1/2+x,1/2-y,1/2+z
loop_
_atom_site_type_symbol
_atom_site_label
_atom_site_fract_x
_atom_site_fract_y
_atom_site_fract_z
Si Si1 0.508190 0.445045 0.170470
Si Si2 0.601063 0.163768 0.445467
Si Si3 0.448676 0.777661 0.686857
Si Si4 0.738124 0.555963 0.877602
Si Si5 0.586732 0.039036 0.956889
Si Si6 0.485345 0.745132 0.253321
O O1 0.339904 0.658331 0.340904
O O2 0.537863 0.329937 0.117810
O O3 0.553355 0.523012 0.034844
O O4 0.289956 0.444348 0.309155
O O5 0.510931 0.197222 0.324991
O O6 0.842196 0.336050 0.346409
O O7 0.590077 0.062559 0.540647
O O8 0.525562 0.866095 0.564196
O O9 0.207538 0.767115 0.745262
O O10 0.514236 0.757962 0.080942
O O11 0.665357 0.533133 0.746153
O O12 0.921922 0.500559 0.894774
#
# Coordination Sequence:
#
# PCOD9141191 Si02
#       6
#     4   4   4   4   4   4
#     4  12  31  55  95 134 177 242 296 374 460 536
#     4  12  32  54  89 131 178 236 308 374 456 540
#     4  12  31  56  90 130 182 238 306 368 455 544
#     4  12  29  59  85 135 179 233 301 366 454 541
#     4  12  32  53  90 130 179 233 302 375 450 537
#     4  12  29  59  87 130 183 240 295 379 455 540
#
# _framework density 27.742269
#
# number of rings (size 3 to 8) (size 9 to 14) (size 15 to 20)
#    0.000    0.000    3.333    2.000   16.333    0.000 
#    0.000    0.000    0.000    0.000    0.000    0.000 
#    0.000    0.000    0.000    0.000    0.000    0.000 
#
# Total GULP energy -67188.759826 kJ/mol
# GULP energy per Si atom -5599.063319 kJ/mol
# Density = 2.767913 g / cm^3
# Si number density = 27.742269 Si / 1000 Ang^3
#
#
#
# Elastic Constant Matrix: (Units=GPa)
#
#
# Indices 1 2 3 4 5 6 
#
# 1 116.6579 16.6892 81.6254 0.0000 -6.2594 0.0000
# 2 16.6892 170.1333 83.8270 0.0000 -14.5222 0.0000
# 3 81.6254 83.8270 201.2360 0.0000 -12.9908 0.0000
# 4 0.0000 0.0000 0.0000 53.2523 0.0000 -25.1926
# 5 -6.2594 -14.5222 -12.9908 0.0000 57.5143 0.0000
# 6 0.0000 0.0000 0.0000 -25.1926 0.0000 10.1767
#
#
#
# Elastic Compliance Matrix: (Units=1/GPa)
#
#
# Indices 1 2 3 4 5 6 
#
# 1 0.012308 0.001608 -0.005631 0.000000 0.000473 0.000000
# 2 0.001608 0.007687 -0.003773 0.000000 0.001264 0.000000
# 3 -0.005631 -0.003773 0.008853 0.000000 0.000434 0.000000
# 4 0.000000 0.000000 0.000000 -0.109742 0.000000 -0.271668
# 5 0.000473 0.001264 0.000434 0.000000 0.017856 0.000000
# 6 0.000000 0.000000 0.000000 -0.271668 0.000000 -0.574255
#
#
# Mechanical properties :
#
#
# Convention : Reuss Voigt Hill
#
# Bulk Modulus (GPa) = 75.44274 94.70113 85.07194
# Shear Modulus (GPa) = -8.10001 44.58103 18.24051
#
# Velocity S-wave (km/s) = -1.71058 4.01305 2.56696
# Velocity P-wave (km/s) = 4.83237 7.46210 6.28628
#
# Compressibility (1/GPa) = 0.01325509
#
# Stress axis : x y z
#
# Youngs Moduli (GPa) = 81.24931 130.09516 112.95544
#
# Poissons Ratio (x) = -0.20917 0.63610
# Poissons Ratio (y) = -0.13063 0.42613
# Poissons Ratio (z) = 0.45755 0.49079
#
# Static dielectric constant tensor:
#      x y z
#    x 2.317790 0.000000 0.021160 
#    y 0.000000 2.524140 0.000000 
#    z 0.021160 0.000000 2.099000 
# 
# From -- ./inp_files/14309.got.cif
#   From: 2010.05.17/outbox.cif.g08.bks.cpg/sg9_8_cif.got.tgz:14309.got - 2010.06.03 20:04:27.
