data_PCOD9141776
_publ_section_title
;
Structure prediction by ZEFSAII (Michael W. Deem and Ramdas Pophale) SiO2 
 PCOD9141776
Probable space group: P 2/M
;
_chemical_formula_sum "Si O2"
_cell_formula_units_Z 32
_cell_length_a 32.077111
_cell_length_b 7.616612
_cell_length_c 22.384953
_cell_angle_alpha 90.000000
_cell_angle_beta 19.185361
_cell_angle_gamma 90.000000
_cell_volume 1797.274145
_symmetry_space_group_name_H-M "P 2/M"
_symmetry_group_IT_number 10
_symmetry_cell_setting 'monoclinic'
loop_
_space_group_symop_operation_xyz
x,y,z
-x,y,-z
-x,-y,-z
x,-y,z
loop_
_atom_site_type_symbol
_atom_site_label
_atom_site_fract_x
_atom_site_fract_y
_atom_site_fract_z
Si Si1 0.993458 0.205638 0.823693
Si Si2 0.451662 0.284073 0.212707
Si Si3 0.774624 0.707530 0.566579
Si Si4 0.918318 0.789067 0.166731
Si Si5 0.700865 0.711546 0.213978
Si Si6 0.622464 0.296064 0.878618
Si Si7 0.528402 0.285319 0.557008
Si Si8 0.379508 0.288928 0.439947
O O1 0.084261 0.272531 0.648377
O O2 0.033442 0.280947 0.834463
O O3 0.019138 0.000000 0.791769
O O4 0.845348 0.232913 0.013080
O O5 0.453092 0.500000 0.210711
O O6 0.323419 0.227489 0.351504
O O7 0.443001 0.225051 0.292605
O O8 0.569607 0.222354 0.012432
O O9 0.749039 0.500000 0.605691
O O10 0.734000 0.781245 0.686357
O O11 0.770056 0.750903 0.359345
O O12 0.934391 0.000000 0.145851
O O13 0.000000 0.721689 0.000000
O O14 0.698733 0.500000 0.216965
O O15 0.605464 0.769705 0.290596
O O16 0.637411 0.769024 0.362457
O O17 0.653322 0.500000 0.849558
O O18 0.500000 0.293103 0.000000
O O19 0.528788 0.500000 0.557185
O O20 0.558907 0.222808 0.582075
O O21 0.391865 0.500000 0.423487
#
# Coordination Sequence:
#
# PCOD9141776 Si02
#       8
#     4   4   4   4   4   4   4   4
#     4  11  21  30  42  63  90 115 145 183 215 244
#     4   8  13  22  39  65  90 110 136 173 210 250
#     4   9  15  26  43  62  85 116 146 168 204 258
#     4  10  21  33  41  55  87 124 147 168 208 257
#     4   9  17  32  49  62  83 114 147 179 219 261
#     4   7  11  20  37  60  85 111 139 168 201 250
#     4   8  16  30  48  68  85 106 141 188 224 249
#     4  10  17  27  46  69  88 107 140 180 215 251
#
# _framework density 17.804741
#
# number of rings (size 3 to 8) (size 9 to 14) (size 15 to 20)
#    0.000    3.000    1.250    3.375    0.000    0.750 
#    0.000    1.875    0.000    4.125    0.000    0.875 
#    0.000    7.000    0.000    0.000    0.000    0.000 
#
# Total GULP energy -178292.149006 kJ/mol
# GULP energy per Si atom -5571.629656 kJ/mol
# Density = 1.776422 g / cm^3
# Si number density = 17.804741 Si / 1000 Ang^3
#
#
#
# Elastic Constant Matrix: (Units=GPa)
#
#
# Indices 1 2 3 4 5 6 
#
# 1 118.1736 -2.1923 95.9811 0.0000 25.6027 0.0000
# 2 -2.1923 31.5632 -1.1462 0.0000 4.4450 0.0000
# 3 95.9811 -1.1462 132.3885 0.0000 29.4310 0.0000
# 4 0.0000 0.0000 0.0000 74.2555 0.0000 -13.4363
# 5 25.6027 4.4450 29.4310 0.0000 28.4430 0.0000
# 6 0.0000 0.0000 0.0000 -13.4363 0.0000 4.4979
#
#
#
# Elastic Compliance Matrix: (Units=1/GPa)
#
#
# Indices 1 2 3 4 5 6 
#
# 1 0.021014 0.001566 -0.014237 0.000000 -0.004429 0.000000
# 2 0.001566 0.032856 0.000784 0.000000 -0.007356 0.000000
# 3 -0.014237 0.000784 0.019560 0.000000 -0.007546 0.000000
# 4 0.000000 0.000000 0.000000 0.029310 0.000000 0.087558
# 5 -0.004429 -0.007356 -0.007546 0.000000 0.048103 0.000000
# 6 0.000000 0.000000 0.000000 0.087558 0.000000 0.483889
#
#
# Mechanical properties :
#
#
# Convention : Reuss Voigt Hill
#
# Bulk Modulus (GPa) = 20.13840 51.93451 36.03646
# Shear Modulus (GPa) = 7.40679 34.07146 20.73912
#
# Velocity S-wave (km/s) = 2.04182 4.37924 3.41663
# Velocity P-wave (km/s) = 4.11023 7.40287 5.98734
#
# Compressibility (1/GPa) = 0.04965637
#
# Stress axis : x y z
#
# Youngs Moduli (GPa) = 47.58732 30.43613 51.12567
#
# Poissons Ratio (x) = -0.04767 0.72787
# Poissons Ratio (y) = -0.07453 -0.04009
# Poissons Ratio (z) = 0.67750 -0.02387
#
# Static dielectric constant tensor:
#      x y z
#    x 1.618600 0.000000 0.045350 
#    y 0.000000 1.655960 0.000000 
#    z 0.045350 0.000000 1.611930 
# 
# From -- ./inp_files/54865.got.cif
#   From: 2010.05.17/outbox.cif.g08.bks.cpg/sg10_28_cif.got.tgz:54865.got - 2010.06.03 11:33:40.
