data_PCOD9141466
_publ_section_title
;
Structure prediction by ZEFSAII (Michael W. Deem and Ramdas Pophale) SiO2 
 PCOD9141466
Probable space group: P 2/M
;
_chemical_formula_sum "Si O2"
_cell_formula_units_Z 32
_cell_length_a 15.228486
_cell_length_b 7.654983
_cell_length_c 15.626540
_cell_angle_alpha 90.000000
_cell_angle_beta 81.017122
_cell_angle_gamma 90.000000
_cell_volume 1799.302775
_symmetry_space_group_name_H-M "P 2/M"
_symmetry_group_IT_number 10
_symmetry_cell_setting 'monoclinic'
loop_
_space_group_symop_operation_xyz
x,y,z
-x,y,-z
-x,-y,-z
x,-y,z
loop_
_atom_site_type_symbol
_atom_site_label
_atom_site_fract_x
_atom_site_fract_y
_atom_site_fract_z
Si Si1 0.811309 0.796561 0.570051
Si Si2 0.383372 0.711103 0.436946
Si Si3 0.260632 0.702403 0.761170
Si Si4 0.131184 0.713658 0.922605
Si Si5 0.138557 0.798555 0.624167
Si Si6 0.580686 0.286286 0.373700
Si Si7 0.934583 0.712287 0.888667
Si Si8 0.942378 0.702921 0.698118
O O1 0.705538 0.777510 0.593589
O O2 0.837666 0.722879 0.472610
O O3 0.866321 0.716164 0.638977
O O4 0.836127 0.000000 0.565426
O O5 0.380899 0.500000 0.436056
O O6 0.385610 0.765547 0.536668
O O7 0.477757 0.766349 0.382770
O O8 0.279456 0.500000 0.778409
O O9 0.211489 0.779040 0.851482
O O10 0.189772 0.708023 0.694126
O O11 0.351517 0.778145 0.708647
O O12 0.133759 0.500000 0.920953
O O13 0.036607 0.761577 0.894240
O O14 0.125264 0.771256 0.022197
O O15 0.033131 0.791984 0.654015
O O16 0.168496 0.000000 0.621254
O O17 0.582478 0.500000 0.372997
O O18 0.930758 0.500000 0.891310
O O19 0.912890 0.770010 0.796036
O O20 0.966739 0.500000 0.705264
#
# Coordination Sequence:
#
# PCOD9141466 Si02
#       8
#     4   4   4   4   4   4   4   4
#     4  11  23  35  45  63  92 125 156 190 229 265
#     4   9  16  30  48  67  91 119 150 190 227 264
#     4  10  16  27  49  72  92 122 156 181 216 272
#     4   8  13  23  43  69  95 115 140 185 228 265
#     4  11  22  33  43  62  96 127 152 187 224 260
#     4   8  15  26  46  72  94 114 147 191 228 260
#     4   8  14  25  42  68  93 113 144 187 230 263
#     4  11  21  33  50  67  85 120 163 193 220 266
#
# _framework density 17.784666000000001
#
# number of rings (size 3 to 8) (size 9 to 14) (size 15 to 20)
#    0.000    2.500    2.500    3.000    0.000    3.000 
#    0.000    1.875    0.000    2.250    0.000    0.875 
#    0.000    7.000    0.000    0.000    0.000    0.000 
#
# Total GULP energy -178452.303288 kJ/mol
# GULP energy per Si atom -5576.634478 kJ/mol
# Density = 1.774419 g / cm^3
# Si number density = 17.784666 Si / 1000 Ang^3
#
#
#
# Elastic Constant Matrix: (Units=GPa)
#
#
# Indices 1 2 3 4 5 6 
#
# 1 92.6388 -7.6989 64.0930 0.0000 -25.7362 0.0000
# 2 -7.6989 35.1226 0.9434 0.0000 -3.0273 0.0000
# 3 64.0930 0.9434 116.4179 0.0000 -28.0949 0.0000
# 4 0.0000 0.0000 0.0000 -9.9311 0.0000 -14.7827
# 5 -25.7362 -3.0273 -28.0949 0.0000 32.5563 0.0000
# 6 0.0000 0.0000 0.0000 -14.7827 0.0000 -0.5852
#
#
#
# Elastic Compliance Matrix: (Units=1/GPa)
#
#
# Indices 1 2 3 4 5 6 
#
# 1 0.019701 0.005282 -0.008856 0.000000 0.008422 0.000000
# 2 0.005282 0.030143 -0.001854 0.000000 0.005378 0.000000
# 3 -0.008856 -0.001854 0.014840 0.000000 0.005633 0.000000
# 4 0.000000 0.000000 0.000000 0.002751 0.000000 -0.069495
# 5 0.008422 0.005378 0.005633 0.000000 0.042735 0.000000
# 6 0.000000 0.000000 0.000000 -0.069495 0.000000 0.046687
#
#
# Mechanical properties :
#
#
# Convention : Reuss Voigt Hill
#
# Bulk Modulus (GPa) = 18.57825 39.87271 29.22548
# Shear Modulus (GPa) = 26.93161 16.86413 21.89787
#
# Velocity S-wave (km/s) = 3.89564 3.08269 3.51276
# Velocity P-wave (km/s) = 5.54108 5.92782 5.73771
#
# Compressibility (1/GPa) = 0.05382638
#
# Stress axis : x y z
#
# Youngs Moduli (GPa) = 50.75943 33.17528 67.38569
#
# Poissons Ratio (x) = -0.17524 0.59680
# Poissons Ratio (y) = -0.26812 0.12496
# Poissons Ratio (z) = 0.44955 0.06152
#
# Static dielectric constant tensor:
#      x y z
#    x 1.588300 0.000000 -0.037230 
#    y 0.000000 1.660690 0.000000 
#    z -0.037230 0.000000 1.626950 
# 
# From -- ./inp_files/66120.got.cif
#   From: 2010.05.17/outbox.cif.g08.bks.cpg/sg10_34_cif.got.tgz:66120.got - 2010.06.03 11:33:40.
