data_PCOD9141511
_publ_section_title
;
Structure prediction by ZEFSAII (Michael W. Deem and Ramdas Pophale) SiO2 
 PCOD9141511
Probable space group: P 2/M
;
_chemical_formula_sum "Si O2"
_cell_formula_units_Z 28
_cell_length_a 11.512406
_cell_length_b 15.185879
_cell_length_c 14.343387
_cell_angle_alpha 90.000000
_cell_angle_beta 140.714974
_cell_angle_gamma 90.000000
_cell_volume 1587.756812
_symmetry_space_group_name_H-M "P 2/M"
_symmetry_group_IT_number 10
_symmetry_cell_setting 'monoclinic'
loop_
_space_group_symop_operation_xyz
x,y,z
-x,y,-z
-x,-y,-z
x,-y,z
loop_
_atom_site_type_symbol
_atom_site_label
_atom_site_fract_x
_atom_site_fract_y
_atom_site_fract_z
Si Si1 0.975191 0.766198 0.214336
Si Si2 0.584022 0.147431 0.963922
Si Si3 0.236894 0.600000 0.917897
Si Si4 0.619089 0.334488 0.192889
Si Si5 0.156303 0.763143 0.525176
Si Si6 0.479364 0.902315 0.698587
Si Si7 0.146984 0.896727 0.175846
O O1 0.902477 0.672903 0.129638
O O2 0.064220 0.745182 0.369049
O O3 0.100472 0.825556 0.225754
O O4 0.790511 0.823474 0.111838
O O5 0.460663 0.236454 0.877065
O O6 0.568765 0.098898 0.857035
O O7 0.500000 0.099069 0.000000
O O8 0.172824 0.500000 0.881672
O O9 0.282381 0.627878 0.838330
O O10 0.434143 0.609542 0.091438
O O11 0.751588 0.319294 0.362886
O O12 0.314936 0.833493 0.601606
O O13 0.000000 0.796936 0.500000
O O14 0.647418 0.881393 0.734344
O O15 0.410061 0.000000 0.633393
O O16 0.133748 0.000000 0.197669
O O17 0.000000 0.885993 0.000000
#
# Coordination Sequence:
#
# PCOD9141511 Si02
#       7
#     4   4   4   4   4   4   4
#     4  11  20  34  58  86 116 155 192 244 297 344
#     4  10  16  31  54  78 108 148 188 231 289 347
#     4  10  18  33  59  89 117 151 199 243 285 344
#     4   9  16  31  52  79 115 152 185 226 279 346
#     4  11  21  36  55  82 126 161 187 228 299 369
#     4  10  22  37  54  80 113 151 200 248 288 343
#     4  10  21  39  62  86 109 148 210 260 286 333
#
# _framework density 17.634943
#
# number of rings (size 3 to 8) (size 9 to 14) (size 15 to 20)
#    0.000    1.857    5.714    1.714    0.000    1.714 
#    0.000    5.000    0.000    0.429    0.000    1.000 
#    0.000    0.000    0.000    0.000    0.000    0.000 
#
# Total GULP energy -156033.938586 kJ/mol
# GULP energy per Si atom -5572.640664 kJ/mol
# Density = 1.759480 g / cm^3
# Si number density = 17.634943 Si / 1000 Ang^3
#
#
#
# Elastic Constant Matrix: (Units=GPa)
#
#
# Indices 1 2 3 4 5 6 
#
# 1 91.7365 48.9861 15.6903 0.0000 7.8159 0.0000
# 2 48.9861 91.9089 17.1513 0.0000 9.5668 0.0000
# 3 15.6903 17.1513 83.9940 0.0000 4.9208 0.0000
# 4 0.0000 0.0000 0.0000 16.5655 0.0000 -1.4639
# 5 7.8159 9.5668 4.9208 0.0000 21.6164 0.0000
# 6 0.0000 0.0000 0.0000 -1.4639 0.0000 12.3347
#
#
#
# Elastic Compliance Matrix: (Units=1/GPa)
#
#
# Indices 1 2 3 4 5 6 
#
# 1 0.015432 -0.007812 -0.001179 0.000000 -0.001854 0.000000
# 2 -0.007812 0.015724 -0.001530 0.000000 -0.003786 0.000000
# 3 -0.001179 -0.001530 0.012541 0.000000 -0.001752 0.000000
# 4 0.000000 0.000000 0.000000 0.061006 0.000000 0.007240
# 5 -0.001854 -0.003786 -0.001752 0.000000 0.049006 0.000000
# 6 0.000000 0.000000 0.000000 0.007240 0.000000 0.081931
#
#
# Mechanical properties :
#
#
# Convention : Reuss Voigt Hill
#
# Bulk Modulus (GPa) = 44.13995 47.92166 46.03080
# Shear Modulus (GPa) = 18.92275 22.49077 20.70676
#
# Velocity S-wave (km/s) = 3.27926 3.57508 3.43036
# Velocity P-wave (km/s) = 6.27871 6.65394 6.46905
#
# Compressibility (1/GPa) = 0.02265522
#
# Stress axis : x y z
#
# Youngs Moduli (GPa) = 64.80094 63.59893 79.73976
#
# Poissons Ratio (x) = 0.49683 0.09401
# Poissons Ratio (y) = 0.50622 0.12197
# Poissons Ratio (z) = 0.07639 0.09728
#
# Static dielectric constant tensor:
#      x y z
#    x 1.604210 0.000000 -0.001040 
#    y 0.000000 1.606620 0.000000 
#    z -0.001040 0.000000 1.646450 
# 
# From -- ./inp_files/64937.got.cif
#   From: 2010.05.17/outbox.cif.g08.bks.cpg/sg10_33_cif.got.tgz:64937.got - 2010.06.03 11:33:40.
