data_PCOD9141010
_publ_section_title
;
Structure prediction by ZEFSAII (Michael W. Deem and Ramdas Pophale) SiO2 
 PCOD9141010
Probable space group: C C
;
_chemical_formula_sum "Si O2"
_cell_formula_units_Z 28
_cell_length_a 10.308513
_cell_length_b 11.866238
_cell_length_c 10.662229
_cell_angle_alpha 90.000000
_cell_angle_beta 57.473635
_cell_angle_gamma 90.000000
_cell_volume 1099.661187
_symmetry_space_group_name_H-M "C C"
_symmetry_group_IT_number 9
_symmetry_cell_setting 'monoclinic'
loop_
_space_group_symop_operation_xyz
x,y,z
x,-y,1/2+z
1/2+x,1/2+y,z
1/2+x,1/2-y,1/2+z
loop_
_atom_site_type_symbol
_atom_site_label
_atom_site_fract_x
_atom_site_fract_y
_atom_site_fract_z
Si Si1 0.578350 0.571666 0.713020
Si Si2 0.367789 0.218868 0.255502
Si Si3 0.553617 0.056658 0.987638
Si Si4 0.485061 0.628781 0.121352
Si Si5 0.612108 0.810403 0.233287
Si Si6 0.401032 0.166741 0.520708
Si Si7 0.819175 0.995270 0.027830
O O1 0.469566 0.667375 0.708954
O O2 0.603534 0.468722 0.600586
O O3 0.734564 0.636691 0.665895
O O4 0.484021 0.507533 0.873001
O O5 0.432775 0.135237 0.118987
O O6 0.195869 0.246568 0.303685
O O7 0.376273 0.162809 0.386005
O O8 0.706986 0.064763 0.993432
O O9 0.510905 0.926971 0.017729
O O10 0.540825 0.086799 0.847288
O O11 0.501009 0.724930 0.219747
O O12 0.480298 0.713456 0.006312
O O13 0.336950 0.553216 0.156680
O O14 0.749002 0.870401 0.081999
#
# Coordination Sequence:
#
# PCOD9141010 Si02
#       7
#     4   4   4   4   4   4   4
#     4  12  27  47  79 117 161 210 263 334 406 478
#     4  12  25  50  78 110 164 209 267 337 399 480
#     4  12  26  51  77 113 155 214 270 329 405 483
#     4  12  26  48  79 116 153 211 268 330 401 479
#     4  12  26  48  76 116 157 212 265 337 399 480
#     4  12  28  51  77 117 161 211 269 336 403 487
#     4  12  24  51  76 113 161 207 264 327 405 473
#
# _framework density 25.462389999999999
#
# number of rings (size 3 to 8) (size 9 to 14) (size 15 to 20)
#    0.000    0.000    5.714    3.429    2.000    4.571 
#    0.000    0.000    0.000    0.000    0.000    0.000 
#    0.000    0.000    0.000    0.000    0.000    0.000 
#
# Total GULP energy -78190.169199 kJ/mol
# GULP energy per Si atom -5585.012086 kJ/mol
# Density = 2.540444 g / cm^3
# Si number density = 25.462390 Si / 1000 Ang^3
#
#
#
# Elastic Constant Matrix: (Units=GPa)
#
#
# Indices 1 2 3 4 5 6 
#
# 1 115.9198 22.0361 12.3512 0.0000 23.4727 0.0000
# 2 22.0361 138.0307 21.9959 0.0000 3.4347 0.0000
# 3 12.3512 21.9959 72.6133 0.0000 1.2048 0.0000
# 4 0.0000 0.0000 0.0000 29.7207 0.0000 13.3772
# 5 23.4727 3.4347 1.2048 0.0000 23.1690 0.0000
# 6 0.0000 0.0000 0.0000 13.3772 0.0000 53.2835
#
#
#
# Elastic Compliance Matrix: (Units=1/GPa)
#
#
# Indices 1 2 3 4 5 6 
#
# 1 0.011278 -0.001310 -0.001336 0.000000 -0.011163 0.000000
# 2 -0.001310 0.007788 -0.002141 0.000000 0.000284 0.000000
# 3 -0.001336 -0.002141 0.014632 0.000000 0.000910 0.000000
# 4 0.000000 0.000000 0.000000 0.037933 0.000000 -0.009523
# 5 -0.011163 0.000284 0.000910 0.000000 0.054380 0.000000
# 6 0.000000 0.000000 0.000000 -0.009523 0.000000 0.021158
#
#
# Mechanical properties :
#
#
# Convention : Reuss Voigt Hill
#
# Bulk Modulus (GPa) = 41.45226 48.81446 45.13336
# Shear Modulus (GPa) = 30.34230 39.24670 34.79450
#
# Velocity S-wave (km/s) = 3.45578 3.93027 3.70064
# Velocity P-wave (km/s) = 5.67788 6.30943 6.00197
#
# Compressibility (1/GPa) = 0.02412414
#
# Stress axis : x y z
#
# Youngs Moduli (GPa) = 88.66543 128.40269 68.34167
#
# Poissons Ratio (x) = 0.16818 0.09133
# Poissons Ratio (y) = 0.11614 0.14632
# Poissons Ratio (z) = 0.11849 0.27492
#
# Static dielectric constant tensor:
#      x y z
#    x 1.998150 0.000000 0.027020 
#    y 0.000000 2.030580 0.000000 
#    z 0.027020 0.000000 2.116470 
# 
# From -- ./inp_files/16364.got.cif
#   From: 2010.05.17/outbox.cif.g08.bks.cpg/sg9_9_cif.got.tgz:16364.got - 2010.06.03 20:04:27.
