data_PCOD9141432
_publ_section_title
;
Structure prediction by ZEFSAII (Michael W. Deem and Ramdas Pophale) SiO2 
 PCOD9141432
Probable space group: P 2/M
;
_chemical_formula_sum "Si O2"
_cell_formula_units_Z 20
_cell_length_a 14.695524
_cell_length_b 11.458895
_cell_length_c 7.135570
_cell_angle_alpha 90.000000
_cell_angle_beta 130.022604
_cell_angle_gamma 90.000000
_cell_volume 920.166946
_symmetry_space_group_name_H-M "P 2/M"
_symmetry_group_IT_number 10
_symmetry_cell_setting 'monoclinic'
loop_
_space_group_symop_operation_xyz
x,y,z
-x,y,-z
-x,-y,-z
x,-y,z
loop_
_atom_site_type_symbol
_atom_site_label
_atom_site_fract_x
_atom_site_fract_y
_atom_site_fract_z
Si Si1 0.974952 0.873982 0.690019
Si Si2 0.811863 0.736996 0.925165
Si Si3 0.036463 0.376043 0.327588
Si Si4 0.347611 0.364381 0.991720
Si Si5 0.620122 0.635587 0.409487
O O1 0.103249 0.849903 0.958001
O O2 0.907381 0.751305 0.637461
O O3 0.000000 0.876025 0.500000
O O4 0.925111 0.000000 0.676234
O O5 0.912212 0.635338 0.050783
O O6 0.747759 0.719038 0.040296
O O7 0.707007 0.716596 0.641979
O O8 0.097131 0.500000 0.371542
O O9 0.000000 0.376321 0.500000
O O10 0.318504 0.500000 0.997041
O O11 0.353780 0.355017 0.776817
O O12 0.479720 0.340027 0.244161
O O13 0.637533 0.500000 0.488599
#
# Coordination Sequence:
#
# PCOD9141432 Si02
#       5
#     4   4   4   4   4
#     4   8  16  29  45  67  93 120 150 183 222 271
#     4  10  16  25  47  66  86 118 152 184 219 263
#     4   8  14  23  40  67  90 110 143 185 226 264
#     4   9  17  27  40  64  96 123 149 184 224 266
#     4   9  17  27  40  64  96 123 149 184 224 266
#
# _framework density 21.735185000000001
#
# number of rings (size 3 to 8) (size 9 to 14) (size 15 to 20)
#    1.200    2.000    0.000    3.600    0.000    1.600 
#    0.000    0.000    0.000    8.400    0.000   19.600 
#    0.000    0.000    0.000    0.000    0.000    0.000 
#
# Total GULP energy -111508.105615 kJ/mol
# GULP energy per Si atom -5575.405281 kJ/mol
# Density = 2.168572 g / cm^3
# Si number density = 21.735185 Si / 1000 Ang^3
#
#
#
# Elastic Constant Matrix: (Units=GPa)
#
#
# Indices 1 2 3 4 5 6 
#
# 1 63.9686 11.6330 -2.7782 0.0000 6.3431 0.0000
# 2 11.6330 149.5136 11.8736 0.0000 3.2076 0.0000
# 3 -2.7782 11.8736 121.5376 0.0000 5.1752 0.0000
# 4 0.0000 0.0000 0.0000 14.4803 0.0000 5.2882
# 5 6.3431 3.2076 5.1752 0.0000 30.3759 0.0000
# 6 0.0000 0.0000 0.0000 5.2882 0.0000 6.0612
#
#
#
# Elastic Compliance Matrix: (Units=1/GPa)
#
#
# Indices 1 2 3 4 5 6 
#
# 1 0.016219 -0.001240 0.000635 0.000000 -0.003364 0.000000
# 2 -0.001240 0.006847 -0.000682 0.000000 -0.000348 0.000000
# 3 0.000635 -0.000682 0.008372 0.000000 -0.001487 0.000000
# 4 0.000000 0.000000 0.000000 0.101353 0.000000 -0.088428
# 5 -0.003364 -0.000348 -0.001487 0.000000 0.033913 0.000000
# 6 0.000000 0.000000 0.000000 -0.088428 0.000000 0.242135
#
#
# Mechanical properties :
#
#
# Convention : Reuss Voigt Hill
#
# Bulk Modulus (GPa) = 34.64597 41.83073 38.23835
# Shear Modulus (GPa) = 11.87545 31.13622 21.50584
#
# Velocity S-wave (km/s) = 2.33999 3.78898 3.14896
# Velocity P-wave (km/s) = 4.82446 6.19913 5.55449
#
# Compressibility (1/GPa) = 0.02886339
#
# Stress axis : x y z
#
# Youngs Moduli (GPa) = 61.65453 146.05996 119.43986
#
# Poissons Ratio (x) = 0.18115 -0.07587
# Poissons Ratio (y) = 0.07647 0.08151
# Poissons Ratio (z) = -0.03916 0.09967
#
# Static dielectric constant tensor:
#      x y z
#    x 1.813290 0.000000 -0.069780 
#    y 0.000000 1.792650 0.000000 
#    z -0.069780 0.000000 1.849160 
# 
# From -- ./inp_files/34462.got.cif
#   From: 2010.05.17/outbox.cif.g08.bks.cpg/sg10_18_cif.got.tgz:34462.got - 2010.06.03 11:33:40.
