data_PCOD9141830
_publ_section_title
;
Structure prediction by ZEFSAII (Michael W. Deem and Ramdas Pophale) SiO2 
 PCOD9141830
Probable space group: P 2/M
;
_chemical_formula_sum "Si O2"
_cell_formula_units_Z 32
_cell_length_a 22.264233
_cell_length_b 9.093719
_cell_length_c 20.989589
_cell_angle_alpha 90.000000
_cell_angle_beta 153.946232
_cell_angle_gamma 90.000000
_cell_volume 1866.507680
_symmetry_space_group_name_H-M "P 2/M"
_symmetry_group_IT_number 10
_symmetry_cell_setting 'monoclinic'
loop_
_space_group_symop_operation_xyz
x,y,z
-x,y,-z
-x,-y,-z
x,-y,z
loop_
_atom_site_type_symbol
_atom_site_label
_atom_site_fract_x
_atom_site_fract_y
_atom_site_fract_z
Si Si1 0.240487 0.176623 0.409190
Si Si2 0.541770 0.323755 0.467726
Si Si3 0.844189 0.669484 0.324157
Si Si4 0.591734 0.676371 0.316390
Si Si5 0.259677 0.174520 0.653646
Si Si6 0.952459 0.824803 0.307722
Si Si7 0.067444 0.823563 0.858144
Si Si8 0.662511 0.674954 0.840764
O O1 0.325937 0.237601 0.431129
O O2 0.307058 0.251731 0.534949
O O3 0.080685 0.215177 0.254830
O O4 0.253277 0.000000 0.426972
O O5 0.500000 0.290481 0.500000
O O6 0.565972 0.500000 0.485349
O O7 0.420506 0.286836 0.302518
O O8 0.801515 0.500000 0.280270
O O9 0.754313 0.759074 0.289120
O O10 0.000000 0.673519 0.500000
O O11 0.857070 0.742135 0.267247
O O12 0.608989 0.500000 0.332463
O O13 0.629515 0.744862 0.284590
O O14 0.440233 0.709880 0.198585
O O15 0.111007 0.199956 0.478619
O O16 0.282764 0.000000 0.677398
O O17 0.930641 0.777413 0.214341
O O18 0.929523 0.000000 0.290898
O O19 0.078042 0.000000 0.869180
O O20 0.194711 0.754929 0.015531
O O21 0.683883 0.500000 0.860920
#
# Coordination Sequence:
#
# PCOD9141830 Si02
#       8
#     4   4   4   4   4   4   4   4
#     4  10  19  33  53  80 107 134 173 212 251 302
#     4   9  19  38  60  81 107 138 172 210 251 298
#     4   9  17  27  40  66  98 129 169 214 260 309
#     4  10  19  32  50  74 103 134 173 219 262 305
#     4  10  17  28  47  70  98 132 171 216 263 309
#     4   9  17  30  45  66  98 134 169 207 257 308
#     4  10  20  34  51  75 107 139 170 211 256 305
#     4   9  20  35  52  77 104 134 171 209 253 306
#
# _framework density 17.144317999999998
#
# number of rings (size 3 to 8) (size 9 to 14) (size 15 to 20)
#    0.000    2.500    1.250    2.250    0.000    6.250 
#    0.000    0.625    0.000    4.500    0.000    5.250 
#    0.000    0.000    0.000    0.000    0.000    0.000 
#
# Total GULP energy -178468.675227 kJ/mol
# GULP energy per Si atom -5577.146101 kJ/mol
# Density = 1.710530 g / cm^3
# Si number density = 17.144318 Si / 1000 Ang^3
#
#
#
# Elastic Constant Matrix: (Units=GPa)
#
#
# Indices 1 2 3 4 5 6 
#
# 1 142.0394 55.1117 52.6318 0.0000 9.2714 0.0000
# 2 55.1117 53.5486 37.4253 0.0000 10.7844 0.0000
# 3 52.6318 37.4253 82.1297 0.0000 17.0492 0.0000
# 4 0.0000 0.0000 0.0000 22.9143 0.0000 3.8492
# 5 9.2714 10.7844 17.0492 0.0000 17.3403 0.0000
# 6 0.0000 0.0000 0.0000 3.8492 0.0000 17.3697
#
#
#
# Elastic Compliance Matrix: (Units=1/GPa)
#
#
# Indices 1 2 3 4 5 6 
#
# 1 0.012431 -0.010924 -0.003793 0.000000 0.003877 0.000000
# 2 -0.010924 0.037504 -0.008117 0.000000 -0.009504 0.000000
# 3 -0.003793 -0.008117 0.021154 0.000000 -0.013723 0.000000
# 4 0.000000 0.000000 0.000000 0.045328 0.000000 -0.010045
# 5 0.003877 -0.009504 -0.013723 0.000000 0.074999 0.000000
# 6 0.000000 0.000000 0.000000 -0.010045 0.000000 0.059798
#
#
# Mechanical properties :
#
#
# Convention : Reuss Voigt Hill
#
# Bulk Modulus (GPa) = 39.33672 63.11726 51.22699
# Shear Modulus (GPa) = 16.37429 20.36145 18.36787
#
# Velocity S-wave (km/s) = 3.09380 3.44997 3.27673
# Velocity P-wave (km/s) = 5.97967 7.26395 6.65287
#
# Compressibility (1/GPa) = 0.02542154
#
# Stress axis : x y z
#
# Youngs Moduli (GPa) = 80.44198 26.66372 47.27175
#
# Poissons Ratio (x) = 0.29127 0.17932
# Poissons Ratio (y) = 0.87872 0.38370
# Poissons Ratio (z) = 0.30515 0.21643
#
# Static dielectric constant tensor:
#      x y z
#    x 1.579770 0.000000 0.003390 
#    y 0.000000 1.572580 0.000000 
#    z 0.003390 0.000000 1.559990 
# 
# From -- ./inp_files/86144.got.cif
#   From: 2010.05.17/outbox.cif.g08.bks.cpg/sg10_44_cif.got.tgz:86144.got - 2010.06.03 11:33:40.
