data_PCOD9141384
_publ_section_title
;
Structure prediction by ZEFSAII (Michael W. Deem and Ramdas Pophale) SiO2 
 PCOD9141384
Probable space group: P 2/M
;
_chemical_formula_sum "Si O2"
_cell_formula_units_Z 28
_cell_length_a 5.537556
_cell_length_b 27.487453
_cell_length_c 9.183415
_cell_angle_alpha 90.000000
_cell_angle_beta 98.560918
_cell_angle_gamma 90.000000
_cell_volume 1382.263496
_symmetry_space_group_name_H-M "P 2/M"
_symmetry_group_IT_number 10
_symmetry_cell_setting 'monoclinic'
loop_
_space_group_symop_operation_xyz
x,y,z
-x,y,-z
-x,-y,-z
x,-y,z
loop_
_atom_site_type_symbol
_atom_site_label
_atom_site_fract_x
_atom_site_fract_y
_atom_site_fract_z
Si Si1 0.682040 0.792766 0.177544
Si Si2 0.717351 0.056982 0.821444
Si Si3 0.772334 0.339734 0.595253
Si Si4 0.811852 0.243308 0.779950
Si Si5 0.249101 0.830530 0.495852
Si Si6 0.773726 0.552506 0.594815
Si Si7 0.224094 0.905029 0.844697
O O1 0.409808 0.772427 0.135598
O O2 0.712340 0.796996 0.357577
O O3 0.723365 0.848055 0.129585
O O4 0.910456 0.761875 0.144235
O O5 0.442859 0.074714 0.765196
O O6 0.945490 0.085585 0.773050
O O7 0.743161 0.000000 0.796924
O O8 0.748312 0.068111 0.997358
O O9 0.500000 0.337083 0.500000
O O10 0.779964 0.296575 0.711441
O O11 0.796400 0.393950 0.665932
O O12 0.000000 0.333664 0.500000
O O13 0.789067 0.204118 0.645690
O O14 0.500000 0.858674 0.500000
O O15 0.000000 0.858566 0.500000
O O16 0.500000 0.552531 0.500000
O O17 0.792155 0.500000 0.676061
O O18 0.000000 0.552017 0.500000
#
# Coordination Sequence:
#
# PCOD9141384 Si02
#       7
#     4   4   4   4   4   4   4
#     4  10  18  26  38  57  81 101 126 156 182 221
#     4  10  19  33  50  66  85  99 117 149 182 221
#     4  10  16  23  36  50  67 100 136 166 207 240
#     4  10  17  26  36  52  78 105 132 163 190 217
#     4   8  14  23  34  47  71  98 121 150 180 202
#     4   8  14  22  31  45  64  86 122 172 212 237
#     4  10  18  29  45  65  84 103 120 146 187 222
#
# _framework density 20.256632
#
# number of rings (size 3 to 8) (size 9 to 14) (size 15 to 20)
#    0.000    2.571    0.000    6.429    0.000    0.000 
#    0.000    0.000    0.000    0.000    0.000    0.000 
#    0.000  174.857    0.000    0.000    0.000    0.000 
#
# Total GULP energy -155947.726938 kJ/mol
# GULP energy per Si atom -5569.561676 kJ/mol
# Density = 2.021053 g / cm^3
# Si number density = 20.256632 Si / 1000 Ang^3
#
#
#
# Elastic Constant Matrix: (Units=GPa)
#
#
# Indices 1 2 3 4 5 6 
#
# 1 241.9787 55.8739 19.6850 0.0000 6.1555 0.0000
# 2 55.8739 164.5699 4.4166 0.0000 -5.8836 0.0000
# 3 19.6850 4.4166 37.0599 0.0000 -3.2468 0.0000
# 4 0.0000 0.0000 0.0000 49.8343 0.0000 4.0685
# 5 6.1555 -5.8836 -3.2468 0.0000 20.4070 0.0000
# 6 0.0000 0.0000 0.0000 4.0685 0.0000 32.1831
#
#
#
# Elastic Compliance Matrix: (Units=1/GPa)
#
#
# Indices 1 2 3 4 5 6 
#
# 1 0.004776 -0.001636 -0.002545 0.000000 -0.002317 0.000000
# 2 -0.001636 0.006713 0.000286 0.000000 0.002474 0.000000
# 3 -0.002545 0.000286 0.028777 0.000000 0.005429 0.000000
# 4 0.000000 0.000000 0.000000 0.020276 0.000000 -0.002563
# 5 -0.002317 0.002474 0.005429 0.000000 0.051279 0.000000
# 6 0.000000 0.000000 0.000000 -0.002563 0.000000 0.031396
#
#
# Mechanical properties :
#
#
# Convention : Reuss Voigt Hill
#
# Bulk Modulus (GPa) = 30.79288 67.06217 48.92753
# Shear Modulus (GPa) = 30.89611 44.72708 37.81159
#
# Velocity S-wave (km/s) = 3.90966 4.70406 4.32514
# Velocity P-wave (km/s) = 5.96783 7.91722 7.01061
#
# Compressibility (1/GPa) = 0.03247504
#
# Stress axis : x y z
#
# Youngs Moduli (GPa) = 209.36282 148.97020 34.75031
#
# Poissons Ratio (x) = 0.24375 0.08844
# Poissons Ratio (y) = 0.34256 -0.00993
# Poissons Ratio (z) = 0.53285 -0.04259
#
# Static dielectric constant tensor:
#      x y z
#    x 1.816710 0.000000 0.011700 
#    y 0.000000 1.689260 0.000000 
#    z 0.011700 0.000000 1.701400 
# 
# From -- ./inp_files/39890.got.cif
#   From: 2010.05.17/outbox.cif.g08.bks.cpg/sg10_20_cif.got.tgz:39890.got - 2010.06.03 11:33:40.
