data_PCOD9141506
_publ_section_title
;
Structure prediction by ZEFSAII (Michael W. Deem and Ramdas Pophale) SiO2 
 PCOD9141506
Probable space group: P 2/M
;
_chemical_formula_sum "Si O2"
_cell_formula_units_Z 22
_cell_length_a 12.905087
_cell_length_b 9.431365
_cell_length_c 11.026845
_cell_angle_alpha 90.000000
_cell_angle_beta 116.043177
_cell_angle_gamma 90.000000
_cell_volume 1205.833015
_symmetry_space_group_name_H-M "P 2/M"
_symmetry_group_IT_number 10
_symmetry_cell_setting 'monoclinic'
loop_
_space_group_symop_operation_xyz
x,y,z
-x,y,-z
-x,-y,-z
x,-y,z
loop_
_atom_site_type_symbol
_atom_site_label
_atom_site_fract_x
_atom_site_fract_y
_atom_site_fract_z
Si Si1 0.435578 0.170406 0.093779
Si Si2 0.000000 0.249003 0.000000
Si Si3 0.006904 0.330056 0.644473
Si Si4 0.825246 0.840309 0.108828
Si Si5 0.434095 0.671096 0.338767
Si Si6 0.816926 0.339535 0.720006
O O1 0.475376 0.251378 0.236634
O O2 0.446506 0.000000 0.117350
O O3 0.500000 0.206085 0.000000
O O4 0.300219 0.204604 0.002524
O O5 0.081837 0.162296 0.952201
O O6 0.910641 0.338972 0.875140
O O7 0.010739 0.500000 0.666466
O O8 0.118358 0.261461 0.762988
O O9 0.000000 0.301972 0.500000
O O10 0.890233 0.273000 0.648631
O O11 0.813848 0.000000 0.150642
O O12 0.500000 0.697560 0.500000
O O13 0.436021 0.500000 0.318606
O O14 0.302826 0.723144 0.296572
O O15 0.787049 0.500000 0.667861
#
# Coordination Sequence:
#
# PCOD9141506 Si02
#       6
#     4   2   4   4   4   4
#     4  10  22  40  58  79 112 151 191 233 281 340
#     4  10  16  30  54  78 103 136 167 224 263 320
#     4   9  19  34  52  77 110 145 178 216 271 336
#     4  10  20  33  53  80 106 135 176 226 273 320
#     4  10  21  37  57  83 114 147 189 239 283 330
#     4   9  17  30  51  79 107 138 175 218 271 324
#
# _framework density 18.244648999999999
#
# number of rings (size 3 to 8) (size 9 to 14) (size 15 to 20)
#    0.000    2.364    1.818    0.545    0.000    4.000 
#    0.000    1.818    0.000    0.000    0.000    0.000 
#    0.000    0.000    0.000    0.000    0.000    0.000 
#
# Total GULP energy -122471.399835 kJ/mol
# GULP energy per Si atom -5566.881811 kJ/mol
# Density = 1.820312 g / cm^3
# Si number density = 18.244649 Si / 1000 Ang^3
#
#
#
# Elastic Constant Matrix: (Units=GPa)
#
#
# Indices 1 2 3 4 5 6 
#
# 1 92.1194 23.2794 62.0334 0.0000 -0.8882 0.0000
# 2 23.2794 36.9699 44.8253 0.0000 -11.5541 0.0000
# 3 62.0334 44.8253 134.6147 0.0000 -19.0105 0.0000
# 4 0.0000 0.0000 0.0000 14.6422 0.0000 6.4282
# 5 -0.8882 -11.5541 -19.0105 0.0000 24.6989 0.0000
# 6 0.0000 0.0000 0.0000 6.4282 0.0000 4.8781
#
#
#
# Elastic Compliance Matrix: (Units=1/GPa)
#
#
# Indices 1 2 3 4 5 6 
#
# 1 0.016737 -0.003613 -0.007476 0.000000 -0.006842 0.000000
# 2 -0.003613 0.048848 -0.012781 0.000000 0.012883 0.000000
# 3 -0.007476 -0.012781 0.015985 0.000000 0.006055 0.000000
# 4 0.000000 0.000000 0.000000 0.162044 0.000000 -0.213539
# 5 -0.006842 0.012883 0.006055 0.000000 0.050929 0.000000
# 6 0.000000 0.000000 0.000000 -0.213539 0.000000 0.486398
#
#
# Mechanical properties :
#
#
# Convention : Reuss Voigt Hill
#
# Bulk Modulus (GPa) = 29.56067 58.22002 43.89034
# Shear Modulus (GPa) = 5.95268 17.74822 11.85045
#
# Velocity S-wave (km/s) = 1.80825 3.12234 2.55135
# Velocity P-wave (km/s) = 4.53842 6.70662 5.72608
#
# Compressibility (1/GPa) = 0.03382874
#
# Stress axis : x y z
#
# Youngs Moduli (GPa) = 59.74845 20.47183 62.55902
#
# Poissons Ratio (x) = 0.07396 0.46769
# Poissons Ratio (y) = 0.21587 0.79959
# Poissons Ratio (z) = 0.44667 0.26166
#
# Static dielectric constant tensor:
#      x y z
#    x 1.662720 0.000000 -0.015720 
#    y 0.000000 1.640890 0.000000 
#    z -0.015720 0.000000 1.620910 
# 
# From -- ./inp_files/45283.got.cif
#   From: 2010.05.17/outbox.cif.g08.bks.cpg/sg10_23_cif.got.tgz:45283.got - 2010.06.03 11:33:40.
