data_PCOD9141727
_publ_section_title
;
Structure prediction by ZEFSAII (Michael W. Deem and Ramdas Pophale) SiO2 
 PCOD9141727
Probable space group: P 2/M
;
_chemical_formula_sum "Si O2"
_cell_formula_units_Z 24
_cell_length_a 9.289946
_cell_length_b 8.517852
_cell_length_c 21.377273
_cell_angle_alpha 90.000000
_cell_angle_beta 49.556041
_cell_angle_gamma 90.000000
_cell_volume 1287.370457
_symmetry_space_group_name_H-M "P 2/M"
_symmetry_group_IT_number 10
_symmetry_cell_setting 'monoclinic'
loop_
_space_group_symop_operation_xyz
x,y,z
-x,y,-z
-x,-y,-z
x,-y,z
loop_
_atom_site_type_symbol
_atom_site_label
_atom_site_fract_x
_atom_site_fract_y
_atom_site_fract_z
Si Si1 0.293363 0.309995 0.582897
Si Si2 0.220452 0.187790 0.741905
Si Si3 0.020683 0.314934 0.087413
Si Si4 0.561261 0.189397 0.738591
Si Si5 0.706137 0.186188 0.080898
Si Si6 0.964337 0.689461 0.580870
O O1 0.500000 0.262429 0.500000
O O2 0.291467 0.500000 0.587756
O O3 0.249262 0.241392 0.663191
O O4 0.134129 0.260311 0.578274
O O5 0.404537 0.237358 0.730972
O O6 0.037153 0.263007 0.826948
O O7 0.205153 0.000000 0.750052
O O8 0.992390 0.500000 0.087681
O O9 0.869717 0.224016 0.085950
O O10 0.224391 0.268703 0.001973
O O11 0.482459 0.238197 0.829220
O O12 0.763974 0.254448 0.663443
O O13 0.566967 0.000000 0.736827
O O14 0.699100 0.000000 0.072605
O O15 0.963463 0.500000 0.579880
O O16 0.000000 0.745384 0.500000
#
# Coordination Sequence:
#
# PCOD9141727 Si02
#       6
#     4   4   4   4   4   4
#     4  10  21  37  56  78 104 134 171 214 259 310
#     4  10  20  34  52  76 106 140 176 214 259 307
#     4  10  17  26  45  74 104 136 174 214 258 302
#     4   9  19  33  51  76 105 138 174 212 254 303
#     4   9  16  28  45  70 105 139 173 213 256 302
#     4  10  21  36  55  78 103 134 170 210 259 310
#
# _framework density 18.642651999999998
#
# number of rings (size 3 to 8) (size 9 to 14) (size 15 to 20)
#    0.000    2.333    0.000    5.500    0.000    6.667 
#    0.000    0.000    0.000    1.000    0.000    7.000 
#    0.000    0.000    0.000    0.000    0.000    0.000 
#
# Total GULP energy -133856.716888 kJ/mol
# GULP energy per Si atom -5577.363204 kJ/mol
# Density = 1.860022 g / cm^3
# Si number density = 18.642652 Si / 1000 Ang^3
#
#
#
# Elastic Constant Matrix: (Units=GPa)
#
#
# Indices 1 2 3 4 5 6 
#
# 1 80.6449 17.9293 76.6596 0.0000 -1.6503 0.0000
# 2 17.9293 14.9440 28.8200 0.0000 2.2736 0.0000
# 3 76.6596 28.8200 219.7606 0.0000 -0.8320 0.0000
# 4 0.0000 0.0000 0.0000 38.5313 0.0000 0.5308
# 5 -1.6503 2.2736 -0.8320 0.0000 24.3362 0.0000
# 6 0.0000 0.0000 0.0000 0.5308 0.0000 19.2934
#
#
#
# Elastic Compliance Matrix: (Units=1/GPa)
#
#
# Indices 1 2 3 4 5 6 
#
# 1 0.020851 -0.015277 -0.005260 0.000000 0.002661 0.000000
# 2 -0.015277 0.102675 -0.008177 0.000000 -0.010908 0.000000
# 3 -0.005260 -0.008177 0.007460 0.000000 0.000662 0.000000
# 4 0.000000 0.000000 0.000000 0.025963 0.000000 -0.000714
# 5 0.002661 -0.010908 0.000662 0.000000 0.042313 0.000000
# 6 0.000000 0.000000 0.000000 -0.000714 0.000000 0.051851
#
#
# Mechanical properties :
#
#
# Convention : Reuss Voigt Hill
#
# Bulk Modulus (GPa) = 13.59483 62.46304 38.02893
# Shear Modulus (GPa) = 15.01230 29.22823 22.12026
#
# Velocity S-wave (km/s) = 2.84080 3.96386 3.44836
# Velocity P-wave (km/s) = 4.25069 7.38429 6.02479
#
# Compressibility (1/GPa) = 0.07355737
#
# Stress axis : x y z
#
# Youngs Moduli (GPa) = 47.95939 9.73949 134.04591
#
# Poissons Ratio (x) = 0.14879 0.70507
# Poissons Ratio (y) = 0.73268 1.09612
# Poissons Ratio (z) = 0.25226 0.07964
#
# Static dielectric constant tensor:
#      x y z
#    x 1.631000 0.000000 -0.000140 
#    y 0.000000 1.633750 0.000000 
#    z -0.000140 0.000000 1.678560 
# 
# From -- ./inp_files/80060.got.cif
#   From: 2010.05.17/outbox.cif.g08.bks.cpg/sg10_41_cif.got.tgz:80060.got - 2010.06.03 11:33:40.
