data_PCOD9141172
_publ_section_title
;
Structure prediction by ZEFSAII (Michael W. Deem and Ramdas Pophale) SiO2 
 PCOD9141172
Probable space group: C C
;
_chemical_formula_sum "Si O2"
_cell_formula_units_Z 24
_cell_length_a 5.411141
_cell_length_b 34.160586
_cell_length_c 5.059853
_cell_angle_alpha 90.000000
_cell_angle_beta 85.315467
_cell_angle_gamma 90.000000
_cell_volume 932.178024
_symmetry_space_group_name_H-M "C C"
_symmetry_group_IT_number 9
_symmetry_cell_setting 'monoclinic'
loop_
_space_group_symop_operation_xyz
x,y,z
x,-y,1/2+z
1/2+x,1/2+y,z
1/2+x,1/2-y,1/2+z
loop_
_atom_site_type_symbol
_atom_site_label
_atom_site_fract_x
_atom_site_fract_y
_atom_site_fract_z
Si Si1 0.119960 0.406295 0.308030
Si Si2 0.258122 0.145691 0.515051
Si Si3 0.409924 0.209804 0.132470
Si Si4 0.925213 0.201503 0.818296
Si Si5 0.798720 0.525158 0.085457
Si Si6 0.438314 0.411970 0.749632
O O1 0.285472 0.390427 0.535033
O O2 0.908982 0.376945 0.224516
O O3 0.993499 0.444165 0.451332
O O4 0.281499 0.416900 0.032788
O O5 0.409742 0.182318 0.388800
O O6 0.002579 0.166025 0.624921
O O7 0.178913 0.113128 0.310513
O O8 0.146438 0.202448 0.014962
O O9 0.436832 0.255896 0.181683
O O10 0.650602 0.198219 0.949034
O O11 0.820964 0.488564 0.885961
O O12 0.536071 0.547879 0.110591
#
# Coordination Sequence:
#
# PCOD9141172 Si02
#       6
#     4   4   4   4   4   4
#     4  12  29  51  81 121 168 224 279 345 437 505
#     4  12  31  48  80 116 170 214 294 356 420 520
#     4  12  29  51  79 117 162 220 290 361 439 504
#     4  12  29  51  79 117 162 220 290 361 439 504
#     4  12  27  52  82 124 168 212 282 346 418 518
#     4  12  29  51  81 121 168 224 279 345 437 505
#
# _framework density 25.746155000000002
#
# number of rings (size 3 to 8) (size 9 to 14) (size 15 to 20)
#    0.000    0.000    1.667    6.000   11.667    4.000 
#    0.000    0.000    0.000    0.000    0.000    0.000 
#    0.000    0.000    0.000    0.000    0.000    0.000 
#
# Total GULP energy -67352.648073 kJ/mol
# GULP energy per Si atom -5612.720673 kJ/mol
# Density = 2.568756 g / cm^3
# Si number density = 25.746155 Si / 1000 Ang^3
#
#
#
# Elastic Constant Matrix: (Units=GPa)
#
#
# Indices 1 2 3 4 5 6 
#
# 1 116.0788 23.1263 54.4404 0.0000 8.1652 0.0000
# 2 23.1263 94.3620 23.1582 0.0000 -7.7655 0.0000
# 3 54.4404 23.1582 144.1885 0.0000 -11.0112 0.0000
# 4 0.0000 0.0000 0.0000 60.4857 0.0000 -8.7431
# 5 8.1652 -7.7655 -11.0112 0.0000 65.6845 0.0000
# 6 0.0000 0.0000 0.0000 -8.7431 0.0000 36.9065
#
#
#
# Elastic Compliance Matrix: (Units=1/GPa)
#
#
# Indices 1 2 3 4 5 6 
#
# 1 0.011049 -0.001904 -0.004040 0.000000 -0.002276 0.000000
# 2 -0.001904 0.011428 -0.001008 0.000000 0.001419 0.000000
# 3 -0.004040 -0.001008 0.008764 0.000000 0.001852 0.000000
# 4 0.000000 0.000000 0.000000 0.017119 0.000000 0.004055
# 5 -0.002276 0.001419 0.001852 0.000000 0.015985 0.000000
# 6 0.000000 0.000000 0.000000 0.004055 0.000000 0.028056
#
#
# Mechanical properties :
#
#
# Convention : Reuss Voigt Hill
#
# Bulk Modulus (GPa) = 57.67831 61.78656 59.73243
# Shear Modulus (GPa) = 44.60924 49.54230 47.07577
#
# Velocity S-wave (km/s) = 4.16703 4.39140 4.28069
# Velocity P-wave (km/s) = 6.75304 7.05429 6.90531
#
# Compressibility (1/GPa) = 0.01733754
#
# Stress axis : x y z
#
# Youngs Moduli (GPa) = 90.50785 87.50229 114.10327
#
# Poissons Ratio (x) = 0.16658 0.46094
# Poissons Ratio (y) = 0.17230 0.11506
# Poissons Ratio (z) = 0.36562 0.08824
#
# Static dielectric constant tensor:
#      x y z
#    x 2.059360 0.000000 -0.017690 
#    y 0.000000 2.000010 0.000000 
#    z -0.017690 0.000000 2.030540 
# 
# From -- ./inp_files/356.got.cif
#   From: 2010.05.17/outbox.cif.g08.bks.cpg/sg9_1_cif.got.tgz:356.got - 2010.06.03 20:04:27.
