data_PCOD9141621
_publ_section_title
;
Structure prediction by ZEFSAII (Michael W. Deem and Ramdas Pophale) SiO2 
 PCOD9141621
Probable space group: P 2/M
;
_chemical_formula_sum "Si O2"
_cell_formula_units_Z 28
_cell_length_a 16.069979
_cell_length_b 7.691601
_cell_length_c 33.294158
_cell_angle_alpha 90.000000
_cell_angle_beta 26.191048
_cell_angle_gamma 90.000000
_cell_volume 1816.346206
_symmetry_space_group_name_H-M "P 2/M"
_symmetry_group_IT_number 10
_symmetry_cell_setting 'monoclinic'
loop_
_space_group_symop_operation_xyz
x,y,z
-x,y,-z
-x,-y,-z
x,-y,z
loop_
_atom_site_type_symbol
_atom_site_label
_atom_site_fract_x
_atom_site_fract_y
_atom_site_fract_z
Si Si1 0.279690 0.302739 0.279173
Si Si2 0.797517 0.000000 0.536775
Si Si3 0.747068 0.000000 0.649564
Si Si4 0.833015 0.294103 0.459644
Si Si5 0.679011 0.797297 0.953000
Si Si6 0.920328 0.209595 0.778315
Si Si7 0.698685 0.708118 0.430074
Si Si8 0.416933 0.211636 0.134247
O O1 0.297630 0.500000 0.285432
O O2 0.400960 0.273084 0.186601
O O3 0.060589 0.274839 0.361133
O O4 0.322177 0.167517 0.295925
O O5 0.757033 0.171125 0.527867
O O6 0.704195 0.000000 0.620967
O O7 0.024373 0.000000 0.445560
O O8 0.793159 0.500000 0.482692
O O9 0.754588 0.232749 0.450596
O O10 0.848340 0.722874 0.852800
O O11 0.723275 0.000000 0.941633
O O12 0.500000 0.794095 0.000000
O O13 0.596040 0.725674 0.030492
O O14 0.770424 0.268098 0.809253
O O15 0.129200 0.254599 0.674378
O O16 0.904893 0.000000 0.786372
O O17 0.500000 0.777492 0.500000
O O18 0.682818 0.500000 0.440054
O O19 0.417706 0.000000 0.133917
#
# Coordination Sequence:
#
# PCOD9141621 Si02
#       8
#     4   2   2   4   4   4   4   4
#     4  10  17  25  41  61  83 110 140 171 206 247
#     4   9  18  30  47  58  77 105 141 171 212 261
#     4   9  18  30  40  62  82 104 133 174 214 252
#     4   9  18  30  43  59  80 109 142 177 212 246
#     4   7  12  22  35  56  78 105 139 168 205 244
#     4   9  16  25  41  58  77 106 143 181 209 240
#     4  10  20  31  41  56  81 112 145 182 220 246
#     4   9  14  23  40  57  82 113 140 170 205 247
#
# _framework density 15.415563000000001
#
# number of rings (size 3 to 8) (size 9 to 14) (size 15 to 20)
#    0.000    3.000    2.143    1.714    1.000    0.857 
#    0.000    3.571    0.000    2.571    0.000    0.000 
#    0.000    0.000    0.000    2.571    0.000   11.571 
#
# Total GULP energy -155868.195258 kJ/mol
# GULP energy per Si atom -5566.721259 kJ/mol
# Density = 1.538048 g / cm^3
# Si number density = 15.415563 Si / 1000 Ang^3
#
#
#
# Elastic Constant Matrix: (Units=GPa)
#
#
# Indices 1 2 3 4 5 6 
#
# 1 62.2543 35.0515 60.6653 0.0000 27.0377 0.0000
# 2 35.0515 55.5991 26.6225 0.0000 17.4279 0.0000
# 3 60.6653 26.6225 102.4360 0.0000 31.3095 0.0000
# 4 0.0000 0.0000 0.0000 47.4243 0.0000 4.5299
# 5 27.0377 17.4279 31.3095 0.0000 30.2929 0.0000
# 6 0.0000 0.0000 0.0000 4.5299 0.0000 7.7578
#
#
#
# Elastic Compliance Matrix: (Units=1/GPa)
#
#
# Indices 1 2 3 4 5 6 
#
# 1 0.057262 -0.019908 -0.024291 0.000000 -0.014549 0.000000
# 2 -0.019908 0.029386 0.005685 0.000000 -0.005013 0.000000
# 3 -0.024291 0.005685 0.024914 0.000000 -0.007340 0.000000
# 4 0.000000 0.000000 0.000000 0.022332 0.000000 -0.013040
# 5 -0.014549 -0.005013 -0.007340 0.000000 0.056467 0.000000
# 6 0.000000 0.000000 0.000000 -0.013040 0.000000 0.136516
#
#
# Mechanical properties :
#
#
# Convention : Reuss Voigt Hill
#
# Bulk Modulus (GPa) = 28.95728 51.66311 40.31020
# Shear Modulus (GPa) = 12.03609 23.62500 17.83054
#
# Velocity S-wave (km/s) = 2.79727 3.91902 3.40466
# Velocity P-wave (km/s) = 5.40908 7.35286 6.45456
#
# Compressibility (1/GPa) = 0.03453363
#
# Stress axis : x y z
#
# Youngs Moduli (GPa) = 17.46345 34.03002 40.13796
#
# Poissons Ratio (x) = 0.67748 0.97501
# Poissons Ratio (y) = 0.34767 -0.22819
# Poissons Ratio (z) = 0.42421 -0.19347
#
# Static dielectric constant tensor:
#      x y z
#    x 1.487740 0.000000 0.023410 
#    y 0.000000 1.553870 0.000000 
#    z 0.023410 0.000000 1.529490 
# 
# From -- ./inp_files/95190.got.cif
#   From: 2010.05.17/outbox.cif.g08.bks.cpg/sg10_48_cif.got.tgz:95190.got - 2010.06.03 11:33:40.
