data_PCOD9141238
_publ_section_title
;
Structure prediction by ZEFSAII (Michael W. Deem and Ramdas Pophale) SiO2 
 PCOD9141238
Probable space group: C C
;
_chemical_formula_sum "Si O2"
_cell_formula_units_Z 16
_cell_length_a 21.000000
_cell_length_b 9.000000
_cell_length_c 15.000000
_cell_angle_alpha 90.000000
_cell_angle_beta 150.000000
_cell_angle_gamma 90.000000
_cell_volume 1417.500000
_symmetry_space_group_name_H-M "C C"
_symmetry_group_IT_number 9
_symmetry_cell_setting 'monoclinic'
loop_
_space_group_symop_operation_xyz
x,y,z
x,-y,1/2+z
1/2+x,1/2+y,z
1/2+x,1/2-y,1/2+z
loop_
_atom_site_type_symbol
_atom_site_label
_atom_site_fract_x
_atom_site_fract_y
_atom_site_fract_z
Si Si1 0.359820 0.390143 0.596110
Si Si2 0.198183 0.584193 0.265386
Si Si3 0.345800 0.660342 0.276444
Si Si4 0.815697 0.671304 0.146310
Si Si5 0.906137 0.485477 0.410442
Si Si6 0.520323 0.644913 0.783181
Si Si7 0.307805 0.062825 0.480563
Si Si8 0.082526 0.887508 0.165718
O O1 0.272273 0.493189 0.429154
O O2 0.305097 0.376145 0.628509
O O3 0.498006 0.468416 0.769068
O O4 0.356894 0.227576 0.552394
O O5 0.264678 0.575924 0.251146
O O6 0.184569 0.756144 0.277956
O O7 0.055974 0.527906 0.081444
O O8 0.491417 0.610593 0.471081
O O9 0.343758 0.835842 0.294710
O O10 0.857482 0.624911 0.295355
O O11 0.914468 0.784184 0.219407
O O12 0.664161 0.703826 0.969025
O O13 0.827603 0.529784 0.094569
O O14 0.877596 0.497635 0.479557
O O15 0.499907 0.661746 0.651606
O O16 0.158021 0.038058 0.276418
#
# Coordination Sequence:
#
# PCOD9141238 Si02
#       8
#     4   4   4   4   4   4   4   4
#     4  12  26  44  71 115 142 186 237 317 357 438
#     4  11  24  45  73 103 144 191 243 299 375 436
#     4  11  23  46  73 103 140 191 247 291 370 440
#     4  11  25  49  73 109 143 203 247 301 372 451
#     4  11  25  44  73 104 141 194 239 302 366 444
#     4  11  25  44  76 105 150 193 250 304 375 441
#     4  11  24  44  71 103 147 182 243 300 362 432
#     4  10  22  46  76  94 145 202 240 292 371 448
#
# _framework density 11.287478
#
# number of rings (size 3 to 8) (size 9 to 14) (size 15 to 20)
#    0.000    1.000    3.750    3.000    1.750    7.000 
#    0.000    0.000    0.000    0.000    0.000    0.000 
#    0.000    0.000    0.000    0.000    0.000    0.000 
#
# Total GULP energy -89382.317962 kJ/mol
# GULP energy per Si atom -5586.394873 kJ/mol
# Density = 1.126179 g / cm^3
# Si number density = 11.287478 Si / 1000 Ang^3
#
#
#
# Elastic Constant Matrix: (Units=GPa)
#
#
# Indices 1 2 3 4 5 6 
#
# 1 73.8696 33.8092 21.2050 0.0000 -1.5368 0.0000
# 2 33.8092 71.6755 29.7848 0.0000 16.6088 0.0000
# 3 21.2050 29.7848 46.1160 0.0000 11.4106 0.0000
# 4 0.0000 0.0000 0.0000 -62.1123 0.0000 -2.2864
# 5 -1.5368 16.6088 11.4106 0.0000 35.0505 0.0000
# 6 0.0000 0.0000 0.0000 -2.2864 0.0000 26.9191
#
#
#
# Elastic Compliance Matrix: (Units=1/GPa)
#
#
# Indices 1 2 3 4 5 6 
#
# 1 0.018897 -0.008372 -0.004860 0.000000 0.006378 0.000000
# 2 -0.008372 0.023793 -0.009394 0.000000 -0.008583 0.000000
# 3 -0.004860 -0.009394 0.031473 0.000000 -0.006008 0.000000
# 4 0.000000 0.000000 0.000000 -0.016050 0.000000 -0.001363
# 5 0.006378 -0.008583 -0.006008 0.000000 0.034833 0.000000
# 6 0.000000 0.000000 0.000000 -0.001363 0.000000 0.037033
#
#
# Mechanical properties :
#
#
# Convention : Reuss Voigt Hill
#
# Bulk Modulus (GPa) = 34.58850 40.13989 37.36419
# Shear Modulus (GPa) = 27.04625 7.09558 17.07091
#
# Velocity S-wave (km/s) = 3.46506 1.77481 2.75287
# Velocity P-wave (km/s) = 5.60034 4.69247 5.16638
#
# Compressibility (1/GPa) = 0.02891135
#
# Stress axis : x y z
#
# Youngs Moduli (GPa) = 52.91863 42.02839 31.77323
#
# Poissons Ratio (x) = 0.35186 0.15442
# Poissons Ratio (y) = 0.44303 0.29848
# Poissons Ratio (z) = 0.25719 0.39481
#
# Static dielectric constant tensor:
#      x y z
#    x 1.845920 0.000000 0.020150 
#    y 0.000000 1.930150 0.000000 
#    z 0.020150 0.000000 1.845640 
# 
# From -- ./inp_files/26716.got.cif
#   From: 2010.05.17/outbox.ucp.g08.bks.cvg/sg9_14_cif.got.tgz:26716.got - 2010.06.11 13:03:20.
