data_PCOD9141596
_publ_section_title
;
Structure prediction by ZEFSAII (Michael W. Deem and Ramdas Pophale) SiO2 
 PCOD9141596
Probable space group: P 2/M
;
_chemical_formula_sum "Si O2"
_cell_formula_units_Z 32
_cell_length_a 14.004449
_cell_length_b 7.612563
_cell_length_c 25.051796
_cell_angle_alpha 90.000000
_cell_angle_beta 135.514666
_cell_angle_gamma 90.000000
_cell_volume 1871.476768
_symmetry_space_group_name_H-M "P 2/M"
_symmetry_group_IT_number 10
_symmetry_cell_setting 'monoclinic'
loop_
_space_group_symop_operation_xyz
x,y,z
-x,y,-z
-x,-y,-z
x,-y,z
loop_
_atom_site_type_symbol
_atom_site_label
_atom_site_fract_x
_atom_site_fract_y
_atom_site_fract_z
Si Si1 0.028367 0.292741 0.099864
Si Si2 0.267416 0.213623 0.051966
Si Si3 0.593353 0.783535 0.665022
Si Si4 0.080820 0.292302 0.829796
Si Si5 0.326407 0.200788 0.188331
Si Si6 0.381357 0.796175 0.497931
Si Si7 0.630266 0.794559 0.021783
Si Si8 0.816705 0.211534 0.667100
O O1 0.058960 0.500000 0.114825
O O2 0.988005 0.224716 0.142748
O O3 0.163739 0.201010 0.133636
O O4 0.891251 0.267375 0.011328
O O5 0.341163 0.278269 0.135043
O O6 0.269331 0.000000 0.052988
O O7 0.331566 0.277803 0.021673
O O8 0.610279 0.721516 0.732386
O O9 0.456398 0.723323 0.580043
O O10 0.721801 0.729113 0.679143
O O11 0.594554 0.000000 0.665516
O O12 0.096441 0.500000 0.842217
O O13 0.232702 0.218057 0.888290
O O14 0.972620 0.256912 0.740382
O O15 0.375785 0.000000 0.205295
O O16 0.500000 0.795310 0.500000
O O17 0.251615 0.720288 0.414918
O O18 0.350319 0.000000 0.497774
O O19 0.600729 0.000000 0.000821
O O20 0.500000 0.716983 0.000000
O O21 0.805147 0.000000 0.661264
#
# Coordination Sequence:
#
# PCOD9141596 Si02
#       8
#     4   4   4   4   4   4   4   4
#     4  10  19  28  37  52  78 109 136 160 188 223
#     4   9  18  29  41  58  76  96 128 164 197 232
#     4   8  13  21  35  55  78 105 135 163 191 220
#     4  10  19  28  40  60  83 105 131 164 200 234
#     4  10  17  25  39  57  78 104 132 162 191 223
#     4   7  11  19  33  54  75  99 134 168 189 213
#     4   9  18  33  49  60  74  99 130 164 202 243
#     4   9  14  23  40  57  76 104 138 167 187 220
#
# _framework density 17.098796
#
# number of rings (size 3 to 8) (size 9 to 14) (size 15 to 20)
#    0.000    3.000    1.250    2.625    0.000    3.250 
#    0.000    0.000    0.000    4.125    0.000    0.000 
#    0.000    1.000    0.000   12.750    0.000    1.250 
#
# Total GULP energy -178195.267431 kJ/mol
# GULP energy per Si atom -5568.602107 kJ/mol
# Density = 1.705988 g / cm^3
# Si number density = 17.098796 Si / 1000 Ang^3
#
#
#
# Elastic Constant Matrix: (Units=GPa)
#
#
# Indices 1 2 3 4 5 6 
#
# 1 53.7773 0.6938 49.3042 0.0000 0.3643 0.0000
# 2 0.6938 38.4361 -5.4076 0.0000 -2.1244 0.0000
# 3 49.3042 -5.4076 153.8488 0.0000 -21.0418 0.0000
# 4 0.0000 0.0000 0.0000 323.9980 0.0000 113.2743
# 5 0.3643 -2.1244 -21.0418 0.0000 18.6161 0.0000
# 6 0.0000 0.0000 0.0000 113.2743 0.0000 40.6355
#
#
#
# Elastic Compliance Matrix: (Units=1/GPa)
#
#
# Indices 1 2 3 4 5 6 
#
# 1 0.029070 -0.002867 -0.011284 0.000000 -0.013650 0.000000
# 2 -0.002867 0.026790 0.002704 0.000000 0.006170 0.000000
# 3 -0.011284 0.002704 0.012164 0.000000 0.014278 0.000000
# 4 0.000000 0.000000 0.000000 0.121388 0.000000 -0.338377
# 5 -0.013650 0.006170 0.014278 0.000000 0.070827 0.000000
# 6 0.000000 0.000000 0.000000 -0.338377 0.000000 0.967857
#
#
# Mechanical properties :
#
#
# Convention : Reuss Voigt Hill
#
# Bulk Modulus (GPa) = 22.15735 37.24920 29.70327
# Shear Modulus (GPa) = 3.94935 90.08138 47.01536
#
# Velocity S-wave (km/s) = 1.52143 7.26617 5.24938
# Velocity P-wave (km/s) = 4.00910 9.60356 7.35871
#
# Compressibility (1/GPa) = 0.04513174
#
# Stress axis : x y z
#
# Youngs Moduli (GPa) = 34.40003 37.32675 82.21077
#
# Poissons Ratio (x) = 0.10700 0.92764
# Poissons Ratio (y) = 0.09861 -0.22231
# Poissons Ratio (z) = 0.38816 -0.10094
#
# Static dielectric constant tensor:
#      x y z
#    x 1.564180 0.000000 -0.034980 
#    y 0.000000 1.621730 0.000000 
#    z -0.034980 0.000000 1.638750 
# 
# From -- ./inp_files/68210.got.cif
#   From: 2010.05.17/outbox.cif.g08.bks.cpg/sg10_35_cif.got.tgz:68210.got - 2010.06.03 11:33:40.
