data_PCOD9141487
_publ_section_title
;
Structure prediction by ZEFSAII (Michael W. Deem and Ramdas Pophale) SiO2 
 PCOD9141487
Probable space group: P 2/M
;
_chemical_formula_sum "Si O2"
_cell_formula_units_Z 32
_cell_length_a 8.755846
_cell_length_b 15.598423
_cell_length_c 14.890424
_cell_angle_alpha 90.000000
_cell_angle_beta 123.156564
_cell_angle_gamma 90.000000
_cell_volume 1702.567316
_symmetry_space_group_name_H-M "P 2/M"
_symmetry_group_IT_number 10
_symmetry_cell_setting 'monoclinic'
loop_
_space_group_symop_operation_xyz
x,y,z
-x,y,-z
-x,-y,-z
x,-y,z
loop_
_atom_site_type_symbol
_atom_site_label
_atom_site_fract_x
_atom_site_fract_y
_atom_site_fract_z
Si Si1 0.979335 0.713441 0.779689
Si Si2 0.341741 0.099347 0.515596
Si Si3 0.707631 0.597238 0.037463
Si Si4 0.697278 0.873311 0.906102
Si Si5 0.679838 0.094346 0.286131
Si Si6 0.796269 0.688047 0.896891
Si Si7 0.000770 0.906171 0.147771
Si Si8 0.996638 0.773235 0.600986
O O1 0.824112 0.680057 0.799219
O O2 0.984745 0.816906 0.794870
O O3 0.961693 0.704301 0.667560
O O4 0.161439 0.665969 0.872534
O O5 0.500000 0.128617 0.500000
O O6 0.400281 0.102915 0.638547
O O7 0.165345 0.157422 0.449685
O O8 0.301193 0.000000 0.481412
O O9 0.500000 0.609834 0.000000
O O10 0.682696 0.771292 0.887005
O O11 0.728297 0.611120 0.936729
O O12 0.492083 0.905508 0.834918
O O13 0.829486 0.904143 0.867563
O O14 0.813177 0.897416 0.030879
O O15 0.819313 0.172329 0.320086
O O16 0.770839 0.000000 0.312142
O O17 0.763354 0.500000 0.077888
O O18 0.000000 0.708876 0.000000
O O19 0.003578 0.000000 0.193938
O O20 0.000000 0.739257 0.500000
#
# Coordination Sequence:
#
# PCOD9141487 Si02
#       8
#     4   4   4   4   4   4   4   4
#     4  10  21  35  55  82 110 149 193 231 279 332
#     4   9  19  34  50  70  96 135 196 258 294 327
#     4  10  21  38  62  91 121 148 175 217 275 341
#     4  10  16  30  46  74 109 148 188 228 275 329
#     4  10  20  31  48  70  98 148 196 240 290 333
#     4   9  17  34  53  80 111 146 179 222 271 318
#     4  10  18  29  47  74 114 153 191 233 269 327
#     4  10  22  38  52  72 106 146 188 247 297 337
#
# _framework density 18.795145000000002
#
# number of rings (size 3 to 8) (size 9 to 14) (size 15 to 20)
#    0.000    2.250    3.750    1.875    5.250    4.750 
#    0.000    0.000    0.000    2.250    0.000    0.000 
#    0.000    2.500    0.000    0.000    0.000    0.000 
#
# Total GULP energy -178378.428505 kJ/mol
# GULP energy per Si atom -5574.325891 kJ/mol
# Density = 1.875237 g / cm^3
# Si number density = 18.795145 Si / 1000 Ang^3
#
#
#
# Elastic Constant Matrix: (Units=GPa)
#
#
# Indices 1 2 3 4 5 6 
#
# 1 51.2532 5.5034 26.3441 0.0000 -16.4518 0.0000
# 2 5.5034 52.2380 -1.0696 0.0000 -4.6517 0.0000
# 3 26.3441 -1.0696 60.8890 0.0000 -13.0525 0.0000
# 4 0.0000 0.0000 0.0000 16.6601 0.0000 -1.5683
# 5 -16.4518 -4.6517 -13.0525 0.0000 31.5030 0.0000
# 6 0.0000 0.0000 0.0000 -1.5683 0.0000 17.8291
#
#
#
# Elastic Compliance Matrix: (Units=1/GPa)
#
#
# Indices 1 2 3 4 5 6 
#
# 1 0.028203 -0.002266 -0.010049 0.000000 0.010230 0.000000
# 2 -0.002266 0.019641 0.001859 0.000000 0.002487 0.000000
# 3 -0.010049 0.001859 0.021662 0.000000 0.004001 0.000000
# 4 0.000000 0.000000 0.000000 0.060525 0.000000 0.005324
# 5 0.010230 0.002487 0.004001 0.000000 0.039111 0.000000
# 6 0.000000 0.000000 0.000000 0.005324 0.000000 0.056556
#
#
# Mechanical properties :
#
#
# Convention : Reuss Voigt Hill
#
# Bulk Modulus (GPa) = 20.57912 25.10403 22.84158
# Shear Modulus (GPa) = 19.02520 22.10527 20.56524
#
# Velocity S-wave (km/s) = 3.18502 3.43318 3.31142
# Velocity P-wave (km/s) = 4.94962 5.39456 5.17687
#
# Compressibility (1/GPa) = 0.04859294
#
# Stress axis : x y z
#
# Youngs Moduli (GPa) = 35.45667 50.91288 46.16464
#
# Poissons Ratio (x) = 0.11537 0.46392
# Poissons Ratio (y) = 0.08035 -0.08580
# Poissons Ratio (z) = 0.35631 -0.09462
#
# Static dielectric constant tensor:
#      x y z
#    x 1.675370 0.000000 -0.041550 
#    y 0.000000 1.647080 0.000000 
#    z -0.041550 0.000000 1.694890 
# 
# From -- ./inp_files/61865.got.cif
#   From: 2010.05.17/outbox.cif.g08.bks.cpg/sg10_31_cif.got.tgz:61865.got - 2010.06.03 11:33:40.
