data_PCOD9141403
_publ_section_title
;
Structure prediction by ZEFSAII (Michael W. Deem and Ramdas Pophale) SiO2 
 PCOD9141403
Probable space group: P 2/M
;
_chemical_formula_sum "Si O2"
_cell_formula_units_Z 30
_cell_length_a 14.466026
_cell_length_b 28.850795
_cell_length_c 5.295863
_cell_angle_alpha 90.000000
_cell_angle_beta 116.812454
_cell_angle_gamma 90.000000
_cell_volume 1972.631904
_symmetry_space_group_name_H-M "P 2/M"
_symmetry_group_IT_number 10
_symmetry_cell_setting 'monoclinic'
loop_
_space_group_symop_operation_xyz
x,y,z
-x,y,-z
-x,-y,-z
x,-y,z
loop_
_atom_site_type_symbol
_atom_site_label
_atom_site_fract_x
_atom_site_fract_y
_atom_site_fract_z
Si Si1 0.377689 0.104268 0.607642
Si Si2 0.324500 0.341625 0.863155
Si Si3 0.885299 0.390893 0.408802
Si Si4 0.430111 0.000000 0.666299
Si Si5 0.824204 0.554451 0.823753
Si Si6 0.387364 0.396677 0.444528
Si Si7 0.432845 0.749797 0.168387
Si Si8 0.616149 0.144597 0.879008
O O1 0.372612 0.049022 0.608159
O O2 0.498984 0.122194 0.746318
O O3 0.329421 0.121628 0.290493
O O4 0.334147 0.129531 0.798096
O O5 0.203590 0.352187 0.668046
O O6 0.384048 0.363145 0.689838
O O7 0.353996 0.368876 0.153733
O O8 0.354020 0.289502 0.975322
O O9 0.882134 0.421596 0.659506
O O10 0.000000 0.372435 0.500000
O O11 0.854947 0.422107 0.127747
O O12 0.500000 0.000000 0.500000
O O13 0.500000 0.000000 0.000000
O O14 0.843842 0.500000 0.855228
O O15 0.702053 0.565298 0.624863
O O16 0.500000 0.414909 0.500000
O O17 0.500000 0.735201 0.500000
O O18 0.389066 0.800688 0.171599
O O19 0.500000 0.757652 0.000000
#
# Coordination Sequence:
#
# PCOD9141403 Si02
#       8
#     4   4   4   2   4   4   4   4
#     4  10  16  25  31  47  69  95 137 169 205 238
#     4  10  21  32  46  68  86 110 152 175 201 262
#     4  10  21  37  53  68  92 116 136 178 220 243
#     4  12  16  20  34  42  60  96 130 178 200 226
#     4  10  21  34  52  77  94 111 144 170 200 257
#     4  10  19  34  48  65  95 121 138 170 202 239
#     4  12  19  27  43  61  82 111 135 170 217 244
#     4  10  16  25  33  47  72  95 126 168 208 239
#
# _framework density 15.208109
#
# number of rings (size 3 to 8) (size 9 to 14) (size 15 to 20)
#    0.000    1.600    5.333    3.200    0.000    1.867 
#    0.000    0.000    0.000    4.800    0.000    0.000 
#    0.000    0.000    0.000    0.000    0.000    0.000 
#
# Total GULP energy -167002.551685 kJ/mol
# GULP energy per Si atom -5566.751723 kJ/mol
# Density = 1.517349 g / cm^3
# Si number density = 15.208109 Si / 1000 Ang^3
#
#
#
# Elastic Constant Matrix: (Units=GPa)
#
#
# Indices 1 2 3 4 5 6 
#
# 1 56.1601 4.5740 22.6885 0.0000 -10.0373 0.0000
# 2 4.5740 69.4119 20.0963 0.0000 -2.2151 0.0000
# 3 22.6885 20.0963 80.8239 0.0000 -34.7246 0.0000
# 4 0.0000 0.0000 0.0000 24.2103 0.0000 -4.8258
# 5 -10.0373 -2.2151 -34.7246 0.0000 29.5976 0.0000
# 6 0.0000 0.0000 0.0000 -4.8258 0.0000 7.7484
#
#
#
# Elastic Compliance Matrix: (Units=1/GPa)
#
#
# Indices 1 2 3 4 5 6 
#
# 1 0.020092 0.000307 -0.005604 0.000000 0.000262 0.000000
# 2 0.000307 0.016236 -0.007171 0.000000 -0.007094 0.000000
# 3 -0.005604 -0.007171 0.029603 0.000000 0.032294 0.000000
# 4 0.000000 0.000000 0.000000 0.047159 0.000000 0.029371
# 5 0.000262 -0.007094 0.032294 0.000000 0.071233 0.000000
# 6 0.000000 0.000000 0.000000 0.029371 0.000000 0.147352
#
#
# Mechanical properties :
#
#
# Convention : Reuss Voigt Hill
#
# Bulk Modulus (GPa) = 24.39276 33.45704 28.92490
# Shear Modulus (GPa) = 13.50341 22.91374 18.20858
#
# Velocity S-wave (km/s) = 2.98301 3.88581 3.46395
# Velocity P-wave (km/s) = 5.28570 6.49461 5.92109
#
# Compressibility (1/GPa) = 0.04099577
#
# Stress axis : x y z
#
# Youngs Moduli (GPa) = 49.77103 61.59041 33.77992
#
# Poissons Ratio (x) = -0.01890 0.18930
# Poissons Ratio (y) = -0.01527 0.24223
# Poissons Ratio (z) = 0.27891 0.44166
#
# Static dielectric constant tensor:
#      x y z
#    x 1.516250 0.000000 -0.053260 
#    y 0.000000 1.553320 0.000000 
#    z -0.053260 0.000000 1.588370 
# 
# From -- ./inp_files/10203.got.cif
#   From: 2010.05.17/outbox.cif.g08.bks.cpg/sg10_6_cif.got.tgz:10203.got - 2010.06.03 11:33:40.
