data_PCOD9141630
_publ_section_title
;
Structure prediction by ZEFSAII (Michael W. Deem and Ramdas Pophale) SiO2 
 PCOD9141630
Probable space group: P 2/M
;
_chemical_formula_sum "Si O2"
_cell_formula_units_Z 32
_cell_length_a 11.615495
_cell_length_b 8.331650
_cell_length_c 20.834917
_cell_angle_alpha 90.000000
_cell_angle_beta 61.752572
_cell_angle_gamma 90.000000
_cell_volume 1776.204774
_symmetry_space_group_name_H-M "P 2/M"
_symmetry_group_IT_number 10
_symmetry_cell_setting 'monoclinic'
loop_
_space_group_symop_operation_xyz
x,y,z
-x,y,-z
-x,-y,-z
x,-y,z
loop_
_atom_site_type_symbol
_atom_site_label
_atom_site_fract_x
_atom_site_fract_y
_atom_site_fract_z
Si Si1 0.434626 0.310021 0.584479
Si Si2 0.099915 0.689432 0.528703
Si Si3 0.858023 0.189657 0.343937
Si Si4 0.888135 0.194211 0.795190
Si Si5 0.466844 0.187911 0.909039
Si Si6 0.662543 0.804346 0.754843
Si Si7 0.654979 0.810032 0.610202
Si Si8 0.692681 0.312769 0.941079
O O1 0.500000 0.255396 0.500000
O O2 0.456939 0.500000 0.584236
O O3 0.281080 0.275141 0.624402
O O4 0.510812 0.222671 0.621517
O O5 0.080156 0.500000 0.544537
O O6 0.085658 0.778621 0.599741
O O7 0.243962 0.720731 0.462905
O O8 0.000000 0.745112 0.500000
O O9 0.967465 0.243735 0.264304
O O10 0.837121 0.000000 0.341636
O O11 0.785714 0.245203 0.766126
O O12 0.832759 0.263755 0.876234
O O13 0.884472 0.000000 0.799156
O O14 0.528656 0.247227 0.825829
O O15 0.589994 0.212458 0.924868
O O16 0.436964 0.000000 0.912043
O O17 0.346307 0.274439 0.975511
O O18 0.671539 0.752897 0.679005
O O19 0.661270 0.000000 0.755587
O O20 0.683103 0.000000 0.600137
O O21 0.669153 0.500000 0.935289
#
# Coordination Sequence:
#
# PCOD9141630 Si02
#       8
#     4   4   4   4   4   4   4   4
#     4  11  23  39  56  73 100 132 166 211 263 313
#     4  11  23  36  50  73 106 138 164 196 251 313
#     4  11  22  36  57  78  96 127 174 219 253 294
#     4   9  18  33  50  72 103 134 165 202 253 302
#     4   9  15  27  45  65  97 137 170 201 245 291
#     4   8  16  30  49  74 102 131 163 206 250 294
#     4  11  21  35  56  77  98 127 173 218 252 293
#     4  10  17  25  41  69 101 133 170 203 238 289
#
# _framework density 18.015940000000001
#
# number of rings (size 3 to 8) (size 9 to 14) (size 15 to 20)
#    0.000    2.000    1.250    5.250    0.000    3.500 
#    0.000    7.500    0.000    0.000    0.000    0.875 
#    0.000    7.000    0.000    0.000    0.000    0.000 
#
# Total GULP energy -178510.973348 kJ/mol
# GULP energy per Si atom -5578.467917 kJ/mol
# Density = 1.797494 g / cm^3
# Si number density = 18.015940 Si / 1000 Ang^3
#
#
#
# Elastic Constant Matrix: (Units=GPa)
#
#
# Indices 1 2 3 4 5 6 
#
# 1 40.7302 -0.7377 2.6854 0.0000 -17.1872 0.0000
# 2 -0.7377 18.6750 5.5682 0.0000 -2.4892 0.0000
# 3 2.6854 5.5682 103.1234 0.0000 -30.1567 0.0000
# 4 0.0000 0.0000 0.0000 -22.8805 0.0000 -3.8014
# 5 -17.1872 -2.4892 -30.1567 0.0000 20.0805 0.0000
# 6 0.0000 0.0000 0.0000 -3.8014 0.0000 10.3486
#
#
#
# Elastic Compliance Matrix: (Units=1/GPa)
#
#
# Indices 1 2 3 4 5 6 
#
# 1 0.060523 0.007063 0.023978 0.000000 0.088688 0.000000
# 2 0.007063 0.055443 0.001070 0.000000 0.014525 0.000000
# 3 0.023978 0.001070 0.026845 0.000000 0.060971 0.000000
# 4 0.000000 0.000000 0.000000 -0.041192 0.000000 -0.015131
# 5 0.088688 0.014525 0.060971 0.000000 0.219076 0.000000
# 6 0.000000 0.000000 0.000000 -0.015131 0.000000 0.091073
#
#
# Mechanical properties :
#
#
# Convention : Reuss Voigt Hill
#
# Bulk Modulus (GPa) = 4.83014 19.72893 12.27953
# Shear Modulus (GPa) = 12.00311 11.84391 11.92351
#
# Velocity S-wave (km/s) = 2.58398 2.56679 2.57540
# Velocity P-wave (km/s) = 3.40433 4.44512 3.95908
#
# Compressibility (1/GPa) = 0.20703343
#
# Stress axis : x y z
#
# Youngs Moduli (GPa) = 16.52253 18.03639 37.25097
#
# Poissons Ratio (x) = -0.12739 -0.89320
# Poissons Ratio (y) = -0.11670 -0.03986
# Poissons Ratio (z) = -0.39618 -0.01930
#
# Static dielectric constant tensor:
#      x y z
#    x 1.600640 0.000000 -0.014850 
#    y 0.000000 1.609360 0.000000 
#    z -0.014850 0.000000 1.661500 
# 
# From -- ./inp_files/83544.got.cif
#   From: 2010.05.17/outbox.cif.g08.bks.cpg/sg10_42_cif.got.tgz:83544.got - 2010.06.03 11:33:40.
