data_PCOD9141792
_publ_section_title
;
Structure prediction by ZEFSAII (Michael W. Deem and Ramdas Pophale) SiO2 
 PCOD9141792
Probable space group: P 2/M
;
_chemical_formula_sum "Si O2"
_cell_formula_units_Z 32
_cell_length_a 27.347131
_cell_length_b 8.045096
_cell_length_c 21.431412
_cell_angle_alpha 90.000000
_cell_angle_beta 161.205160
_cell_angle_gamma 90.000000
_cell_volume 1519.123062
_symmetry_space_group_name_H-M "P 2/M"
_symmetry_group_IT_number 10
_symmetry_cell_setting 'monoclinic'
loop_
_space_group_symop_operation_xyz
x,y,z
-x,y,-z
-x,-y,-z
x,-y,z
loop_
_atom_site_type_symbol
_atom_site_label
_atom_site_fract_x
_atom_site_fract_y
_atom_site_fract_z
Si Si1 0.146371 0.202765 0.639674
Si Si2 0.317231 0.309650 0.349060
Si Si3 0.345748 0.809879 0.253171
Si Si4 0.479089 0.202958 0.047141
Si Si5 0.751879 0.200825 0.466275
Si Si6 0.015006 0.199965 0.350851
Si Si7 0.357741 0.700225 0.533038
Si Si8 0.703470 0.302632 0.937155
O O1 0.309900 0.257129 0.861556
O O2 0.119461 0.249241 0.535280
O O3 0.000000 0.262201 0.500000
O O4 0.146857 0.000000 0.642930
O O5 0.266850 0.500000 0.285556
O O6 0.501902 0.300442 0.568443
O O7 0.266736 0.223651 0.223914
O O8 0.287352 0.238643 0.382083
O O9 0.397149 0.000000 0.314507
O O10 0.256478 0.773475 0.082264
O O11 0.484602 0.000000 0.054077
O O12 0.500000 0.252348 0.000000
O O13 0.608821 0.259054 0.251375
O O14 0.902882 0.259242 0.612956
O O15 0.730809 0.253419 0.511867
O O16 0.751948 0.000000 0.464923
O O17 0.842503 0.257755 0.149467
O O18 0.011524 0.000000 0.345874
O O19 0.361746 0.500000 0.532889
O O20 0.534395 0.758487 0.751059
O O21 0.695706 0.500000 0.921810
#
# Coordination Sequence:
#
# PCOD9141792 Si02
#       8
#     4   4   4   4   4   4   4   4
#     4   9  17  28  46  74 105 133 166 211 262 312
#     4   9  16  29  48  72 106 142 173 210 256 309
#     4  10  17  27  48  78 106 134 170 216 262 306
#     4   9  15  28  47  70 101 133 167 209 258 311
#     4  10  20  32  52  78 104 136 173 216 264 311
#     4  10  20  34  51  77 107 135 172 218 263 314
#     4   9  20  35  51  74 104 138 177 215 252 303
#     4  10  21  36  52  73 104 142 178 214 261 315
#
# _framework density 21.064782999999998
#
# number of rings (size 3 to 8) (size 9 to 14) (size 15 to 20)
#    0.000    2.500    1.250    3.375    1.750    3.500 
#    0.000    0.000    0.000    2.250    0.000    5.250 
#    0.000    0.000    0.000    0.000    0.000    0.000 
#
# Total GULP energy -178429.528074 kJ/mol
# GULP energy per Si atom -5575.922752 kJ/mol
# Density = 2.101684 g / cm^3
# Si number density = 21.064783 Si / 1000 Ang^3
#
#
#
# Elastic Constant Matrix: (Units=GPa)
#
#
# Indices 1 2 3 4 5 6 
#
# 1 97.3895 2.9725 -16.3060 0.0000 10.6669 0.0000
# 2 2.9725 23.8532 -3.4066 0.0000 0.2602 0.0000
# 3 -16.3060 -3.4066 13.4713 0.0000 10.5104 0.0000
# 4 0.0000 0.0000 0.0000 12.3080 0.0000 6.7582
# 5 10.6669 0.2602 10.5104 0.0000 23.0389 0.0000
# 6 0.0000 0.0000 0.0000 6.7582 0.0000 32.4731
#
#
#
# Elastic Compliance Matrix: (Units=1/GPa)
#
#
# Indices 1 2 3 4 5 6 
#
# 1 0.025438 0.006525 0.064725 0.000000 -0.041379 0.000000
# 2 0.006525 0.046281 0.034727 0.000000 -0.019386 0.000000
# 3 0.064725 0.034727 0.287305 0.000000 -0.161428 0.000000
# 4 0.000000 0.000000 0.000000 0.091731 0.000000 -0.019091
# 5 -0.041379 -0.019386 -0.161428 0.000000 0.136426 0.000000
# 6 0.000000 0.000000 0.000000 -0.019091 0.000000 0.034768
#
#
# Mechanical properties :
#
#
# Convention : Reuss Voigt Hill
#
# Bulk Modulus (GPa) = 1.75138 11.24820 6.49979
# Shear Modulus (GPa) = 8.32889 23.66094 15.99492
#
# Velocity S-wave (km/s) = 1.99061 3.35512 2.75857
# Velocity P-wave (km/s) = 2.47318 4.51227 3.63848
#
# Compressibility (1/GPa) = 0.57097701
#
# Stress axis : x y z
#
# Youngs Moduli (GPa) = 39.31132 21.60714 3.48063
#
# Poissons Ratio (x) = -0.14099 -0.22528
# Poissons Ratio (y) = -0.25651 -0.12087
# Poissons Ratio (z) = -2.54441 -0.75035
#
# Static dielectric constant tensor:
#      x y z
#    x 1.803460 0.000000 -0.017740 
#    y 0.000000 1.753930 0.000000 
#    z -0.017740 0.000000 1.740540 
# 
# From -- ./inp_files/87024.got.cif
#   From: 2010.05.17/outbox.cif.g08.bks.cpg/sg10_44_cif.got.tgz:87024.got - 2010.06.03 11:33:40.
