data_PCOD9142971
_publ_section_title
;
Structure prediction by ZEFSAII (Michael W. Deem and Ramdas Pophale) SiO2 
 PCOD9142971
Probable space group: P 2/M
;
_chemical_formula_sum "Si O2"
_cell_formula_units_Z 32
_cell_length_a 12.181980
_cell_length_b 8.256294
_cell_length_c 20.271867
_cell_angle_alpha 90.000000
_cell_angle_beta 59.668161
_cell_angle_gamma 90.000000
_cell_volume 1759.808743
_symmetry_space_group_name_H-M "P 2/M"
_symmetry_group_IT_number 10
_symmetry_cell_setting 'monoclinic'
loop_
_space_group_symop_operation_xyz
x,y,z
-x,y,-z
-x,-y,-z
x,-y,z
loop_
_atom_site_type_symbol
_atom_site_label
_atom_site_fract_x
_atom_site_fract_y
_atom_site_fract_z
Si Si1 0.607598 0.189542 0.664501
Si Si2 0.349031 0.806701 0.906588
Si Si3 0.083959 0.304396 0.037213
Si Si4 0.614776 0.311349 0.809648
Si Si5 0.065851 0.693511 0.787261
Si Si6 0.118999 0.192399 0.265998
Si Si7 0.116202 0.198421 0.419424
Si Si8 0.667763 0.196151 0.241923
O O1 0.612352 0.207254 0.742750
O O2 0.743611 0.256247 0.600038
O O3 0.468607 0.256412 0.689058
O O4 0.606247 0.000000 0.647654
O O5 0.484961 0.733516 0.886113
O O6 0.323850 0.753205 0.837855
O O7 0.359791 0.000000 0.903633
O O8 0.227806 0.754108 0.985292
O O9 0.084152 0.500000 0.036548
O O10 0.015652 0.248882 0.124630
O O11 0.000000 0.248909 0.000000
O O12 0.611249 0.500000 0.793190
O O13 0.750495 0.271768 0.800556
O O14 0.058676 0.500000 0.787152
O O15 0.210685 0.743986 0.755658
O O16 0.000289 0.763084 0.742340
O O17 0.100534 0.246134 0.347614
O O18 0.137051 0.000000 0.260644
O O19 0.000000 0.252690 0.500000
O O20 0.117896 0.000000 0.420274
O O21 0.666561 0.000000 0.242764
#
# Coordination Sequence:
#
# PCOD9142971 Si02
#       8
#     4   4   4   4   4   4   4   4
#     4   8  15  28  47  75 105 130 163 207 247 290
#     4  10  19  31  50  74  99 128 168 215 259 298
#     4  10  20  34  49  70 100 131 168 214 260 300
#     4  10  18  30  50  72  98 131 167 206 251 299
#     4  11  22  34  50  71  99 134 171 208 250 302
#     4  10  20  35  53  74 103 132 165 205 247 300
#     4   8  14  28  54  83 105 127 158 201 250 294
#     4   9  17  29  46  70  99 131 167 207 249 290
#
# _framework density 18.183795
#
# number of rings (size 3 to 8) (size 9 to 14) (size 15 to 20)
#    0.000    2.500    1.250    3.750    0.000    3.250 
#    0.000    0.625    0.000   13.875    0.000    5.250 
#    0.000    0.000    0.000    0.000    0.000    0.000 
#
# Total GULP energy -178355.982477 kJ/mol
# GULP energy per Si atom -5573.624452 kJ/mol
# Density = 1.814241 g / cm^3
# Si number density = 18.183795 Si / 1000 Ang^3
#
#
#
# Elastic Constant Matrix: (Units=GPa)
#
#
# Indices 1 2 3 4 5 6 
#
# 1 136.1117 16.8733 65.6017 0.0000 -32.3189 0.0000
# 2 16.8733 20.8599 13.3539 0.0000 -1.4831 0.0000
# 3 65.6017 13.3539 85.7614 0.0000 -33.5109 0.0000
# 4 0.0000 0.0000 0.0000 -142.8678 0.0000 258.9116
# 5 -32.3189 -1.4831 -33.5109 0.0000 34.3148 0.0000
# 6 0.0000 0.0000 0.0000 258.9116 0.0000 -425.9873
#
#
#
# Elastic Compliance Matrix: (Units=1/GPa)
#
#
# Indices 1 2 3 4 5 6 
#
# 1 0.012432 -0.005375 -0.006773 0.000000 0.004863 0.000000
# 2 -0.005375 0.057502 -0.009458 0.000000 -0.011814 0.000000
# 3 -0.006773 -0.009458 0.025326 0.000000 0.017945 0.000000
# 4 0.000000 0.000000 0.000000 0.068982 0.000000 0.041927
# 5 0.004863 -0.011814 0.017945 0.000000 0.050735 0.000000
# 6 0.000000 0.000000 0.000000 0.041927 0.000000 0.023135
#
#
# Mechanical properties :
#
#
# Convention : Reuss Voigt Hill
#
# Bulk Modulus (GPa) = 19.21330 48.26564 33.73947
# Shear Modulus (GPa) = 16.74075 -97.11444 -40.18684
#
# Velocity S-wave (km/s) = 3.03750 -7.31595 -4.70620
# Velocity P-wave (km/s) = 4.78445 6.69054 3.30698
#
# Compressibility (1/GPa) = 0.05204729
#
# Stress axis : x y z
#
# Youngs Moduli (GPa) = 80.43745 17.39082 39.48583
#
# Poissons Ratio (x) = 0.09347 0.26743
# Poissons Ratio (y) = 0.43233 0.37348
# Poissons Ratio (z) = 0.54478 0.16449
#
# Static dielectric constant tensor:
#      x y z
#    x 1.645550 0.000000 -0.028210 
#    y 0.000000 1.629690 0.000000 
#    z -0.028210 0.000000 1.622470 
# 
# From -- ./inp_files/75966.got.cif
#   From: 2010.05.17/outbox.cif.g08.bks.cpg/sg10_38_cif.got.tgz:75966.got - 2010.06.03 11:33:40.
