data_PCOD9142272
_publ_section_title
;
Structure prediction by ZEFSAII (Michael W. Deem and Ramdas Pophale) SiO2 
 PCOD9142272
Probable space group: P 2/M
;
_chemical_formula_sum "Si O2"
_cell_formula_units_Z 32
_cell_length_a 17.538770
_cell_length_b 8.929155
_cell_length_c 20.290677
_cell_angle_alpha 90.000000
_cell_angle_beta 42.663493
_cell_angle_gamma 90.000000
_cell_volume 2153.465520
_symmetry_space_group_name_H-M "P 2/M"
_symmetry_group_IT_number 10
_symmetry_cell_setting 'monoclinic'
loop_
_space_group_symop_operation_xyz
x,y,z
-x,y,-z
-x,-y,-z
x,-y,z
loop_
_atom_site_type_symbol
_atom_site_label
_atom_site_fract_x
_atom_site_fract_y
_atom_site_fract_z
Si Si1 0.380879 0.172214 0.114871
Si Si2 0.736284 0.678605 0.929047
Si Si3 0.581913 0.681530 0.390789
Si Si4 0.824999 0.177951 0.089014
Si Si5 0.581430 0.680344 0.242554
Si Si6 0.496305 0.678824 0.847923
Si Si7 0.059179 0.821747 0.124192
Si Si8 0.158408 0.679419 0.781833
O O1 0.296142 0.265409 0.123257
O O2 0.411041 0.240196 0.166569
O O3 0.345288 0.000000 0.142002
O O4 0.500000 0.177045 0.000000
O O5 0.747823 0.500000 0.923299
O O6 0.848453 0.754359 0.885348
O O7 0.628127 0.718069 0.044110
O O8 0.500000 0.738532 0.500000
O O9 0.581684 0.500000 0.394392
O O10 0.543180 0.719303 0.340927
O O11 0.712683 0.726819 0.315336
O O12 0.698228 0.233888 0.157788
O O13 0.864236 0.263067 0.129502
O O14 0.829253 0.000000 0.098582
O O15 0.894131 0.210002 0.979169
O O16 0.603102 0.500000 0.227307
O O17 0.502943 0.714425 0.230130
O O18 0.508423 0.500000 0.848729
O O19 0.936074 0.748811 0.205052
O O20 0.052489 0.000000 0.136520
O O21 0.152914 0.500000 0.783804
#
# Coordination Sequence:
#
# PCOD9142272 Si02
#       8
#     4   4   4   4   4   4   4   4
#     4   9  17  27  39  56  81 113 148 180 212 249
#     4  10  18  28  42  58  82 115 149 181 212 247
#     4   8  15  29  48  67  86 108 138 179 222 258
#     4  10  19  29  41  58  84 114 143 177 215 250
#     4   9  16  27  44  65  86 112 146 180 214 255
#     4   9  16  26  40  59  83 111 146 182 212 246
#     4  11  21  30  41  59  86 115 145 179 213 251
#     4  10  20  31  45  62  81 109 145 179 214 256
#
# _framework density 14.859769
#
# number of rings (size 3 to 8) (size 9 to 14) (size 15 to 20)
#    0.000    2.500    1.250    3.000    0.000    5.500 
#    0.000    0.000    0.000    9.375    0.000    0.000 
#    0.000    1.000    0.000   11.750    0.000    2.250 
#
# Total GULP energy -178298.459965 kJ/mol
# GULP energy per Si atom -5571.826874 kJ/mol
# Density = 1.482595 g / cm^3
# Si number density = 14.859769 Si / 1000 Ang^3
#
#
#
# Elastic Constant Matrix: (Units=GPa)
#
#
# Indices 1 2 3 4 5 6 
#
# 1 129.2341 43.2048 50.8127 0.0000 -4.5322 0.0000
# 2 43.2048 30.5954 23.3031 0.0000 -1.5791 0.0000
# 3 50.8127 23.3031 54.7574 0.0000 6.5119 0.0000
# 4 0.0000 0.0000 0.0000 6.1973 0.0000 -1.4837
# 5 -4.5322 -1.5791 6.5119 0.0000 13.2531 0.0000
# 6 0.0000 0.0000 0.0000 -1.4837 0.0000 19.4203
#
#
#
# Elastic Compliance Matrix: (Units=1/GPa)
#
#
# Indices 1 2 3 4 5 6 
#
# 1 0.017727 -0.016554 -0.010505 0.000000 0.009252 0.000000
# 2 -0.016554 0.067647 -0.014563 0.000000 0.009555 0.000000
# 3 -0.010505 -0.014563 0.037004 0.000000 -0.023510 0.000000
# 4 0.000000 0.000000 0.000000 0.164367 0.000000 0.012557
# 5 0.009252 0.009555 -0.023510 0.000000 0.091308 0.000000
# 6 0.000000 0.000000 0.000000 0.012557 0.000000 0.052452
#
#
# Mechanical properties :
#
#
# Convention : Reuss Voigt Hill
#
# Bulk Modulus (GPa) = 25.55386 49.91421 37.73404
# Shear Modulus (GPa) = 9.49137 14.25857 11.87497
#
# Velocity S-wave (km/s) = 2.53005 3.10101 2.82997
# Velocity P-wave (km/s) = 5.07631 6.81797 6.01056
#
# Compressibility (1/GPa) = 0.03913303
#
# Stress axis : x y z
#
# Youngs Moduli (GPa) = 56.41046 14.78272 27.02384
#
# Poissons Ratio (x) = 0.24472 0.28390
# Poissons Ratio (y) = 0.93383 0.39355
# Poissons Ratio (z) = 0.59261 0.21528
#
# Static dielectric constant tensor:
#      x y z
#    x 1.507850 0.000000 0.002810 
#    y 0.000000 1.494190 0.000000 
#    z 0.002810 0.000000 1.475430 
# 
# From -- ./inp_files/55243.got.cif
#   From: 2010.05.17/outbox.cif.g08.bks.cpg/sg10_28_cif.got.tgz:55243.got - 2010.06.03 11:33:40.
