data_PCOD9142133
_publ_section_title
;
Structure prediction by ZEFSAII (Michael W. Deem and Ramdas Pophale) SiO2 
 PCOD9142133
Probable space group: P 2/M
;
_chemical_formula_sum "Si O2"
_cell_formula_units_Z 24
_cell_length_a 9.176914
_cell_length_b 16.336064
_cell_length_c 18.122990
_cell_angle_alpha 90.000000
_cell_angle_beta 149.922731
_cell_angle_gamma 90.000000
_cell_volume 1361.622781
_symmetry_space_group_name_H-M "P 2/M"
_symmetry_group_IT_number 10
_symmetry_cell_setting 'monoclinic'
loop_
_space_group_symop_operation_xyz
x,y,z
-x,y,-z
-x,-y,-z
x,-y,z
loop_
_atom_site_type_symbol
_atom_site_label
_atom_site_fract_x
_atom_site_fract_y
_atom_site_fract_z
Si Si1 0.081577 0.261087 0.121518
Si Si2 0.785714 0.090468 0.574636
Si Si3 0.843960 0.175877 0.151750
Si Si4 0.759680 0.247920 0.456779
Si Si5 0.812319 0.592358 0.099674
Si Si6 0.161464 0.329378 0.367390
O O1 0.430851 0.264198 0.285424
O O2 0.967742 0.186051 0.123142
O O3 0.924431 0.341537 0.088743
O O4 0.000000 0.253308 0.000000
O O5 0.500000 0.095804 0.500000
O O6 0.766547 0.164203 0.507970
O O7 0.043135 0.103500 0.746767
O O8 0.802628 0.000000 0.548075
O O9 0.979757 0.254636 0.252817
O O10 0.500000 0.178850 0.000000
O O11 0.860744 0.321569 0.555088
O O12 0.000000 0.239554 0.500000
O O13 0.795020 0.500000 0.062173
O O14 0.039015 0.595757 0.267297
O O15 0.500000 0.612940 0.000000
O O16 0.500000 0.316304 0.500000
#
# Coordination Sequence:
#
# PCOD9142133 Si02
#       6
#     4   4   4   4   4   4
#     4  11  22  36  56  84 115 148 183 227 284 332
#     4  10  20  39  62  79 110 152 190 238 284 328
#     4  10  19  34  58  85 110 143 193 234 271 328
#     4  11  22  35  57  87 113 142 189 234 276 335
#     4  10  22  39  60  84 113 149 187 231 281 334
#     4  10  17  36  58  81 108 144 195 234 270 319
#
# _framework density 17.626028000000002
#
# number of rings (size 3 to 8) (size 9 to 14) (size 15 to 20)
#    0.000    1.667    5.000    3.000    7.000    1.333 
#    0.000    0.000    0.000    2.000    0.000    0.000 
#    0.000    0.000    0.000    0.000    0.000    0.000 
#
# Total GULP energy -133651.462507 kJ/mol
# GULP energy per Si atom -5568.810938 kJ/mol
# Density = 1.758591 g / cm^3
# Si number density = 17.626028 Si / 1000 Ang^3
#
#
#
# Elastic Constant Matrix: (Units=GPa)
#
#
# Indices 1 2 3 4 5 6 
#
# 1 110.2981 16.8279 52.8463 0.0000 -2.3387 0.0000
# 2 16.8279 50.0986 8.4856 0.0000 -0.8462 0.0000
# 3 52.8463 8.4856 139.6683 0.0000 7.4286 0.0000
# 4 0.0000 0.0000 0.0000 8.0600 0.0000 -5.8587
# 5 -2.3387 -0.8462 7.4286 0.0000 40.6990 0.0000
# 6 0.0000 0.0000 0.0000 -5.8587 0.0000 14.6607
#
#
#
# Elastic Compliance Matrix: (Units=1/GPa)
#
#
# Indices 1 2 3 4 5 6 
#
# 1 0.011629 -0.003158 -0.004282 0.000000 0.001384 0.000000
# 2 -0.003158 0.021043 -0.000098 0.000000 0.000274 0.000000
# 3 -0.004282 -0.000098 0.008885 0.000000 -0.001870 0.000000
# 4 0.000000 0.000000 0.000000 0.174863 0.000000 0.069879
# 5 0.001384 0.000274 -0.001870 0.000000 0.024997 0.000000
# 6 0.000000 0.000000 0.000000 0.069879 0.000000 0.096135
#
#
# Mechanical properties :
#
#
# Convention : Reuss Voigt Hill
#
# Bulk Modulus (GPa) = 37.76213 50.70939 44.23576
# Shear Modulus (GPa) = 13.83302 27.47762 20.65532
#
# Velocity S-wave (km/s) = 2.80448 3.95260 3.42696
# Velocity P-wave (km/s) = 5.65309 7.04719 6.38828
#
# Compressibility (1/GPa) = 0.02648156
#
# Stress axis : x y z
#
# Youngs Moduli (GPa) = 85.99236 47.52280 112.54471
#
# Poissons Ratio (x) = 0.15005 0.48190
# Poissons Ratio (y) = 0.27152 0.01106
# Poissons Ratio (z) = 0.36820 0.00467
#
# Static dielectric constant tensor:
#      x y z
#    x 1.617450 0.000000 -0.025040 
#    y 0.000000 1.641460 0.000000 
#    z -0.025040 0.000000 1.630160 
# 
# From -- ./inp_files/25640.got.cif
#   From: 2010.05.17/outbox.cif.g08.bks.cpg/sg10_13_cif.got.tgz:25640.got - 2010.06.03 11:33:40.
