data_PCOD9142458
_publ_section_title
;
Structure prediction by ZEFSAII (Michael W. Deem and Ramdas Pophale) SiO2 
 PCOD9142458
Probable space group: P 2/M
;
_chemical_formula_sum "Si O2"
_cell_formula_units_Z 32
_cell_length_a 13.658615
_cell_length_b 9.099778
_cell_length_c 29.728552
_cell_angle_alpha 90.000000
_cell_angle_beta 144.444228
_cell_angle_gamma 90.000000
_cell_volume 2148.608602
_symmetry_space_group_name_H-M "P 2/M"
_symmetry_group_IT_number 10
_symmetry_cell_setting 'monoclinic'
loop_
_space_group_symop_operation_xyz
x,y,z
-x,y,-z
-x,-y,-z
x,-y,z
loop_
_atom_site_type_symbol
_atom_site_label
_atom_site_fract_x
_atom_site_fract_y
_atom_site_fract_z
Si Si1 0.831678 0.177030 0.340758
Si Si2 0.738566 0.674521 0.810991
Si Si3 0.743778 0.829556 0.908740
Si Si4 0.460363 0.676507 0.035554
Si Si5 0.118507 0.669162 0.499786
Si Si6 0.888206 0.324580 0.047620
Si Si7 0.599878 0.824423 0.340932
Si Si8 0.618530 0.829318 0.177645
O O1 0.694421 0.210742 0.328726
O O2 0.759242 0.224129 0.265394
O O3 0.005573 0.252329 0.419943
O O4 0.849875 0.000000 0.347465
O O5 0.709088 0.500000 0.799206
O O6 0.743072 0.733049 0.863824
O O7 0.585489 0.756495 0.729751
O O8 0.927170 0.704327 0.863471
O O9 0.556766 0.824179 0.860163
O O10 0.782555 0.000000 0.913182
O O11 0.863189 0.763673 0.991921
O O12 0.473770 0.500000 0.041417
O O13 0.585380 0.741418 0.119731
O O14 0.500000 0.727928 0.000000
O O15 0.269671 0.713978 0.979703
O O16 0.154836 0.500000 0.502258
O O17 0.284652 0.755977 0.576858
O O18 0.000000 0.670591 0.500000
O O19 0.878547 0.500000 0.034338
O O20 0.593483 0.000000 0.342173
O O21 0.651881 0.000000 0.179520
#
# Coordination Sequence:
#
# PCOD9142458 Si02
#       8
#     4   4   4   4   4   4   4   4
#     4   9  16  28  42  58  83 114 146 179 212 248
#     4  11  20  28  40  58  85 115 145 179 213 251
#     4  10  18  29  42  59  83 113 146 178 210 248
#     4   9  18  33  50  65  83 109 142 180 222 265
#     4   9  17  27  39  59  83 111 148 182 213 247
#     4   9  19  32  43  60  83 110 141 177 220 258
#     4  10  18  29  42  57  82 117 152 180 211 247
#     4   9  17  29  44  64  87 112 144 178 215 256
#
# _framework density 14.893359
#
# number of rings (size 3 to 8) (size 9 to 14) (size 15 to 20)
#    0.000    2.500    1.250    1.875    0.000    5.750 
#    0.000    0.000    0.000    0.000    0.000    0.000 
#    0.000    1.000    0.000   11.500    0.000    2.875 
#
# Total GULP energy -178344.573418 kJ/mol
# GULP energy per Si atom -5573.267919 kJ/mol
# Density = 1.485946 g / cm^3
# Si number density = 14.893359 Si / 1000 Ang^3
#
#
#
# Elastic Constant Matrix: (Units=GPa)
#
#
# Indices 1 2 3 4 5 6 
#
# 1 42.0991 22.9685 42.4406 0.0000 -7.1738 0.0000
# 2 22.9685 47.8714 55.8051 0.0000 2.9137 0.0000
# 3 42.4406 55.8051 156.8371 0.0000 3.3095 0.0000
# 4 0.0000 0.0000 0.0000 30.2773 0.0000 -0.4975
# 5 -7.1738 2.9137 3.3095 0.0000 16.5162 0.0000
# 6 0.0000 0.0000 0.0000 -0.4975 0.0000 11.1988
#
#
#
# Elastic Compliance Matrix: (Units=1/GPa)
#
#
# Indices 1 2 3 4 5 6 
#
# 1 0.041800 -0.013095 -0.007114 0.000000 0.021891 0.000000
# 2 -0.013095 0.040033 -0.010476 0.000000 -0.010651 0.000000
# 3 -0.007114 -0.010476 0.012106 0.000000 -0.003667 0.000000
# 4 0.000000 0.000000 0.000000 0.033052 0.000000 0.001468
# 5 0.021891 -0.010651 -0.003667 0.000000 0.072669 0.000000
# 6 0.000000 0.000000 0.000000 0.001468 0.000000 0.089360
#
#
# Mechanical properties :
#
#
# Convention : Reuss Voigt Hill
#
# Bulk Modulus (GPa) = 30.70425 54.35957 42.53191
# Shear Modulus (GPa) = 13.84101 19.97136 16.90619
#
# Velocity S-wave (km/s) = 3.05182 3.66588 3.37285
# Velocity P-wave (km/s) = 5.75143 7.38219 6.61724
#
# Compressibility (1/GPa) = 0.03256878
#
# Stress axis : x y z
#
# Youngs Moduli (GPa) = 23.92368 24.97954 82.60462
#
# Poissons Ratio (x) = 0.32711 0.58761
# Poissons Ratio (y) = 0.31329 0.86536
# Poissons Ratio (z) = 0.17018 0.26168
#
# Static dielectric constant tensor:
#      x y z
#    x 1.474610 0.000000 0.017910 
#    y 0.000000 1.498160 0.000000 
#    z 0.017910 0.000000 1.502610 
# 
# From -- ./inp_files/66201.got.cif
#   From: 2010.05.17/outbox.cif.g08.bks.cpg/sg10_34_cif.got.tgz:66201.got - 2010.06.03 11:33:40.
