data_PCOD9142469
_publ_section_title
;
Structure prediction by ZEFSAII (Michael W. Deem and Ramdas Pophale) SiO2 
 PCOD9142469
Probable space group: P 2/M
;
_chemical_formula_sum "Si O2"
_cell_formula_units_Z 28
_cell_length_a 18.283778
_cell_length_b 7.638066
_cell_length_c 15.148404
_cell_angle_alpha 90.000000
_cell_angle_beta 132.310893
_cell_angle_gamma 90.000000
_cell_volume 1564.430381
_symmetry_space_group_name_H-M "P 2/M"
_symmetry_group_IT_number 10
_symmetry_cell_setting 'monoclinic'
loop_
_space_group_symop_operation_xyz
x,y,z
-x,y,-z
-x,-y,-z
x,-y,z
loop_
_atom_site_type_symbol
_atom_site_label
_atom_site_fract_x
_atom_site_fract_y
_atom_site_fract_z
Si Si1 0.085997 0.285222 0.691412
Si Si2 0.932505 0.206903 0.809159
Si Si3 0.147499 0.700589 0.929139
Si Si4 0.394415 0.207195 0.442624
Si Si5 0.756208 0.209192 0.540654
Si Si6 0.780744 0.710833 0.833159
Si Si7 0.865921 0.709640 0.462800
O O1 0.084979 0.500000 0.694266
O O2 0.136101 0.221083 0.822159
O O3 0.137585 0.231484 0.641698
O O4 0.971116 0.228491 0.589079
O O5 0.851875 0.274721 0.672800
O O6 0.878329 0.232109 0.858461
O O7 0.036288 0.298343 0.878094
O O8 0.948978 0.000000 0.809206
O O9 0.180524 0.500000 0.944006
O O10 0.213027 0.778032 0.061356
O O11 0.500000 0.283040 0.500000
O O12 0.340732 0.277779 0.487535
O O13 0.313638 0.228077 0.299421
O O14 0.409603 0.000000 0.469912
O O15 0.776914 0.244228 0.455456
O O16 0.756181 0.000000 0.552680
O O17 0.780106 0.500000 0.834075
O O18 0.872222 0.500000 0.465166
#
# Coordination Sequence:
#
# PCOD9142469 Si02
#       7
#     4   4   4   4   4   4   4
#     4   8  15  26  41  61  86 119 156 184 209 250
#     4  10  19  29  41  60  89 124 156 183 212 256
#     4  10  18  29  43  61  89 122 152 183 219 256
#     4   9  19  36  53  67  87 115 144 179 226 275
#     4   9  17  28  43  65  89 112 143 182 223 260
#     4  10  20  30  44  66  89 115 146 183 224 263
#     4   9  15  26  44  62  83 118 156 183 212 252
#
# _framework density 17.897887000000001
#
# number of rings (size 3 to 8) (size 9 to 14) (size 15 to 20)
#    0.000    2.714    1.429    3.000    0.000    5.429 
#    0.000    2.143    0.000    0.000    0.000    1.000 
#    0.000    8.000    0.000    0.000    0.000    0.000 
#
# Total GULP energy -156025.714464 kJ/mol
# GULP energy per Si atom -5572.346945 kJ/mol
# Density = 1.785715 g / cm^3
# Si number density = 17.897887 Si / 1000 Ang^3
#
#
#
# Elastic Constant Matrix: (Units=GPa)
#
#
# Indices 1 2 3 4 5 6 
#
# 1 141.8629 -3.8131 65.4674 0.0000 -21.2813 0.0000
# 2 -3.8131 32.9573 -14.1993 0.0000 3.3145 0.0000
# 3 65.4674 -14.1993 53.1896 0.0000 -21.5596 0.0000
# 4 0.0000 0.0000 0.0000 34.0280 0.0000 -11.3025
# 5 -21.2813 3.3145 -21.5596 0.0000 33.5370 0.0000
# 6 0.0000 0.0000 0.0000 -11.3025 0.0000 20.4782
#
#
#
# Elastic Compliance Matrix: (Units=1/GPa)
#
#
# Indices 1 2 3 4 5 6 
#
# 1 0.018791 -0.009212 -0.027569 0.000000 -0.004889 0.000000
# 2 -0.009212 0.039087 0.024124 0.000000 0.005799 0.000000
# 3 -0.027569 0.024124 0.069129 0.000000 0.024562 0.000000
# 4 0.000000 0.000000 0.000000 0.035984 0.000000 0.019861
# 5 -0.004889 0.005799 0.024562 0.000000 0.041932 0.000000
# 6 0.000000 0.000000 0.000000 0.019861 0.000000 0.059794
#
#
# Mechanical properties :
#
#
# Convention : Reuss Voigt Hill
#
# Bulk Modulus (GPa) = 9.83366 35.87998 22.85682
# Shear Modulus (GPa) = 15.43550 29.64562 22.54056
#
# Velocity S-wave (km/s) = 2.93988 4.07427 3.55265
# Velocity P-wave (km/s) = 4.12676 6.49796 5.44305
#
# Compressibility (1/GPa) = 0.10169153
#
# Stress axis : x y z
#
# Youngs Moduli (GPa) = 53.21799 25.58423 14.46574
#
# Poissons Ratio (x) = 0.23568 0.39880
# Poissons Ratio (y) = 0.49025 -0.34897
# Poissons Ratio (z) = 1.46716 -0.61718
#
# Static dielectric constant tensor:
#      x y z
#    x 1.642780 0.000000 -0.041740 
#    y 0.000000 1.657550 0.000000 
#    z -0.041740 0.000000 1.622190 
# 
# From -- ./inp_files/65793.got.cif
#   From: 2010.05.17/outbox.cif.g08.bks.cpg/sg10_33_cif.got.tgz:65793.got - 2010.06.03 11:33:40.
