data_PCOD9142010
_publ_section_title
;
Structure prediction by ZEFSAII (Michael W. Deem and Ramdas Pophale) SiO2 
 PCOD9142010
Probable space group: P 2/M
;
_chemical_formula_sum "Si O2"
_cell_formula_units_Z 32
_cell_length_a 12.969297
_cell_length_b 19.989865
_cell_length_c 20.349685
_cell_angle_alpha 90.000000
_cell_angle_beta 159.302027
_cell_angle_gamma 90.000000
_cell_volume 1864.669367
_symmetry_space_group_name_H-M "P 2/M"
_symmetry_group_IT_number 10
_symmetry_cell_setting 'monoclinic'
loop_
_space_group_symop_operation_xyz
x,y,z
-x,y,-z
-x,-y,-z
x,-y,z
loop_
_atom_site_type_symbol
_atom_site_label
_atom_site_fract_x
_atom_site_fract_y
_atom_site_fract_z
Si Si1 0.661552 0.076291 0.167591
Si Si2 0.801378 0.796470 0.816069
Si Si3 0.966441 0.648009 0.902337
Si Si4 0.866438 0.178029 0.594992
Si Si5 0.389172 0.319039 0.039872
Si Si6 0.046169 0.332087 0.699547
Si Si7 0.548380 0.576995 0.454611
Si Si8 0.176015 0.167689 0.919254
O O1 0.938325 0.125328 0.328823
O O2 0.735800 0.000000 0.227760
O O3 0.500000 0.077269 0.000000
O O4 0.412748 0.109308 0.063494
O O5 0.793553 0.718374 0.788472
O O6 0.475659 0.825052 0.625165
O O7 0.976665 0.833047 0.863719
O O8 0.000000 0.798842 0.000000
O O9 0.770621 0.585938 0.765320
O O10 0.248861 0.653735 0.023646
O O11 0.000000 0.644820 0.000000
O O12 0.953549 0.255125 0.635025
O O13 0.966377 0.164851 0.730205
O O14 0.198346 0.338285 0.862048
O O15 0.354121 0.238139 0.021613
O O16 0.712647 0.343296 0.213371
O O17 0.772592 0.381094 0.543810
O O18 0.500000 0.604133 0.500000
O O19 0.642198 0.500000 0.514893
#
# Coordination Sequence:
#
# PCOD9142010 Si02
#       8
#     4   4   4   4   4   4   4   4
#     4   9  17  31  52  82 113 136 169 220 271 320
#     4  10  20  32  51  78 107 133 177 229 264 304
#     4  10  20  35  54  76 107 141 175 220 273 323
#     4  10  17  30  55  81 101 137 176 218 267 313
#     4   9  17  30  53  82 105 131 177 222 268 312
#     4  10  17  31  55  80 105 133 176 230 263 310
#     4  11  22  36  54  80 109 143 181 219 264 317
#     4   9  17  30  52  80 104 134 174 217 268 318
#
# _framework density 17.161218999999999
#
# number of rings (size 3 to 8) (size 9 to 14) (size 15 to 20)
#    0.000    2.250    3.750    0.375    0.000    0.250 
#    0.000    3.750    0.000    6.000    0.000    0.000 
#    0.000    0.000    0.000    0.000    0.000    0.000 
#
# Total GULP energy -178139.377134 kJ/mol
# GULP energy per Si atom -5566.855535 kJ/mol
# Density = 1.712216 g / cm^3
# Si number density = 17.161219 Si / 1000 Ang^3
#
#
#
# Elastic Constant Matrix: (Units=GPa)
#
#
# Indices 1 2 3 4 5 6 
#
# 1 80.9225 20.9356 50.8215 0.0000 19.3760 0.0000
# 2 20.9356 51.5672 36.0725 0.0000 12.1181 0.0000
# 3 50.8215 36.0725 92.8087 0.0000 30.2834 0.0000
# 4 0.0000 0.0000 0.0000 19.1491 0.0000 -5.9698
# 5 19.3760 12.1181 30.2834 0.0000 21.0991 0.0000
# 6 0.0000 0.0000 0.0000 -5.9698 0.0000 -53.4225
#
#
#
# Elastic Compliance Matrix: (Units=1/GPa)
#
#
# Indices 1 2 3 4 5 6 
#
# 1 0.019097 -0.000558 -0.008695 0.000000 -0.004737 0.000000
# 2 -0.000558 0.026657 -0.009831 0.000000 -0.000687 0.000000
# 3 -0.008695 -0.009831 0.028043 0.000000 -0.026619 0.000000
# 4 0.000000 0.000000 0.000000 0.050464 0.000000 -0.005639
# 5 -0.004737 -0.000687 -0.026619 0.000000 0.090346 0.000000
# 6 0.000000 0.000000 0.000000 -0.005639 0.000000 -0.018089
#
#
# Mechanical properties :
#
#
# Convention : Reuss Voigt Hill
#
# Bulk Modulus (GPa) = 28.06667 48.99529 38.53098
# Shear Modulus (GPa) = 20.27887 5.19638 12.73763
#
# Velocity S-wave (km/s) = 3.44127 1.74200 2.72735
# Velocity P-wave (km/s) = 5.67274 5.71472 5.69377
#
# Compressibility (1/GPa) = 0.03562945
#
# Stress axis : x y z
#
# Youngs Moduli (GPa) = 52.36548 37.51305 35.65972
#
# Poissons Ratio (x) = 0.02092 0.31005
# Poissons Ratio (y) = 0.02920 0.35059
# Poissons Ratio (z) = 0.45530 0.36881
#
# Static dielectric constant tensor:
#      x y z
#    x 1.607780 0.000000 -0.006390 
#    y 0.000000 1.595700 0.000000 
#    z -0.006390 0.000000 1.594900 
# 
# From -- ./inp_files/26077.got.cif
#   From: 2010.05.17/outbox.cif.g08.bks.cpg/sg10_14_cif.got.tgz:26077.got - 2010.06.03 11:33:40.
