data_PCOD9142467
_publ_section_title
;
Structure prediction by ZEFSAII (Michael W. Deem and Ramdas Pophale) SiO2 
 PCOD9142467
Probable space group: P 2/M
;
_chemical_formula_sum "Si O2"
_cell_formula_units_Z 32
_cell_length_a 14.627249
_cell_length_b 7.491452
_cell_length_c 15.485449
_cell_angle_alpha 90.000000
_cell_angle_beta 90.201208
_cell_angle_gamma 90.000000
_cell_volume 1696.874721
_symmetry_space_group_name_H-M "P 2/M"
_symmetry_group_IT_number 10
_symmetry_cell_setting 'monoclinic'
loop_
_space_group_symop_operation_xyz
x,y,z
-x,y,-z
-x,-y,-z
x,-y,z
loop_
_atom_site_type_symbol
_atom_site_label
_atom_site_fract_x
_atom_site_fract_y
_atom_site_fract_z
Si Si1 0.336152 0.212295 0.771729
Si Si2 0.020319 0.294371 0.404960
Si Si3 0.382429 0.719469 0.250021
Si Si4 0.486149 0.714458 0.903104
Si Si5 0.471280 0.702800 0.618762
Si Si6 0.303575 0.716140 0.520436
Si Si7 0.210258 0.283363 0.339471
Si Si8 0.167141 0.794307 0.676472
O O1 0.387169 0.243578 0.861749
O O2 0.399961 0.301056 0.699275
O O3 0.232431 0.273970 0.753998
O O4 0.337334 0.000000 0.754407
O O5 0.046762 0.500000 0.423373
O O6 0.106858 0.218254 0.353192
O O7 0.000000 0.213535 0.500000
O O8 0.928080 0.293403 0.349198
O O9 0.386062 0.500000 0.250860
O O10 0.436979 0.778212 0.165020
O O11 0.440571 0.782341 0.334069
O O12 0.277697 0.775612 0.262977
O O13 0.493705 0.500000 0.905455
O O14 0.500000 0.782034 0.000000
O O15 0.496364 0.500000 0.595430
O O16 0.406515 0.779265 0.543265
O O17 0.207846 0.500000 0.332180
O O18 0.262661 0.762709 0.428291
O O19 0.233162 0.780870 0.593076
O O20 0.305963 0.500000 0.525871
O O21 0.145294 0.000000 0.693409
#
# Coordination Sequence:
#
# PCOD9142467 Si02
#       8
#     4   4   4   4   4   4   4   4
#     4   9  17  28  43  65  90 114 142 175 212 256
#     4  10  18  29  43  60  82 113 153 192 223 251
#     4   8  14  25  40  62  88 111 137 171 211 255
#     4   9  17  30  49  72  94 113 135 167 210 261
#     4   8  14  24  40  59  82 113 145 175 208 247
#     4   9  15  25  40  58  81 112 148 182 212 247
#     4   9  16  25  39  59  84 112 145 183 217 249
#     4  10  19  29  42  61  86 115 148 188 223 250
#
# _framework density 18.858198000000002
#
# number of rings (size 3 to 8) (size 9 to 14) (size 15 to 20)
#    0.000    3.000    1.250    1.500    0.000    2.500 
#    0.000    2.500    0.000    6.000    0.000   12.250 
#    0.000    7.000    0.000    0.000    0.000    0.000 
#
# Total GULP energy -178278.442772 kJ/mol
# GULP energy per Si atom -5571.201337 kJ/mol
# Density = 1.881528 g / cm^3
# Si number density = 18.858198 Si / 1000 Ang^3
#
#
#
# Elastic Constant Matrix: (Units=GPa)
#
#
# Indices 1 2 3 4 5 6 
#
# 1 158.2190 1.3434 55.5032 0.0000 -2.7556 0.0000
# 2 1.3434 53.1429 4.2641 0.0000 -2.4686 0.0000
# 3 55.5032 4.2641 93.1517 0.0000 9.7399 0.0000
# 4 0.0000 0.0000 0.0000 1.0266 0.0000 39.8913
# 5 -2.7556 -2.4686 9.7399 0.0000 19.5180 0.0000
# 6 0.0000 0.0000 0.0000 39.8913 0.0000 -134.9324
#
#
#
# Elastic Compliance Matrix: (Units=1/GPa)
#
#
# Indices 1 2 3 4 5 6 
#
# 1 0.008260 0.000401 -0.005346 0.000000 0.003885 0.000000
# 2 0.000401 0.019071 -0.001445 0.000000 0.003190 0.000000
# 3 -0.005346 -0.001445 0.014860 0.000000 -0.008353 0.000000
# 4 0.000000 0.000000 0.000000 0.078003 0.000000 0.023061
# 5 0.003885 0.003190 -0.008353 0.000000 0.056355 0.000000
# 6 0.000000 0.000000 0.000000 0.023061 0.000000 -0.000593
#
#
# Mechanical properties :
#
#
# Convention : Reuss Voigt Hill
#
# Bulk Modulus (GPa) = 34.00220 47.41499 40.70859
# Shear Modulus (GPa) = 25.18378 -6.65069 9.26655
#
# Velocity S-wave (km/s) = 3.65832 -1.87998 2.21911
# Velocity P-wave (km/s) = 5.99283 4.52604 5.31032
#
# Compressibility (1/GPa) = 0.02940986
#
# Stress axis : x y z
#
# Youngs Moduli (GPa) = 121.06484 52.43512 67.29399
#
# Poissons Ratio (x) = -0.02101 0.35976
# Poissons Ratio (y) = -0.04850 0.09726
# Poissons Ratio (z) = 0.64723 0.07578
#
# Static dielectric constant tensor:
#      x y z
#    x 1.698650 0.000000 0.003310 
#    y 0.000000 1.752350 0.000000 
#    z 0.003310 0.000000 1.653440 
# 
# From -- ./inp_files/66170.got.cif
#   From: 2010.05.17/outbox.cif.g08.bks.cpg/sg10_34_cif.got.tgz:66170.got - 2010.06.03 11:33:40.
