data_PCOD9142607
_publ_section_title
;
Structure prediction by ZEFSAII (Michael W. Deem and Ramdas Pophale) SiO2 
 PCOD9142607
Probable space group: P 2/M
;
_chemical_formula_sum "Si O2"
_cell_formula_units_Z 32
_cell_length_a 25.261579
_cell_length_b 17.415607
_cell_length_c 12.825685
_cell_angle_alpha 90.000000
_cell_angle_beta 18.471354
_cell_angle_gamma 90.000000
_cell_volume 1787.749405
_symmetry_space_group_name_H-M "P 2/M"
_symmetry_group_IT_number 10
_symmetry_cell_setting 'monoclinic'
loop_
_space_group_symop_operation_xyz
x,y,z
-x,y,-z
-x,-y,-z
x,-y,z
loop_
_atom_site_type_symbol
_atom_site_label
_atom_site_fract_x
_atom_site_fract_y
_atom_site_fract_z
Si Si1 0.690240 0.089859 0.658613
Si Si2 0.214003 0.724096 0.222847
Si Si3 0.316491 0.327839 0.810686
Si Si4 0.097423 0.314686 0.924895
Si Si5 0.737700 0.912591 0.332713
Si Si6 0.022103 0.411676 0.261691
Si Si7 0.586127 0.247660 0.585490
Si Si8 0.947612 0.831913 0.326211
O O1 0.776999 0.094899 0.383074
O O2 0.790464 0.134506 0.558391
O O3 0.682369 0.000000 0.701967
O O4 0.500000 0.117451 0.000000
O O5 0.105521 0.796168 0.464545
O O6 0.119189 0.646629 0.433685
O O7 0.246815 0.719850 0.038595
O O8 0.393262 0.729299 0.945324
O O9 0.500000 0.356873 0.500000
O O10 0.340149 0.275544 0.663955
O O11 0.185542 0.393360 0.025687
O O12 0.293368 0.290187 0.555890
O O13 0.070085 0.385147 0.055006
O O14 0.000000 0.327412 0.000000
O O15 0.014819 0.240591 0.134580
O O16 0.609007 0.843931 0.550574
O O17 0.679525 0.000000 0.424763
O O18 0.903464 0.893387 0.957362
O O19 0.974027 0.500000 0.357165
#
# Coordination Sequence:
#
# PCOD9142607 Si02
#       8
#     4   4   4   4   4   4   4   4
#     4  10  19  29  44  70 102 134 170 215 265 307
#     4  10  20  34  54  77 103 137 172 213 264 312
#     4   9  19  36  58  80 101 133 174 213 256 303
#     4   9  18  33  53  74  99 138 180 211 248 302
#     4  10  19  31  49  72 101 136 173 218 266 304
#     4  10  21  35  53  81 110 133 164 208 260 314
#     4   9  18  35  55  76 102 135 180 220 254 308
#     4  10  18  29  47  71 100 133 172 212 256 312
#
# _framework density 17.8996
#
# number of rings (size 3 to 8) (size 9 to 14) (size 15 to 20)
#    0.000    2.375    0.000    4.125    0.000    2.500 
#    0.000    7.500    0.000    6.375    0.000    0.000 
#    0.000    0.000    0.000    0.000    0.000    0.000 
#
# Total GULP energy -178452.287947 kJ/mol
# GULP energy per Si atom -5576.633998 kJ/mol
# Density = 1.785886 g / cm^3
# Si number density = 17.899600 Si / 1000 Ang^3
#
#
#
# Elastic Constant Matrix: (Units=GPa)
#
#
# Indices 1 2 3 4 5 6 
#
# 1 71.4367 20.8783 26.8239 0.0000 -16.8241 0.0000
# 2 20.8783 96.4616 31.7342 0.0000 -13.3255 0.0000
# 3 26.8239 31.7342 80.4200 0.0000 -9.1242 0.0000
# 4 0.0000 0.0000 0.0000 10.1031 0.0000 -4.6553
# 5 -16.8241 -13.3255 -9.1242 0.0000 27.2579 0.0000
# 6 0.0000 0.0000 0.0000 -4.6553 0.0000 17.0133
#
#
#
# Elastic Compliance Matrix: (Units=1/GPa)
#
#
# Indices 1 2 3 4 5 6 
#
# 1 0.018211 -0.001175 -0.004574 0.000000 0.009134 0.000000
# 2 -0.001175 0.012524 -0.004093 0.000000 0.004027 0.000000
# 3 -0.004574 -0.004093 0.015622 0.000000 0.000405 0.000000
# 4 0.000000 0.000000 0.000000 0.113259 0.000000 0.030991
# 5 0.009134 0.004027 0.000405 0.000000 0.044429 0.000000
# 6 0.000000 0.000000 0.000000 0.030991 0.000000 0.067257
#
#
# Mechanical properties :
#
#
# Convention : Reuss Voigt Hill
#
# Bulk Modulus (GPa) = 37.49297 45.24346 41.36822
# Shear Modulus (GPa) = 16.67351 22.13365 19.40358
#
# Velocity S-wave (km/s) = 3.05536 3.52027 3.29602
# Velocity P-wave (km/s) = 5.78262 6.46948 6.13567
#
# Compressibility (1/GPa) = 0.02667167
#
# Stress axis : x y z
#
# Youngs Moduli (GPa) = 54.91319 79.84625 64.01411
#
# Poissons Ratio (x) = 0.09381 0.29281
# Poissons Ratio (y) = 0.06452 0.26203
# Poissons Ratio (z) = 0.25118 0.32683
#
# Static dielectric constant tensor:
#      x y z
#    x 1.618300 0.000000 -0.001270 
#    y 0.000000 1.588720 0.000000 
#    z -0.001270 0.000000 1.669010 
# 
# From -- ./inp_files/57086.got.cif
#   From: 2010.05.17/outbox.cif.g08.bks.cpg/sg10_29_cif.got.tgz:57086.got - 2010.06.03 11:33:40.
