data_PCOD9142106
_publ_section_title
;
Structure prediction by ZEFSAII (Michael W. Deem and Ramdas Pophale) SiO2 
 PCOD9142106
Probable space group: P 2/M
;
_chemical_formula_sum "Si O2"
_cell_formula_units_Z 28
_cell_length_a 16.002924
_cell_length_b 18.457369
_cell_length_c 9.291852
_cell_angle_alpha 90.000000
_cell_angle_beta 142.828855
_cell_angle_gamma 90.000000
_cell_volume 1658.252376
_symmetry_space_group_name_H-M "P 2/M"
_symmetry_group_IT_number 10
_symmetry_cell_setting 'monoclinic'
loop_
_space_group_symop_operation_xyz
x,y,z
-x,y,-z
-x,-y,-z
x,-y,z
loop_
_atom_site_type_symbol
_atom_site_label
_atom_site_fract_x
_atom_site_fract_y
_atom_site_fract_z
Si Si1 0.163418 0.584922 0.237904
Si Si2 0.351204 0.000000 0.217722
Si Si3 0.625500 0.710274 0.968351
Si Si4 0.698707 0.289857 0.396146
Si Si5 0.350613 0.159396 0.216343
Si Si6 0.835447 0.000000 0.758365
Si Si7 0.351053 0.584757 0.220709
Si Si8 0.165145 0.840677 0.245912
O O1 0.187922 0.500000 0.305077
O O2 0.230341 0.637632 0.446354
O O3 0.237098 0.599871 0.186300
O O4 0.000000 0.596959 0.000000
O O5 0.500000 0.000000 0.500000
O O6 0.341039 0.078975 0.132519
O O7 0.235671 0.000000 0.183169
O O8 0.696651 0.713096 0.221168
O O9 0.460287 0.711398 0.768826
O O10 0.662755 0.778056 0.918690
O O11 0.661912 0.637725 0.931197
O O12 0.776927 0.221811 0.573215
O O13 0.500000 0.165788 0.500000
O O14 0.238879 0.165968 0.191204
O O15 0.798356 0.078586 0.643774
O O16 0.000000 0.000000 0.000000
O O17 0.500000 0.597493 0.500000
O O18 0.343837 0.500000 0.170659
O O19 0.000000 0.835153 0.000000
#
# Coordination Sequence:
#
# PCOD9142106 Si02
#       8
#     4   2   4   4   4   2   4   4
#     4  10  21  38  59  81 105 134 171 216 261 305
#     4   8  16  26  49  77  97 127 176 220 253 292
#     4  11  22  34  52  78 111 140 171 213 260 304
#     4  11  22  35  51  79 110 140 172 211 261 311
#     4  10  17  33  54  75 102 138 177 216 254 304
#     4   8  16  30  51  77 101 129 170 219 259 298
#     4  10  19  35  58  80 100 133 181 215 248 304
#     4  10  19  34  56  79 103 135 177 218 258 306
#
# _framework density 16.885247
#
# number of rings (size 3 to 8) (size 9 to 14) (size 15 to 20)
#    0.000    2.000    2.857    1.714    0.000    0.571 
#    0.000    5.000    0.000    4.286    0.000    6.000 
#    0.000    0.000    0.000    0.000    0.000    0.000 
#
# Total GULP energy -156116.556895 kJ/mol
# GULP energy per Si atom -5575.591318 kJ/mol
# Density = 1.684682 g / cm^3
# Si number density = 16.885247 Si / 1000 Ang^3
#
#
#
# Elastic Constant Matrix: (Units=GPa)
#
#
# Indices 1 2 3 4 5 6 
#
# 1 116.9090 68.8435 57.0784 0.0000 4.1811 0.0000
# 2 68.8435 138.9844 73.6782 0.0000 -27.9021 0.0000
# 3 57.0784 73.6782 74.9233 0.0000 -10.2389 0.0000
# 4 0.0000 0.0000 0.0000 2.5250 0.0000 10.1043
# 5 4.1811 -27.9021 -10.2389 0.0000 29.3816 0.0000
# 6 0.0000 0.0000 0.0000 10.1043 0.0000 16.6595
#
#
#
# Elastic Compliance Matrix: (Units=1/GPa)
#
#
# Indices 1 2 3 4 5 6 
#
# 1 0.016450 -0.006068 -0.008056 0.000000 -0.010911 0.000000
# 2 -0.006068 0.020366 -0.013276 0.000000 0.015578 0.000000
# 3 -0.008056 -0.013276 0.032522 0.000000 -0.000128 0.000000
# 4 0.000000 0.000000 0.000000 -0.277515 0.000000 0.168318
# 5 -0.010911 0.015578 -0.000128 0.000000 0.050336 0.000000
# 6 0.000000 0.000000 0.000000 0.168318 0.000000 -0.042062
#
#
# Mechanical properties :
#
#
# Convention : Reuss Voigt Hill
#
# Bulk Modulus (GPa) = 68.78386 81.11298 74.94842
# Shear Modulus (GPa) = -35.64901 18.46099 -8.59401
#
# Velocity S-wave (km/s) = -4.59982 3.31013 -2.25847
# Velocity P-wave (km/s) = 3.55153 7.92157 6.13859
#
# Compressibility (1/GPa) = 0.01453829
#
# Stress axis : x y z
#
# Youngs Moduli (GPa) = 60.78867 49.10188 30.74859
#
# Poissons Ratio (x) = 0.29796 0.24771
# Poissons Ratio (y) = 0.36888 0.40821
# Poissons Ratio (z) = 0.48971 0.65186
#
# Static dielectric constant tensor:
#      x y z
#    x 1.555700 0.000000 0.022500 
#    y 0.000000 1.608180 0.000000 
#    z 0.022500 0.000000 1.525750 
# 
# From -- ./inp_files/30218.got.cif
#   From: 2010.05.17/outbox.cif.g08.bks.cpg/sg10_16_cif.got.tgz:30218.got - 2010.06.03 11:33:40.
