data_PCOD9142466
_publ_section_title
;
Structure prediction by ZEFSAII (Michael W. Deem and Ramdas Pophale) SiO2 
 PCOD9142466
Probable space group: P 2/M
;
_chemical_formula_sum "Si O2"
_cell_formula_units_Z 32
_cell_length_a 12.577523
_cell_length_b 7.592424
_cell_length_c 16.869569
_cell_angle_alpha 90.000000
_cell_angle_beta 78.126727
_cell_angle_gamma 90.000000
_cell_volume 1576.474756
_symmetry_space_group_name_H-M "P 2/M"
_symmetry_group_IT_number 10
_symmetry_cell_setting 'monoclinic'
loop_
_space_group_symop_operation_xyz
x,y,z
-x,y,-z
-x,-y,-z
x,-y,z
loop_
_atom_site_type_symbol
_atom_site_label
_atom_site_fract_x
_atom_site_fract_y
_atom_site_fract_z
Si Si1 0.437477 0.711694 0.226187
Si Si2 0.385241 0.296174 0.060428
Si Si3 0.197382 0.801588 0.977466
Si Si4 0.006366 0.203063 0.586257
Si Si5 0.205292 0.708751 0.287582
Si Si6 0.310504 0.211220 0.800603
Si Si7 0.915543 0.787280 0.854731
Si Si8 0.122380 0.215432 0.721988
O O1 0.431770 0.500000 0.224343
O O2 0.412668 0.778549 0.141820
O O3 0.328008 0.769452 0.288456
O O4 0.561874 0.751089 0.227208
O O5 0.346085 0.500000 0.072560
O O6 0.500000 0.301569 0.000000
O O7 0.300206 0.192538 0.020977
O O8 0.248887 0.720226 0.889696
O O9 0.159295 0.000000 0.962582
O O10 0.109593 0.721325 0.052418
O O11 0.888388 0.205275 0.645613
O O12 0.000000 0.284641 0.500000
O O13 0.086010 0.280360 0.641143
O O14 0.041409 0.000000 0.569914
O O15 0.198475 0.500000 0.302173
O O16 0.172483 0.738839 0.199969
O O17 0.238908 0.269568 0.736876
O O18 0.303234 0.000000 0.807668
O O19 0.030232 0.731090 0.799844
O O20 0.915118 0.000000 0.859521
O O21 0.118763 0.000000 0.720212
#
# Coordination Sequence:
#
# PCOD9142466 Si02
#       8
#     4   4   4   4   4   4   4   4
#     4  10  20  32  46  66  95 132 168 202 242 284
#     4  10  18  29  43  59  86 128 170 209 247 277
#     4  10  19  27  41  67  93 124 168 212 247 278
#     4   9  18  35  60  84 102 121 147 186 240 298
#     4  10  19  31  50  76 102 125 156 200 244 284
#     4  10  20  31  45  67  96 132 170 205 239 281
#     4   9  17  30  47  66  94 130 166 207 248 285
#     4   8  16  32  50  70  97 126 157 194 240 293
#
# _framework density 20.298452000000001
#
# number of rings (size 3 to 8) (size 9 to 14) (size 15 to 20)
#    0.000    2.500    2.500    1.125    0.000    2.500 
#    0.000    5.000    0.000    0.750    0.000   10.500 
#    0.000    0.000    0.000    0.000    0.000    0.000 
#
# Total GULP energy -178306.676112 kJ/mol
# GULP energy per Si atom -5572.083629 kJ/mol
# Density = 2.025225 g / cm^3
# Si number density = 20.298452 Si / 1000 Ang^3
#
#
#
# Elastic Constant Matrix: (Units=GPa)
#
#
# Indices 1 2 3 4 5 6 
#
# 1 111.8299 -6.7649 56.7681 0.0000 24.7887 0.0000
# 2 -6.7649 48.6614 -2.2197 0.0000 2.6080 0.0000
# 3 56.7681 -2.2197 96.6373 0.0000 12.9750 0.0000
# 4 0.0000 0.0000 0.0000 9.1162 0.0000 5.3774
# 5 24.7887 2.6080 12.9750 0.0000 19.3570 0.0000
# 6 0.0000 0.0000 0.0000 5.3774 0.0000 30.6412
#
#
#
# Elastic Compliance Matrix: (Units=1/GPa)
#
#
# Indices 1 2 3 4 5 6 
#
# 1 0.016577 0.002856 -0.007440 0.000000 -0.016627 0.000000
# 2 0.002856 0.021269 -0.000345 0.000000 -0.006292 0.000000
# 3 -0.007440 -0.000345 0.014753 0.000000 -0.000315 0.000000
# 4 0.000000 0.000000 0.000000 0.122361 0.000000 -0.021474
# 5 -0.016627 -0.006292 -0.000315 0.000000 0.074012 0.000000
# 6 0.000000 0.000000 0.000000 -0.021474 0.000000 0.036404
#
#
# Mechanical properties :
#
#
# Convention : Reuss Voigt Hill
#
# Bulk Modulus (GPa) = 23.39598 39.18840 31.29219
# Shear Modulus (GPa) = 16.15609 25.77923 20.96766
#
# Velocity S-wave (km/s) = 2.82428 3.56759 3.21747
# Velocity P-wave (km/s) = 4.71025 6.02646 5.40854
#
# Compressibility (1/GPa) = 0.04274238
#
# Stress axis : x y z
#
# Youngs Moduli (GPa) = 60.32339 47.01732 67.78341
#
# Poissons Ratio (x) = -0.13430 0.50431
# Poissons Ratio (y) = -0.17230 0.02335
# Poissons Ratio (z) = 0.44881 0.01620
#
# Static dielectric constant tensor:
#      x y z
#    x 1.752350 0.000000 -0.013490 
#    y 0.000000 1.818460 0.000000 
#    z -0.013490 0.000000 1.732300 
# 
# From -- ./inp_files/63834.got.cif
#   From: 2010.05.17/outbox.cif.g08.bks.cpg/sg10_32_cif.got.tgz:63834.got - 2010.06.03 11:33:40.
