data_PCOD9142262
_publ_section_title
;
Structure prediction by ZEFSAII (Michael W. Deem and Ramdas Pophale) SiO2 
 PCOD9142262
Probable space group: P 2/M
;
_chemical_formula_sum "Si O2"
_cell_formula_units_Z 32
_cell_length_a 11.141418
_cell_length_b 17.404731
_cell_length_c 26.028602
_cell_angle_alpha 90.000000
_cell_angle_beta 156.928507
_cell_angle_gamma 90.000000
_cell_volume 1977.930749
_symmetry_space_group_name_H-M "P 2/M"
_symmetry_group_IT_number 10
_symmetry_cell_setting 'monoclinic'
loop_
_space_group_symop_operation_xyz
x,y,z
-x,y,-z
-x,-y,-z
x,-y,z
loop_
_atom_site_type_symbol
_atom_site_label
_atom_site_fract_x
_atom_site_fract_y
_atom_site_fract_z
Si Si1 0.274144 0.411493 0.362597
Si Si2 0.690525 0.688358 0.346863
Si Si3 0.021680 0.783724 0.395936
Si Si4 0.640422 0.590487 0.869095
Si Si5 0.651070 0.274618 0.687316
Si Si6 0.791564 0.189812 0.142487
Si Si7 0.736157 0.324461 0.197872
Si Si8 0.135534 0.908994 0.362512
O O1 0.500000 0.398505 0.500000
O O2 0.300931 0.500000 0.357577
O O3 0.339867 0.353187 0.342208
O O4 0.938693 0.390230 0.251409
O O5 0.561831 0.624360 0.257402
O O6 0.432738 0.708519 0.286972
O O7 0.000000 0.665143 0.500000
O O8 0.793285 0.761065 0.352197
O O9 0.362728 0.771771 0.551026
O O10 0.008976 0.865611 0.363232
O O11 0.948070 0.720935 0.322684
O O12 0.578655 0.500000 0.851378
O O13 0.539610 0.638063 0.879579
O O14 0.000000 0.600716 0.000000
O O15 0.958854 0.227772 0.797118
O O16 0.664226 0.260278 0.127244
O O17 0.965040 0.130511 0.247611
O O18 0.500000 0.154170 0.000000
O O19 0.500000 0.893448 0.500000
O O20 0.090355 0.000000 0.346610
#
# Coordination Sequence:
#
# PCOD9142262 Si02
#       8
#     4   4   4   4   4   4   4   4
#     4  10  18  27  46  73 100 133 169 217 270 298
#     4   9  20  34  53  75  97 132 172 217 260 292
#     4   9  16  33  53  77  97 131 165 211 245 296
#     4  10  21  35  50  68  99 138 174 219 264 306
#     4  10  18  32  51  71 108 129 172 218 249 301
#     4  10  21  32  53  80 104 138 167 209 255 298
#     4   9  18  32  51  68  99 130 180 210 251 307
#     4  10  19  33  58  84 107 134 163 200 249 306
#
# _framework density 16.178525
#
# number of rings (size 3 to 8) (size 9 to 14) (size 15 to 20)
#    0.000    2.375    2.500    0.375    1.750    1.000 
#    0.000    0.000    0.000    6.000    0.000    0.875 
#    0.000    0.000    0.000    0.000    0.000    0.000 
#
# Total GULP energy -178325.439865 kJ/mol
# GULP energy per Si atom -5572.669996 kJ/mol
# Density = 1.614170 g / cm^3
# Si number density = 16.178525 Si / 1000 Ang^3
#
#
#
# Elastic Constant Matrix: (Units=GPa)
#
#
# Indices 1 2 3 4 5 6 
#
# 1 102.3891 40.3358 24.4699 0.0000 12.5274 0.0000
# 2 40.3358 85.4507 33.4401 0.0000 11.5480 0.0000
# 3 24.4699 33.4401 70.0133 0.0000 3.8102 0.0000
# 4 0.0000 0.0000 0.0000 12.1883 0.0000 5.5704
# 5 12.5274 11.5480 3.8102 0.0000 14.4496 0.0000
# 6 0.0000 0.0000 0.0000 5.5704 0.0000 12.6935
#
#
#
# Elastic Compliance Matrix: (Units=1/GPa)
#
#
# Indices 1 2 3 4 5 6 
#
# 1 0.012818 -0.004284 -0.002045 0.000000 -0.007150 0.000000
# 2 -0.004284 0.017347 -0.006326 0.000000 -0.008481 0.000000
# 3 -0.002045 -0.006326 0.017905 0.000000 0.002107 0.000000
# 4 0.000000 0.000000 0.000000 0.102629 0.000000 -0.045038
# 5 -0.007150 -0.008481 0.002107 0.000000 0.081627 0.000000
# 6 0.000000 0.000000 0.000000 -0.045038 0.000000 0.098545
#
#
# Mechanical properties :
#
#
# Convention : Reuss Voigt Hill
#
# Bulk Modulus (GPa) = 43.93874 50.48274 47.21074
# Shear Modulus (GPa) = 13.74505 18.50675 16.12590
#
# Velocity S-wave (km/s) = 2.91793 3.38584 3.16056
# Velocity P-wave (km/s) = 6.21048 6.82323 6.52405
#
# Compressibility (1/GPa) = 0.02275896
#
# Stress axis : x y z
#
# Youngs Moduli (GPa) = 78.01659 57.64749 55.85169
#
# Poissons Ratio (x) = 0.24697 0.11419
# Poissons Ratio (y) = 0.33423 0.35334
# Poissons Ratio (z) = 0.15951 0.36470
#
# Static dielectric constant tensor:
#      x y z
#    x 1.552060 0.000000 -0.006020 
#    y 0.000000 1.513300 0.000000 
#    z -0.006020 0.000000 1.544760 
# 
# From -- ./inp_files/92900.got.cif
#   From: 2010.05.17/outbox.cif.g08.bks.cpg/sg10_47_cif.got.tgz:92900.got - 2010.06.03 11:33:40.
