data_PCOD9142397
_publ_section_title
;
Structure prediction by ZEFSAII (Michael W. Deem and Ramdas Pophale) SiO2 
 PCOD9142397
Probable space group: P 2/M
;
_chemical_formula_sum "Si O2"
_cell_formula_units_Z 32
_cell_length_a 24.336106
_cell_length_b 9.052517
_cell_length_c 18.066918
_cell_angle_alpha 90.000000
_cell_angle_beta 30.531405
_cell_angle_gamma 90.000000
_cell_volume 2021.981854
_symmetry_space_group_name_H-M "P 2/M"
_symmetry_group_IT_number 10
_symmetry_cell_setting 'monoclinic'
loop_
_space_group_symop_operation_xyz
x,y,z
-x,y,-z
-x,-y,-z
x,-y,z
loop_
_atom_site_type_symbol
_atom_site_label
_atom_site_fract_x
_atom_site_fract_y
_atom_site_fract_z
Si Si1 0.024057 0.176257 0.058323
Si Si2 0.747436 0.676494 0.171581
Si Si3 0.405204 0.176499 0.769245
Si Si4 0.370927 0.170484 0.132051
Si Si5 0.629128 0.675844 0.463543
Si Si6 0.442632 0.177939 0.894265
Si Si7 0.669849 0.323876 0.673399
Si Si8 0.184177 0.323445 0.632419
O O1 0.923493 0.236985 0.221887
O O2 0.033590 0.000000 0.054627
O O3 0.135105 0.253457 0.952909
O O4 0.000000 0.210820 0.000000
O O5 0.755999 0.500000 0.154822
O O6 0.686419 0.745480 0.172612
O O7 0.675980 0.707744 0.327948
O O8 0.521446 0.234413 0.606333
O O9 0.398398 0.212201 0.864497
O O10 0.398992 0.000000 0.767849
O O11 0.315598 0.264850 0.260258
O O12 0.336096 0.000000 0.178043
O O13 0.500000 0.174416 0.000000
O O14 0.366747 0.221339 0.051677
O O15 0.605192 0.500000 0.495843
O O16 0.722609 0.708698 0.414981
O O17 0.559233 0.252817 0.770371
O O18 0.457352 0.000000 0.882775
O O19 0.657241 0.500000 0.688396
O O20 0.765880 0.286166 0.505453
O O21 0.163861 0.500000 0.659163
#
# Coordination Sequence:
#
# PCOD9142397 Si02
#       8
#     4   4   4   4   4   4   4   4
#     4  11  23  37  55  77  99 125 167 218 258 293
#     4  11  23  38  55  71  97 136 174 209 252 304
#     4  11  22  34  51  75 104 134 171 214 251 291
#     4   8  15  28  44  64  96 134 166 194 239 301
#     4  10  20  35  52  72 100 137 173 203 246 304
#     4   9  18  31  46  67  99 138 167 196 245 301
#     4  10  18  28  46  73 101 128 165 208 244 288
#     4  10  20  34  52  74 102 136 170 204 249 303
#
# _framework density 15.826055999999999
#
# number of rings (size 3 to 8) (size 9 to 14) (size 15 to 20)
#    0.000    2.000    2.500    2.625    0.000    7.250 
#    0.000    0.000    0.000    0.000    0.000    0.875 
#    0.000    7.000    0.000    0.000    0.000    0.000 
#
# Total GULP energy -178553.956264 kJ/mol
# GULP energy per Si atom -5579.811133 kJ/mol
# Density = 1.579004 g / cm^3
# Si number density = 15.826056 Si / 1000 Ang^3
#
#
#
# Elastic Constant Matrix: (Units=GPa)
#
#
# Indices 1 2 3 4 5 6 
#
# 1 125.2759 61.3829 87.7041 0.0000 14.4481 0.0000
# 2 61.3829 51.5486 56.2136 0.0000 10.7310 0.0000
# 3 87.7041 56.2136 99.9486 0.0000 22.3752 0.0000
# 4 0.0000 0.0000 0.0000 37.5671 0.0000 -3.7747
# 5 14.4481 10.7310 22.3752 0.0000 27.1698 0.0000
# 6 0.0000 0.0000 0.0000 -3.7747 0.0000 27.1373
#
#
#
# Elastic Compliance Matrix: (Units=1/GPa)
#
#
# Indices 1 2 3 4 5 6 
#
# 1 0.024831 -0.014591 -0.014610 0.000000 0.004590 0.000000
# 2 -0.014591 0.059137 -0.020799 0.000000 0.001531 0.000000
# 3 -0.014610 -0.020799 0.037939 0.000000 -0.015260 0.000000
# 4 0.000000 0.000000 0.000000 0.026996 0.000000 0.003755
# 5 0.004590 0.001531 -0.015260 0.000000 0.046327 0.000000
# 6 0.000000 0.000000 0.000000 0.003755 0.000000 0.037372
#
#
# Mechanical properties :
#
#
# Convention : Reuss Voigt Hill
#
# Bulk Modulus (GPa) = 45.64878 76.37492 61.01185
# Shear Modulus (GPa) = 14.71002 23.13966 18.92484
#
# Velocity S-wave (km/s) = 3.05205 3.82792 3.46179
# Velocity P-wave (km/s) = 6.42858 8.24021 7.39012
#
# Compressibility (1/GPa) = 0.02190639
#
# Stress axis : x y z
#
# Youngs Moduli (GPa) = 40.27302 16.90994 26.35799
#
# Poissons Ratio (x) = 0.24674 0.38508
# Poissons Ratio (y) = 0.58764 0.54822
# Poissons Ratio (z) = 0.58837 0.35171
#
# Static dielectric constant tensor:
#      x y z
#    x 1.531220 0.000000 0.032500 
#    y 0.000000 1.526870 0.000000 
#    z 0.032500 0.000000 1.508200 
# 
# From -- ./inp_files/79934.got.cif
#   From: 2010.05.17/outbox.cif.g08.bks.cpg/sg10_40_cif.got.tgz:79934.got - 2010.06.03 11:33:40.
