data_PCOD9142816
_publ_section_title
;
Structure prediction by ZEFSAII (Michael W. Deem and Ramdas Pophale) SiO2 
 PCOD9142816
Probable space group: P 2/M
;
_chemical_formula_sum "Si O2"
_cell_formula_units_Z 28
_cell_length_a 14.903365
_cell_length_b 8.908946
_cell_length_c 22.431609
_cell_angle_alpha 90.000000
_cell_angle_beta 36.524330
_cell_angle_gamma 90.000000
_cell_volume 1772.587998
_symmetry_space_group_name_H-M "P 2/M"
_symmetry_group_IT_number 10
_symmetry_cell_setting 'monoclinic'
loop_
_space_group_symop_operation_xyz
x,y,z
-x,y,-z
-x,-y,-z
x,-y,z
loop_
_atom_site_type_symbol
_atom_site_label
_atom_site_fract_x
_atom_site_fract_y
_atom_site_fract_z
Si Si1 0.547330 0.174362 0.246264
Si Si2 0.769982 0.818687 0.630206
Si Si3 0.456537 0.826025 0.433623
Si Si4 0.007752 0.319197 0.586506
Si Si5 0.203607 0.821040 0.726480
Si Si6 0.852353 0.679108 0.115635
Si Si7 0.148949 0.677599 0.635522
O O1 0.406095 0.221009 0.281180
O O2 0.485491 0.180866 0.347236
O O3 0.699675 0.268779 0.164108
O O4 0.583594 0.000000 0.214802
O O5 0.860496 0.750158 0.525470
O O6 0.855040 0.751375 0.641877
O O7 0.783290 0.000000 0.621350
O O8 0.617623 0.783542 0.375721
O O9 0.317105 0.724144 0.525452
O O10 0.422065 0.000000 0.467740
O O11 0.007507 0.500000 0.579696
O O12 0.042282 0.282396 0.636692
O O13 0.150478 0.750674 0.817008
O O14 0.119405 0.760690 0.713382
O O15 0.194525 0.000000 0.735693
O O16 0.851839 0.500000 0.121800
O O17 0.000000 0.725262 0.000000
O O18 0.141107 0.500000 0.649036
#
# Coordination Sequence:
#
# PCOD9142816 Si02
#       7
#     4   4   4   4   4   4   4
#     4   9  18  31  49  72  97 127 163 200 239 283
#     4  10  18  30  47  67  92 128 169 204 237 275
#     4   9  17  30  44  63  93 127 162 197 232 275
#     4  10  20  30  42  65  97 132 167 202 239 277
#     4  10  21  34  49  68  92 125 162 198 236 283
#     4  10  21  36  54  76  99 122 152 194 243 293
#     4  11  21  30  43  66  96 131 165 197 236 280
#
# _framework density 15.796112000000001
#
# number of rings (size 3 to 8) (size 9 to 14) (size 15 to 20)
#    0.000    2.143    1.429    4.286    0.000    8.571 
#    0.000    0.000    0.000    0.000    0.000    1.000 
#    0.000    8.000    0.000    0.000    0.000    0.000 
#
# Total GULP energy -156196.275126 kJ/mol
# GULP energy per Si atom -5578.438397 kJ/mol
# Density = 1.576016 g / cm^3
# Si number density = 15.796112 Si / 1000 Ang^3
#
#
#
# Elastic Constant Matrix: (Units=GPa)
#
#
# Indices 1 2 3 4 5 6 
#
# 1 145.8006 52.6520 53.9866 0.0000 5.7353 0.0000
# 2 52.6520 51.4191 34.0343 0.0000 -0.2078 0.0000
# 3 53.9866 34.0343 64.4866 0.0000 -5.1889 0.0000
# 4 0.0000 0.0000 0.0000 31.6612 0.0000 11.0911
# 5 5.7353 -0.2078 -5.1889 0.0000 15.2122 0.0000
# 6 0.0000 0.0000 0.0000 11.0911 0.0000 37.4094
#
#
#
# Elastic Compliance Matrix: (Units=1/GPa)
#
#
# Indices 1 2 3 4 5 6 
#
# 1 0.012740 -0.008655 -0.006677 0.000000 -0.007199 0.000000
# 2 -0.008655 0.036161 -0.011862 0.000000 -0.000289 0.000000
# 3 -0.006677 -0.011862 0.028324 0.000000 0.012017 0.000000
# 4 0.000000 0.000000 0.000000 0.035245 0.000000 -0.010449
# 5 -0.007199 -0.000289 0.012017 0.000000 0.072546 0.000000
# 6 0.000000 0.000000 0.000000 -0.010449 0.000000 0.029829
#
#
# Mechanical properties :
#
#
# Convention : Reuss Voigt Hill
#
# Bulk Modulus (GPa) = 43.78889 60.33913 52.06401
# Shear Modulus (GPa) = 18.06065 24.92545 21.49305
#
# Velocity S-wave (km/s) = 3.38503 3.97665 3.69271
# Velocity P-wave (km/s) = 6.56197 7.70497 7.15633
#
# Compressibility (1/GPa) = 0.02283684
#
# Stress axis : x y z
#
# Youngs Moduli (GPa) = 78.49578 27.65412 35.30542
#
# Poissons Ratio (x) = 0.23934 0.23572
# Poissons Ratio (y) = 0.67937 0.41881
# Poissons Ratio (z) = 0.52409 0.32805
#
# Static dielectric constant tensor:
#      x y z
#    x 1.559000 0.000000 0.011560 
#    y 0.000000 1.526820 0.000000 
#    z 0.011560 0.000000 1.500420 
# 
# From -- ./inp_files/77707.got.cif
#   From: 2010.05.17/outbox.cif.g08.bks.cpg/sg10_39_cif.got.tgz:77707.got - 2010.06.03 11:33:40.
