data_PCOD9142259
_publ_section_title
;
Structure prediction by ZEFSAII (Michael W. Deem and Ramdas Pophale) SiO2 
 PCOD9142259
Probable space group: P 2/M
;
_chemical_formula_sum "Si O2"
_cell_formula_units_Z 32
_cell_length_a 22.054222
_cell_length_b 7.615136
_cell_length_c 31.487344
_cell_angle_alpha 90.000000
_cell_angle_beta 162.606893
_cell_angle_gamma 90.000000
_cell_volume 1580.771548
_symmetry_space_group_name_H-M "P 2/M"
_symmetry_group_IT_number 10
_symmetry_cell_setting 'monoclinic'
loop_
_space_group_symop_operation_xyz
x,y,z
-x,y,-z
-x,-y,-z
x,-y,z
loop_
_atom_site_type_symbol
_atom_site_label
_atom_site_fract_x
_atom_site_fract_y
_atom_site_fract_z
Si Si1 0.145438 0.210931 0.560164
Si Si2 0.612916 0.216639 0.872204
Si Si3 0.659920 0.198615 0.811717
Si Si4 0.197859 0.296315 0.503960
Si Si5 0.856955 0.210560 0.624145
Si Si6 0.388728 0.212773 0.312530
Si Si7 0.909787 0.800285 0.140740
Si Si8 0.284501 0.293196 0.336603
O O1 0.378808 0.271091 0.719366
O O2 0.081382 0.256967 0.469455
O O3 0.000000 0.278444 0.500000
O O4 0.149540 0.000000 0.566075
O O5 0.705190 0.276766 0.888398
O O6 0.619623 0.000000 0.875462
O O7 0.736225 0.279805 0.995353
O O8 0.411958 0.192921 0.646666
O O9 0.702611 0.276795 0.793617
O O10 0.742510 0.000000 0.866856
O O11 0.253881 0.500000 0.540709
O O12 0.084023 0.251197 0.384591
O O13 0.623942 0.273971 0.473683
O O14 0.008603 0.281558 0.761112
O O15 0.848621 0.000000 0.624102
O O16 0.280641 0.265081 0.283578
O O17 0.390901 0.000000 0.311535
O O18 0.105348 0.802985 0.240954
O O19 0.844209 0.000000 0.106570
O O20 0.500000 0.233282 0.500000
O O21 0.265049 0.500000 0.332699
#
# Coordination Sequence:
#
# PCOD9142259 Si02
#       8
#     4   4   4   4   4   4   4   4
#     4   9  17  32  55  79 103 128 153 189 236 281
#     4   8  15  30  52  76  97 119 156 197 235 283
#     4   8  15  30  49  69  94 123 157 199 242 286
#     4  10  18  27  45  73 101 126 157 196 233 276
#     4   9  17  29  46  68  93 123 161 201 240 279
#     4   9  16  28  47  67  88 119 161 205 245 285
#     4  10  19  32  51  70  92 126 163 201 240 284
#     4  11  22  32  43  64  95 126 160 205 249 288
#
# _framework density 20.243278
#
# number of rings (size 3 to 8) (size 9 to 14) (size 15 to 20)
#    0.000    2.750    1.250    3.000    0.000    3.250 
#    0.000    3.125    0.000    4.500    0.000    5.250 
#    0.000    0.000    0.000    0.000    0.000    0.000 
#
# Total GULP energy -178398.436560 kJ/mol
# GULP energy per Si atom -5574.951142 kJ/mol
# Density = 2.019720 g / cm^3
# Si number density = 20.243278 Si / 1000 Ang^3
#
#
#
# Elastic Constant Matrix: (Units=GPa)
#
#
# Indices 1 2 3 4 5 6 
#
# 1 135.0672 -14.2727 40.3235 0.0000 -29.7676 0.0000
# 2 -14.2727 47.7188 -1.4340 0.0000 0.3492 0.0000
# 3 40.3235 -1.4340 63.6921 0.0000 -29.8640 0.0000
# 4 0.0000 0.0000 0.0000 -2.5104 0.0000 -6.6711
# 5 -29.7676 0.3492 -29.8640 0.0000 31.3496 0.0000
# 6 0.0000 0.0000 0.0000 -6.6711 0.0000 34.9677
#
#
#
# Elastic Compliance Matrix: (Units=1/GPa)
#
#
# Indices 1 2 3 4 5 6 
#
# 1 0.010113 0.002878 -0.003344 0.000000 0.006386 0.000000
# 2 0.002878 0.021792 -0.000296 0.000000 0.002208 0.000000
# 3 -0.003344 -0.000296 0.029500 0.000000 0.024930 0.000000
# 4 0.000000 0.000000 0.000000 -0.264335 0.000000 -0.050430
# 5 0.006386 0.002208 0.024930 0.000000 0.061686 0.000000
# 6 0.000000 0.000000 0.000000 -0.050430 0.000000 0.018977
#
#
# Mechanical properties :
#
#
# Convention : Reuss Voigt Hill
#
# Bulk Modulus (GPa) = 16.69982 32.85686 24.77834
# Shear Modulus (GPa) = -49.61249 27.55215 -11.03017
#
# Velocity S-wave (km/s) = -4.95594 3.69325 -2.33680
# Velocity P-wave (km/s) = 4.94783 5.86967 2.23294
#
# Compressibility (1/GPa) = 0.05988088
#
# Stress axis : x y z
#
# Youngs Moduli (GPa) = 98.87816 45.88883 33.89794
#
# Poissons Ratio (x) = -0.13206 0.11335
# Poissons Ratio (y) = -0.28454 0.01004
# Poissons Ratio (z) = 0.33065 0.01359
#
# Static dielectric constant tensor:
#      x y z
#    x 1.741400 0.000000 -0.049810 
#    y 0.000000 1.764360 0.000000 
#    z -0.049810 0.000000 1.735950 
# 
# From -- ./inp_files/52709.got.cif
#   From: 2010.05.17/outbox.cif.g08.bks.cpg/sg10_27_cif.got.tgz:52709.got - 2010.06.03 11:33:40.
