data_PCOD9142400
_publ_section_title
;
Structure prediction by ZEFSAII (Michael W. Deem and Ramdas Pophale) SiO2 
 PCOD9142400
Probable space group: P 2/M
;
_chemical_formula_sum "Si O2"
_cell_formula_units_Z 28
_cell_length_a 12.427580
_cell_length_b 13.661749
_cell_length_c 7.826471
_cell_angle_alpha 90.000000
_cell_angle_beta 80.722965
_cell_angle_gamma 90.000000
_cell_volume 1311.417517
_symmetry_space_group_name_H-M "P 2/M"
_symmetry_group_IT_number 10
_symmetry_cell_setting 'monoclinic'
loop_
_space_group_symop_operation_xyz
x,y,z
-x,y,-z
-x,-y,-z
x,-y,z
loop_
_atom_site_type_symbol
_atom_site_label
_atom_site_fract_x
_atom_site_fract_y
_atom_site_fract_z
Si Si1 0.253078 0.611480 0.732534
Si Si2 0.188565 0.755252 0.034087
Si Si3 0.283867 0.699114 0.350708
Si Si4 0.523559 0.299545 0.296950
Si Si5 0.013815 0.112427 0.225742
Si Si6 0.397170 0.113014 0.896935
Si Si7 0.183177 0.889147 0.500418
O O1 0.219663 0.500000 0.762781
O O2 0.254844 0.637195 0.528439
O O3 0.376692 0.629588 0.770124
O O4 0.187229 0.685329 0.870403
O O5 0.206374 0.694050 0.205687
O O6 0.081660 0.819000 0.085380
O O7 0.289746 0.832862 0.997823
O O8 0.405515 0.681696 0.247324
O O9 0.272990 0.810043 0.427597
O O10 0.500000 0.314549 0.500000
O O11 0.563953 0.188890 0.257225
O O12 0.095175 0.111249 0.369711
O O13 0.892077 0.139621 0.318865
O O14 0.007209 0.000000 0.174028
O O15 0.374218 0.000000 0.856398
O O16 0.500000 0.112225 0.000000
O O17 0.224213 0.000000 0.510441
#
# Coordination Sequence:
#
# PCOD9142400 Si02
#       7
#     4   4   4   4   4   4   4
#     4  10  23  39  54  76 102 130 175 231 273 313
#     4  10  19  34  56  76 106 139 174 213 259 313
#     4  10  19  34  55  77 103 138 171 212 261 311
#     4   9  19  34  50  71 104 136 173 217 256 309
#     4   8  14  28  52  82 112 142 174 208 249 302
#     4  10  18  28  46  73 106 139 169 200 243 307
#     4   8  15  28  51  83 112 140 176 209 246 304
#
# _framework density 21.350943000000001
#
# number of rings (size 3 to 8) (size 9 to 14) (size 15 to 20)
#    0.000    2.714    1.429    1.286    0.000    4.571 
#    0.000    7.857    0.000    3.429    0.000    4.000 
#    0.000    0.000    0.000    0.000    0.000    0.000 
#
# Total GULP energy -156129.272073 kJ/mol
# GULP energy per Si atom -5576.045431 kJ/mol
# Density = 2.130235 g / cm^3
# Si number density = 21.350943 Si / 1000 Ang^3
#
#
#
# Elastic Constant Matrix: (Units=GPa)
#
#
# Indices 1 2 3 4 5 6 
#
# 1 45.0385 8.6775 23.3630 0.0000 6.0966 0.0000
# 2 8.6775 101.5908 36.4339 0.0000 -2.3229 0.0000
# 3 23.3630 36.4339 88.1861 0.0000 -10.6621 0.0000
# 4 0.0000 0.0000 0.0000 25.8811 0.0000 4.7603
# 5 6.0966 -2.3229 -10.6621 0.0000 26.0759 0.0000
# 6 0.0000 0.0000 0.0000 4.7603 0.0000 11.8419
#
#
#
# Elastic Compliance Matrix: (Units=1/GPa)
#
#
# Indices 1 2 3 4 5 6 
#
# 1 0.028087 0.000561 -0.008901 0.000000 -0.010156 0.000000
# 2 0.000561 0.011590 -0.005079 0.000000 -0.001175 0.000000
# 3 -0.008901 -0.005079 0.016825 0.000000 0.008508 0.000000
# 4 0.000000 0.000000 0.000000 0.041723 0.000000 -0.016772
# 5 -0.010156 -0.001175 0.008508 0.000000 0.044098 0.000000
# 6 0.000000 0.000000 0.000000 -0.016772 0.000000 0.091188
#
#
# Mechanical properties :
#
#
# Convention : Reuss Voigt Hill
#
# Bulk Modulus (GPa) = 33.71099 41.30714 37.50907
# Shear Modulus (GPa) = 18.50224 23.84917 21.17570
#
# Velocity S-wave (km/s) = 2.94696 3.34579 3.15269
# Velocity P-wave (km/s) = 5.23476 5.85786 5.55505
#
# Compressibility (1/GPa) = 0.02966391
#
# Stress axis : x y z
#
# Youngs Moduli (GPa) = 35.60365 86.27988 59.43617
#
# Poissons Ratio (x) = -0.04838 0.52902
# Poissons Ratio (y) = -0.01997 0.30188
# Poissons Ratio (z) = 0.31690 0.43823
#
# Static dielectric constant tensor:
#      x y z
#    x 1.844860 0.000000 0.049240 
#    y 0.000000 1.745060 0.000000 
#    z 0.049240 0.000000 1.857880 
# 
# From -- ./inp_files/28190.got.cif
#   From: 2010.05.17/outbox.cif.g08.bks.cpg/sg10_15_cif.got.tgz:28190.got - 2010.06.03 11:33:40.
