data_PCOD9142347
_publ_section_title
;
Structure prediction by ZEFSAII (Michael W. Deem and Ramdas Pophale) SiO2 
 PCOD9142347
Probable space group: P 2/M
;
_chemical_formula_sum "Si O2"
_cell_formula_units_Z 32
_cell_length_a 21.746630
_cell_length_b 13.792999
_cell_length_c 7.728037
_cell_angle_alpha 90.000000
_cell_angle_beta 43.320611
_cell_angle_gamma 90.000000
_cell_volume 1590.357246
_symmetry_space_group_name_H-M "P 2/M"
_symmetry_group_IT_number 10
_symmetry_cell_setting 'monoclinic'
loop_
_space_group_symop_operation_xyz
x,y,z
-x,y,-z
-x,-y,-z
x,-y,z
loop_
_atom_site_type_symbol
_atom_site_label
_atom_site_fract_x
_atom_site_fract_y
_atom_site_fract_z
Si Si1 0.179838 0.204905 0.831129
Si Si2 0.981781 0.205623 0.236879
Si Si3 0.197335 0.111048 0.421799
Si Si4 0.912883 0.612093 0.552708
Si Si5 0.257633 0.744589 0.017560
Si Si6 0.728824 0.609732 0.482342
Si Si7 0.599183 0.610181 0.408530
Si Si8 0.562420 0.382704 0.027636
O O1 0.197037 0.138432 0.627301
O O2 0.195451 0.313054 0.720682
O O3 0.080051 0.193371 0.113815
O O4 0.244288 0.197049 0.864374
O O5 0.903524 0.131508 0.443810
O O6 0.943855 0.313560 0.341300
O O7 0.000000 0.189877 0.000000
O O8 0.253768 0.184160 0.188046
O O9 0.222565 0.000000 0.348720
O O10 0.894041 0.500000 0.547078
O O11 0.823913 0.665166 0.808535
O O12 0.000000 0.612144 0.500000
O O13 0.348372 0.685058 0.816518
O O14 0.761984 0.500000 0.442522
O O15 0.661146 0.607324 0.456841
O O16 0.665313 0.642645 0.772035
O O17 0.602459 0.500000 0.333542
O O18 0.500125 0.635398 0.321389
O O19 0.563729 0.500000 0.009188
O O20 0.500000 0.343074 0.000000
#
# Coordination Sequence:
#
# PCOD9142347 Si02
#       8
#     4   4   4   4   4   4   4   4
#     4  10  19  33  52  74  97 125 161 202 238 291
#     4   9  19  34  49  67  96 125 163 208 238 288
#     4  10  23  39  53  70  93 122 159 212 267 298
#     4  10  18  28  45  67  99 135 159 188 229 277
#     4  10  19  33  52  73 100 126 165 203 238 290
#     4   8  14  24  43  73 106 137 163 192 232 278
#     4   8  13  23  44  73 105 138 164 192 231 278
#     4   7  10  19  37  67 104 135 165 193 222 271
#
# _framework density 20.121265000000001
#
# number of rings (size 3 to 8) (size 9 to 14) (size 15 to 20)
#    0.000    3.000    1.250    1.875    0.000    4.000 
#    0.000    6.250    0.000    0.750    0.000    4.375 
#    0.000    5.000    0.000    0.000    0.000    0.000 
#
# Total GULP energy -178347.660638 kJ/mol
# GULP energy per Si atom -5573.364395 kJ/mol
# Density = 2.007547 g / cm^3
# Si number density = 20.121265 Si / 1000 Ang^3
#
#
#
# Elastic Constant Matrix: (Units=GPa)
#
#
# Indices 1 2 3 4 5 6 
#
# 1 63.7212 25.8400 15.9063 0.0000 -3.7797 0.0000
# 2 25.8400 98.7139 41.1447 0.0000 2.0889 0.0000
# 3 15.9063 41.1447 103.5985 0.0000 4.3447 0.0000
# 4 0.0000 0.0000 0.0000 12.3473 0.0000 3.0373
# 5 -3.7797 2.0889 4.3447 0.0000 27.2678 0.0000
# 6 0.0000 0.0000 0.0000 3.0373 0.0000 14.3812
#
#
#
# Elastic Compliance Matrix: (Units=1/GPa)
#
#
# Indices 1 2 3 4 5 6 
#
# 1 0.017891 -0.004253 -0.001183 0.000000 0.002994 0.000000
# 2 -0.004253 0.013152 -0.004534 0.000000 -0.000875 0.000000
# 3 -0.001183 -0.004534 0.011705 0.000000 -0.001682 0.000000
# 4 0.000000 0.000000 0.000000 0.085427 0.000000 -0.018042
# 5 0.002994 -0.000875 -0.001682 0.000000 0.037423 0.000000
# 6 0.000000 0.000000 0.000000 -0.018042 0.000000 0.073346
#
#
# Mechanical properties :
#
#
# Convention : Reuss Voigt Hill
#
# Bulk Modulus (GPa) = 43.84464 47.97951 45.91207
# Shear Modulus (GPa) = 18.76259 23.00878 20.88569
#
# Velocity S-wave (km/s) = 3.05696 3.38524 3.22528
# Velocity P-wave (km/s) = 5.85641 6.25914 6.06112
#
# Compressibility (1/GPa) = 0.02280781
#
# Stress axis : x y z
#
# Youngs Moduli (GPa) = 55.89336 76.03499 85.43071
#
# Poissons Ratio (x) = 0.32341 0.10109
# Poissons Ratio (y) = 0.23774 0.38731
# Poissons Ratio (z) = 0.06614 0.34471
#
# Static dielectric constant tensor:
#      x y z
#    x 1.885450 0.000000 0.016550 
#    y 0.000000 1.670180 0.000000 
#    z 0.016550 0.000000 1.763480 
# 
# From -- ./inp_files/34809.got.cif
#   From: 2010.05.17/outbox.cif.g08.bks.cpg/sg10_18_cif.got.tgz:34809.got - 2010.06.03 11:33:40.
