data_PCOD9142226
_publ_section_title
;
Structure prediction by ZEFSAII (Michael W. Deem and Ramdas Pophale) SiO2 
 PCOD9142226
Probable space group: P 2/M
;
_chemical_formula_sum "Si O2"
_cell_formula_units_Z 28
_cell_length_a 14.222359
_cell_length_b 9.011194
_cell_length_c 18.098957
_cell_angle_alpha 90.000000
_cell_angle_beta 51.183327
_cell_angle_gamma 90.000000
_cell_volume 1807.306107
_symmetry_space_group_name_H-M "P 2/M"
_symmetry_group_IT_number 10
_symmetry_cell_setting 'monoclinic'
loop_
_space_group_symop_operation_xyz
x,y,z
-x,y,-z
-x,-y,-z
x,-y,z
loop_
_atom_site_type_symbol
_atom_site_label
_atom_site_fract_x
_atom_site_fract_y
_atom_site_fract_z
Si Si1 0.858058 0.671324 0.592650
Si Si2 0.202967 0.824992 0.525459
Si Si3 0.804813 0.823534 0.222861
Si Si4 0.357152 0.324488 0.577390
Si Si5 0.921103 0.175059 0.709559
Si Si6 0.143244 0.670089 0.948748
Si Si7 0.058731 0.321581 0.146386
O O1 0.820178 0.500000 0.616538
O O2 0.791904 0.755990 0.558851
O O3 0.852569 0.753513 0.673752
O O4 0.000000 0.672364 0.500000
O O5 0.289242 0.741027 0.539612
O O6 0.064696 0.807702 0.622001
O O7 0.229381 0.000000 0.511159
O O8 0.697546 0.758377 0.324813
O O9 0.795875 0.773786 0.141890
O O10 0.928714 0.751872 0.193344
O O11 0.811782 0.000000 0.226267
O O12 0.500000 0.302939 0.500000
O O13 0.331907 0.500000 0.595837
O O14 0.896100 0.258372 0.798369
O O15 0.896729 0.000000 0.727242
O O16 0.185165 0.500000 0.919260
O O17 0.144784 0.713416 0.034005
O O18 0.000000 0.670609 0.000000
O O19 0.044438 0.500000 0.155826
#
# Coordination Sequence:
#
# PCOD9142226 Si02
#       7
#     4   4   4   4   4   4   4
#     4   9  17  28  43  62  86 119 153 183 218 268
#     4  10  19  31  46  64  88 117 149 190 233 269
#     4  11  20  30  45  64  87 117 149 189 233 270
#     4  11  23  36  50  66  86 118 159 197 230 270
#     4  10  18  27  42  66  93 120 151 186 225 268
#     4   8  16  29  43  61  85 117 151 183 219 266
#     4  10  18  28  44  64  90 122 154 184 219 268
#
# _framework density 15.492671
#
# number of rings (size 3 to 8) (size 9 to 14) (size 15 to 20)
#    0.000    2.143    1.429    4.286    0.000    7.143 
#    0.000    0.000    0.000    0.000    0.000    0.000 
#    0.000    1.143    0.000   12.000    0.000    5.714 
#
# Total GULP energy -156147.072237 kJ/mol
# GULP energy per Si atom -5576.681151 kJ/mol
# Density = 1.545741 g / cm^3
# Si number density = 15.492671 Si / 1000 Ang^3
#
#
#
# Elastic Constant Matrix: (Units=GPa)
#
#
# Indices 1 2 3 4 5 6 
#
# 1 56.5640 55.1336 52.9430 0.0000 30.2394 0.0000
# 2 55.1336 123.4572 69.6640 0.0000 23.7365 0.0000
# 3 52.9430 69.6640 90.6400 0.0000 36.3187 0.0000
# 4 0.0000 0.0000 0.0000 6.9386 0.0000 6.5438
# 5 30.2394 23.7365 36.3187 0.0000 32.6310 0.0000
# 6 0.0000 0.0000 0.0000 6.5438 0.0000 18.8273
#
#
#
# Elastic Compliance Matrix: (Units=1/GPa)
#
#
# Indices 1 2 3 4 5 6 
#
# 1 0.058234 -0.013960 -0.010344 0.000000 -0.032299 0.000000
# 2 -0.013960 0.017850 -0.010010 0.000000 0.011094 0.000000
# 3 -0.010344 -0.010010 0.032507 0.000000 -0.019313 0.000000
# 4 0.000000 0.000000 0.000000 0.214399 0.000000 -0.074518
# 5 -0.032299 0.011094 -0.019313 0.000000 0.074003 0.000000
# 6 0.000000 0.000000 0.000000 -0.074518 0.000000 0.079015
#
#
# Mechanical properties :
#
#
# Convention : Reuss Voigt Hill
#
# Bulk Modulus (GPa) = 25.02288 69.57138 47.29713
# Shear Modulus (GPa) = 8.96128 17.87411 13.41769
#
# Velocity S-wave (km/s) = 2.40765 3.40032 2.94609
# Velocity P-wave (km/s) = 4.89035 7.77301 6.49366
#
# Compressibility (1/GPa) = 0.03996342
#
# Stress axis : x y z
#
# Youngs Moduli (GPa) = 17.17196 56.02341 30.76277
#
# Poissons Ratio (x) = 0.78207 0.31821
# Poissons Ratio (y) = 0.23971 0.30794
# Poissons Ratio (z) = 0.17763 0.56081
#
# Static dielectric constant tensor:
#      x y z
#    x 1.499220 0.000000 0.029280 
#    y 0.000000 1.514740 0.000000 
#    z 0.029280 0.000000 1.515980 
# 
# From -- ./inp_files/68615.got.cif
#   From: 2010.05.17/outbox.cif.g08.bks.cpg/sg10_35_cif.got.tgz:68615.got - 2010.06.03 11:33:40.
