data_PCOD9142761
_publ_section_title
;
Structure prediction by ZEFSAII (Michael W. Deem and Ramdas Pophale) SiO2 
 PCOD9142761
Probable space group: P 2/M
;
_chemical_formula_sum "Si O2"
_cell_formula_units_Z 28
_cell_length_a 21.480507
_cell_length_b 7.477731
_cell_length_c 14.392707
_cell_angle_alpha 90.000000
_cell_angle_beta 32.705091
_cell_angle_gamma 90.000000
_cell_volume 1249.119382
_symmetry_space_group_name_H-M "P 2/M"
_symmetry_group_IT_number 10
_symmetry_cell_setting 'monoclinic'
loop_
_space_group_symop_operation_xyz
x,y,z
-x,y,-z
-x,-y,-z
x,-y,z
loop_
_atom_site_type_symbol
_atom_site_label
_atom_site_fract_x
_atom_site_fract_y
_atom_site_fract_z
Si Si1 0.944783 0.714146 0.864181
Si Si2 0.125360 0.206028 0.856592
Si Si3 0.342623 0.789209 0.475152
Si Si4 0.129483 0.718922 0.369297
Si Si5 0.191662 0.284467 0.499417
Si Si6 0.447735 0.704506 0.662840
Si Si7 0.761289 0.716663 0.951382
O O1 0.945299 0.500000 0.872947
O O2 0.884234 0.755900 0.843780
O O3 0.076541 0.777167 0.699349
O O4 0.864934 0.789134 0.045246
O O5 0.233328 0.286638 0.669506
O O6 0.118208 0.000000 0.834730
O O7 0.000000 0.291814 0.000000
O O8 0.304731 0.768411 0.415484
O O9 0.454478 0.704067 0.380269
O O10 0.354441 0.000000 0.479458
O O11 0.126105 0.500000 0.375026
O O12 0.170474 0.775777 0.420344
O O13 0.223023 0.775307 0.174270
O O14 0.000000 0.773740 0.500000
O O15 0.189884 0.500000 0.500625
O O16 0.500000 0.781333 0.500000
O O17 0.414788 0.500000 0.679371
O O18 0.338059 0.785437 0.854947
O O19 0.747418 0.500000 0.966367
#
# Coordination Sequence:
#
# PCOD9142761 Si02
#       7
#     4   4   4   4   4   4   4
#     4  10  18  29  51  82 109 135 170 216 270 324
#     4  10  20  33  47  69 103 140 175 212 263 323
#     4  11  23  38  55  74 107 150 186 223 269 322
#     4   9  15  28  52  84 116 141 172 220 273 326
#     4  10  19  31  53  84 112 138 174 221 271 322
#     4  10  21  38  59  82 110 142 181 228 270 316
#     4   9  17  31  53  81 111 141 174 218 275 324
#
# _framework density 22.415792
#
# number of rings (size 3 to 8) (size 9 to 14) (size 15 to 20)
#    0.000    2.143    2.857    1.286    0.000    2.857 
#    0.000    1.429    0.000    6.429    0.000    0.000 
#    0.000    0.000    0.000    0.000    0.000    0.000 
#
# Total GULP energy -156181.122921 kJ/mol
# GULP energy per Si atom -5577.897247 kJ/mol
# Density = 2.236477 g / cm^3
# Si number density = 22.415792 Si / 1000 Ang^3
#
#
#
# Elastic Constant Matrix: (Units=GPa)
#
#
# Indices 1 2 3 4 5 6 
#
# 1 134.7703 0.0123 42.8033 0.0000 15.4257 0.0000
# 2 0.0123 68.3522 1.2750 0.0000 1.7137 0.0000
# 3 42.8033 1.2750 95.0110 0.0000 11.9038 0.0000
# 4 0.0000 0.0000 0.0000 -2.5909 0.0000 10.8659
# 5 15.4257 1.7137 11.9038 0.0000 41.8848 0.0000
# 6 0.0000 0.0000 0.0000 10.8659 0.0000 29.8435
#
#
#
# Elastic Compliance Matrix: (Units=1/GPa)
#
#
# Indices 1 2 3 4 5 6 
#
# 1 0.008852 0.000123 -0.003713 0.000000 -0.002210 0.000000
# 2 0.000123 0.014648 -0.000178 0.000000 -0.000594 0.000000
# 3 -0.003713 -0.000178 0.012472 0.000000 -0.002170 0.000000
# 4 0.000000 0.000000 0.000000 -0.152737 0.000000 0.055611
# 5 -0.002210 -0.000594 -0.002170 0.000000 0.025330 0.000000
# 6 0.000000 0.000000 0.000000 0.055611 0.000000 0.013260
#
#
# Mechanical properties :
#
#
# Convention : Reuss Voigt Hill
#
# Bulk Modulus (GPa) = 35.16430 42.92385 39.04408
# Shear Modulus (GPa) = -81.75229 30.76368 -25.49431
#
# Velocity S-wave (km/s) = -6.04566 3.70863 -3.37610
# Velocity P-wave (km/s) = 5.74561 6.12610 1.50283
#
# Compressibility (1/GPa) = 0.02843793
#
# Stress axis : x y z
#
# Youngs Moduli (GPa) = 112.96697 68.26738 80.17986
#
# Poissons Ratio (x) = -0.00840 0.29769
# Poissons Ratio (y) = -0.01390 0.01424
# Poissons Ratio (z) = 0.41942 0.01212
#
# Static dielectric constant tensor:
#      x y z
#    x 1.891630 0.000000 0.020790 
#    y 0.000000 1.847520 0.000000 
#    z 0.020790 0.000000 1.840940 
# 
# From -- ./inp_files/63505.got.cif
#   From: 2010.05.17/outbox.cif.g08.bks.cpg/sg10_32_cif.got.tgz:63505.got - 2010.06.03 11:33:40.
