data_PCOD9142912
_publ_section_title
;
Structure prediction by ZEFSAII (Michael W. Deem and Ramdas Pophale) SiO2 
 PCOD9142912
Probable space group: P 2/M
;
_chemical_formula_sum "Si O2"
_cell_formula_units_Z 32
_cell_length_a 29.055565
_cell_length_b 7.405462
_cell_length_c 22.266601
_cell_angle_alpha 90.000000
_cell_angle_beta 18.939284
_cell_angle_gamma 90.000000
_cell_volume 1555.028841
_symmetry_space_group_name_H-M "P 2/M"
_symmetry_group_IT_number 10
_symmetry_cell_setting 'monoclinic'
loop_
_space_group_symop_operation_xyz
x,y,z
-x,y,-z
-x,-y,-z
x,-y,z
loop_
_atom_site_type_symbol
_atom_site_label
_atom_site_fract_x
_atom_site_fract_y
_atom_site_fract_z
Si Si1 0.827179 0.720916 0.095643
Si Si2 0.817372 0.217173 0.475004
Si Si3 0.332328 0.721100 0.585338
Si Si4 0.347718 0.288137 0.802964
Si Si5 0.850916 0.711856 0.299769
Si Si6 0.340699 0.220260 0.210620
Si Si7 0.056666 0.779732 0.494653
Si Si8 0.902127 0.782827 0.805499
O O1 0.830152 0.500000 0.089692
O O2 0.747492 0.771586 0.255024
O O3 0.741206 0.785930 0.143556
O O4 0.989273 0.785936 0.895482
O O5 0.785220 0.271309 0.447048
O O6 0.711804 0.276049 0.658219
O O7 0.974846 0.280059 0.300305
O O8 0.818887 0.000000 0.474583
O O9 0.334497 0.500000 0.581001
O O10 0.494455 0.785239 0.385262
O O11 0.246103 0.785244 0.633613
O O12 0.365320 0.500000 0.768550
O O13 0.250242 0.271304 0.982023
O O14 0.866943 0.500000 0.266928
O O15 0.215850 0.274932 0.318301
O O16 0.341971 0.000000 0.208237
O O17 0.500000 0.280808 0.000000
O O18 0.000000 0.719203 0.500000
O O19 0.951852 0.723957 0.678126
O O20 0.057617 0.000000 0.492588
O O21 0.905834 0.000000 0.800696
#
# Coordination Sequence:
#
# PCOD9142912 Si02
#       8
#     4   4   4   4   4   4   4   4
#     4   9  16  28  49  71  88 115 158 194 223 269
#     4   9  17  30  48  69  95 124 151 186 229 269
#     4   9  18  30  45  69  98 119 144 196 243 261
#     4  10  18  30  49  71  92 119 155 190 227 272
#     4  10  18  30  49  71  92 119 155 190 227 272
#     4   8  14  26  44  65  88 115 149 185 220 260
#     4   8  14  26  44  65  88 115 149 185 220 260
#     4   9  17  30  48  69  95 124 151 186 229 269
#
# _framework density 20.578396000000001
#
# number of rings (size 3 to 8) (size 9 to 14) (size 15 to 20)
#    0.000    3.000    1.250    2.250    0.000    3.000 
#    2.250    0.625    0.000    5.250    0.000    0.000 
#    0.000    0.000    0.000    0.000    0.000    0.000 
#
# Total GULP energy -178568.200970 kJ/mol
# GULP energy per Si atom -5580.256280 kJ/mol
# Density = 2.053156 g / cm^3
# Si number density = 20.578396 Si / 1000 Ang^3
#
#
#
# Elastic Constant Matrix: (Units=GPa)
#
#
# Indices 1 2 3 4 5 6 
#
# 1 186.1821 2.9433 111.1278 0.0000 -7.7289 0.0000
# 2 2.9433 66.1864 1.7502 0.0000 -7.7467 0.0000
# 3 111.1278 1.7502 183.4492 0.0000 -9.7522 0.0000
# 4 0.0000 0.0000 0.0000 6.1553 0.0000 11.5821
# 5 -7.7289 -7.7467 -9.7522 0.0000 23.8731 0.0000
# 6 0.0000 0.0000 0.0000 11.5821 0.0000 4.3546
#
#
#
# Elastic Compliance Matrix: (Units=1/GPa)
#
#
# Indices 1 2 3 4 5 6 
#
# 1 0.008425 -0.000170 -0.005070 0.000000 0.000601 0.000000
# 2 -0.000170 0.015712 0.000226 0.000000 0.005136 0.000000
# 3 -0.005070 0.000226 0.008624 0.000000 0.001955 0.000000
# 4 0.000000 0.000000 0.000000 -0.040568 0.000000 0.107900
# 5 0.000601 0.005136 0.001955 0.000000 0.044548 0.000000
# 6 0.000000 0.000000 0.000000 0.107900 0.000000 -0.057343
#
#
# Mechanical properties :
#
#
# Convention : Reuss Voigt Hill
#
# Bulk Modulus (GPa) = 43.98965 74.16226 59.07596
# Shear Modulus (GPa) = -1668.31480 28.20968 -820.05256
#
# Velocity S-wave (km/s) = -28.50389 3.70650 -19.98416
# Velocity P-wave (km/s) = 32.58639 7.37799 22.44368
#
# Compressibility (1/GPa) = 0.02273262
#
# Stress axis : x y z
#
# Youngs Moduli (GPa) = 118.69633 63.64756 115.95441
#
# Poissons Ratio (x) = 0.01083 0.58788
# Poissons Ratio (y) = 0.02020 -0.02623
# Poissons Ratio (z) = 0.60178 -0.01440
#
# Static dielectric constant tensor:
#      x y z
#    x 1.706950 0.000000 -0.007130 
#    y 0.000000 1.800840 0.000000 
#    z -0.007130 0.000000 1.705850 
# 
# From -- ./inp_files/80314.got.cif
#   From: 2010.05.17/outbox.cif.g08.bks.cpg/sg10_41_cif.got.tgz:80314.got - 2010.06.03 11:33:40.
