data_PCOD9142435
_publ_section_title
;
Structure prediction by ZEFSAII (Michael W. Deem and Ramdas Pophale) SiO2 
 PCOD9142435
Probable space group: P 2/M
;
_chemical_formula_sum "Si O2"
_cell_formula_units_Z 32
_cell_length_a 28.276518
_cell_length_b 8.564701
_cell_length_c 20.237757
_cell_angle_alpha 90.000000
_cell_angle_beta 21.214070
_cell_angle_gamma 90.000000
_cell_volume 1773.508601
_symmetry_space_group_name_H-M "P 2/M"
_symmetry_group_IT_number 10
_symmetry_cell_setting 'monoclinic'
loop_
_space_group_symop_operation_xyz
x,y,z
-x,y,-z
-x,-y,-z
x,-y,z
loop_
_atom_site_type_symbol
_atom_site_label
_atom_site_fract_x
_atom_site_fract_y
_atom_site_fract_z
Si Si1 0.510706 0.312697 0.721621
Si Si2 0.801511 0.686046 0.567505
Si Si3 0.419415 0.686008 0.511284
Si Si4 0.747364 0.813569 0.777799
Si Si5 0.688660 0.813803 0.219253
Si Si6 0.543881 0.688088 0.827168
Si Si7 0.220295 0.187922 0.118006
Si Si8 0.069089 0.811703 0.185945
O O1 0.492323 0.500000 0.741958
O O2 0.589980 0.266128 0.553109
O O3 0.571713 0.278063 0.713650
O O4 0.367796 0.235604 0.907356
O O5 0.799070 0.500000 0.569978
O O6 0.813108 0.744483 0.627396
O O7 0.663609 0.741005 0.716517
O O8 0.925037 0.745300 0.365456
O O9 0.402466 0.500000 0.539110
O O10 0.566595 0.730132 0.342531
O O11 0.324465 0.769378 0.686873
O O12 0.802683 0.757734 0.776774
O O13 0.758781 0.000000 0.760727
O O14 0.594654 0.765172 0.975559
O O15 0.671569 0.000000 0.233476
O O16 0.823971 0.767830 0.008370
O O17 0.528470 0.500000 0.854549
O O18 0.125354 0.243371 0.183756
O O19 0.213166 0.000000 0.128086
O O20 0.062065 0.000000 0.196304
#
# Coordination Sequence:
#
# PCOD9142435 Si02
#       8
#     4   4   4   4   4   4   4   4
#     4   9  17  30  51  76 102 130 161 204 250 292
#     4  11  23  36  52  72  98 134 171 208 250 297
#     4  10  18  28  48  78 106 129 159 201 244 291
#     4  10  20  34  55  78 100 126 163 211 255 297
#     4  10  19  31  49  72 102 137 164 196 241 294
#     4   9  19  36  54  74 100 130 167 209 252 293
#     4   9  18  33  51  73 100 132 165 201 249 297
#     4  10  21  36  52  70 100 136 170 205 242 294
#
# _framework density 18.043329
#
# number of rings (size 3 to 8) (size 9 to 14) (size 15 to 20)
#    0.000    2.250    1.250    2.625    0.000    5.500 
#    0.000    2.500    0.000    0.750    0.000    5.250 
#    0.000    0.000    0.000    0.000    0.000    0.000 
#
# Total GULP energy -178523.389454 kJ/mol
# GULP energy per Si atom -5578.855920 kJ/mol
# Density = 1.800226 g / cm^3
# Si number density = 18.043329 Si / 1000 Ang^3
#
#
#
# Elastic Constant Matrix: (Units=GPa)
#
#
# Indices 1 2 3 4 5 6 
#
# 1 33.7355 2.1847 11.4332 0.0000 20.7296 0.0000
# 2 2.1847 12.9134 9.0117 0.0000 3.4951 0.0000
# 3 11.4332 9.0117 70.9015 0.0000 22.8017 0.0000
# 4 0.0000 0.0000 0.0000 32.0464 0.0000 7.7138
# 5 20.7296 3.4951 22.8017 0.0000 23.6897 0.0000
# 6 0.0000 0.0000 0.0000 7.7138 0.0000 22.7698
#
#
#
# Elastic Compliance Matrix: (Units=1/GPa)
#
#
# Indices 1 2 3 4 5 6 
#
# 1 0.070859 -0.000659 0.012407 0.000000 -0.073850 0.000000
# 2 -0.000659 0.085140 -0.009937 0.000000 -0.002420 0.000000
# 3 0.012407 -0.009937 0.023733 0.000000 -0.032234 0.000000
# 4 0.000000 0.000000 0.000000 0.033975 0.000000 -0.011510
# 5 -0.073850 -0.002420 -0.032234 0.000000 0.138217 0.000000
# 6 0.000000 0.000000 0.000000 -0.011510 0.000000 0.047817
#
#
# Mechanical properties :
#
#
# Convention : Reuss Voigt Hill
#
# Bulk Modulus (GPa) = 5.45391 18.08996 11.77194
# Shear Modulus (GPa) = 10.93526 22.02925 16.48225
#
# Velocity S-wave (km/s) = 2.46449 3.49794 3.02566
# Velocity P-wave (km/s) = 3.33579 5.13437 4.32951
#
# Compressibility (1/GPa) = 0.18335460
#
# Stress axis : x y z
#
# Youngs Moduli (GPa) = 14.11251 11.74537 42.13596
#
# Poissons Ratio (x) = 0.00774 -0.52280
# Poissons Ratio (y) = 0.00930 0.41870
# Poissons Ratio (z) = -0.17510 0.11671
#
# Static dielectric constant tensor:
#      x y z
#    x 1.646280 0.000000 0.027290 
#    y 0.000000 1.613670 0.000000 
#    z 0.027290 0.000000 1.600580 
# 
# From -- ./inp_files/87182.got.cif
#   From: 2010.05.17/outbox.cif.g08.bks.cpg/sg10_44_cif.got.tgz:87182.got - 2010.06.03 11:33:40.
