data_PCOD9142490
_publ_section_title
;
Structure prediction by ZEFSAII (Michael W. Deem and Ramdas Pophale) SiO2 
 PCOD9142490
Probable space group: P 2/M
;
_chemical_formula_sum "Si O2"
_cell_formula_units_Z 26
_cell_length_a 14.391735
_cell_length_b 9.801469
_cell_length_c 11.730194
_cell_angle_alpha 90.000000
_cell_angle_beta 87.136421
_cell_angle_gamma 90.000000
_cell_volume 1652.596709
_symmetry_space_group_name_H-M "P 2/M"
_symmetry_group_IT_number 10
_symmetry_cell_setting 'monoclinic'
loop_
_space_group_symop_operation_xyz
x,y,z
-x,y,-z
-x,-y,-z
x,-y,z
loop_
_atom_site_type_symbol
_atom_site_label
_atom_site_fract_x
_atom_site_fract_y
_atom_site_fract_z
Si Si1 0.514181 0.340721 0.128656
Si Si2 0.992048 0.342271 0.639133
Si Si3 0.500000 0.252833 0.500000
Si Si4 0.371075 0.156789 0.710390
Si Si5 0.836546 0.843530 0.357020
Si Si6 0.356473 0.651962 0.322980
Si Si7 0.817566 0.842187 0.632877
O O1 0.542274 0.500000 0.125066
O O2 0.587644 0.253606 0.195476
O O3 0.418533 0.333069 0.206098
O O4 0.500000 0.294625 0.000000
O O5 0.985168 0.500000 0.676272
O O6 0.083596 0.264151 0.677817
O O7 0.000000 0.343742 0.500000
O O8 0.902204 0.250521 0.672809
O O9 0.435359 0.171852 0.593352
O O10 0.571577 0.334952 0.575706
O O11 0.264771 0.190709 0.686023
O O12 0.374935 0.000000 0.746974
O O13 0.826989 0.843221 0.494863
O O14 0.861031 0.000000 0.322878
O O15 0.314152 0.500000 0.329087
O O16 0.279180 0.768063 0.334074
O O17 0.821266 0.000000 0.670622
#
# Coordination Sequence:
#
# PCOD9142490 Si02
#       7
#     4   4   2   4   4   4   4
#     4   9  20  37  51  66  92 126 163 201 241 279
#     4   9  17  28  42  63  90 125 161 194 223 267
#     4  10  18  30  44  68  98 128 152 190 236 282
#     4  10  19  30  48  71  96 125 159 194 233 280
#     4   9  17  29  42  64  95 128 156 186 230 280
#     4  10  19  30  47  69  93 124 160 197 233 278
#     4  10  18  29  44  65  95 129 156 188 233 282
#
# _framework density 15.732816
#
# number of rings (size 3 to 8) (size 9 to 14) (size 15 to 20)
#    0.000    2.462    1.538    1.385    0.000    6.462 
#    0.000    0.000    0.000    0.000    0.000    1.077 
#    0.000    8.615    0.000    0.000    0.000    0.000 
#
# Total GULP energy -144850.746405 kJ/mol
# GULP energy per Si atom -5571.182554 kJ/mol
# Density = 1.569701 g / cm^3
# Si number density = 15.732816 Si / 1000 Ang^3
#
#
#
# Elastic Constant Matrix: (Units=GPa)
#
#
# Indices 1 2 3 4 5 6 
#
# 1 112.1289 83.5704 27.6773 0.0000 14.1836 0.0000
# 2 83.5704 129.6728 32.2833 0.0000 10.2780 0.0000
# 3 27.6773 32.2833 63.8453 0.0000 8.3733 0.0000
# 4 0.0000 0.0000 0.0000 8.6513 0.0000 0.5201
# 5 14.1836 10.2780 8.3733 0.0000 10.0477 0.0000
# 6 0.0000 0.0000 0.0000 0.5201 0.0000 27.7046
#
#
#
# Elastic Compliance Matrix: (Units=1/GPa)
#
#
# Indices 1 2 3 4 5 6 
#
# 1 0.019233 -0.010992 -0.000779 0.000000 -0.015257 0.000000
# 2 -0.010992 0.015434 -0.003372 0.000000 0.002539 0.000000
# 3 -0.000779 -0.003372 0.019208 0.000000 -0.011459 0.000000
# 4 0.000000 0.000000 0.000000 0.115720 0.000000 -0.002172
# 5 -0.015257 0.002539 -0.011459 0.000000 0.128015 0.000000
# 6 0.000000 0.000000 0.000000 -0.002172 0.000000 0.036136
#
#
# Mechanical properties :
#
#
# Convention : Reuss Voigt Hill
#
# Bulk Modulus (GPa) = 42.39094 65.85654 54.12374
# Shear Modulus (GPa) = 13.44470 20.08846 16.76658
#
# Velocity S-wave (km/s) = 2.92646 3.57718 3.26806
# Velocity P-wave (km/s) = 6.19852 7.68192 6.97974
#
# Compressibility (1/GPa) = 0.02358995
#
# Stress axis : x y z
#
# Youngs Moduli (GPa) = 51.99501 64.79252 52.06088
#
# Poissons Ratio (x) = 0.71218 0.04053
# Poissons Ratio (y) = 0.57152 0.17555
# Poissons Ratio (z) = 0.04048 0.21849
#
# Static dielectric constant tensor:
#      x y z
#    x 1.522520 0.000000 -0.002390 
#    y 0.000000 1.539360 0.000000 
#    z -0.002390 0.000000 1.488510 
# 
# From -- ./inp_files/48721.got.cif
#   From: 2010.05.17/outbox.cif.g08.bks.cpg/sg10_25_cif.got.tgz:48721.got - 2010.06.03 11:33:40.
