data_PCOD9142344
_publ_section_title
;
Structure prediction by ZEFSAII (Michael W. Deem and Ramdas Pophale) SiO2 
 PCOD9142344
Probable space group: P 2/M
;
_chemical_formula_sum "Si O2"
_cell_formula_units_Z 32
_cell_length_a 31.088570
_cell_length_b 9.155167
_cell_length_c 22.012250
_cell_angle_alpha 90.000000
_cell_angle_beta 162.216293
_cell_angle_gamma 90.000000
_cell_volume 1913.530462
_symmetry_space_group_name_H-M "P 2/M"
_symmetry_group_IT_number 10
_symmetry_cell_setting 'monoclinic'
loop_
_space_group_symop_operation_xyz
x,y,z
-x,y,-z
-x,-y,-z
x,-y,z
loop_
_atom_site_type_symbol
_atom_site_label
_atom_site_fract_x
_atom_site_fract_y
_atom_site_fract_z
Si Si1 0.941465 0.325936 0.354829
Si Si2 0.652573 0.175371 0.443534
Si Si3 0.347137 0.823576 0.072567
Si Si4 0.156441 0.325358 0.057731
Si Si5 0.267360 0.167892 0.095073
Si Si6 0.134506 0.823678 0.373811
Si Si7 0.162912 0.674993 0.205322
Si Si8 0.950282 0.167964 0.612146
O O1 0.928035 0.500000 0.331720
O O2 0.000000 0.289071 0.500000
O O3 0.043172 0.266469 0.438405
O O4 0.790359 0.251684 0.139847
O O5 0.489311 0.216829 0.229002
O O6 0.732037 0.213921 0.488010
O O7 0.737944 0.246375 0.613446
O O8 0.659296 0.000000 0.458770
O O9 0.359006 0.783908 0.160343
O O10 0.327910 0.000000 0.045185
O O11 0.145192 0.500000 0.037765
O O12 0.003578 0.254348 0.838932
O O13 0.261026 0.264269 0.146825
O O14 0.196804 0.287671 0.181025
O O15 0.300632 0.000000 0.155300
O O16 0.108168 0.170369 0.853378
O O17 0.145664 0.785169 0.460072
O O18 0.112211 0.000000 0.341489
O O19 0.175275 0.500000 0.229042
O O20 0.000000 0.713676 0.000000
O O21 0.919519 0.000000 0.554305
#
# Coordination Sequence:
#
# PCOD9142344 Si02
#       8
#     4   4   4   4   4   4   4   4
#     4  10  20  33  52  79 104 125 155 194 232 277
#     4  10  20  33  51  72  95 127 166 203 241 288
#     4   9  19  35  52  73  99 127 160 196 238 290
#     4  10  18  28  45  67  92 123 163 206 245 286
#     4   8  15  29  47  66  92 122 156 201 244 282
#     4   9  17  29  46  70  97 123 157 202 242 278
#     4  10  20  33  45  65  98 130 164 207 248 287
#     4   8  15  28  47  72  99 125 155 193 237 281
#
# _framework density 16.723013999999999
#
# number of rings (size 3 to 8) (size 9 to 14) (size 15 to 20)
#    0.000    2.750    1.250    2.250    0.000    7.250 
#    0.000    0.625    0.000    4.500    0.000    5.250 
#    0.000    0.000    0.000    0.000    0.000    0.000 
#
# Total GULP energy -178293.420600 kJ/mol
# GULP energy per Si atom -5571.669394 kJ/mol
# Density = 1.668495 g / cm^3
# Si number density = 16.723014 Si / 1000 Ang^3
#
#
#
# Elastic Constant Matrix: (Units=GPa)
#
#
# Indices 1 2 3 4 5 6 
#
# 1 167.9793 52.7854 58.5134 0.0000 0.9714 0.0000
# 2 52.7854 31.2066 26.3194 0.0000 -4.2212 0.0000
# 3 58.5134 26.3194 51.9070 0.0000 2.6687 0.0000
# 4 0.0000 0.0000 0.0000 16.1473 0.0000 -5.3664
# 5 0.9714 -4.2212 2.6687 0.0000 22.7343 0.0000
# 6 0.0000 0.0000 0.0000 -5.3664 0.0000 27.1573
#
#
#
# Elastic Compliance Matrix: (Units=1/GPa)
#
#
# Indices 1 2 3 4 5 6 
#
# 1 0.014121 -0.019370 -0.005917 0.000000 -0.003505 0.000000
# 2 -0.019370 0.087225 -0.023409 0.000000 0.019771 0.000000
# 3 -0.005917 -0.023409 0.038246 0.000000 -0.008583 0.000000
# 4 0.000000 0.000000 0.000000 0.066283 0.000000 0.013098
# 5 -0.003505 0.019771 -0.008583 0.000000 0.048815 0.000000
# 6 0.000000 0.000000 0.000000 0.013098 0.000000 0.039411
#
#
# Mechanical properties :
#
#
# Convention : Reuss Voigt Hill
#
# Bulk Modulus (GPa) = 23.69597 58.48103 41.08850
# Shear Modulus (GPa) = 12.32867 20.77276 16.55072
#
# Velocity S-wave (km/s) = 2.71814 3.52826 3.14936
# Velocity P-wave (km/s) = 4.90423 7.18641 6.15207
#
# Compressibility (1/GPa) = 0.04220127
#
# Stress axis : x y z
#
# Youngs Moduli (GPa) = 70.81622 11.46457 26.14654
#
# Poissons Ratio (x) = 0.22206 0.15470
# Poissons Ratio (y) = 1.37168 0.61207
# Poissons Ratio (z) = 0.41901 0.26838
#
# Static dielectric constant tensor:
#      x y z
#    x 1.608200 0.000000 0.025300 
#    y 0.000000 1.556330 0.000000 
#    z 0.025300 0.000000 1.531440 
# 
# From -- ./inp_files/54777.got.cif
#   From: 2010.05.17/outbox.cif.g08.bks.cpg/sg10_28_cif.got.tgz:54777.got - 2010.06.03 11:33:40.
