data_PCOD9142997
_publ_section_title
;
Structure prediction by ZEFSAII (Michael W. Deem and Ramdas Pophale) SiO2 
 PCOD9142997
Probable space group: P 2/M
;
_chemical_formula_sum "Si O2"
_cell_formula_units_Z 28
_cell_length_a 16.145636
_cell_length_b 7.368279
_cell_length_c 18.830097
_cell_angle_alpha 90.000000
_cell_angle_beta 144.717221
_cell_angle_gamma 90.000000
_cell_volume 1293.928287
_symmetry_space_group_name_H-M "P 2/M"
_symmetry_group_IT_number 10
_symmetry_cell_setting 'monoclinic'
loop_
_space_group_symop_operation_xyz
x,y,z
-x,y,-z
-x,-y,-z
x,-y,z
loop_
_atom_site_type_symbol
_atom_site_label
_atom_site_fract_x
_atom_site_fract_y
_atom_site_fract_z
Si Si1 0.660149 0.778176 0.130855
Si Si2 0.772263 0.719654 0.818510
Si Si3 0.832859 0.220817 0.391739
Si Si4 0.463897 0.792317 0.551672
Si Si5 0.218664 0.222488 0.485225
Si Si6 0.083627 0.789466 0.785215
Si Si7 0.037510 0.718537 0.915119
O O1 0.731177 0.722537 0.255519
O O2 0.772674 0.716804 0.149536
O O3 0.654233 0.000000 0.127796
O O4 0.500000 0.716787 0.000000
O O5 0.765548 0.500000 0.813384
O O6 0.613614 0.790784 0.698076
O O7 0.878946 0.776439 0.829417
O O8 0.850888 0.775956 0.946023
O O9 0.771828 0.276372 0.425759
O O10 0.000000 0.277792 0.500000
O O11 0.836079 0.000000 0.392886
O O12 0.500000 0.708042 0.500000
O O13 0.341357 0.714071 0.516769
O O14 0.418429 0.000000 0.504984
O O15 0.064402 0.285896 0.348926
O O16 0.223499 0.000000 0.487996
O O17 0.079558 0.778646 0.866792
O O18 0.080500 0.000000 0.761587
O O19 0.036497 0.500000 0.914887
#
# Coordination Sequence:
#
# PCOD9142997 Si02
#       7
#     4   4   4   4   4   4   4
#     4   9  17  27  42  70 103 127 159 211 255 289
#     4   9  19  36  53  69  94 131 171 205 242 294
#     4   9  14  25  43  62  92 133 167 198 243 296
#     4  10  20  32  47  73 108 134 158 204 257 296
#     4   9  17  28  45  70 100 136 170 199 243 304
#     4  10  18  30  50  75 100 127 163 203 249 303
#     4   9  19  35  53  71  95 129 166 205 248 297
#
# _framework density 21.639531000000002
#
# number of rings (size 3 to 8) (size 9 to 14) (size 15 to 20)
#    0.000    2.714    1.429    1.714    0.000    3.714 
#    0.000    5.000    0.000    0.429    0.000    3.000 
#    0.000    0.000    0.000    0.000    0.000    0.000 
#
# Total GULP energy -156331.881031 kJ/mol
# GULP energy per Si atom -5583.281465 kJ/mol
# Density = 2.159028 g / cm^3
# Si number density = 21.639531 Si / 1000 Ang^3
#
#
#
# Elastic Constant Matrix: (Units=GPa)
#
#
# Indices 1 2 3 4 5 6 
#
# 1 229.5192 3.4425 119.1411 0.0000 5.3678 0.0000
# 2 3.4425 75.0171 0.6119 0.0000 3.5825 0.0000
# 3 119.1411 0.6119 157.2900 0.0000 18.3245 0.0000
# 4 0.0000 0.0000 0.0000 18.5587 0.0000 1.4099
# 5 5.3678 3.5825 18.3245 0.0000 37.2834 0.0000
# 6 0.0000 0.0000 0.0000 1.4099 0.0000 14.9247
#
#
#
# Elastic Compliance Matrix: (Units=1/GPa)
#
#
# Indices 1 2 3 4 5 6 
#
# 1 0.007298 -0.000374 -0.005737 0.000000 0.001805 0.000000
# 2 -0.000374 0.013413 0.000398 0.000000 -0.001431 0.000000
# 3 -0.005737 0.000398 0.011254 0.000000 -0.004744 0.000000
# 4 0.000000 0.000000 0.000000 0.054273 0.000000 -0.005127
# 5 0.001805 -0.001431 -0.004744 0.000000 0.029031 0.000000
# 6 0.000000 0.000000 0.000000 -0.005127 0.000000 0.067487
#
#
# Mechanical properties :
#
#
# Convention : Reuss Voigt Hill
#
# Bulk Modulus (GPa) = 48.68891 78.69083 63.68987
# Shear Modulus (GPa) = 24.87203 36.72874 30.80039
#
# Velocity S-wave (km/s) = 3.39393 4.12430 3.77681
# Velocity P-wave (km/s) = 6.15688 7.68916 6.96528
#
# Compressibility (1/GPa) = 0.02053856
#
# Stress axis : x y z
#
# Youngs Moduli (GPa) = 137.01652 74.55713 88.85421
#
# Poissons Ratio (x) = 0.02791 0.50976
# Poissons Ratio (y) = 0.05129 -0.03536
# Poissons Ratio (z) = 0.78607 -0.02967
#
# Static dielectric constant tensor:
#      x y z
#    x 1.765360 0.000000 -0.003790 
#    y 0.000000 1.840580 0.000000 
#    z -0.003790 0.000000 1.742270 
# 
# From -- ./inp_files/77807.got.cif
#   From: 2010.05.17/outbox.cif.g08.bks.cpg/sg10_39_cif.got.tgz:77807.got - 2010.06.03 11:33:40.
