data_PCOD9142082
_publ_section_title
;
Structure prediction by ZEFSAII (Michael W. Deem and Ramdas Pophale) SiO2 
 PCOD9142082
Probable space group: P 2/M
;
_chemical_formula_sum "Si O2"
_cell_formula_units_Z 22
_cell_length_a 13.891837
_cell_length_b 16.508257
_cell_length_c 5.129015
_cell_angle_alpha 90.000000
_cell_angle_beta 83.241075
_cell_angle_gamma 90.000000
_cell_volume 1168.062401
_symmetry_space_group_name_H-M "P 2/M"
_symmetry_group_IT_number 10
_symmetry_cell_setting 'monoclinic'
loop_
_space_group_symop_operation_xyz
x,y,z
-x,y,-z
-x,-y,-z
x,-y,z
loop_
_atom_site_type_symbol
_atom_site_label
_atom_site_fract_x
_atom_site_fract_y
_atom_site_fract_z
Si Si1 0.346939 0.409666 0.053672
Si Si2 0.262734 0.194971 0.629546
Si Si3 0.065174 0.500000 0.731218
Si Si4 0.771130 0.378357 0.418433
Si Si5 0.608684 0.775676 0.901610
Si Si6 0.935569 0.902566 0.268708
O O1 0.391677 0.500000 0.069130
O O2 0.312560 0.400036 0.765867
O O3 0.257683 0.408336 0.285581
O O4 0.396175 0.323700 0.116477
O O5 0.217231 0.282777 0.585667
O O6 0.342388 0.186796 0.372846
O O7 0.172519 0.134038 0.677244
O O8 0.320637 0.202300 0.882041
O O9 0.134317 0.422827 0.706283
O O10 0.000000 0.500000 0.500000
O O11 0.000000 0.500000 0.000000
O O12 0.500000 0.803615 0.000000
O O13 0.000000 0.881950 0.500000
O O14 0.926204 0.000000 0.258023
O O15 0.000000 0.875758 0.000000
#
# Coordination Sequence:
#
# PCOD9142082 Si02
#       6
#     4   4   2   4   4   4
#     4  10  17  32  53  67  98 138 180 232 274 313
#     4  10  21  37  59  80 113 152 179 229 286 331
#     4  12  22  30  44  66  95 132 175 222 268 314
#     4  10  20  33  47  69  98 140 180 217 268 329
#     4  10  21  35  55  84 112 149 193 230 277 332
#     4  10  21  38  63  92 117 141 180 232 281 335
#
# _framework density 18.834607999999999
#
# number of rings (size 3 to 8) (size 9 to 14) (size 15 to 20)
#    0.000    1.818    1.818    2.727    0.000    1.818 
#    0.000    0.000    0.000    9.818    0.000    0.000 
#    0.000    0.000    0.000    0.000    0.000    0.000 
#
# Total GULP energy -122645.322433 kJ/mol
# GULP energy per Si atom -5574.787383 kJ/mol
# Density = 1.879174 g / cm^3
# Si number density = 18.834608 Si / 1000 Ang^3
#
#
#
# Elastic Constant Matrix: (Units=GPa)
#
#
# Indices 1 2 3 4 5 6 
#
# 1 68.0161 29.1508 28.3649 0.0000 -33.1539 0.0000
# 2 29.1508 43.5017 24.7262 0.0000 -8.6286 0.0000
# 3 28.3649 24.7262 125.8077 0.0000 -18.0780 0.0000
# 4 0.0000 0.0000 0.0000 14.3158 0.0000 -7.0088
# 5 -33.1539 -8.6286 -18.0780 0.0000 32.3650 0.0000
# 6 0.0000 0.0000 0.0000 -7.0088 0.0000 21.2109
#
#
#
# Elastic Compliance Matrix: (Units=1/GPa)
#
#
# Indices 1 2 3 4 5 6 
#
# 1 0.041596 -0.020500 -0.000013 0.000000 0.037138 0.000000
# 2 -0.020500 0.036575 -0.004548 0.000000 -0.013789 0.000000
# 3 -0.000013 -0.004548 0.009426 0.000000 0.004039 0.000000
# 4 0.000000 0.000000 0.000000 0.083334 0.000000 0.027536
# 5 0.037138 -0.013789 0.004039 0.000000 0.067520 0.000000
# 6 0.000000 0.000000 0.000000 0.027536 0.000000 0.056245
#
#
# Mechanical properties :
#
#
# Convention : Reuss Voigt Hill
#
# Bulk Modulus (GPa) = 26.68443 44.64547 35.66495
# Shear Modulus (GPa) = 13.99345 23.91725 18.95535
#
# Velocity S-wave (km/s) = 2.72870 3.56737 3.17584
# Velocity P-wave (km/s) = 4.91185 6.38150 5.69429
#
# Compressibility (1/GPa) = 0.03747503
#
# Stress axis : x y z
#
# Youngs Moduli (GPa) = 24.04054 27.34117 106.09198
#
# Poissons Ratio (x) = 0.56051 0.00135
# Poissons Ratio (y) = 0.49284 0.48249
# Poissons Ratio (z) = 0.00031 0.12434
#
# Static dielectric constant tensor:
#      x y z
#    x 1.632180 0.000000 -0.003510 
#    y 0.000000 1.655780 0.000000 
#    z -0.003510 0.000000 1.663430 
# 
# From -- ./inp_files/7148.got.cif
#   From: 2010.05.17/outbox.cif.g08.bks.cpg/sg10_4_cif.got.tgz:7148.got - 2010.06.03 11:33:40.
