data_PCOD9142012
_publ_section_title
;
Structure prediction by ZEFSAII (Michael W. Deem and Ramdas Pophale) SiO2 
 PCOD9142012
Probable space group: P 2/M
;
_chemical_formula_sum "Si O2"
_cell_formula_units_Z 26
_cell_length_a 21.209791
_cell_length_b 7.607870
_cell_length_c 11.779518
_cell_angle_alpha 90.000000
_cell_angle_beta 141.429919
_cell_angle_gamma 90.000000
_cell_volume 1185.068727
_symmetry_space_group_name_H-M "P 2/M"
_symmetry_group_IT_number 10
_symmetry_cell_setting 'monoclinic'
loop_
_space_group_symop_operation_xyz
x,y,z
-x,y,-z
-x,-y,-z
x,-y,z
loop_
_atom_site_type_symbol
_atom_site_label
_atom_site_fract_x
_atom_site_fract_y
_atom_site_fract_z
Si Si1 0.255335 0.708750 0.559473
Si Si2 0.500000 0.746670 0.500000
Si Si3 0.414155 0.798436 0.961321
Si Si4 0.038592 0.706082 0.174804
Si Si5 0.332668 0.198303 0.077776
Si Si6 0.166846 0.788202 0.009899
Si Si7 0.334036 0.211548 0.427174
O O1 0.250415 0.500000 0.574860
O O2 0.311963 0.795628 0.744069
O O3 0.320981 0.742352 0.539050
O O4 0.143348 0.778262 0.371473
O O5 0.586687 0.818923 0.706714
O O6 0.576890 0.685531 0.510365
O O7 0.448890 0.000000 0.033113
O O8 0.500000 0.717840 0.000000
O O9 0.386217 0.717875 0.044059
O O10 0.059283 0.500000 0.182684
O O11 0.946069 0.722700 0.131758
O O12 0.000000 0.783086 0.000000
O O13 0.233340 0.278829 0.997195
O O14 0.304244 0.000000 0.001595
O O15 0.231078 0.746618 0.214122
O O16 0.164468 0.000000 0.998794
O O17 0.354422 0.000000 0.444859
#
# Coordination Sequence:
#
# PCOD9142012 Si02
#       7
#     4   2   4   4   4   4   4
#     4  11  23  37  55  79 110 147 187 229 274 321
#     4  10  17  30  55  84 111 138 173 220 273 332
#     4  10  21  38  60  83 110 148 187 222 267 327
#     4  10  20  36  55  77 109 148 186 228 277 327
#     4   9  17  31  52  81 113 140 174 223 277 324
#     4   9  18  31  52  82 111 138 174 227 280 325
#     4  10  18  30  52  82 111 140 177 222 273 328
#
# _framework density 21.939654999999998
#
# number of rings (size 3 to 8) (size 9 to 14) (size 15 to 20)
#    0.000    2.154    1.538    3.692    0.000    3.077 
#    0.000    1.923    0.000    8.308    0.000    0.000 
#    0.000    0.000    0.000    0.000    0.000    0.000 
#
# Total GULP energy -144870.512551 kJ/mol
# GULP energy per Si atom -5571.942790 kJ/mol
# Density = 2.188972 g / cm^3
# Si number density = 21.939655 Si / 1000 Ang^3
#
#
#
# Elastic Constant Matrix: (Units=GPa)
#
#
# Indices 1 2 3 4 5 6 
#
# 1 160.8206 -5.3288 53.6484 0.0000 -5.3874 0.0000
# 2 -5.3288 56.7442 -0.2342 0.0000 1.3263 0.0000
# 3 53.6484 -0.2342 99.4590 0.0000 4.7100 0.0000
# 4 0.0000 0.0000 0.0000 -3.9831 0.0000 -4.6044
# 5 -5.3874 1.3263 4.7100 0.0000 42.0092 0.0000
# 6 0.0000 0.0000 0.0000 -4.6044 0.0000 47.0312
#
#
#
# Elastic Compliance Matrix: (Units=1/GPa)
#
#
# Indices 1 2 3 4 5 6 
#
# 1 0.007695 0.000672 -0.004217 0.000000 0.001439 0.000000
# 2 0.000672 0.017695 -0.000300 0.000000 -0.000439 0.000000
# 3 -0.004217 -0.000300 0.012420 0.000000 -0.001924 0.000000
# 4 0.000000 0.000000 0.000000 -0.225538 0.000000 -0.022080
# 5 0.001439 -0.000439 -0.001924 0.000000 0.024218 0.000000
# 6 0.000000 0.000000 0.000000 -0.022080 0.000000 0.019101
#
#
# Mechanical properties :
#
#
# Convention : Reuss Voigt Hill
#
# Bulk Modulus (GPa) = 33.20179 45.91053 39.55616
# Shear Modulus (GPa) = -39.47025 34.94068 -2.26479
#
# Velocity S-wave (km/s) = -4.24611 3.99505 -1.01711
# Velocity P-wave (km/s) = 2.97878 6.50014 4.08525
#
# Compressibility (1/GPa) = 0.03011886
#
# Stress axis : x y z
#
# Youngs Moduli (GPa) = 129.94647 56.51300 80.51712
#
# Poissons Ratio (x) = -0.03796 0.33958
# Poissons Ratio (y) = -0.08728 0.02414
# Poissons Ratio (z) = 0.54805 0.01694
#
# Static dielectric constant tensor:
#      x y z
#    x 1.827250 0.000000 0.018270 
#    y 0.000000 1.877590 0.000000 
#    z 0.018270 0.000000 1.765810 
# 
# From -- ./inp_files/55429.got.cif
#   From: 2010.05.17/outbox.cif.g08.bks.cpg/sg10_28_cif.got.tgz:55429.got - 2010.06.03 11:33:40.
