data_PCOD9142153
_publ_section_title
;
Structure prediction by ZEFSAII (Michael W. Deem and Ramdas Pophale) SiO2 
 PCOD9142153
Probable space group: P 2/M
;
_chemical_formula_sum "Si O2"
_cell_formula_units_Z 32
_cell_length_a 16.505874
_cell_length_b 9.094551
_cell_length_c 14.535356
_cell_angle_alpha 90.000000
_cell_angle_beta 96.807000
_cell_angle_gamma 90.000000
_cell_volume 2166.572837
_symmetry_space_group_name_H-M "P 2/M"
_symmetry_group_IT_number 10
_symmetry_cell_setting 'monoclinic'
loop_
_space_group_symop_operation_xyz
x,y,z
-x,y,-z
-x,-y,-z
x,-y,z
loop_
_atom_site_type_symbol
_atom_site_label
_atom_site_fract_x
_atom_site_fract_y
_atom_site_fract_z
Si Si1 0.553479 0.826255 0.416126
Si Si2 0.877012 0.828576 0.543640
Si Si3 0.042591 0.171401 0.649650
Si Si4 0.667649 0.174858 0.127959
Si Si5 0.273349 0.672192 0.553177
Si Si6 0.586385 0.668566 0.956678
Si Si7 0.520707 0.676713 0.222977
Si Si8 0.193417 0.327834 0.745863
O O1 0.500000 0.804471 0.500000
O O2 0.644331 0.764550 0.443289
O O3 0.516573 0.739676 0.324407
O O4 0.556857 0.000000 0.395764
O O5 0.917957 0.823243 0.447485
O O6 0.796376 0.731727 0.524652
O O7 0.948642 0.781296 0.623162
O O8 0.857315 0.000000 0.558608
O O9 0.101990 0.267339 0.720296
O O10 0.043828 0.000000 0.677813
O O11 0.598773 0.249429 0.183880
O O12 0.753740 0.235911 0.174826
O O13 0.663187 0.000000 0.135487
O O14 0.645747 0.227505 0.021953
O O15 0.289362 0.500000 0.540657
O O16 0.238078 0.688930 0.652349
O O17 0.616197 0.500000 0.962582
O O18 0.558682 0.709934 0.850239
O O19 0.500000 0.669758 0.000000
O O20 0.532002 0.500000 0.224137
O O21 0.194072 0.500000 0.768800
#
# Coordination Sequence:
#
# PCOD9142153 Si02
#       8
#     4   4   4   4   4   4   4   4
#     4  11  23  35  47  63  82 107 141 182 223 257
#     4   8  14  25  40  55  76 103 134 171 206 244
#     4   8  14  24  37  55  77 105 137 168 204 242
#     4  11  19  26  41  62  84 111 141 173 206 247
#     4  10  19  29  43  59  77 106 140 175 214 252
#     4   8  16  29  43  59  81 105 133 169 207 250
#     4  10  19  32  47  61  79 106 137 173 216 255
#     4  10  18  26  38  57  83 112 141 174 208 243
#
# _framework density 14.769871
#
# number of rings (size 3 to 8) (size 9 to 14) (size 15 to 20)
#    0.000    2.500    1.250    4.125    0.000    5.250 
#    0.000    2.500    0.000    0.000    0.000    0.000 
#    0.000    0.000    0.000    1.125    0.000   21.000 
#
# Total GULP energy -178274.005810 kJ/mol
# GULP energy per Si atom -5571.062682 kJ/mol
# Density = 1.473625 g / cm^3
# Si number density = 14.769871 Si / 1000 Ang^3
#
#
#
# Elastic Constant Matrix: (Units=GPa)
#
#
# Indices 1 2 3 4 5 6 
#
# 1 45.7413 46.2220 44.2285 0.0000 24.1098 0.0000
# 2 46.2220 94.3853 57.9836 0.0000 25.9832 0.0000
# 3 44.2285 57.9836 77.1616 0.0000 28.7261 0.0000
# 4 0.0000 0.0000 0.0000 14.5009 0.0000 20.6953
# 5 24.1098 25.9832 28.7261 0.0000 25.1507 0.0000
# 6 0.0000 0.0000 0.0000 20.6953 0.0000 0.5754
#
#
#
# Elastic Compliance Matrix: (Units=1/GPa)
#
#
# Indices 1 2 3 4 5 6 
#
# 1 0.071172 -0.015336 -0.016997 0.000000 -0.032970 0.000000
# 2 -0.015336 0.023517 -0.009237 0.000000 0.000957 0.000000
# 3 -0.016997 -0.009237 0.034839 0.000000 -0.013955 0.000000
# 4 0.000000 0.000000 0.000000 -0.001370 0.000000 0.049280
# 5 -0.032970 0.000957 -0.013955 0.000000 0.086316 0.000000
# 6 0.000000 0.000000 0.000000 0.049280 0.000000 -0.034530
#
#
# Mechanical properties :
#
#
# Convention : Reuss Voigt Hill
#
# Bulk Modulus (GPa) = 21.55772 57.12849 39.34310
# Shear Modulus (GPa) = 17.95031 12.63568 15.29299
#
# Velocity S-wave (km/s) = 3.48994 2.92807 3.22128
# Velocity P-wave (km/s) = 5.55581 7.08481 6.36638
#
# Compressibility (1/GPa) = 0.04638709
#
# Stress axis : x y z
#
# Youngs Moduli (GPa) = 14.05042 42.52311 28.70351
#
# Poissons Ratio (x) = 0.65215 0.48786
# Poissons Ratio (y) = 0.21548 0.26514
# Poissons Ratio (z) = 0.23881 0.39280
#
# Static dielectric constant tensor:
#      x y z
#    x 1.477780 0.000000 0.030290 
#    y 0.000000 1.491050 0.000000 
#    z 0.030290 0.000000 1.496120 
# 
# From -- ./inp_files/66190.got.cif
#   From: 2010.05.17/outbox.cif.g08.bks.cpg/sg10_34_cif.got.tgz:66190.got - 2010.06.03 11:33:40.
