data_PCOD9142807
_publ_section_title
;
Structure prediction by ZEFSAII (Michael W. Deem and Ramdas Pophale) SiO2 
 PCOD9142807
Probable space group: P 2/M
;
_chemical_formula_sum "Si O2"
_cell_formula_units_Z 32
_cell_length_a 15.402007
_cell_length_b 7.611598
_cell_length_c 15.722131
_cell_angle_alpha 90.000000
_cell_angle_beta 79.707302
_cell_angle_gamma 90.000000
_cell_volume 1813.505936
_symmetry_space_group_name_H-M "P 2/M"
_symmetry_group_IT_number 10
_symmetry_cell_setting 'monoclinic'
loop_
_space_group_symop_operation_xyz
x,y,z
-x,y,-z
-x,-y,-z
x,-y,z
loop_
_atom_site_type_symbol
_atom_site_label
_atom_site_fract_x
_atom_site_fract_y
_atom_site_fract_z
Si Si1 0.562752 0.788068 0.111925
Si Si2 0.307147 0.786999 0.573908
Si Si3 0.885085 0.213843 0.439471
Si Si4 0.752024 0.215480 0.753629
Si Si5 0.441876 0.697323 0.696593
Si Si6 0.920429 0.213930 0.627413
Si Si7 0.370091 0.214251 0.077406
Si Si8 0.367806 0.200015 0.380647
O O1 0.587047 0.727666 0.201472
O O2 0.462084 0.735026 0.107110
O O3 0.563676 0.000000 0.112665
O O4 0.622302 0.728539 0.021898
O O5 0.205093 0.729778 0.589081
O O6 0.363891 0.727050 0.643873
O O7 0.350109 0.724485 0.477167
O O8 0.309772 0.000000 0.575840
O O9 0.886820 0.264959 0.538881
O O10 0.978078 0.272043 0.383218
O O11 0.885215 0.000000 0.438652
O O12 0.850109 0.271086 0.709973
O O13 0.710874 0.273648 0.850275
O O14 0.686795 0.275267 0.688935
O O15 0.750784 0.000000 0.755722
O O16 0.474422 0.500000 0.682401
O O17 0.529136 0.806378 0.659135
O O18 0.921233 0.000000 0.628022
O O19 0.369458 0.000000 0.076436
O O20 0.333749 0.000000 0.393138
#
# Coordination Sequence:
#
# PCOD9142807 Si02
#       8
#     4   4   4   4   4   4   4   4
#     4   9  16  30  48  65  84 112 148 185 218 262
#     4  10  19  31  47  65  86 120 159 186 209 251
#     4   8  13  22  37  63  94 118 140 173 217 255
#     4   9  13  21  41  69  94 116 140 171 214 264
#     4  12  24  33  42  60  88 122 153 188 226 255
#     4   8  12  19  36  65  98 117 132 171 221 262
#     4   8  14  24  45  69  88 110 142 181 221 260
#     4  10  18  30  47  65  87 119 156 183 206 251
#
# _framework density 17.645378999999998
#
# number of rings (size 3 to 8) (size 9 to 14) (size 15 to 20)
#    0.000    2.750    2.500    3.000    0.000    2.000 
#    0.000    1.250    0.000    0.000    0.000    3.500 
#    0.000    7.000    0.000    0.000    0.000    0.000 
#
# Total GULP energy -178376.103771 kJ/mol
# GULP energy per Si atom -5574.253243 kJ/mol
# Density = 1.760522 g / cm^3
# Si number density = 17.645379 Si / 1000 Ang^3
#
#
#
# Elastic Constant Matrix: (Units=GPa)
#
#
# Indices 1 2 3 4 5 6 
#
# 1 91.5390 -3.8126 72.9413 0.0000 -18.0032 0.0000
# 2 -3.8126 37.5192 2.0139 0.0000 -0.4139 0.0000
# 3 72.9413 2.0139 143.0458 0.0000 -20.3195 0.0000
# 4 0.0000 0.0000 0.0000 117.0863 0.0000 89.2089
# 5 -18.0032 -0.4139 -20.3195 0.0000 30.2552 0.0000
# 6 0.0000 0.0000 0.0000 89.2089 0.0000 42.0680
#
#
#
# Elastic Compliance Matrix: (Units=1/GPa)
#
#
# Indices 1 2 3 4 5 6 
#
# 1 0.019388 0.002521 -0.009151 0.000000 0.005425 0.000000
# 2 0.002521 0.027001 -0.001548 0.000000 0.000830 0.000000
# 3 -0.009151 -0.001548 0.012052 0.000000 0.002628 0.000000
# 4 0.000000 0.000000 0.000000 -0.013872 0.000000 0.029416
# 5 0.005425 0.000830 0.002628 0.000000 0.038057 0.000000
# 6 0.000000 0.000000 0.000000 0.029416 0.000000 -0.038609
#
#
# Mechanical properties :
#
#
# Convention : Reuss Voigt Hill
#
# Bulk Modulus (GPa) = 23.76073 46.04326 34.90199
# Shear Modulus (GPa) = 67.20171 51.27931 59.24051
#
# Velocity S-wave (km/s) = 6.17797 5.39668 5.80049
# Velocity P-wave (km/s) = 8.02400 8.06117 8.04261
#
# Compressibility (1/GPa) = 0.04208626
#
# Stress axis : x y z
#
# Youngs Moduli (GPa) = 51.57729 37.03507 82.97239
#
# Poissons Ratio (x) = -0.09337 0.75930
# Poissons Ratio (y) = -0.13004 0.12843
# Poissons Ratio (z) = 0.47200 0.05732
#
# Static dielectric constant tensor:
#      x y z
#    x 1.585420 0.000000 -0.025950 
#    y 0.000000 1.652940 0.000000 
#    z -0.025950 0.000000 1.602400 
# 
# From -- ./inp_files/66052.got.cif
#   From: 2010.05.17/outbox.cif.g08.bks.cpg/sg10_34_cif.got.tgz:66052.got - 2010.06.03 11:33:40.
