data_PCOD9142186
_publ_section_title
;
Structure prediction by ZEFSAII (Michael W. Deem and Ramdas Pophale) SiO2 
 PCOD9142186
Probable space group: P 2/M
;
_chemical_formula_sum "Si O2"
_cell_formula_units_Z 32
_cell_length_a 21.283644
_cell_length_b 12.705484
_cell_length_c 8.104366
_cell_angle_alpha 90.000000
_cell_angle_beta 53.929382
_cell_angle_gamma 90.000000
_cell_volume 1771.432000
_symmetry_space_group_name_H-M "P 2/M"
_symmetry_group_IT_number 10
_symmetry_cell_setting 'monoclinic'
loop_
_space_group_symop_operation_xyz
x,y,z
-x,y,-z
-x,-y,-z
x,-y,z
loop_
_atom_site_type_symbol
_atom_site_label
_atom_site_fract_x
_atom_site_fract_y
_atom_site_fract_z
Si Si1 0.691881 0.626304 0.223728
Si Si2 0.045423 0.381616 0.137280
Si Si3 0.081686 0.123874 0.471380
Si Si4 0.452452 0.622363 0.747334
Si Si5 0.253279 0.623155 0.360309
Si Si6 0.597021 0.625106 0.709238
Si Si7 0.170153 0.303403 0.165753
Si Si8 0.897399 0.718816 0.275469
O O1 0.705458 0.500000 0.184044
O O2 0.630392 0.665373 0.180590
O O3 0.649917 0.639018 0.463750
O O4 0.771357 0.688340 0.078006
O O5 0.063058 0.500000 0.053188
O O6 0.091041 0.359927 0.233604
O O7 0.953266 0.364319 0.285796
O O8 0.076096 0.297618 0.953854
O O9 0.145982 0.189736 0.270503
O O10 0.083641 0.175020 0.652127
O O11 0.000000 0.139792 0.500000
O O12 0.096564 0.000000 0.454907
O O13 0.500000 0.620759 0.500000
O O14 0.438106 0.500000 0.813357
O O15 0.511541 0.668080 0.792582
O O16 0.251577 0.500000 0.409745
O O17 0.343014 0.659539 0.241551
O O18 0.217220 0.637037 0.235627
O O19 0.192062 0.687406 0.565720
O O20 0.584280 0.500000 0.750817
#
# Coordination Sequence:
#
# PCOD9142186 Si02
#       8
#     4   4   4   4   4   4   4   4
#     4   9  15  25  42  66  97 128 160 200 235 275
#     4  11  20  32  48  72 105 129 150 189 232 287
#     4  10  21  41  57  66  87 122 164 211 253 283
#     4   7  11  21  38  59  87 128 170 195 220 264
#     4  10  18  27  40  62  95 130 162 191 227 283
#     4   8  14  25  41  61  91 135 171 192 220 264
#     4  11  21  31  47  71  94 125 162 194 242 291
#     4  10  20  33  49  70  90 123 163 195 238 287
#
# _framework density 18.064481000000001
#
# number of rings (size 3 to 8) (size 9 to 14) (size 15 to 20)
#    0.000    2.500    1.250    4.875    0.000    1.000 
#    0.000    4.375    0.000    3.000    0.000    0.000 
#    0.000   12.500    0.000    0.000    0.000    1.125 
#
# Total GULP energy -178205.803567 kJ/mol
# GULP energy per Si atom -5568.931361 kJ/mol
# Density = 1.802337 g / cm^3
# Si number density = 18.064481 Si / 1000 Ang^3
#
#
#
# Elastic Constant Matrix: (Units=GPa)
#
#
# Indices 1 2 3 4 5 6 
#
# 1 133.9190 17.1345 4.1692 0.0000 3.6629 0.0000
# 2 17.1345 68.5668 11.4680 0.0000 -0.0336 0.0000
# 3 4.1692 11.4680 42.4739 0.0000 5.0349 0.0000
# 4 0.0000 0.0000 0.0000 8.8932 0.0000 6.5317
# 5 3.6629 -0.0336 5.0349 0.0000 30.7320 0.0000
# 6 0.0000 0.0000 0.0000 6.5317 0.0000 12.4173
#
#
#
# Elastic Compliance Matrix: (Units=1/GPa)
#
#
# Indices 1 2 3 4 5 6 
#
# 1 0.007741 -0.001912 -0.000137 0.000000 -0.000902 0.000000
# 2 -0.001912 0.015761 -0.004178 0.000000 0.000930 0.000000
# 3 -0.000137 -0.004178 0.025173 0.000000 -0.004112 0.000000
# 4 0.000000 0.000000 0.000000 0.183239 0.000000 -0.096387
# 5 -0.000902 0.000930 -0.004112 0.000000 0.033322 0.000000
# 6 0.000000 0.000000 0.000000 -0.096387 0.000000 0.131235
#
#
# Mechanical properties :
#
#
# Convention : Reuss Voigt Hill
#
# Bulk Modulus (GPa) = 27.60783 34.50034 31.05409
# Shear Modulus (GPa) = 11.87654 24.55434 18.21544
#
# Velocity S-wave (km/s) = 2.56687 3.69081 3.17891
# Velocity P-wave (km/s) = 4.90930 6.10760 5.54093
#
# Compressibility (1/GPa) = 0.03622161
#
# Stress axis : x y z
#
# Youngs Moduli (GPa) = 129.18621 63.44625 39.72528
#
# Poissons Ratio (x) = 0.12131 0.00543
# Poissons Ratio (y) = 0.24700 0.16598
# Poissons Ratio (z) = 0.01765 0.26508
#
# Static dielectric constant tensor:
#      x y z
#    x 1.706020 0.000000 0.034250 
#    y 0.000000 1.552840 0.000000 
#    z 0.034250 0.000000 1.732690 
# 
# From -- ./inp_files/34621.got.cif
#   From: 2010.05.17/outbox.cif.g08.bks.cpg/sg10_18_cif.got.tgz:34621.got - 2010.06.03 11:33:40.
