data_PCOD9142021
_publ_section_title
;
Structure prediction by ZEFSAII (Michael W. Deem and Ramdas Pophale) SiO2 
 PCOD9142021
Probable space group: P 2/M
;
_chemical_formula_sum "Si O2"
_cell_formula_units_Z 30
_cell_length_a 12.895432
_cell_length_b 8.460374
_cell_length_c 17.187855
_cell_angle_alpha 90.000000
_cell_angle_beta 58.515858
_cell_angle_gamma 90.000000
_cell_volume 1599.140278
_symmetry_space_group_name_H-M "P 2/M"
_symmetry_group_IT_number 10
_symmetry_cell_setting 'monoclinic'
loop_
_space_group_symop_operation_xyz
x,y,z
-x,y,-z
-x,-y,-z
x,-y,z
loop_
_atom_site_type_symbol
_atom_site_label
_atom_site_fract_x
_atom_site_fract_y
_atom_site_fract_z
Si Si1 0.068097 0.309983 0.176580
Si Si2 0.130779 0.692264 0.982309
Si Si3 0.660747 0.689949 0.218286
Si Si4 0.168621 0.688250 0.305603
Si Si5 0.609176 0.815816 0.695194
Si Si6 0.799137 0.187346 0.312941
Si Si7 0.757331 0.323382 0.500588
Si Si8 0.000000 0.737749 0.500000
O O1 0.048837 0.500000 0.180446
O O2 0.140997 0.277355 0.227038
O O3 0.935917 0.232276 0.234127
O O4 0.134982 0.261287 0.071086
O O5 0.131923 0.500000 0.979044
O O6 0.240657 0.745476 0.884589
O O7 0.000000 0.743275 0.000000
O O8 0.656804 0.500000 0.218707
O O9 0.528163 0.756726 0.252614
O O10 0.708728 0.745332 0.283342
O O11 0.139415 0.500000 0.331246
O O12 0.305561 0.719960 0.278426
O O13 0.082946 0.796239 0.395010
O O14 0.670839 0.784668 0.586894
O O15 0.614771 0.000000 0.711685
O O16 0.775608 0.261902 0.406699
O O17 0.786383 0.000000 0.322905
O O18 0.705779 0.500000 0.520025
O O19 0.888152 0.331222 0.492853
#
# Coordination Sequence:
#
# PCOD9142021 Si02
#       8
#     4   4   4   4   4   4   4   2
#     4  10  19  36  60  89 120 154 194 247 295 342
#     4   9  17  33  62  93 114 141 195 253 295 335
#     4  11  22  41  65  85 112 155 202 244 290 350
#     4  10  19  34  58  86 118 156 200 239 285 345
#     4  11  24  41  58  84 121 157 195 242 294 350
#     4  12  24  36  55  90 127 156 188 237 297 354
#     4  11  21  38  60  86 116 157 203 240 285 341
#     4  10  17  30  57  88 113 146 193 244 281 330
#
# _framework density 18.760082000000001
#
# number of rings (size 3 to 8) (size 9 to 14) (size 15 to 20)
#    0.000    1.467    2.667    5.200    0.000    1.067 
#    0.000    7.000    0.000    4.000    0.000    0.000 
#    0.000    0.000    0.000    0.000    0.000    0.000 
#
# Total GULP energy -167321.084057 kJ/mol
# GULP energy per Si atom -5577.369469 kJ/mol
# Density = 1.871738 g / cm^3
# Si number density = 18.760082 Si / 1000 Ang^3
#
#
#
# Elastic Constant Matrix: (Units=GPa)
#
#
# Indices 1 2 3 4 5 6 
#
# 1 124.0018 14.4753 75.7248 0.0000 -1.7936 0.0000
# 2 14.4753 44.9445 12.3423 0.0000 5.6043 0.0000
# 3 75.7248 12.3423 109.5363 0.0000 12.3205 0.0000
# 4 0.0000 0.0000 0.0000 10.9057 0.0000 21.2812
# 5 -1.7936 5.6043 12.3205 0.0000 35.6842 0.0000
# 6 0.0000 0.0000 0.0000 21.2812 0.0000 45.9380
#
#
#
# Elastic Compliance Matrix: (Units=1/GPa)
#
#
# Indices 1 2 3 4 5 6 
#
# 1 0.014849 -0.002488 -0.010522 0.000000 0.004770 0.000000
# 2 -0.002488 0.023653 -0.000534 0.000000 -0.003655 0.000000
# 3 -0.010522 -0.000534 0.017181 0.000000 -0.006377 0.000000
# 4 0.000000 0.000000 0.000000 0.955062 0.000000 -0.442441
# 5 0.004770 -0.003655 -0.006377 0.000000 0.031039 0.000000
# 6 0.000000 0.000000 0.000000 -0.442441 0.000000 0.226733
#
#
# Mechanical properties :
#
#
# Convention : Reuss Voigt Hill
#
# Bulk Modulus (GPa) = 34.97006 53.72969 44.34988
# Shear Modulus (GPa) = 3.83102 30.23495 17.03298
#
# Velocity S-wave (km/s) = 1.43057 4.01891 3.01647
# Velocity P-wave (km/s) = 4.62708 7.08788 5.98531
#
# Compressibility (1/GPa) = 0.02859589
#
# Stress axis : x y z
#
# Youngs Moduli (GPa) = 67.34379 42.27716 58.20473
#
# Poissons Ratio (x) = 0.10518 0.61241
# Poissons Ratio (y) = 0.16754 0.03109
# Poissons Ratio (z) = 0.70857 0.02258
#
# Static dielectric constant tensor:
#      x y z
#    x 1.620030 0.000000 0.008670 
#    y 0.000000 1.657100 0.000000 
#    z 0.008670 0.000000 1.648180 
# 
# From -- ./inp_files/76207.got.cif
#   From: 2010.05.17/outbox.cif.g08.bks.cpg/sg10_39_cif.got.tgz:76207.got - 2010.06.03 11:33:40.
