data_PCOD9142742
_publ_section_title
;
Structure prediction by ZEFSAII (Michael W. Deem and Ramdas Pophale) SiO2 
 PCOD9142742
Probable space group: P 2/M
;
_chemical_formula_sum "Si O2"
_cell_formula_units_Z 20
_cell_length_a 13.638678
_cell_length_b 11.335910
_cell_length_c 7.641954
_cell_angle_alpha 90.000000
_cell_angle_beta 56.504733
_cell_angle_gamma 90.000000
_cell_volume 985.288509
_symmetry_space_group_name_H-M "P 2/M"
_symmetry_group_IT_number 10
_symmetry_cell_setting 'monoclinic'
loop_
_space_group_symop_operation_xyz
x,y,z
-x,y,-z
-x,-y,-z
x,-y,z
loop_
_atom_site_type_symbol
_atom_site_label
_atom_site_fract_x
_atom_site_fract_y
_atom_site_fract_z
Si Si1 0.014446 0.127955 0.777110
Si Si2 0.367545 0.359345 0.177160
Si Si3 0.801624 0.727973 0.956266
Si Si4 0.362546 0.361014 0.592562
Si Si5 0.034868 0.374527 0.669652
O O1 0.087194 0.245611 0.656889
O O2 0.056401 0.000000 0.675843
O O3 0.881476 0.156705 0.844137
O O4 0.000000 0.126639 0.000000
O O5 0.362946 0.500000 0.149250
O O6 0.345338 0.340740 0.403747
O O7 0.500000 0.320021 0.000000
O O8 0.273201 0.303708 0.140020
O O9 0.716370 0.720340 0.205412
O O10 0.907749 0.634964 0.888487
O O11 0.500000 0.342399 0.500000
O O12 0.338827 0.500000 0.656176
O O13 0.093962 0.500000 0.651739
O O14 0.000000 0.375059 0.500000
#
# Coordination Sequence:
#
# PCOD9142742 Si02
#       5
#     4   4   4   4   4
#     4   9  21  40  59  79 110 153 199 238 284 347
#     4  10  18  29  50  81 116 147 184 232 282 344
#     4  10  20  34  55  78 115 146 189 231 284 328
#     4  10  18  29  51  82 115 151 187 228 286 343
#     4   9  19  34  55  84 114 142 183 238 290 336
#
# _framework density 20.298625000000001
#
# number of rings (size 3 to 8) (size 9 to 14) (size 15 to 20)
#    1.200    1.200    2.000    1.800    0.000    2.400 
#    0.000    2.000    0.000    1.200    0.000    0.000 
#    0.000    0.000    0.000    0.000    0.000    0.000 
#
# Total GULP energy -111433.697621 kJ/mol
# GULP energy per Si atom -5571.684881 kJ/mol
# Density = 2.025242 g / cm^3
# Si number density = 20.298625 Si / 1000 Ang^3
#
#
#
# Elastic Constant Matrix: (Units=GPa)
#
#
# Indices 1 2 3 4 5 6 
#
# 1 103.7786 17.6983 10.9787 0.0000 3.4921 0.0000
# 2 17.6983 135.5038 12.9402 0.0000 7.2879 0.0000
# 3 10.9787 12.9402 59.9226 0.0000 -2.6872 0.0000
# 4 0.0000 0.0000 0.0000 5.7158 0.0000 3.2508
# 5 3.4921 7.2879 -2.6872 0.0000 34.1484 0.0000
# 6 0.0000 0.0000 0.0000 3.2508 0.0000 5.4353
#
#
#
# Elastic Compliance Matrix: (Units=1/GPa)
#
#
# Indices 1 2 3 4 5 6 
#
# 1 0.010029 -0.001104 -0.001640 0.000000 -0.000919 0.000000
# 2 -0.001104 0.007761 -0.001549 0.000000 -0.001665 0.000000
# 3 -0.001640 -0.001549 0.017407 0.000000 0.001868 0.000000
# 4 0.000000 0.000000 0.000000 0.265144 0.000000 -0.158579
# 5 -0.000919 -0.001665 0.001868 0.000000 0.029880 0.000000
# 6 0.000000 0.000000 0.000000 -0.158579 0.000000 0.278825
#
#
# Mechanical properties :
#
#
# Convention : Reuss Voigt Hill
#
# Bulk Modulus (GPa) = 37.57727 42.49327 40.03527
# Shear Modulus (GPa) = 7.98083 26.23244 17.10663
#
# Velocity S-wave (km/s) = 1.98500 3.59879 2.90616
# Velocity P-wave (km/s) = 4.87915 6.18449 5.57019
#
# Compressibility (1/GPa) = 0.02661184
#
# Stress axis : x y z
#
# Youngs Moduli (GPa) = 99.71505 128.84140 57.44858
#
# Poissons Ratio (x) = 0.14221 0.09423
# Poissons Ratio (y) = 0.11006 0.08896
# Poissons Ratio (z) = 0.16356 0.19951
#
# Static dielectric constant tensor:
#      x y z
#    x 1.744920 0.000000 0.020860 
#    y 0.000000 1.761920 0.000000 
#    z 0.020860 0.000000 1.747840 
# 
# From -- ./inp_files/27528.got.cif
#   From: 2010.05.17/outbox.cif.g08.bks.cpg/sg10_14_cif.got.tgz:27528.got - 2010.06.03 11:33:40.
