data_PCOD9142850
_publ_section_title
;
Structure prediction by ZEFSAII (Michael W. Deem and Ramdas Pophale) SiO2 
 PCOD9142850
Probable space group: P 2/M
;
_chemical_formula_sum "Si O2"
_cell_formula_units_Z 32
_cell_length_a 22.000467
_cell_length_b 7.743178
_cell_length_c 31.637491
_cell_angle_alpha 90.000000
_cell_angle_beta 160.265350
_cell_angle_gamma 90.000000
_cell_volume 1819.862830
_symmetry_space_group_name_H-M "P 2/M"
_symmetry_group_IT_number 10
_symmetry_cell_setting 'monoclinic'
loop_
_space_group_symop_operation_xyz
x,y,z
-x,y,-z
-x,-y,-z
x,-y,z
loop_
_atom_site_type_symbol
_atom_site_label
_atom_site_fract_x
_atom_site_fract_y
_atom_site_fract_z
Si Si1 0.058056 0.205347 0.721770
Si Si2 0.657700 0.294507 0.572087
Si Si3 0.956747 0.791055 0.134882
Si Si4 0.337147 0.203583 0.522322
Si Si5 0.953934 0.210755 0.037086
Si Si6 0.287309 0.788736 0.197644
Si Si7 0.619231 0.295268 0.117216
Si Si8 0.295612 0.792298 0.956511
O O1 0.179153 0.232768 0.759502
O O2 0.856251 0.276904 0.590177
O O3 0.043597 0.000000 0.719019
O O4 0.172676 0.274410 0.836885
O O5 0.500000 0.229259 0.500000
O O6 0.636319 0.500000 0.554036
O O7 0.647049 0.220038 0.517962
O O8 0.851975 0.256755 0.719440
O O9 0.950196 0.000000 0.129503
O O10 0.941578 0.727830 0.076952
O O11 0.796559 0.730657 0.060795
O O12 0.515290 0.275846 0.661161
O O13 0.334973 0.000000 0.531190
O O14 0.793946 0.264059 0.900765
O O15 0.953185 0.000000 0.037289
O O16 0.140964 0.262796 0.137242
O O17 0.289687 0.000000 0.199546
O O18 0.624645 0.500000 0.116729
O O19 0.502028 0.253011 0.081613
O O20 0.500000 0.221294 0.000000
O O21 0.285308 0.000000 0.949474
#
# Coordination Sequence:
#
# PCOD9142850 Si02
#       8
#     4   4   4   4   4   4   4   4
#     4   9  16  27  41  61  88 115 144 180 219 260
#     4  11  23  33  41  60  93 126 153 185 226 267
#     4  10  18  30  48  68  89 119 155 186 222 272
#     4  10  18  30  48  68  89 119 155 186 222 272
#     4   8  14  25  43  68  93 115 146 191 232 261
#     4   8  14  25  43  68  93 115 146 191 232 261
#     4   9  17  27  41  61  84 115 148 174 213 264
#     4   9  16  27  41  61  88 115 144 180 219 260
#
# _framework density 17.583742000000001
#
# number of rings (size 3 to 8) (size 9 to 14) (size 15 to 20)
#    0.000    2.750    1.250    2.250    0.000    4.500 
#    0.000    0.000    0.000    0.750    0.000    4.375 
#    0.000    7.000    0.000    0.000    0.000    0.000 
#
# Total GULP energy -178344.746462 kJ/mol
# GULP energy per Si atom -5573.273327 kJ/mol
# Density = 1.754372 g / cm^3
# Si number density = 17.583742 Si / 1000 Ang^3
#
#
#
# Elastic Constant Matrix: (Units=GPa)
#
#
# Indices 1 2 3 4 5 6 
#
# 1 62.1246 -8.3826 60.8222 0.0000 18.2673 0.0000
# 2 -8.3826 23.3404 -1.3346 0.0000 1.4193 0.0000
# 3 60.8222 -1.3346 124.4366 0.0000 17.8286 0.0000
# 4 0.0000 0.0000 0.0000 -7.8915 0.0000 -1.9502
# 5 18.2673 1.4193 17.8286 0.0000 28.9264 0.0000
# 6 0.0000 0.0000 0.0000 -1.9502 0.0000 -5.4247
#
#
#
# Elastic Compliance Matrix: (Units=1/GPa)
#
#
# Indices 1 2 3 4 5 6 
#
# 1 0.038521 0.013788 -0.016561 0.000000 -0.014796 0.000000
# 2 0.013788 0.047987 -0.005089 0.000000 -0.007925 0.000000
# 3 -0.016561 -0.005089 0.015951 0.000000 0.000877 0.000000
# 4 0.000000 0.000000 0.000000 -0.139075 0.000000 0.049998
# 5 -0.014796 -0.007925 0.000877 0.000000 0.043763 0.000000
# 6 0.000000 0.000000 0.000000 0.049998 0.000000 -0.202317
#
#
# Mechanical properties :
#
#
# Convention : Reuss Voigt Hill
#
# Bulk Modulus (GPa) = 11.52947 34.67905 23.10426
# Shear Modulus (GPa) = -33.21472 13.70850 -9.75311
#
# Velocity S-wave (km/s) = -4.35091 2.79518 -2.35769
# Velocity P-wave (km/s) = 4.32082 5.49385 2.39927
#
# Compressibility (1/GPa) = 0.08673422
#
# Stress axis : x y z
#
# Youngs Moduli (GPa) = 25.95973 20.83909 62.69380
#
# Poissons Ratio (x) = -0.28732 1.03825
# Poissons Ratio (y) = -0.35792 0.31905
# Poissons Ratio (z) = 0.42991 0.10605
#
# Static dielectric constant tensor:
#      x y z
#    x 1.609720 0.000000 0.027180 
#    y 0.000000 1.630200 0.000000 
#    z 0.027180 0.000000 1.603590 
# 
# From -- ./inp_files/87226.got.cif
#   From: 2010.05.17/outbox.cif.g08.bks.cpg/sg10_44_cif.got.tgz:87226.got - 2010.06.03 11:33:40.
