data_PCOD9142980
_publ_section_title
;
Structure prediction by ZEFSAII (Michael W. Deem and Ramdas Pophale) SiO2 
 PCOD9142980
Probable space group: P 2/M
;
_chemical_formula_sum "Si O2"
_cell_formula_units_Z 24
_cell_length_a 21.379306
_cell_length_b 12.758490
_cell_length_c 8.026668
_cell_angle_alpha 90.000000
_cell_angle_beta 145.852769
_cell_angle_gamma 90.000000
_cell_volume 1228.965762
_symmetry_space_group_name_H-M "P 2/M"
_symmetry_group_IT_number 10
_symmetry_cell_setting 'monoclinic'
loop_
_space_group_symop_operation_xyz
x,y,z
-x,y,-z
-x,-y,-z
x,-y,z
loop_
_atom_site_type_symbol
_atom_site_label
_atom_site_fract_x
_atom_site_fract_y
_atom_site_fract_z
Si Si1 0.573248 0.620554 0.330705
Si Si2 0.639369 0.378463 0.946454
Si Si3 0.849027 0.280197 0.278220
Si Si4 0.883292 0.123332 0.642206
Si Si5 0.058833 0.381845 0.838676
Si Si6 0.236845 0.695009 0.455007
O O1 0.609037 0.500000 0.438725
O O2 0.487675 0.652599 0.287623
O O3 0.679128 0.689098 0.515570
O O4 0.500000 0.620046 0.000000
O O5 0.638186 0.500000 0.893689
O O6 0.719229 0.310254 0.004925
O O7 0.704299 0.366807 0.265824
O O8 0.877935 0.175014 0.445227
O O9 0.892669 0.297630 0.187482
O O10 0.926897 0.364083 0.549124
O O11 0.792025 0.189635 0.543616
O O12 0.861916 0.000000 0.587477
O O13 0.000000 0.138475 0.000000
O O14 0.084259 0.500000 0.839248
O O15 0.122558 0.359269 0.148260
#
# Coordination Sequence:
#
# PCOD9142980 Si02
#       6
#     4   4   4   4   4   4
#     4   8  14  26  45  71 101 130 161 199 240 288
#     4   9  16  28  48  71  99 135 169 199 237 290
#     4  10  20  33  47  69 101 136 164 197 243 293
#     4  10  20  37  54  71  94 122 169 221 252 281
#     4  11  20  31  47  74 110 137 155 191 241 304
#     4  10  18  30  50  73  97 128 163 202 247 291
#
# _framework density 19.528614999999999
#
# number of rings (size 3 to 8) (size 9 to 14) (size 15 to 20)
#    0.000    2.333    1.667    4.500    0.000    0.000 
#    0.000    5.833    0.000   15.500    0.000    0.000 
#    0.000   22.667    0.000    0.000    0.000    0.000 
#
# Total GULP energy -133767.731944 kJ/mol
# GULP energy per Si atom -5573.655498 kJ/mol
# Density = 1.948417 g / cm^3
# Si number density = 19.528615 Si / 1000 Ang^3
#
#
#
# Elastic Constant Matrix: (Units=GPa)
#
#
# Indices 1 2 3 4 5 6 
#
# 1 100.2171 32.7638 19.4711 0.0000 11.3010 0.0000
# 2 32.7638 105.9008 22.7454 0.0000 6.3691 0.0000
# 3 19.4711 22.7454 52.3182 0.0000 3.5938 0.0000
# 4 0.0000 0.0000 0.0000 16.2600 0.0000 0.1751
# 5 11.3010 6.3691 3.5938 0.0000 35.6242 0.0000
# 6 0.0000 0.0000 0.0000 0.1751 0.0000 3.2752
#
#
#
# Elastic Compliance Matrix: (Units=1/GPa)
#
#
# Indices 1 2 3 4 5 6 
#
# 1 0.011814 -0.002843 -0.002959 0.000000 -0.002941 0.000000
# 2 -0.002843 0.011171 -0.003749 0.000000 -0.000717 0.000000
# 3 -0.002959 -0.003749 0.021886 0.000000 -0.000599 0.000000
# 4 0.000000 0.000000 0.000000 0.061536 0.000000 -0.003290
# 5 -0.002941 -0.000717 -0.000599 0.000000 0.029192 0.000000
# 6 0.000000 0.000000 0.000000 -0.003290 0.000000 0.305500
#
#
# Mechanical properties :
#
#
# Convention : Reuss Voigt Hill
#
# Bulk Modulus (GPa) = 38.80596 45.37744 42.09170
# Shear Modulus (GPa) = 10.66572 23.26225 16.96399
#
# Velocity S-wave (km/s) = 2.33954 3.45510 2.95052
# Velocity P-wave (km/s) = 5.21655 6.26129 5.76265
#
# Compressibility (1/GPa) = 0.02576924
#
# Stress axis : x y z
#
# Youngs Moduli (GPa) = 84.64356 89.52006 45.69093
#
# Poissons Ratio (x) = 0.25448 0.13520
# Poissons Ratio (y) = 0.24062 0.17131
# Poissons Ratio (z) = 0.25046 0.33563
#
# Static dielectric constant tensor:
#      x y z
#    x 1.799430 0.000000 -0.016180 
#    y 0.000000 1.623480 0.000000 
#    z -0.016180 0.000000 1.751500 
# 
# From -- ./inp_files/34486.got.cif
#   From: 2010.05.17/outbox.cif.g08.bks.cpg/sg10_18_cif.got.tgz:34486.got - 2010.06.03 11:33:40.
