data_PCOD9142371
_publ_section_title
;
Structure prediction by ZEFSAII (Michael W. Deem and Ramdas Pophale) SiO2 
 PCOD9142371
Probable space group: P 2/M
;
_chemical_formula_sum "Si O2"
_cell_formula_units_Z 32
_cell_length_a 14.568276
_cell_length_b 7.912193
_cell_length_c 15.481108
_cell_angle_alpha 90.000000
_cell_angle_beta 88.697477
_cell_angle_gamma 90.000000
_cell_volume 1783.999964
_symmetry_space_group_name_H-M "P 2/M"
_symmetry_group_IT_number 10
_symmetry_cell_setting 'monoclinic'
loop_
_space_group_symop_operation_xyz
x,y,z
-x,y,-z
-x,-y,-z
x,-y,z
loop_
_atom_site_type_symbol
_atom_site_label
_atom_site_fract_x
_atom_site_fract_y
_atom_site_fract_z
Si Si1 0.306291 0.793499 0.519745
Si Si2 0.994317 0.301200 0.599270
Si Si3 0.469347 0.805992 0.621074
Si Si4 0.482813 0.204421 0.903096
Si Si5 0.208014 0.795750 0.345674
Si Si6 0.382015 0.207178 0.251862
Si Si7 0.821132 0.800549 0.319590
Si Si8 0.659562 0.693919 0.226187
O O1 0.408362 0.734446 0.543899
O O2 0.263093 0.743242 0.430590
O O3 0.235855 0.737323 0.595554
O O4 0.309428 0.000000 0.520611
O O5 0.010744 0.500000 0.591862
O O6 0.073674 0.232430 0.659966
O O7 0.000000 0.230349 0.500000
O O8 0.894542 0.270239 0.642087
O O9 0.558335 0.732169 0.666396
O O10 0.395241 0.804439 0.701698
O O11 0.492722 0.000000 0.599202
O O12 0.563126 0.260139 0.834827
O O13 0.386447 0.262466 0.863876
O O14 0.482869 0.000000 0.903292
O O15 0.500000 0.263368 0.000000
O O16 0.276069 0.743799 0.266568
O O17 0.202060 0.000000 0.345360
O O18 0.385131 0.000000 0.253793
O O19 0.767523 0.723032 0.239135
O O20 0.808471 0.000000 0.313239
O O21 0.638495 0.500000 0.247028
#
# Coordination Sequence:
#
# PCOD9142371 Si02
#       8
#     4   4   4   4   4   4   4   4
#     4   8  14  23  40  63  84 115 156 196 230 265
#     4  11  22  33  45  65  92 125 165 208 247 281
#     4   8  14  27  42  60  88 124 162 193 225 270
#     4   9  17  32  53  75 100 129 159 191 230 281
#     4  10  18  29  44  64  90 123 163 203 241 278
#     4   8  15  27  45  68  93 120 157 200 234 273
#     4  10  18  31  49  67  90 123 165 204 240 279
#     4  10  18  28  45  72 101 125 153 192 240 286
#
# _framework density 17.93722
#
# number of rings (size 3 to 8) (size 9 to 14) (size 15 to 20)
#    0.000    2.750    1.250    3.375    0.000    1.250 
#    0.000    5.000    0.000    0.000    0.000    8.750 
#    0.000    7.000    0.000    0.000    0.000    0.000 
#
# Total GULP energy -178289.503595 kJ/mol
# GULP energy per Si atom -5571.546987 kJ/mol
# Density = 1.789639 g / cm^3
# Si number density = 17.937220 Si / 1000 Ang^3
#
#
#
# Elastic Constant Matrix: (Units=GPa)
#
#
# Indices 1 2 3 4 5 6 
#
# 1 131.8219 3.6743 52.6080 0.0000 15.8202 0.0000
# 2 3.6743 33.6203 13.0257 0.0000 2.4621 0.0000
# 3 52.6080 13.0257 94.1339 0.0000 17.6551 0.0000
# 4 0.0000 0.0000 0.0000 6.0135 0.0000 0.2542
# 5 15.8202 2.4621 17.6551 0.0000 20.0775 0.0000
# 6 0.0000 0.0000 0.0000 0.2542 0.0000 -10.8285
#
#
#
# Elastic Compliance Matrix: (Units=1/GPa)
#
#
# Indices 1 2 3 4 5 6 
#
# 1 0.010010 0.001136 -0.005085 0.000000 -0.003556 0.000000
# 2 0.001136 0.031558 -0.004919 0.000000 -0.000439 0.000000
# 3 -0.005085 -0.004919 0.015904 0.000000 -0.009375 0.000000
# 4 0.000000 0.000000 0.000000 0.166128 0.000000 0.003899
# 5 -0.003556 -0.000439 -0.009375 0.000000 0.060907 0.000000
# 6 0.000000 0.000000 0.000000 0.003899 0.000000 -0.092257
#
#
# Mechanical properties :
#
#
# Convention : Reuss Voigt Hill
#
# Bulk Modulus (GPa) = 25.16577 44.24357 34.70467
# Shear Modulus (GPa) = 22.39834 15.73703 19.06769
#
# Velocity S-wave (km/s) = 3.53754 2.96521 3.26394
# Velocity P-wave (km/s) = 5.54490 6.03677 5.79606
#
# Compressibility (1/GPa) = 0.03973651
#
# Stress axis : x y z
#
# Youngs Moduli (GPa) = 99.89723 31.68781 62.87746
#
# Poissons Ratio (x) = -0.03601 0.31972
# Poissons Ratio (y) = -0.11353 0.30932
# Poissons Ratio (z) = 0.50795 0.15589
#
# Static dielectric constant tensor:
#      x y z
#    x 1.653080 0.000000 0.006890 
#    y 0.000000 1.652380 0.000000 
#    z 0.006890 0.000000 1.626230 
# 
# From -- ./inp_files/66111.got.cif
#   From: 2010.05.17/outbox.cif.g08.bks.cpg/sg10_34_cif.got.tgz:66111.got - 2010.06.03 11:33:40.
