data_PCOD9142647
_publ_section_title
;
Structure prediction by ZEFSAII (Michael W. Deem and Ramdas Pophale) SiO2 
 PCOD9142647
Probable space group: P 2/M
;
_chemical_formula_sum "Si O2"
_cell_formula_units_Z 24
_cell_length_a 25.197618
_cell_length_b 8.264892
_cell_length_c 18.989442
_cell_angle_alpha 90.000000
_cell_angle_beta 19.128114
_cell_angle_gamma 90.000000
_cell_volume 1295.868207
_symmetry_space_group_name_H-M "P 2/M"
_symmetry_group_IT_number 10
_symmetry_cell_setting 'monoclinic'
loop_
_space_group_symop_operation_xyz
x,y,z
-x,y,-z
-x,-y,-z
x,-y,z
loop_
_atom_site_type_symbol
_atom_site_label
_atom_site_fract_x
_atom_site_fract_y
_atom_site_fract_z
Si Si1 0.489394 0.802350 0.433064
Si Si2 0.165632 0.804391 0.755269
Si Si3 0.173133 0.308594 0.254966
Si Si4 0.641522 0.311458 0.607941
Si Si5 0.497695 0.808287 0.922700
Si Si6 0.323357 0.811502 0.931848
O O1 0.500000 0.747318 0.500000
O O2 0.319127 0.755176 0.610961
O O3 0.635330 0.749923 0.198311
O O4 0.493385 0.000000 0.427871
O O5 0.199395 0.734408 0.635292
O O6 0.164964 0.000000 0.751164
O O7 0.000000 0.753113 0.000000
O O8 0.185694 0.500000 0.251849
O O9 0.000000 0.250843 0.500000
O O10 0.321659 0.226133 0.109730
O O11 0.199269 0.276453 0.139111
O O12 0.603966 0.500000 0.644472
O O13 0.628605 0.272474 0.706519
O O14 0.497275 0.207578 0.753064
O O15 0.527174 0.000000 0.885797
O O16 0.500000 0.748633 0.000000
O O17 0.279933 0.000000 0.983170
#
# Coordination Sequence:
#
# PCOD9142647 Si02
#       6
#     4   4   4   4   4   4
#     4   8  14  26  45  68  90 114 148 188 229 271
#     4   9  17  30  48  68  92 122 156 195 234 275
#     4  10  20  33  50  72  99 130 161 195 240 293
#     4  10  18  29  48  70  95 126 158 192 234 290
#     4  10  20  34  53  75  97 124 163 207 245 286
#     4   9  16  28  48  69  91 122 160 197 232 277
#
# _framework density 18.520403000000002
#
# number of rings (size 3 to 8) (size 9 to 14) (size 15 to 20)
#    0.000    2.667    0.000    6.000    0.000    3.000 
#    0.000    1.667    0.000   16.500    0.000    0.000 
#    0.000    0.000    0.000    0.000    0.000    0.000 
#
# Total GULP energy -133712.660672 kJ/mol
# GULP energy per Si atom -5571.360861 kJ/mol
# Density = 1.847825 g / cm^3
# Si number density = 18.520403 Si / 1000 Ang^3
#
#
#
# Elastic Constant Matrix: (Units=GPa)
#
#
# Indices 1 2 3 4 5 6 
#
# 1 106.4047 5.7668 54.6647 0.0000 44.1428 0.0000
# 2 5.7668 20.4185 8.8427 0.0000 3.2052 0.0000
# 3 54.6647 8.8427 140.2775 0.0000 43.5908 0.0000
# 4 0.0000 0.0000 0.0000 27.0724 0.0000 2.5070
# 5 44.1428 3.2052 43.5908 0.0000 33.1858 0.0000
# 6 0.0000 0.0000 0.0000 2.5070 0.0000 -12.4189
#
#
#
# Elastic Compliance Matrix: (Units=1/GPa)
#
#
# Indices 1 2 3 4 5 6 
#
# 1 0.021092 -0.001794 0.000943 0.000000 -0.029122 0.000000
# 2 -0.001794 0.050529 -0.002891 0.000000 0.001304 0.000000
# 3 0.000943 -0.002891 0.012244 0.000000 -0.017059 0.000000
# 4 0.000000 0.000000 0.000000 0.036260 0.000000 0.007320
# 5 -0.029122 0.001304 -0.017059 0.000000 0.091153 0.000000
# 6 0.000000 0.000000 0.000000 0.007320 0.000000 -0.079045
#
#
# Mechanical properties :
#
#
# Convention : Reuss Voigt Hill
#
# Bulk Modulus (GPa) = 13.09216 45.07212 29.08214
# Shear Modulus (GPa) = 30.27021 22.75629 26.51325
#
# Velocity S-wave (km/s) = 4.04719 3.50911 3.78771
# Velocity P-wave (km/s) = 5.37811 6.38809 5.90473
#
# Compressibility (1/GPa) = 0.07638159
#
# Stress axis : x y z
#
# Youngs Moduli (GPa) = 47.41082 19.79049 81.66960
#
# Poissons Ratio (x) = 0.03551 -0.07704
# Poissons Ratio (y) = 0.08506 0.23613
# Poissons Ratio (z) = -0.04472 0.05722
#
# Static dielectric constant tensor:
#      x y z
#    x 1.656820 0.000000 0.043020 
#    y 0.000000 1.626260 0.000000 
#    z 0.043020 0.000000 1.659110 
# 
# From -- ./inp_files/33507.got.cif
#   From: 2010.05.17/outbox.cif.g08.bks.cpg/sg10_17_cif.got.tgz:33507.got - 2010.06.03 11:33:40.
