data_PCOD9142352
_publ_section_title
;
Structure prediction by ZEFSAII (Michael W. Deem and Ramdas Pophale) SiO2 
 PCOD9142352
Probable space group: P 2/M
;
_chemical_formula_sum "Si O2"
_cell_formula_units_Z 32
_cell_length_a 12.322583
_cell_length_b 7.402089
_cell_length_c 24.726249
_cell_angle_alpha 90.000000
_cell_angle_beta 137.064216
_cell_angle_gamma 90.000000
_cell_volume 1536.296575
_symmetry_space_group_name_H-M "P 2/M"
_symmetry_group_IT_number 10
_symmetry_cell_setting 'monoclinic'
loop_
_space_group_symop_operation_xyz
x,y,z
-x,y,-z
-x,-y,-z
x,-y,z
loop_
_atom_site_type_symbol
_atom_site_label
_atom_site_fract_x
_atom_site_fract_y
_atom_site_fract_z
Si Si1 0.320198 0.720049 0.919202
Si Si2 0.260800 0.781160 0.305927
Si Si3 0.581502 0.207471 0.470139
Si Si4 0.166973 0.279493 0.973222
Si Si5 0.750906 0.716284 0.227647
Si Si6 0.181104 0.711671 0.154234
Si Si7 0.424882 0.720371 0.157025
Si Si8 0.887546 0.784458 0.635816
O O1 0.317878 0.500000 0.917413
O O2 0.206915 0.777720 0.926737
O O3 0.271091 0.783798 0.841973
O O4 0.500000 0.772744 0.000000
O O5 0.442486 0.714750 0.381892
O O6 0.198463 0.727272 0.224839
O O7 0.155270 0.719389 0.318875
O O8 0.263542 0.000000 0.308472
O O9 0.500000 0.204265 0.500000
O O10 0.755282 0.287705 0.545452
O O11 0.603837 0.000000 0.460266
O O12 0.165150 0.500000 0.972899
O O13 0.991667 0.214788 0.925445
O O14 0.308747 0.227860 0.065081
O O15 0.735773 0.500000 0.219477
O O16 0.604051 0.783077 0.210438
O O17 0.929769 0.753539 0.311593
O O18 0.175059 0.500000 0.138096
O O19 0.333420 0.783642 0.177407
O O20 0.432400 0.500000 0.160733
O O21 0.862004 0.000000 0.627932
#
# Coordination Sequence:
#
# PCOD9142352 Si02
#       8
#     4   4   4   4   4   4   4   4
#     4   9  14  22  38  62  88 113 145 184 221 259
#     4   9  17  31  50  70  93 119 145 177 226 280
#     4   7  12  26  48  69  88 115 146 174 214 275
#     4   9  15  25  42  64  88 116 153 193 228 261
#     4  10  18  28  45  68  94 122 153 186 224 269
#     4  10  19  29  45  69  92 116 155 199 227 253
#     4   9  17  29  43  62  91 126 158 189 223 260
#     4   9  17  30  49  72  95 116 143 181 225 274
#
# _framework density 20.829311000000001
#
# number of rings (size 3 to 8) (size 9 to 14) (size 15 to 20)
#    0.000    3.000    1.250    2.625    0.000    3.000 
#    0.000    1.250    0.000    5.625    0.000    5.250 
#    0.000    0.000    0.000    0.000    0.000    0.000 
#
# Total GULP energy -178471.245079 kJ/mol
# GULP energy per Si atom -5577.226409 kJ/mol
# Density = 2.078190 g / cm^3
# Si number density = 20.829311 Si / 1000 Ang^3
#
#
#
# Elastic Constant Matrix: (Units=GPa)
#
#
# Indices 1 2 3 4 5 6 
#
# 1 122.6712 3.6832 50.4756 0.0000 37.5805 0.0000
# 2 3.6832 67.6840 -7.7640 0.0000 3.4207 0.0000
# 3 50.4756 -7.7640 86.0808 0.0000 47.0602 0.0000
# 4 0.0000 0.0000 0.0000 70.0985 0.0000 -47.6804
# 5 37.5805 3.4207 47.0602 0.0000 34.6016 0.0000
# 6 0.0000 0.0000 0.0000 -47.6804 0.0000 44.7818
#
#
#
# Elastic Compliance Matrix: (Units=1/GPa)
#
#
# Indices 1 2 3 4 5 6 
#
# 1 0.012220 0.000079 0.000396 0.000000 -0.013819 0.000000
# 2 0.000079 0.016567 0.009320 0.000000 -0.014399 0.000000
# 3 0.000396 0.009320 0.050551 0.000000 -0.070104 0.000000
# 4 0.000000 0.000000 0.000000 0.051728 0.000000 0.055076
# 5 -0.013819 -0.014399 -0.070104 0.000000 0.140679 0.000000
# 6 0.000000 0.000000 0.000000 0.055076 0.000000 0.080971
#
#
# Mechanical properties :
#
#
# Convention : Reuss Voigt Hill
#
# Bulk Modulus (GPa) = 10.10827 41.02508 25.56667
# Shear Modulus (GPa) = 13.65742 45.23245 29.44493
#
# Velocity S-wave (km/s) = 2.56341 4.66507 3.76391
# Velocity P-wave (km/s) = 3.69119 6.98254 5.58483
#
# Compressibility (1/GPa) = 0.09892893
#
# Stress axis : x y z
#
# Youngs Moduli (GPa) = 81.83445 60.36068 19.78196
#
# Poissons Ratio (x) = -0.00476 -0.00784
# Poissons Ratio (y) = -0.00646 -0.18437
# Poissons Ratio (z) = -0.03245 -0.56257
#
# Static dielectric constant tensor:
#      x y z
#    x 1.745170 0.000000 0.032360 
#    y 0.000000 1.826690 0.000000 
#    z 0.032360 0.000000 1.749130 
# 
# From -- ./inp_files/88814.got.cif
#   From: 2010.05.17/outbox.cif.g08.bks.cpg/sg10_45_cif.got.tgz:88814.got - 2010.06.03 11:33:40.
