data_PCOD9142703
_publ_section_title
;
Structure prediction by ZEFSAII (Michael W. Deem and Ramdas Pophale) SiO2 
 PCOD9142703
Probable space group: P 2/M
;
_chemical_formula_sum "Si O2"
_cell_formula_units_Z 16
_cell_length_a 7.889874
_cell_length_b 11.291682
_cell_length_c 7.418857
_cell_angle_alpha 90.000000
_cell_angle_beta 105.253018
_cell_angle_gamma 90.000000
_cell_volume 637.662765
_symmetry_space_group_name_H-M "P 2/M"
_symmetry_group_IT_number 10
_symmetry_cell_setting 'monoclinic'
loop_
_space_group_symop_operation_xyz
x,y,z
-x,y,-z
-x,-y,-z
x,-y,z
loop_
_atom_site_type_symbol
_atom_site_label
_atom_site_fract_x
_atom_site_fract_y
_atom_site_fract_z
Si Si1 0.500000 0.192033 0.500000
Si Si2 0.000000 0.309941 0.500000
Si Si3 0.806185 0.255166 0.805237
Si Si4 0.641641 0.000000 0.306671
Si Si5 0.291230 0.500000 0.620583
Si Si6 0.310202 0.500000 0.186528
Si Si7 0.242523 0.000000 0.041947
O O1 0.605457 0.261048 0.676172
O O2 0.641875 0.111165 0.437761
O O3 0.067573 0.251925 0.333287
O O4 0.166330 0.387251 0.615153
O O5 0.798681 0.381932 0.904490
O O6 0.821532 0.128392 0.907322
O O7 0.445348 0.000000 0.167150
O O8 0.770571 0.000000 0.177250
O O9 0.304967 0.500000 0.405376
O O10 0.476006 0.500000 0.779148
#
# Coordination Sequence:
#
# PCOD9142703 Si02
#       7
#     2   2   4   2   2   2   2
#     4   9  16  29  54  76  92 124 172 214 248 294
#     4   9  16  25  42  72 108 136 170 206 250 298
#     4  10  18  29  49  77 105 136 169 209 251 300
#     4   8  16  32  51  72  98 132 170 210 253 297
#     4   8  14  26  44  68 101 139 170 215 254 288
#     4   9  16  28  48  75 103 127 172 218 254 294
#     4   9  18  31  49  73 106 136 164 207 257 300
#
# _framework density 25.091633999999999
#
# number of rings (size 3 to 8) (size 9 to 14) (size 15 to 20)
#    0.000    3.000    0.000    4.500    0.000    0.500 
#    0.000    0.000    0.000   18.000    0.000    0.000 
#    0.000   64.000    0.000    0.000    0.000    2.000 
#
# Total GULP energy -89191.453517 kJ/mol
# GULP energy per Si atom -5574.465845 kJ/mol
# Density = 2.503452 g / cm^3
# Si number density = 25.091634 Si / 1000 Ang^3
#
#
#
# Elastic Constant Matrix: (Units=GPa)
#
#
# Indices 1 2 3 4 5 6 
#
# 1 116.5252 47.3023 24.5480 0.0000 -0.9629 0.0000
# 2 47.3023 215.0661 65.3869 0.0000 -34.0127 0.0000
# 3 24.5480 65.3869 87.0073 0.0000 -24.8953 0.0000
# 4 0.0000 0.0000 0.0000 1936.4108 0.0000-1674.0763
# 5 -0.9629 -34.0127 -24.8953 0.0000 46.0929 0.0000
# 6 0.0000 0.0000 0.0000-1674.0763 0.0000 1566.2981
#
#
#
# Elastic Compliance Matrix: (Units=1/GPa)
#
#
# Indices 1 2 3 4 5 6 
#
# 1 0.009751 -0.001904 -0.001968 0.000000 -0.002264 0.000000
# 2 -0.001904 0.006625 -0.003612 0.000000 0.002898 0.000000
# 3 -0.001968 -0.003612 0.016546 0.000000 0.006230 0.000000
# 4 0.000000 0.000000 0.000000 0.006796 0.000000 0.007264
# 5 -0.002264 0.002898 0.006230 0.000000 0.027151 0.000000
# 6 0.000000 0.000000 0.000000 0.007264 0.000000 0.008402
#
#
# Mechanical properties :
#
#
# Convention : Reuss Voigt Hill
#
# Bulk Modulus (GPa) = 55.70267 77.00812 66.35540
# Shear Modulus (GPa) = 51.96167 728.51779 390.23973
#
# Velocity S-wave (km/s) = 4.55563 17.05794 12.48453
# Velocity P-wave (km/s) = 7.06537 20.46269 15.30753
#
# Compressibility (1/GPa) = 0.01795246
#
# Stress axis : x y z
#
# Youngs Moduli (GPa) = 102.55602 150.93868 60.43857
#
# Poissons Ratio (x) = 0.28746 0.11893
# Poissons Ratio (y) = 0.19532 0.21833
# Poissons Ratio (z) = 0.20180 0.54525
#
# Static dielectric constant tensor:
#      x y z
#    x 1.994530 0.000000 -0.026540 
#    y 0.000000 2.068250 0.000000 
#    z -0.026540 0.000000 1.974160 
# 
# From -- ./inp_files/16908.got.cif
#   From: 2010.05.17/outbox.cif.g08.bks.cpg/sg10_9_cif.got.tgz:16908.got - 2010.06.03 11:33:40.
