data_PCOD9142491
_publ_section_title
;
Structure prediction by ZEFSAII (Michael W. Deem and Ramdas Pophale) SiO2 
 PCOD9142491
Probable space group: P 2/M
;
_chemical_formula_sum "Si O2"
_cell_formula_units_Z 28
_cell_length_a 22.802326
_cell_length_b 8.678530
_cell_length_c 14.098878
_cell_angle_alpha 90.000000
_cell_angle_beta 140.843166
_cell_angle_gamma 90.000000
_cell_volume 1761.755351
_symmetry_space_group_name_H-M "P 2/M"
_symmetry_group_IT_number 10
_symmetry_cell_setting 'monoclinic'
loop_
_space_group_symop_operation_xyz
x,y,z
-x,y,-z
-x,-y,-z
x,-y,z
loop_
_atom_site_type_symbol
_atom_site_label
_atom_site_fract_x
_atom_site_fract_y
_atom_site_fract_z
Si Si1 0.468252 0.185987 0.856542
Si Si2 0.380487 0.681863 0.469201
Si Si3 0.101686 0.182635 0.024435
Si Si4 0.428124 0.316190 0.193699
Si Si5 0.902681 0.317482 0.770882
Si Si6 0.281593 0.818121 0.523872
Si Si7 0.276574 0.315191 0.144017
O O1 0.537025 0.241750 0.859884
O O2 0.363315 0.235359 0.697368
O O3 0.468070 0.000000 0.855219
O O4 0.500000 0.238924 0.000000
O O5 0.362015 0.500000 0.466683
O O6 0.488784 0.708606 0.625927
O O7 0.324944 0.783908 0.474746
O O8 0.344747 0.711699 0.319235
O O9 0.118528 0.264809 0.147283
O O10 0.180431 0.234716 0.049859
O O11 0.104220 0.000000 0.042435
O O12 0.998856 0.234863 0.864892
O O13 0.421736 0.500000 0.171625
O O14 0.331973 0.262664 0.120024
O O15 0.915415 0.500000 0.786000
O O16 0.816283 0.268093 0.597801
O O17 0.266524 0.000000 0.516904
O O18 0.262035 0.500000 0.119840
#
# Coordination Sequence:
#
# PCOD9142491 Si02
#       7
#     4   4   4   4   4   4   4
#     4   9  19  35  52  71  97 126 155 194 244 289
#     4   9  16  27  43  63  92 128 160 189 226 274
#     4  11  21  31  45  66  94 127 165 201 230 268
#     4   9  18  30  46  69  94 124 161 196 231 277
#     4  11  20  32  47  65  92 127 163 197 238 279
#     4  10  18  29  47  70  95 123 159 199 235 278
#     4  10  18  29  44  65  96 131 161 191 231 277
#
# _framework density 15.89324
#
# number of rings (size 3 to 8) (size 9 to 14) (size 15 to 20)
#    0.000    2.143    1.429    4.286    0.000    3.143 
#    0.000    0.000    0.000    4.286    0.000    1.000 
#    0.000    8.000    0.000    0.000    0.000    0.000 
#
# Total GULP energy -156141.732660 kJ/mol
# GULP energy per Si atom -5576.490452 kJ/mol
# Density = 1.585707 g / cm^3
# Si number density = 15.893240 Si / 1000 Ang^3
#
#
#
# Elastic Constant Matrix: (Units=GPa)
#
#
# Indices 1 2 3 4 5 6 
#
# 1 88.6023 14.5828 47.2407 0.0000 14.9492 0.0000
# 2 14.5828 31.1495 12.9023 0.0000 1.7085 0.0000
# 3 47.2407 12.9023 75.5535 0.0000 3.6489 0.0000
# 4 0.0000 0.0000 0.0000 17.3167 0.0000 5.7632
# 5 14.9492 1.7085 3.6489 0.0000 16.7741 0.0000
# 6 0.0000 0.0000 0.0000 5.7632 0.0000 27.7040
#
#
#
# Elastic Compliance Matrix: (Units=1/GPa)
#
#
# Indices 1 2 3 4 5 6 
#
# 1 0.020714 -0.004080 -0.011504 0.000000 -0.015543 0.000000
# 2 -0.004080 0.035435 -0.003539 0.000000 0.000797 0.000000
# 3 -0.011504 -0.003539 0.020739 0.000000 0.006102 0.000000
# 4 0.000000 0.000000 0.000000 0.062043 0.000000 -0.012907
# 5 -0.015543 0.000797 0.006102 0.000000 0.072059 0.000000
# 6 0.000000 0.000000 0.000000 -0.012907 0.000000 0.038781
#
#
# Mechanical properties :
#
#
# Convention : Reuss Voigt Hill
#
# Bulk Modulus (GPa) = 25.87862 38.30633 32.09247
# Shear Modulus (GPa) = 16.61695 20.39759 18.50727
#
# Velocity S-wave (km/s) = 3.23698 3.58636 3.41614
# Velocity P-wave (km/s) = 5.50353 6.42681 5.98301
#
# Compressibility (1/GPa) = 0.03864193
#
# Stress axis : x y z
#
# Youngs Moduli (GPa) = 48.27621 28.22046 48.21936
#
# Poissons Ratio (x) = 0.11513 0.55474
# Poissons Ratio (y) = 0.19696 0.17064
# Poissons Ratio (z) = 0.55539 0.09987
#
# Static dielectric constant tensor:
#      x y z
#    x 1.531050 0.000000 0.025480 
#    y 0.000000 1.535790 0.000000 
#    z 0.025480 0.000000 1.537350 
# 
# From -- ./inp_files/54954.got.cif
#   From: 2010.05.17/outbox.cif.g08.bks.cpg/sg10_28_cif.got.tgz:54954.got - 2010.06.03 11:33:40.
