data_PCOD9142478
_publ_section_title
;
Structure prediction by ZEFSAII (Michael W. Deem and Ramdas Pophale) SiO2 
 PCOD9142478
Probable space group: P 2/M
;
_chemical_formula_sum "Si O2"
_cell_formula_units_Z 32
_cell_length_a 14.119344
_cell_length_b 8.953604
_cell_length_c 24.519344
_cell_angle_alpha 90.000000
_cell_angle_beta 136.212088
_cell_angle_gamma 90.000000
_cell_volume 2144.971975
_symmetry_space_group_name_H-M "P 2/M"
_symmetry_group_IT_number 10
_symmetry_cell_setting 'monoclinic'
loop_
_space_group_symop_operation_xyz
x,y,z
-x,y,-z
-x,-y,-z
x,-y,z
loop_
_atom_site_type_symbol
_atom_site_label
_atom_site_fract_x
_atom_site_fract_y
_atom_site_fract_z
Si Si1 0.506015 0.324891 0.096646
Si Si2 0.221299 0.177182 0.830046
Si Si3 0.801927 0.325310 0.070294
Si Si4 0.112671 0.177070 0.666204
Si Si5 0.323932 0.320304 0.668324
Si Si6 0.142467 0.320547 0.029536
Si Si7 0.425030 0.822223 0.176143
Si Si8 0.106171 0.328136 0.493149
O O1 0.526134 0.500000 0.118246
O O2 0.634866 0.261835 0.118169
O O3 0.486963 0.230938 0.143837
O O4 0.362615 0.312480 0.005407
O O5 0.156298 0.233085 0.859384
O O6 0.136246 0.210087 0.739668
O O7 0.244851 0.000000 0.842147
O O8 0.834242 0.500000 0.091786
O O9 0.860471 0.277221 0.035744
O O10 0.227513 0.259756 0.677334
O O11 0.965869 0.229820 0.582674
O O12 0.129341 0.000000 0.664866
O O13 0.327798 0.500000 0.673235
O O14 0.473387 0.251001 0.737757
O O15 0.247606 0.279194 0.580056
O O16 0.167458 0.500000 0.040920
O O17 0.271052 0.240986 0.111369
O O18 0.000000 0.289389 0.000000
O O19 0.426304 0.000000 0.180592
O O20 0.117599 0.500000 0.479532
O O21 0.000000 0.326905 0.500000
#
# Coordination Sequence:
#
# PCOD9142478 Si02
#       8
#     4   4   4   4   4   4   4   4
#     4  10  19  31  45  60  84 119 155 189 222 259
#     4  11  21  29  40  62  91 121 152 186 221 260
#     4   9  19  32  46  65  84 111 150 184 221 266
#     4  10  19  28  39  59  87 120 155 188 225 262
#     4  10  18  29  44  61  85 118 155 190 222 261
#     4   9  19  37  56  70  88 115 147 185 229 274
#     4  11  20  29  45  70  94 117 149 186 227 271
#     4   8  16  28  41  58  80 113 155 190 222 260
#
# _framework density 14.918609999999999
#
# number of rings (size 3 to 8) (size 9 to 14) (size 15 to 20)
#    0.000    2.250    1.250    4.500    0.000    8.500 
#    0.000    0.000    0.000    0.000    0.000    0.000 
#    0.000    1.000    0.000   11.250    0.000    5.625 
#
# Total GULP energy -178394.058821 kJ/mol
# GULP energy per Si atom -5574.814338 kJ/mol
# Density = 1.488465 g / cm^3
# Si number density = 14.918610 Si / 1000 Ang^3
#
#
#
# Elastic Constant Matrix: (Units=GPa)
#
#
# Indices 1 2 3 4 5 6 
#
# 1 63.1849 34.9556 54.5613 0.0000 -0.3213 0.0000
# 2 34.9556 67.7877 53.5382 0.0000 -3.2254 0.0000
# 3 54.5613 53.5382 92.0777 0.0000 -3.4947 0.0000
# 4 0.0000 0.0000 0.0000 23.4632 0.0000 -7.1378
# 5 -0.3213 -3.2254 -3.4947 0.0000 13.7088 0.0000
# 6 0.0000 0.0000 0.0000 -7.1378 0.0000 20.9084
#
#
#
# Elastic Compliance Matrix: (Units=1/GPa)
#
#
# Indices 1 2 3 4 5 6 
#
# 1 0.032987 -0.003055 -0.017942 0.000000 -0.004519 0.000000
# 2 -0.003055 0.027640 -0.014154 0.000000 0.002823 0.000000
# 3 -0.017942 -0.014154 0.029868 0.000000 0.003864 0.000000
# 4 0.000000 0.000000 0.000000 0.047559 0.000000 0.016236
# 5 -0.004519 0.002823 0.003864 0.000000 0.074489 0.000000
# 6 0.000000 0.000000 0.000000 0.016236 0.000000 0.053370
#
#
# Mechanical properties :
#
#
# Convention : Reuss Voigt Hill
#
# Bulk Modulus (GPa) = 49.51946 56.57337 53.04641
# Shear Modulus (GPa) = 14.57953 16.94910 15.76432
#
# Velocity S-wave (km/s) = 3.12953 3.37427 3.25420
# Velocity P-wave (km/s) = 6.80615 7.29278 7.05366
#
# Compressibility (1/GPa) = 0.02019408
#
# Stress axis : x y z
#
# Youngs Moduli (GPa) = 30.31526 36.17917 33.48017
#
# Poissons Ratio (x) = 0.11052 0.60070
# Poissons Ratio (y) = 0.09260 0.47388
# Poissons Ratio (z) = 0.54391 0.51208
#
# Static dielectric constant tensor:
#      x y z
#    x 1.468880 0.000000 -0.008690 
#    y 0.000000 1.497850 0.000000 
#    z -0.008690 0.000000 1.526760 
# 
# From -- ./inp_files/92965.got.cif
#   From: 2010.05.17/outbox.cif.g08.bks.cpg/sg10_47_cif.got.tgz:92965.got - 2010.06.03 11:33:40.
