data_PCOD9142820
_publ_section_title
;
Structure prediction by ZEFSAII (Michael W. Deem and Ramdas Pophale) SiO2 
 PCOD9142820
Probable space group: P 2/M
;
_chemical_formula_sum "Si O2"
_cell_formula_units_Z 32
_cell_length_a 26.546577
_cell_length_b 7.338072
_cell_length_c 21.544351
_cell_angle_alpha 90.000000
_cell_angle_beta 20.424321
_cell_angle_gamma 90.000000
_cell_volume 1464.575794
_symmetry_space_group_name_H-M "P 2/M"
_symmetry_group_IT_number 10
_symmetry_cell_setting 'monoclinic'
loop_
_space_group_symop_operation_xyz
x,y,z
-x,y,-z
-x,-y,-z
x,-y,z
loop_
_atom_site_type_symbol
_atom_site_label
_atom_site_fract_x
_atom_site_fract_y
_atom_site_fract_z
Si Si1 0.992522 0.722133 0.079292
Si Si2 0.828374 0.721745 0.014157
Si Si3 0.632434 0.777488 0.890707
Si Si4 0.103994 0.280356 0.612399
Si Si5 0.256293 0.780004 0.109220
Si Si6 0.931143 0.207351 0.488953
Si Si7 0.719201 0.722411 0.477749
Si Si8 0.405851 0.286829 0.806102
O O1 0.993428 0.500000 0.077316
O O2 0.124265 0.779506 0.971890
O O3 0.000000 0.784428 0.000000
O O4 0.845645 0.775844 0.284200
O O5 0.824036 0.500000 0.020023
O O6 0.683518 0.788599 0.148770
O O7 0.959508 0.770317 0.816630
O O8 0.636485 0.725549 0.958719
O O9 0.787858 0.713708 0.685455
O O10 0.630357 0.000000 0.890660
O O11 0.500000 0.716656 0.000000
O O12 0.105847 0.500000 0.605009
O O13 0.100222 0.205478 0.548126
O O14 0.234529 0.222614 0.506292
O O15 0.092011 0.713974 0.311264
O O16 0.250076 0.000000 0.115721
O O17 0.311655 0.724287 0.977679
O O18 0.939770 0.000000 0.502254
O O19 0.718607 0.500000 0.479163
O O20 0.563238 0.790067 0.638022
O O21 0.427800 0.500000 0.767308
#
# Coordination Sequence:
#
# PCOD9142820 Si02
#       8
#     4   4   4   4   4   4   4   4
#     4   8  13  24  42  64  93 128 159 185 220 268
#     4   8  14  25  42  63  89 122 153 180 219 271
#     4   9  19  34  49  65  89 121 151 187 237 285
#     4   9  16  29  46  65  90 122 152 180 224 278
#     4  10  20  33  49  69  92 119 154 192 231 274
#     4  10  19  31  49  70  90 114 151 192 232 274
#     4   8  16  27  42  65  94 125 153 185 228 271
#     4  10  18  30  47  68  96 125 153 187 232 277
#
# _framework density 21.849329000000001
#
# number of rings (size 3 to 8) (size 9 to 14) (size 15 to 20)
#    0.000    3.000    1.250    1.875    1.750    1.500 
#    0.000    1.250    0.000    6.000    0.000    0.000 
#    0.000   19.000    0.000    0.000    0.000    0.000 
#
# Total GULP energy -178598.040792 kJ/mol
# GULP energy per Si atom -5581.188775 kJ/mol
# Density = 2.179960 g / cm^3
# Si number density = 21.849329 Si / 1000 Ang^3
#
#
#
# Elastic Constant Matrix: (Units=GPa)
#
#
# Indices 1 2 3 4 5 6 
#
# 1 217.0231 2.3017 67.6653 0.0000 -24.7654 0.0000
# 2 2.3017 83.4330 -0.9464 0.0000 -5.2868 0.0000
# 3 67.6653 -0.9464 66.9996 0.0000 -31.0211 0.0000
# 4 0.0000 0.0000 0.0000 -0.8775 0.0000 6.1939
# 5 -24.7654 -5.2868 -31.0211 0.0000 43.5483 0.0000
# 6 0.0000 0.0000 0.0000 6.1939 0.0000 5.3721
#
#
#
# Elastic Compliance Matrix: (Units=1/GPa)
#
#
# Indices 1 2 3 4 5 6 
#
# 1 0.006805 -0.000376 -0.007620 0.000000 -0.001604 0.000000
# 2 -0.000376 0.012172 0.001696 0.000000 0.002472 0.000000
# 3 -0.007620 0.001696 0.030938 0.000000 0.017911 0.000000
# 4 0.000000 0.000000 0.000000 -0.124707 0.000000 0.143784
# 5 -0.001604 0.002472 0.017911 0.000000 0.035109 0.000000
# 6 0.000000 0.000000 0.000000 0.143784 0.000000 0.020369
#
#
# Mechanical properties :
#
#
# Convention : Reuss Voigt Hill
#
# Bulk Modulus (GPa) = 26.79907 56.16632 41.48270
# Shear Modulus (GPa) = 873.40522 29.50426 451.45474
#
# Velocity S-wave (km/s) = 20.01519 3.67870 14.38994
# Velocity P-wave (km/s) = 23.37597 6.61859 17.17908
#
# Compressibility (1/GPa) = 0.03731472
#
# Stress axis : x y z
#
# Youngs Moduli (GPa) = 146.95825 82.15631 32.32258
#
# Poissons Ratio (x) = 0.03088 0.24631
# Poissons Ratio (y) = 0.05523 -0.05482
# Poissons Ratio (z) = 1.11986 -0.13934
#
# Static dielectric constant tensor:
#      x y z
#    x 1.793490 0.000000 -0.034190 
#    y 0.000000 1.846000 0.000000 
#    z -0.034190 0.000000 1.761120 
# 
# From -- ./inp_files/32188.got.cif
#   From: 2010.05.17/outbox.cif.g08.bks.cpg/sg10_17_cif.got.tgz:32188.got - 2010.06.03 11:33:40.
