data_PCOD9142181
_publ_section_title
;
Structure prediction by ZEFSAII (Michael W. Deem and Ramdas Pophale) SiO2 
 PCOD9142181
Probable space group: P 2/M
;
_chemical_formula_sum "Si O2"
_cell_formula_units_Z 24
_cell_length_a 12.529950
_cell_length_b 7.550698
_cell_length_c 22.029596
_cell_angle_alpha 90.000000
_cell_angle_beta 38.769534
_cell_angle_gamma 90.000000
_cell_volume 1305.114546
_symmetry_space_group_name_H-M "P 2/M"
_symmetry_group_IT_number 10
_symmetry_cell_setting 'monoclinic'
loop_
_space_group_symop_operation_xyz
x,y,z
-x,y,-z
-x,-y,-z
x,-y,z
loop_
_atom_site_type_symbol
_atom_site_label
_atom_site_fract_x
_atom_site_fract_y
_atom_site_fract_z
Si Si1 0.154014 0.213911 0.012451
Si Si2 0.414783 0.204239 0.349672
Si Si3 0.776057 0.783288 0.156666
Si Si4 0.523275 0.707198 0.056655
Si Si5 0.701405 0.707927 0.733347
Si Si6 0.060536 0.785800 0.540353
O O1 0.218813 0.269503 0.916633
O O2 0.283748 0.279042 0.005408
O O3 0.156750 0.000000 0.012070
O O4 0.957011 0.270052 0.104747
O O5 0.604246 0.282387 0.264780
O O6 0.354560 0.206076 0.305651
O O7 0.255287 0.279488 0.458503
O O8 0.431988 0.000000 0.361121
O O9 0.771732 0.000000 0.158643
O O10 0.475217 0.500000 0.073932
O O11 0.404622 0.781930 0.163024
O O12 0.500000 0.784643 0.000000
O O13 0.662892 0.500000 0.743343
O O14 0.904766 0.728795 0.651682
O O15 0.000000 0.728569 0.500000
O O16 0.064778 0.000000 0.539217
#
# Coordination Sequence:
#
# PCOD9142181 Si02
#       6
#     4   4   4   4   4   4
#     4   9  16  28  46  66  85 110 144 177 210 252
#     4   9  15  26  43  62  87 116 137 159 205 264
#     4   8  14  25  44  67  90 112 134 169 215 258
#     4  10  21  34  44  58  85 119 150 180 217 252
#     4  10  18  27  40  58  82 112 143 179 213 242
#     4   8  15  25  39  59  83 112 139 164 204 257
#
# _framework density 18.389192999999999
#
# number of rings (size 3 to 8) (size 9 to 14) (size 15 to 20)
#    0.000    3.000    1.667    2.500    0.000    4.000 
#    0.000    2.500    0.000    0.000    0.000    1.167 
#    0.000    9.333    0.000    0.000    0.000    0.000 
#
# Total GULP energy -133639.126013 kJ/mol
# GULP energy per Si atom -5568.296917 kJ/mol
# Density = 1.834734 g / cm^3
# Si number density = 18.389193 Si / 1000 Ang^3
#
#
#
# Elastic Constant Matrix: (Units=GPa)
#
#
# Indices 1 2 3 4 5 6 
#
# 1 77.0104 -10.1027 48.5041 0.0000 -14.3510 0.0000
# 2 -10.1027 43.4434 -6.9569 0.0000 1.4712 0.0000
# 3 48.5041 -6.9569 100.2098 0.0000 -37.3428 0.0000
# 4 0.0000 0.0000 0.0000 14.3866 0.0000 -14.7042
# 5 -14.3510 1.4712 -37.3428 0.0000 30.7150 0.0000
# 6 0.0000 0.0000 0.0000 -14.7042 0.0000 44.1510
#
#
#
# Elastic Compliance Matrix: (Units=1/GPa)
#
#
# Indices 1 2 3 4 5 6 
#
# 1 0.019332 0.002924 -0.010679 0.000000 -0.004090 0.000000
# 2 0.002924 0.023760 0.000584 0.000000 0.000938 0.000000
# 3 -0.010679 0.000584 0.024351 0.000000 0.024588 0.000000
# 4 0.000000 0.000000 0.000000 0.105380 0.000000 0.035096
# 5 -0.004090 0.000938 0.024588 0.000000 0.060495 0.000000
# 6 0.000000 0.000000 0.000000 0.035096 0.000000 0.034338
#
#
# Mechanical properties :
#
#
# Convention : Reuss Voigt Hill
#
# Bulk Modulus (GPa) = 18.83168 31.50581 25.16874
# Shear Modulus (GPa) = 16.68340 30.46513 23.57427
#
# Velocity S-wave (km/s) = 3.01531 4.07466 3.58434
# Velocity P-wave (km/s) = 4.73135 6.26954 5.55395
#
# Compressibility (1/GPa) = 0.05310201
#
# Stress axis : x y z
#
# Youngs Moduli (GPa) = 51.72660 42.08720 41.06621
#
# Poissons Ratio (x) = -0.12307 0.43853
# Poissons Ratio (y) = -0.15126 -0.02396
# Poissons Ratio (z) = 0.55236 -0.02456
#
# Static dielectric constant tensor:
#      x y z
#    x 1.610000 0.000000 -0.045140 
#    y 0.000000 1.680450 0.000000 
#    z -0.045140 0.000000 1.695400 
# 
# From -- ./inp_files/48884.got.cif
#   From: 2010.05.17/outbox.cif.g08.bks.cpg/sg10_25_cif.got.tgz:48884.got - 2010.06.03 11:33:40.
