data_PCOD9142944
_publ_section_title
;
Structure prediction by ZEFSAII (Michael W. Deem and Ramdas Pophale) SiO2 
 PCOD9142944
Probable space group: P 2/M
;
_chemical_formula_sum "Si O2"
_cell_formula_units_Z 32
_cell_length_a 11.866699
_cell_length_b 13.627915
_cell_length_c 23.253029
_cell_angle_alpha 90.000000
_cell_angle_beta 29.872925
_cell_angle_gamma 90.000000
_cell_volume 1872.993477
_symmetry_space_group_name_H-M "P 2/M"
_symmetry_group_IT_number 10
_symmetry_cell_setting 'monoclinic'
loop_
_space_group_symop_operation_xyz
x,y,z
-x,y,-z
-x,-y,-z
x,-y,z
loop_
_atom_site_type_symbol
_atom_site_label
_atom_site_fract_x
_atom_site_fract_y
_atom_site_fract_z
Si Si1 0.560625 0.614565 0.256846
Si Si2 0.441656 0.384294 0.877103
Si Si3 0.768192 0.885997 0.257115
Si Si4 0.231622 0.888201 0.501333
Si Si5 0.067643 0.612882 0.293778
Si Si6 0.000627 0.739923 0.932484
Si Si7 0.239211 0.220804 0.618370
Si Si8 0.124472 0.311770 0.502820
O O1 0.546791 0.500000 0.274615
O O2 0.498828 0.630133 0.216939
O O3 0.811233 0.654698 0.154262
O O4 0.387678 0.669056 0.374904
O O5 0.375880 0.500000 0.911990
O O6 0.664980 0.367390 0.816205
O O7 0.237393 0.309542 0.979150
O O8 0.496620 0.883311 0.366284
O O9 0.911089 0.826790 0.146853
O O10 0.799096 0.834626 0.305143
O O11 0.833588 0.000000 0.230351
O O12 0.218163 0.854286 0.573974
O O13 0.096158 0.803997 0.527619
O O14 0.154039 0.000000 0.528255
O O15 0.037870 0.500000 0.289016
O O16 0.935844 0.690624 0.312999
O O17 0.961193 0.629085 0.404343
O O18 0.000000 0.770491 0.000000
O O19 0.500000 0.257296 0.500000
O O20 0.000000 0.342966 0.500000
#
# Coordination Sequence:
#
# PCOD9142944 Si02
#       8
#     4   4   4   4   4   4   4   4
#     4  10  18  30  49  76 107 140 175 210 251 310
#     4   9  18  33  52  73 103 144 180 208 247 304
#     4  10  19  35  58  78  99 130 175 223 267 311
#     4   9  18  33  53  77 104 136 176 218 262 312
#     4  10  20  33  51  77 110 144 173 211 262 315
#     4  10  20  34  54  79 108 136 174 216 257 301
#     4   9  19  35  55  78 104 135 174 217 265 313
#     4  11  19  29  49  78 114 142 171 209 262 317
#
# _framework density 17.084949999999999
#
# number of rings (size 3 to 8) (size 9 to 14) (size 15 to 20)
#    0.000    2.250    2.500    1.125    0.000    4.250 
#    0.000    1.875    0.000    6.000    0.000    0.000 
#    0.000    0.000    0.000    0.000    0.000    0.000 
#
# Total GULP energy -178413.953370 kJ/mol
# GULP energy per Si atom -5575.436043 kJ/mol
# Density = 1.704606 g / cm^3
# Si number density = 17.084950 Si / 1000 Ang^3
#
#
#
# Elastic Constant Matrix: (Units=GPa)
#
#
# Indices 1 2 3 4 5 6 
#
# 1 25.4425 15.1503 6.2633 0.0000 -1.9663 0.0000
# 2 15.1503 95.8966 26.3331 0.0000 -5.1811 0.0000
# 3 6.2633 26.3331 63.4914 0.0000 2.6484 0.0000
# 4 0.0000 0.0000 0.0000 21.2268 0.0000 0.5916
# 5 -1.9663 -5.1811 2.6484 0.0000 17.3827 0.0000
# 6 0.0000 0.0000 0.0000 0.5916 0.0000 12.2990
#
#
#
# Elastic Compliance Matrix: (Units=1/GPa)
#
#
# Indices 1 2 3 4 5 6 
#
# 1 0.043726 -0.006209 -0.001879 0.000000 0.003382 0.000000
# 2 -0.006209 0.012975 -0.004932 0.000000 0.003916 0.000000
# 3 -0.001879 -0.004932 0.018167 0.000000 -0.004450 0.000000
# 4 0.000000 0.000000 0.000000 0.047173 0.000000 -0.002269
# 5 0.003382 0.003916 -0.004450 0.000000 0.059756 0.000000
# 6 0.000000 0.000000 0.000000 -0.002269 0.000000 0.081417
#
#
# Mechanical properties :
#
#
# Convention : Reuss Voigt Hill
#
# Bulk Modulus (GPa) = 20.48084 31.14709 25.81396
# Shear Modulus (GPa) = 16.36496 19.32061 17.84279
#
# Velocity S-wave (km/s) = 3.09829 3.36647 3.23516
# Velocity P-wave (km/s) = 4.98125 5.77764 5.39416
#
# Compressibility (1/GPa) = 0.04882613
#
# Stress axis : x y z
#
# Youngs Moduli (GPa) = 22.86977 77.07224 55.04554
#
# Poissons Ratio (x) = 0.47857 0.10344
# Poissons Ratio (y) = 0.14201 0.27149
# Poissons Ratio (z) = 0.04298 0.38013
#
# Static dielectric constant tensor:
#      x y z
#    x 1.580940 0.000000 -0.005060 
#    y 0.000000 1.561090 0.000000 
#    z -0.005060 0.000000 1.571590 
# 
# From -- ./inp_files/46964.got.cif
#   From: 2010.05.17/outbox.cif.g08.bks.cpg/sg10_24_cif.got.tgz:46964.got - 2010.06.03 11:33:40.
