data_PCOD9142125
_publ_section_title
;
Structure prediction by ZEFSAII (Michael W. Deem and Ramdas Pophale) SiO2 
 PCOD9142125
Probable space group: P 2/M
;
_chemical_formula_sum "Si O2"
_cell_formula_units_Z 30
_cell_length_a 7.842572
_cell_length_b 23.450031
_cell_length_c 9.720620
_cell_angle_alpha 90.000000
_cell_angle_beta 48.431362
_cell_angle_gamma 90.000000
_cell_volume 1337.492005
_symmetry_space_group_name_H-M "P 2/M"
_symmetry_group_IT_number 10
_symmetry_cell_setting 'monoclinic'
loop_
_space_group_symop_operation_xyz
x,y,z
-x,y,-z
-x,-y,-z
x,-y,z
loop_
_atom_site_type_symbol
_atom_site_label
_atom_site_fract_x
_atom_site_fract_y
_atom_site_fract_z
Si Si1 0.052246 0.626351 0.786118
Si Si2 0.703127 0.564352 0.101652
Si Si3 0.233691 0.436526 0.452773
Si Si4 0.896537 0.185454 0.761253
Si Si5 0.500000 0.882899 0.500000
Si Si6 0.375639 0.787865 0.372174
Si Si7 0.328841 0.279342 0.964876
Si Si8 0.036559 0.063901 0.646537
O O1 0.210314 0.607603 0.828060
O O2 0.207052 0.615926 0.571543
O O3 0.895301 0.681053 0.897177
O O4 0.856119 0.577254 0.888857
O O5 0.744833 0.500000 0.124189
O O6 0.436776 0.572965 0.237045
O O7 0.275515 0.500000 0.495757
O O8 0.000000 0.439309 0.500000
O O9 0.741512 0.195900 0.709671
O O10 0.775148 0.217445 0.948854
O O11 0.148599 0.211982 0.592208
O O12 0.907348 0.118112 0.777149
O O13 0.527650 0.837986 0.357994
O O14 0.706943 0.922327 0.440463
O O15 0.523852 0.731472 0.253483
O O16 0.500000 0.295050 0.000000
O O17 0.000000 0.068239 0.500000
O O18 0.969740 0.000000 0.722753
#
# Coordination Sequence:
#
# PCOD9142125 Si02
#       8
#     4   4   4   4   2   4   4   4
#     4  11  22  39  61  89 119 157 208 248 301 364
#     4  10  22  42  65  87 123 163 200 251 313 375
#     4  10  22  39  64  93 120 155 196 248 313 374
#     4   9  17  39  61  81 119 167 204 248 320 370
#     4  10  17  34  60  92 120 162 205 252 316 382
#     4   9  18  37  58  85 118 161 209 247 307 379
#     4  10  23  38  62  88 121 165 207 257 307 367
#     4  10  18  32  59  92 124 158 208 263 311 372
#
# _framework density 22.430040000000002
#
# number of rings (size 3 to 8) (size 9 to 14) (size 15 to 20)
#    0.000    2.133    2.667    2.200    1.867    2.133 
#   12.000    2.000    0.000    8.400    0.000    0.000 
#    0.000    0.000    0.000    0.000    0.000    0.000 
#
# Total GULP energy -167034.386657 kJ/mol
# GULP energy per Si atom -5567.812889 kJ/mol
# Density = 2.237899 g / cm^3
# Si number density = 22.430040 Si / 1000 Ang^3
#
#
#
# Elastic Constant Matrix: (Units=GPa)
#
#
# Indices 1 2 3 4 5 6 
#
# 1 77.9752 14.7562 6.3782 0.0000 -17.9215 0.0000
# 2 14.7562 107.3985 12.6213 0.0000 -6.9648 0.0000
# 3 6.3782 12.6213 66.1650 0.0000 -14.1905 0.0000
# 4 0.0000 0.0000 0.0000 35.9416 0.0000 -5.8535
# 5 -17.9215 -6.9648 -14.1905 0.0000 28.6292 0.0000
# 6 0.0000 0.0000 0.0000 -5.8535 0.0000 18.8643
#
#
#
# Elastic Compliance Matrix: (Units=1/GPa)
#
#
# Indices 1 2 3 4 5 6 
#
# 1 0.015259 -0.001578 0.000891 0.000000 0.009610 0.000000
# 2 -0.001578 0.009753 -0.001579 0.000000 0.000602 0.000000
# 3 0.000891 -0.001579 0.017194 0.000000 0.008696 0.000000
# 4 0.000000 0.000000 0.000000 0.029304 0.000000 0.009093
# 5 0.009610 0.000602 0.008696 0.000000 0.045402 0.000000
# 6 0.000000 0.000000 0.000000 0.009093 0.000000 0.055832
#
#
# Mechanical properties :
#
#
# Convention : Reuss Voigt Hill
#
# Bulk Modulus (GPa) = 26.54380 35.44999 30.99690
# Shear Modulus (GPa) = 26.33897 31.20590 28.77244
#
# Velocity S-wave (km/s) = 3.43048 3.73400 3.58545
# Velocity P-wave (km/s) = 5.24887 5.86765 5.56687
#
# Compressibility (1/GPa) = 0.03767358
#
# Stress axis : x y z
#
# Youngs Moduli (GPa) = 65.53511 102.53732 58.15931
#
# Poissons Ratio (x) = 0.16181 -0.05183
# Poissons Ratio (y) = 0.10342 0.09184
# Poissons Ratio (z) = -0.05840 0.16192
#
# Static dielectric constant tensor:
#      x y z
#    x 1.867420 0.000000 -0.016190 
#    y 0.000000 1.896350 0.000000 
#    z -0.016190 0.000000 1.875470 
# 
# From -- ./inp_files/43711.got.cif
#   From: 2010.05.17/outbox.cif.g08.bks.cpg/sg10_22_cif.got.tgz:43711.got - 2010.06.03 11:33:40.
