data_PCOD9142780
_publ_section_title
;
Structure prediction by ZEFSAII (Michael W. Deem and Ramdas Pophale) SiO2 
 PCOD9142780
Probable space group: P 2/M
;
_chemical_formula_sum "Si O2"
_cell_formula_units_Z 32
_cell_length_a 21.788006
_cell_length_b 7.731043
_cell_length_c 15.294583
_cell_angle_alpha 90.000000
_cell_angle_beta 138.005365
_cell_angle_gamma 90.000000
_cell_volume 1723.689128
_symmetry_space_group_name_H-M "P 2/M"
_symmetry_group_IT_number 10
_symmetry_cell_setting 'monoclinic'
loop_
_space_group_symop_operation_xyz
x,y,z
-x,y,-z
-x,-y,-z
x,-y,z
loop_
_atom_site_type_symbol
_atom_site_label
_atom_site_fract_x
_atom_site_fract_y
_atom_site_fract_z
Si Si1 0.334110 0.209269 0.016955
Si Si2 0.489857 0.796656 0.890850
Si Si3 0.958669 0.297778 0.339342
Si Si4 0.288735 0.304233 0.629005
Si Si5 0.823329 0.210864 0.036046
Si Si6 0.972677 0.207307 0.065850
Si Si7 0.798870 0.201143 0.287679
Si Si8 0.892742 0.710091 0.632933
O O1 0.278504 0.269437 0.043955
O O2 0.268709 0.246401 0.864402
O O3 0.338361 0.000000 0.029877
O O4 0.434311 0.275056 0.096147
O O5 0.386362 0.781981 0.747891
O O6 0.511999 0.000000 0.922646
O O7 0.500000 0.722199 0.000000
O O8 0.972617 0.500000 0.370887
O O9 0.888285 0.273198 0.183803
O O10 0.902382 0.225634 0.362107
O O11 0.050868 0.223986 0.392755
O O12 0.308641 0.500000 0.623081
O O13 0.234798 0.304358 0.664345
O O14 0.212068 0.227965 0.482845
O O15 0.875813 0.269485 0.004335
O O16 0.824851 0.000000 0.038897
O O17 0.050743 0.242599 0.220993
O O18 0.964679 0.000000 0.049604
O O19 0.000000 0.277616 0.000000
O O20 0.784213 0.000000 0.292234
O O21 0.891640 0.500000 0.626421
#
# Coordination Sequence:
#
# PCOD9142780 Si02
#       8
#     4   4   4   4   4   4   4   4
#     4   8  14  26  44  62  85 118 153 187 227 272
#     4  10  18  31  47  64  87 119 159 203 240 275
#     4   9  16  28  44  62  86 119 156 192 225 264
#     4  11  22  33  44  63  90 122 161 201 236 271
#     4   8  14  26  44  67  94 122 147 177 225 282
#     4   9  17  30  51  78 101 118 145 187 228 272
#     4  10  18  30  45  63  87 121 159 195 235 275
#     4   9  20  35  47  63  94 128 154 185 230 283
#
# _framework density 18.564833
#
# number of rings (size 3 to 8) (size 9 to 14) (size 15 to 20)
#    0.000    2.750    1.250    1.875    0.000    2.500 
#    0.000    3.125    0.000    0.000    0.000    0.875 
#    0.000    7.000    0.000    0.000    0.000    0.000 
#
# Total GULP energy -178269.609216 kJ/mol
# GULP energy per Si atom -5570.925288 kJ/mol
# Density = 1.852258 g / cm^3
# Si number density = 18.564833 Si / 1000 Ang^3
#
#
#
# Elastic Constant Matrix: (Units=GPa)
#
#
# Indices 1 2 3 4 5 6 
#
# 1 162.9996 5.1726 65.3572 0.0000 15.1790 0.0000
# 2 5.1726 25.6597 -3.4892 0.0000 -1.7042 0.0000
# 3 65.3572 -3.4892 62.6527 0.0000 16.6501 0.0000
# 4 0.0000 0.0000 0.0000 13.3121 0.0000 1.8537
# 5 15.1790 -1.7042 16.6501 0.0000 34.0720 0.0000
# 6 0.0000 0.0000 0.0000 1.8537 0.0000 11.0617
#
#
#
# Elastic Compliance Matrix: (Units=1/GPa)
#
#
# Indices 1 2 3 4 5 6 
#
# 1 0.010911 -0.003754 -0.011780 0.000000 0.000708 0.000000
# 2 -0.003754 0.040592 0.005968 0.000000 0.000787 0.000000
# 3 -0.011780 0.005968 0.031153 0.000000 -0.009677 0.000000
# 4 0.000000 0.000000 0.000000 0.076915 0.000000 -0.012889
# 5 0.000708 0.000787 -0.009677 0.000000 0.033803 0.000000
# 6 0.000000 0.000000 0.000000 -0.012889 0.000000 0.092562
#
#
# Mechanical properties :
#
#
# Convention : Reuss Voigt Hill
#
# Bulk Modulus (GPa) = 15.74184 42.82149 29.28167
# Shear Modulus (GPa) = 15.32601 23.97393 19.64997
#
# Velocity S-wave (km/s) = 2.87634 3.59745 3.25691
# Velocity P-wave (km/s) = 4.41915 6.35386 5.47268
#
# Compressibility (1/GPa) = 0.06352499
#
# Stress axis : x y z
#
# Youngs Moduli (GPa) = 91.64703 24.63529 32.09945
#
# Poissons Ratio (x) = 0.09249 0.37812
# Poissons Ratio (y) = 0.34408 -0.19157
# Poissons Ratio (z) = 1.07956 -0.14702
#
# Static dielectric constant tensor:
#      x y z
#    x 1.695590 0.000000 0.030670 
#    y 0.000000 1.668950 0.000000 
#    z 0.030670 0.000000 1.656970 
# 
# From -- ./inp_files/66059.got.cif
#   From: 2010.05.17/outbox.cif.g08.bks.cpg/sg10_34_cif.got.tgz:66059.got - 2010.06.03 11:33:40.
