data_PCOD9142872
_publ_section_title
;
Structure prediction by ZEFSAII (Michael W. Deem and Ramdas Pophale) SiO2 
 PCOD9142872
Probable space group: P 2/M
;
_chemical_formula_sum "Si O2"
_cell_formula_units_Z 28
_cell_length_a 19.754896
_cell_length_b 8.217898
_cell_length_c 16.537191
_cell_angle_alpha 90.000000
_cell_angle_beta 146.907794
_cell_angle_gamma 90.000000
_cell_volume 1465.818959
_symmetry_space_group_name_H-M "P 2/M"
_symmetry_group_IT_number 10
_symmetry_cell_setting 'monoclinic'
loop_
_space_group_symop_operation_xyz
x,y,z
-x,y,-z
-x,-y,-z
x,-y,z
loop_
_atom_site_type_symbol
_atom_site_label
_atom_site_fract_x
_atom_site_fract_y
_atom_site_fract_z
Si Si1 0.886039 0.304708 0.439420
Si Si2 0.619141 0.193965 0.366372
Si Si3 0.060110 0.813983 0.937839
Si Si4 0.097702 0.802571 0.363137
Si Si5 0.604079 0.696573 0.168242
Si Si6 0.163539 0.683393 0.192950
Si Si7 0.444787 0.689192 0.527443
O O1 0.881686 0.500000 0.424873
O O2 0.918317 0.260993 0.563284
O O3 0.743801 0.245336 0.284678
O O4 0.000000 0.240586 0.500000
O O5 0.762902 0.250735 0.522372
O O6 0.580031 0.255856 0.238075
O O7 0.540807 0.242940 0.367360
O O8 0.620931 0.000000 0.364294
O O9 0.013633 0.745954 0.806024
O O10 0.930401 0.805570 0.857874
O O11 0.101718 0.000000 0.971765
O O12 0.155231 0.716685 0.088845
O O13 0.096180 0.000000 0.359197
O O14 0.605258 0.500000 0.166911
O O15 0.500000 0.753228 0.000000
O O16 0.119492 0.500000 0.165640
O O17 0.299223 0.698496 0.362821
O O18 0.500000 0.764983 0.500000
O O19 0.485022 0.500000 0.570342
#
# Coordination Sequence:
#
# PCOD9142872 Si02
#       7
#     4   4   4   4   4   4   4
#     4   9  18  32  51  76 102 129 165 208 252 299
#     4  10  19  33  53  77 102 130 173 218 256 303
#     4  10  18  30  48  70  99 128 158 199 248 296
#     4   9  18  31  49  73  99 130 165 201 246 301
#     4   9  18  34  56  79 104 136 171 210 261 316
#     4  10  19  30  47  71  96 124 164 206 246 290
#     4  10  21  36  52  71 100 138 177 217 260 306
#
# _framework density 19.101949999999999
#
# number of rings (size 3 to 8) (size 9 to 14) (size 15 to 20)
#    0.000    2.429    1.429    2.143    0.000    3.143 
#    0.000    1.429    0.000    6.857    0.000    0.000 
#    0.000    0.000    0.000    0.000    0.000    0.000 
#
# Total GULP energy -155888.895093 kJ/mol
# GULP energy per Si atom -5567.460539 kJ/mol
# Density = 1.905847 g / cm^3
# Si number density = 19.101950 Si / 1000 Ang^3
#
#
#
# Elastic Constant Matrix: (Units=GPa)
#
#
# Indices 1 2 3 4 5 6 
#
# 1 127.1484 9.5646 43.5781 0.0000 -21.0802 0.0000
# 2 9.5646 19.6842 12.4687 0.0000 -3.6173 0.0000
# 3 43.5781 12.4687 106.2030 0.0000 -28.6342 0.0000
# 4 0.0000 0.0000 0.0000 15.0575 0.0000 -4.2850
# 5 -21.0802 -3.6173 -28.6342 0.0000 15.0555 0.0000
# 6 0.0000 0.0000 0.0000 -4.2850 0.0000 7.5028
#
#
#
# Elastic Compliance Matrix: (Units=1/GPa)
#
#
# Indices 1 2 3 4 5 6 
#
# 1 0.010367 -0.002347 -0.000445 0.000000 0.013105 0.000000
# 2 -0.002347 0.055442 -0.005830 0.000000 -0.001054 0.000000
# 3 -0.000445 -0.005830 0.019986 0.000000 0.035988 0.000000
# 4 0.000000 0.000000 0.000000 0.079301 0.000000 0.045291
# 5 0.013105 -0.001054 0.035988 0.000000 0.152963 0.000000
# 6 0.000000 0.000000 0.000000 0.045291 0.000000 0.159150
#
#
# Mechanical properties :
#
#
# Convention : Reuss Voigt Hill
#
# Bulk Modulus (GPa) = 14.58784 42.69540 28.64162
# Shear Modulus (GPa) = 9.66552 20.01810 14.84181
#
# Velocity S-wave (km/s) = 2.25188 3.24073 2.79046
# Velocity P-wave (km/s) = 3.79667 6.03349 5.04072
#
# Compressibility (1/GPa) = 0.06855022
#
# Stress axis : x y z
#
# Youngs Moduli (GPa) = 96.46432 18.03684 50.03525
#
# Poissons Ratio (x) = 0.04233 0.02225
# Poissons Ratio (y) = 0.22641 0.29172
# Poissons Ratio (z) = 0.04291 0.10516
#
# Static dielectric constant tensor:
#      x y z
#    x 1.697640 0.000000 -0.012650 
#    y 0.000000 1.668100 0.000000 
#    z -0.012650 0.000000 1.692590 
# 
# From -- ./inp_files/68710.got.cif
#   From: 2010.05.17/outbox.cif.g08.bks.cpg/sg10_35_cif.got.tgz:68710.got - 2010.06.03 11:33:40.
