data_PCOD9142132
_publ_section_title
;
Structure prediction by ZEFSAII (Michael W. Deem and Ramdas Pophale) SiO2 
 PCOD9142132
Probable space group: P 2/M
;
_chemical_formula_sum "Si O2"
_cell_formula_units_Z 30
_cell_length_a 11.792112
_cell_length_b 14.427680
_cell_length_c 8.981041
_cell_angle_alpha 90.000000
_cell_angle_beta 111.640397
_cell_angle_gamma 90.000000
_cell_volume 1420.273470
_symmetry_space_group_name_H-M "P 2/M"
_symmetry_group_IT_number 10
_symmetry_cell_setting 'monoclinic'
loop_
_space_group_symop_operation_xyz
x,y,z
-x,y,-z
-x,-y,-z
x,-y,z
loop_
_atom_site_type_symbol
_atom_site_label
_atom_site_fract_x
_atom_site_fract_y
_atom_site_fract_z
Si Si1 0.084080 0.891244 0.333139
Si Si2 0.957236 0.276859 0.147305
Si Si3 0.282099 0.230303 0.593818
Si Si4 0.500000 0.845148 0.500000
Si Si5 0.369416 0.767819 0.967873
Si Si6 0.722951 0.609325 0.934840
Si Si7 0.287016 0.099668 0.179427
Si Si8 0.188168 0.391428 0.356116
O O1 0.973916 0.819180 0.247353
O O2 0.176448 0.843735 0.496955
O O3 0.169009 0.889167 0.226040
O O4 0.054925 0.000000 0.349052
O O5 0.056059 0.347832 0.262331
O O6 0.835419 0.337537 0.069359
O O7 0.000000 0.255727 0.000000
O O8 0.407377 0.207317 0.566133
O O9 0.303660 0.232322 0.778548
O O10 0.243408 0.330181 0.513285
O O11 0.595406 0.896410 0.654886
O O12 0.388668 0.666557 0.051142
O O13 0.500000 0.813041 0.000000
O O14 0.298824 0.823542 0.060819
O O15 0.723231 0.500000 0.963777
O O16 0.738591 0.622502 0.764491
O O17 0.281171 0.000000 0.102129
O O18 0.183565 0.500000 0.384652
#
# Coordination Sequence:
#
# PCOD9142132 Si02
#       8
#     4   4   4   2   4   4   4   4
#     4   9  19  36  60  89 118 151 191 236 286 341
#     4   9  16  32  60  90 116 143 183 239 287 342
#     4  10  21  35  57  79 117 154 193 240 285 341
#     4  10  17  36  55  80 108 150 193 240 277 328
#     4  12  24  39  55  82 119 158 195 242 290 337
#     4  10  21  38  61  86 115 150 192 239 292 348
#     4  10  20  35  57  85 115 149 192 234 281 338
#     4   9  18  35  59  85 110 144 190 240 290 345
#
# _framework density 21.122692000000001
#
# number of rings (size 3 to 8) (size 9 to 14) (size 15 to 20)
#    0.000    2.133    1.333    3.800    0.000    4.000 
#    0.000    3.667    0.000    4.800    0.000    0.000 
#    0.000    0.000    0.000    0.000    0.000    0.000 
#
# Total GULP energy -167422.528469 kJ/mol
# GULP energy per Si atom -5580.750949 kJ/mol
# Density = 2.107462 g / cm^3
# Si number density = 21.122692 Si / 1000 Ang^3
#
#
#
# Elastic Constant Matrix: (Units=GPa)
#
#
# Indices 1 2 3 4 5 6 
#
# 1 26.2813 9.3005 11.9955 0.0000 -7.7851 0.0000
# 2 9.3005 150.1004 67.7829 0.0000 -12.2886 0.0000
# 3 11.9955 67.7829 112.4311 0.0000 -11.3438 0.0000
# 4 0.0000 0.0000 0.0000 0.8639 0.0000 -0.0758
# 5 -7.7851 -12.2886 -11.3438 0.0000 22.6422 0.0000
# 6 0.0000 0.0000 0.0000 -0.0758 0.0000 13.1872
#
#
#
# Elastic Compliance Matrix: (Units=1/GPa)
#
#
# Indices 1 2 3 4 5 6 
#
# 1 0.043499 -0.000162 -0.003205 0.000000 0.013263 0.000000
# 2 -0.000162 0.009272 -0.005341 0.000000 0.002301 0.000000
# 3 -0.003205 -0.005341 0.012694 0.000000 0.002359 0.000000
# 4 0.000000 0.000000 0.000000 1.158185 0.000000 0.006660
# 5 0.013263 0.002301 0.002359 0.000000 0.051156 0.000000
# 6 0.000000 0.000000 0.000000 0.006660 0.000000 0.075870
#
#
# Mechanical properties :
#
#
# Convention : Reuss Voigt Hill
#
# Bulk Modulus (GPa) = 20.81186 51.88563 36.34875
# Shear Modulus (GPa) = 3.61243 20.65423 12.13333
#
# Velocity S-wave (km/s) = 1.30917 3.13041 2.39931
# Velocity P-wave (km/s) = 3.48704 6.13866 4.99213
#
# Compressibility (1/GPa) = 0.04804951
#
# Stress axis : x y z
#
# Youngs Moduli (GPa) = 22.98913 107.84673 78.77627
#
# Poissons Ratio (x) = 0.01748 0.25249
# Poissons Ratio (y) = 0.00373 0.42072
# Poissons Ratio (z) = 0.07368 0.57598
#
# Static dielectric constant tensor:
#      x y z
#    x 1.831500 0.000000 0.030860 
#    y 0.000000 1.753050 0.000000 
#    z 0.030860 0.000000 1.736760 
# 
# From -- ./inp_files/25382.got.cif
#   From: 2010.05.17/outbox.cif.g08.bks.cpg/sg10_13_cif.got.tgz:25382.got - 2010.06.03 11:33:40.
