data_PCOD9142009
_publ_section_title
;
Structure prediction by ZEFSAII (Michael W. Deem and Ramdas Pophale) SiO2 
 PCOD9142009
Probable space group: P 2/M
;
_chemical_formula_sum "Si O2"
_cell_formula_units_Z 30
_cell_length_a 9.351989
_cell_length_b 9.237008
_cell_length_c 24.576590
_cell_angle_alpha 90.000000
_cell_angle_beta 53.787041
_cell_angle_gamma 90.000000
_cell_volume 1712.920467
_symmetry_space_group_name_H-M "P 2/M"
_symmetry_group_IT_number 10
_symmetry_cell_setting 'monoclinic'
loop_
_space_group_symop_operation_xyz
x,y,z
-x,y,-z
-x,-y,-z
x,-y,z
loop_
_atom_site_type_symbol
_atom_site_label
_atom_site_fract_x
_atom_site_fract_y
_atom_site_fract_z
Si Si1 0.120792 0.333320 0.918905
Si Si2 0.095757 0.837752 0.120469
Si Si3 0.555412 0.172588 0.104723
Si Si4 0.197822 0.166552 0.429166
Si Si5 0.664981 0.327525 0.500341
Si Si6 0.844402 0.168862 0.769178
Si Si7 0.500000 0.218511 0.000000
Si Si8 0.050842 0.671227 0.361945
O O1 0.174153 0.500000 0.897951
O O2 0.287325 0.230617 0.893550
O O3 0.004178 0.273133 0.895624
O O4 0.000000 0.327422 0.000000
O O5 0.081108 0.799130 0.187323
O O6 0.024917 0.000000 0.127711
O O7 0.306025 0.844693 0.059167
O O8 0.367556 0.184823 0.176758
O O9 0.549152 0.269261 0.050560
O O10 0.578853 0.000000 0.084674
O O11 0.321188 0.244508 0.445661
O O12 0.177891 0.249865 0.376892
O O13 0.000000 0.169536 0.500000
O O14 0.248297 0.000000 0.409588
O O15 0.500000 0.283609 0.500000
O O16 0.652438 0.500000 0.513486
O O17 0.848937 0.301823 0.426899
O O18 0.917724 0.266652 0.704836
O O19 0.881536 0.000000 0.748971
O O20 0.081252 0.500000 0.356997
#
# Coordination Sequence:
#
# PCOD9142009 Si02
#       8
#     4   4   4   4   4   4   2   4
#     4  11  23  35  48  75 109 136 164 209 268 321
#     4  10  19  34  56  77  99 133 177 220 264 313
#     4  10  19  34  56  77  98 129 172 217 261 310
#     4   9  17  30  51  78 106 136 173 219 260 295
#     4   9  18  33  53  80 111 140 176 218 257 307
#     4   9  20  36  55  79 103 131 174 223 263 309
#     4  10  17  30  55  80  95 120 171 224 259 304
#     4  10  19  33  55  78 105 143 177 208 259 318
#
# _framework density 17.513949
#
# number of rings (size 3 to 8) (size 9 to 14) (size 15 to 20)
#    0.000    2.267    1.333    3.200    0.000    4.000 
#    0.000    4.000    0.000    3.200    0.000    0.000 
#    0.000    0.000    0.000    0.000    0.000    0.000 
#
# Total GULP energy -167044.605659 kJ/mol
# GULP energy per Si atom -5568.153522 kJ/mol
# Density = 1.747409 g / cm^3
# Si number density = 17.513949 Si / 1000 Ang^3
#
#
#
# Elastic Constant Matrix: (Units=GPa)
#
#
# Indices 1 2 3 4 5 6 
#
# 1 118.0868 58.5667 25.9956 0.0000 18.3959 0.0000
# 2 58.5667 71.5971 49.9378 0.0000 16.4709 0.0000
# 3 25.9956 49.9378 74.5983 0.0000 25.2892 0.0000
# 4 0.0000 0.0000 0.0000 22.0711 0.0000 5.4219
# 5 18.3959 16.4709 25.2892 0.0000 18.3835 0.0000
# 6 0.0000 0.0000 0.0000 5.4219 0.0000 17.1823
#
#
#
# Elastic Compliance Matrix: (Units=1/GPa)
#
#
# Indices 1 2 3 4 5 6 
#
# 1 0.018425 -0.020100 0.013454 0.000000 -0.018938 0.000000
# 2 -0.020100 0.048141 -0.032641 0.000000 0.021884 0.000000
# 3 0.013454 -0.032641 0.047255 0.000000 -0.049224 0.000000
# 4 0.000000 0.000000 0.000000 0.049115 0.000000 -0.015498
# 5 -0.018938 0.021884 -0.049224 0.000000 0.121455 0.000000
# 6 0.000000 0.000000 0.000000 -0.015498 0.000000 0.063090
#
#
# Mechanical properties :
#
#
# Convention : Reuss Voigt Hill
#
# Bulk Modulus (GPa) = 28.37017 59.25360 43.81189
# Shear Modulus (GPa) = 11.42065 20.17952 15.80009
#
# Velocity S-wave (km/s) = 2.55637 3.39809 3.00683
# Velocity P-wave (km/s) = 4.99471 7.02151 6.09298
#
# Compressibility (1/GPa) = 0.03524829
#
# Stress axis : x y z
#
# Youngs Moduli (GPa) = 54.27296 20.77233 21.16200
#
# Poissons Ratio (x) = 0.41752 -0.28472
# Poissons Ratio (y) = 1.09087 0.69075
# Poissons Ratio (z) = -0.73021 0.67803
#
# Static dielectric constant tensor:
#      x y z
#    x 1.585020 0.000000 0.003870 
#    y 0.000000 1.597860 0.000000 
#    z 0.003870 0.000000 1.578810 
# 
# From -- ./inp_files/87827.got.cif
#   From: 2010.05.17/outbox.cif.g08.bks.cpg/sg10_44_cif.got.tgz:87827.got - 2010.06.03 11:33:40.
