data_PCOD9142084
_publ_section_title
;
Structure prediction by ZEFSAII (Michael W. Deem and Ramdas Pophale) SiO2 
 PCOD9142084
Probable space group: P 2/M
;
_chemical_formula_sum "Si O2"
_cell_formula_units_Z 32
_cell_length_a 22.600668
_cell_length_b 7.353259
_cell_length_c 22.205368
_cell_angle_alpha 90.000000
_cell_angle_beta 160.510920
_cell_angle_gamma 90.000000
_cell_volume 1231.177182
_symmetry_space_group_name_H-M "P 2/M"
_symmetry_group_IT_number 10
_symmetry_cell_setting 'monoclinic'
loop_
_space_group_symop_operation_xyz
x,y,z
-x,y,-z
-x,-y,-z
x,-y,z
loop_
_atom_site_type_symbol
_atom_site_label
_atom_site_fract_x
_atom_site_fract_y
_atom_site_fract_z
Si Si1 0.427908 0.709919 0.701413
Si Si2 0.474447 0.206174 0.070257
Si Si3 0.152872 0.778435 0.601130
Si Si4 0.048985 0.211806 0.279709
Si Si5 0.975118 0.222186 0.073757
Si Si6 0.592256 0.218624 0.736568
Si Si7 0.344992 0.778107 0.395607
Si Si8 0.101708 0.222622 0.745401
O O1 0.404532 0.500000 0.693447
O O2 0.477023 0.801265 0.811695
O O3 0.246492 0.778478 0.496554
O O4 0.573124 0.727831 0.787631
O O5 0.645404 0.286693 0.200988
O O6 0.454442 0.000000 0.028359
O O7 0.278907 0.288555 0.882547
O O8 0.000000 0.719362 0.500000
O O9 0.072662 0.730316 0.459290
O O10 0.160762 0.000000 0.612420
O O11 0.028342 0.281145 0.192696
O O12 0.921513 0.288617 0.209051
O O13 0.002235 0.000000 0.228929
O O14 0.141580 0.280934 0.192697
O O15 0.972939 0.000000 0.067091
O O16 0.770846 0.279982 0.873881
O O17 0.420385 0.273679 0.533572
O O18 0.595570 0.000000 0.739360
O O19 0.500000 0.716960 0.500000
O O20 0.342206 0.000000 0.389439
O O21 0.110543 0.000000 0.754799
#
# Coordination Sequence:
#
# PCOD9142084 Si02
#       8
#     4   4   4   4   4   4   4   4
#     4  12  23  34  52  79 107 134 172 218 265 313
#     4  10  19  34  56  77 105 142 173 208 258 312
#     4   9  17  29  49  81 113 136 168 216 258 297
#     4  10  17  32  54  75 103 136 172 210 257 317
#     4   9  17  29  51  80 105 135 173 209 254 311
#     4  10  19  34  56  77 105 142 173 208 258 312
#     4   9  17  29  49  81 113 136 168 216 258 297
#     4   9  17  29  51  80 105 135 173 209 254 311
#
# _framework density 25.991385999999999
#
# number of rings (size 3 to 8) (size 9 to 14) (size 15 to 20)
#    0.000    2.250    2.500    1.875    0.000    3.000 
#    0.000    7.500    0.000    0.750    0.000    1.750 
#    0.000    0.000    0.000    0.000    0.000    0.000 
#
# Total GULP energy -178895.816680 kJ/mol
# GULP energy per Si atom -5590.494271 kJ/mol
# Density = 2.593223 g / cm^3
# Si number density = 25.991386 Si / 1000 Ang^3
#
#
#
# Elastic Constant Matrix: (Units=GPa)
#
#
# Indices 1 2 3 4 5 6 
#
# 1 102.2200 -2.6193 22.3269 0.0000 42.0333 0.0000
# 2 -2.6193 99.0383 -6.7060 0.0000 2.3648 0.0000
# 3 22.3269 -6.7060 136.1150 0.0000 44.6456 0.0000
# 4 0.0000 0.0000 0.0000 -98.8204 0.0000 8.0188
# 5 42.0333 2.3648 44.6456 0.0000 59.0590 0.0000
# 6 0.0000 0.0000 0.0000 8.0188 0.0000 -67.0468
#
#
#
# Elastic Compliance Matrix: (Units=1/GPa)
#
#
# Indices 1 2 3 4 5 6 
#
# 1 0.014051 0.000728 0.001357 0.000000 -0.011056 0.000000
# 2 0.000728 0.010217 0.000915 0.000000 -0.001618 0.000000
# 3 0.001357 0.000915 0.009970 0.000000 -0.008540 0.000000
# 4 0.000000 0.000000 0.000000 -0.010219 0.000000 -0.001222
# 5 -0.011056 -0.001618 -0.008540 0.000000 0.031321 0.000000
# 6 0.000000 0.000000 0.000000 -0.001222 0.000000 -0.015061
#
#
# Mechanical properties :
#
#
# Convention : Reuss Voigt Hill
#
# Bulk Modulus (GPa) = 24.85245 40.37516 32.61380
# Shear Modulus (GPa) = 104.83809 0.26315 52.55062
#
# Velocity S-wave (km/s) = 6.35793 0.31854 4.50137
# Velocity P-wave (km/s) = 7.96745 3.96271 6.29219
#
# Compressibility (1/GPa) = 0.04023749
#
# Stress axis : x y z
#
# Youngs Moduli (GPa) = 71.16875 97.87664 100.29967
#
# Poissons Ratio (x) = -0.07121 -0.13613
# Poissons Ratio (y) = -0.05178 -0.09176
# Poissons Ratio (z) = -0.09659 -0.08955
#
# Static dielectric constant tensor:
#      x y z
#    x 2.062280 0.000000 0.013320 
#    y 0.000000 2.059570 0.000000 
#    z 0.013320 0.000000 2.005960 
# 
# From -- ./inp_files/90677.got.cif
#   From: 2010.05.17/outbox.cif.g08.bks.cpg/sg10_46_cif.got.tgz:90677.got - 2010.06.03 11:33:40.
