data_PCOD9142461
_publ_section_title
;
Structure prediction by ZEFSAII (Michael W. Deem and Ramdas Pophale) SiO2 
 PCOD9142461
Probable space group: P 2/M
;
_chemical_formula_sum "Si O2"
_cell_formula_units_Z 30
_cell_length_a 5.708669
_cell_length_b 21.501045
_cell_length_c 14.539074
_cell_angle_alpha 90.000000
_cell_angle_beta 92.949302
_cell_angle_gamma 90.000000
_cell_volume 1782.196362
_symmetry_space_group_name_H-M "P 2/M"
_symmetry_group_IT_number 10
_symmetry_cell_setting 'monoclinic'
loop_
_space_group_symop_operation_xyz
x,y,z
-x,y,-z
-x,-y,-z
x,-y,z
loop_
_atom_site_type_symbol
_atom_site_label
_atom_site_fract_x
_atom_site_fract_y
_atom_site_fract_z
Si Si1 0.760792 0.000000 0.053407
Si Si2 0.124784 0.756587 0.404463
Si Si3 0.741033 0.378782 0.606536
Si Si4 0.192715 0.823178 0.728539
Si Si5 0.826788 0.929721 0.770132
Si Si6 0.755662 0.574272 0.394714
Si Si7 0.559772 0.879804 0.600022
Si Si8 0.445009 0.124377 0.895111
O O1 0.740676 0.067188 0.101969
O O2 0.500000 0.000000 0.000000
O O3 0.000000 0.000000 0.000000
O O4 0.279503 0.695731 0.391431
O O5 0.267542 0.820978 0.411982
O O6 0.000000 0.747486 0.500000
O O7 0.943330 0.764601 0.315911
O O8 0.504900 0.407150 0.646458
O O9 0.747858 0.401694 0.500339
O O10 0.004769 0.397877 0.644720
O O11 0.337487 0.849960 0.645882
O O12 0.357808 0.822726 0.822178
O O13 0.007233 0.875755 0.751483
O O14 0.663040 0.927344 0.675894
O O15 0.671123 0.907490 0.852916
O O16 0.911867 0.000000 0.784496
O O17 0.777058 0.500000 0.395447
O O18 0.500000 0.907211 0.500000
O O19 0.500000 0.145427 0.000000
#
# Coordination Sequence:
#
# PCOD9142461 Si02
#       8
#     2   4   4   4   4   4   4   4
#     4  10  22  34  58  86 100 125 158 199 254 338
#     4  11  20  33  51  69  92 127 182 219 255 294
#     4  10  19  27  47  69  91 137 173 216 252 295
#     4  10  23  34  52  72  97 129 161 227 255 316
#     4  10  22  37  50  76  97 123 163 201 273 328
#     4  10  18  29  42  70 103 131 171 213 256 300
#     4  10  21  35  52  66  93 126 169 226 260 300
#     4  10  22  36  55  78 100 126 157 201 268 330
#
# _framework density 16.833162000000002
#
# number of rings (size 3 to 8) (size 9 to 14) (size 15 to 20)
#    0.000    1.867    3.333    2.000    8.400    0.800 
#    0.000    0.667    0.000    0.000    0.000    0.000 
#    0.000    0.000    0.000    0.000    0.000    7.333 
#
# Total GULP energy -167091.524899 kJ/mol
# GULP energy per Si atom -5569.717497 kJ/mol
# Density = 1.679485 g / cm^3
# Si number density = 16.833162 Si / 1000 Ang^3
#
#
#
# Elastic Constant Matrix: (Units=GPa)
#
#
# Indices 1 2 3 4 5 6 
#
# 1 79.7397 3.2412 11.3624 0.0000 -5.8092 0.0000
# 2 3.2412 53.5841 5.3435 0.0000 10.5187 0.0000
# 3 11.3624 5.3435 90.9920 0.0000 7.0103 0.0000
# 4 0.0000 0.0000 0.0000 5.2295 0.0000 7.5003
# 5 -5.8092 10.5187 7.0103 0.0000 17.6622 0.0000
# 6 0.0000 0.0000 0.0000 7.5003 0.0000 31.5055
#
#
#
# Elastic Compliance Matrix: (Units=1/GPa)
#
#
# Indices 1 2 3 4 5 6 
#
# 1 0.013367 -0.001842 -0.002047 0.000000 0.006306 0.000000
# 2 -0.001842 0.021394 0.000002 0.000000 -0.013348 0.000000
# 3 -0.002047 0.000002 0.011654 0.000000 -0.005300 0.000000
# 4 0.000000 0.000000 0.000000 0.290366 0.000000 -0.069125
# 5 0.006306 -0.013348 -0.005300 0.000000 0.068745 0.000000
# 6 0.000000 0.000000 0.000000 -0.069125 0.000000 0.048197
#
#
# Mechanical properties :
#
#
# Convention : Reuss Voigt Hill
#
# Bulk Modulus (GPa) = 25.87985 29.35668 27.61827
# Shear Modulus (GPa) = 10.54016 24.50400 17.52208
#
# Velocity S-wave (km/s) = 2.50502 3.81950 3.22984
# Velocity P-wave (km/s) = 4.87592 6.07693 5.50925
#
# Compressibility (1/GPa) = 0.03864011
#
# Stress axis : x y z
#
# Youngs Moduli (GPa) = 74.81251 46.74283 85.80921
#
# Poissons Ratio (x) = 0.08611 0.17563
# Poissons Ratio (y) = 0.13783 -0.00018
# Poissons Ratio (z) = 0.15312 -0.00010
#
# Static dielectric constant tensor:
#      x y z
#    x 1.702240 0.000000 0.059530 
#    y 0.000000 1.566800 0.000000 
#    z 0.059530 0.000000 1.581880 
# 
# From -- ./inp_files/59556.got.cif
#   From: 2010.05.17/outbox.cif.g08.bks.cpg/sg10_30_cif.got.tgz:59556.got - 2010.06.03 11:33:40.
