data_PCOD9142027
_publ_section_title
;
Structure prediction by ZEFSAII (Michael W. Deem and Ramdas Pophale) SiO2 
 PCOD9142027
Probable space group: P 2/M
;
_chemical_formula_sum "Si O2"
_cell_formula_units_Z 24
_cell_length_a 15.177880
_cell_length_b 12.176126
_cell_length_c 15.879570
_cell_angle_alpha 90.000000
_cell_angle_beta 152.459251
_cell_angle_gamma 90.000000
_cell_volume 1356.929891
_symmetry_space_group_name_H-M "P 2/M"
_symmetry_group_IT_number 10
_symmetry_cell_setting 'monoclinic'
loop_
_space_group_symop_operation_xyz
x,y,z
-x,y,-z
-x,-y,-z
x,-y,z
loop_
_atom_site_type_symbol
_atom_site_label
_atom_site_fract_x
_atom_site_fract_y
_atom_site_fract_z
Si Si1 0.992399 0.758830 0.394970
Si Si2 0.831674 0.000000 0.687766
Si Si3 0.497938 0.181609 0.406619
Si Si4 0.085483 0.000000 0.731578
Si Si5 0.789632 0.000000 0.887090
Si Si6 0.629480 0.629540 0.026571
Si Si7 0.411321 0.759603 0.698530
Si Si8 0.546393 0.000000 0.852524
O O1 0.955540 0.888512 0.352422
O O2 0.824753 0.692165 0.209332
O O3 0.000000 0.731518 0.500000
O O4 0.191075 0.730717 0.519528
O O5 0.684789 0.102022 0.563315
O O6 0.953754 0.000000 0.704659
O O7 0.987178 0.000000 0.896488
O O8 0.500000 0.237360 0.500000
O O9 0.307139 0.106041 0.238704
O O10 0.513170 0.247770 0.332878
O O11 0.308076 0.000000 0.946695
O O12 0.681957 0.000000 0.885842
O O13 0.656840 0.500000 0.037642
O O14 0.500000 0.645348 0.000000
O O15 0.528909 0.684719 0.861701
O O16 0.431448 0.886820 0.747168
#
# Coordination Sequence:
#
# PCOD9142027 Si02
#       8
#     4   2   4   2   2   4   4   2
#     4  12  23  37  59  89 117 158 191 231 293 350
#     4  10  17  31  49  78 120 159 195 235 270 336
#     4  10  20  32  51  81 116 157 198 233 274 337
#     4  11  19  33  54  84 128 160 187 225 278 352
#     4   8  17  28  46  73 110 157 192 223 275 317
#     4  11  25  44  63  85 111 147 198 249 295 345
#     4  11  21  39  59  85 123 154 191 237 288 344
#     4   9  18  32  56  80 117 159 187 219 278 345
#
# _framework density 17.686986999999998
#
# number of rings (size 3 to 8) (size 9 to 14) (size 15 to 20)
#    0.000    1.500    5.000    2.250    0.000    2.333 
#    0.000    1.667    0.000    0.500    0.000    1.167 
#    0.000    0.000    0.000    0.000    0.000    0.000 
#
# Total GULP energy -133955.080551 kJ/mol
# GULP energy per Si atom -5581.461690 kJ/mol
# Density = 1.764673 g / cm^3
# Si number density = 17.686987 Si / 1000 Ang^3
#
#
#
# Elastic Constant Matrix: (Units=GPa)
#
#
# Indices 1 2 3 4 5 6 
#
# 1 87.3364 44.8164 45.7772 0.0000 -10.4046 0.0000
# 2 44.8164 73.5779 54.2930 0.0000 -4.0823 0.0000
# 3 45.7772 54.2930 145.4882 0.0000 3.0279 0.0000
# 4 0.0000 0.0000 0.0000 32.0093 0.0000 12.2762
# 5 -10.4046 -4.0823 3.0279 0.0000 39.5809 0.0000
# 6 0.0000 0.0000 0.0000 12.2762 0.0000 16.1183
#
#
#
# Elastic Compliance Matrix: (Units=1/GPa)
#
#
# Indices 1 2 3 4 5 6 
#
# 1 0.017671 -0.008809 -0.002354 0.000000 0.003917 0.000000
# 2 -0.008809 0.023392 -0.005969 0.000000 0.000554 0.000000
# 3 -0.002354 -0.005969 0.009883 0.000000 -0.001991 0.000000
# 4 0.000000 0.000000 0.000000 0.044132 0.000000 -0.033612
# 5 0.003917 0.000554 -0.001991 0.000000 0.026504 0.000000
# 6 0.000000 0.000000 0.000000 -0.033612 0.000000 0.087641
#
#
# Mechanical properties :
#
#
# Convention : Reuss Voigt Hill
#
# Bulk Modulus (GPa) = 59.94748 66.24175 63.09461
# Shear Modulus (GPa) = 20.07650 28.30944 24.19297
#
# Velocity S-wave (km/s) = 3.37278 4.00507 3.70244
# Velocity P-wave (km/s) = 7.00961 7.67600 7.35036
#
# Compressibility (1/GPa) = 0.01668127
#
# Stress axis : x y z
#
# Youngs Moduli (GPa) = 56.59065 42.74996 101.18184
#
# Poissons Ratio (x) = 0.37657 0.23821
# Poissons Ratio (y) = 0.49849 0.60398
# Poissons Ratio (z) = 0.13323 0.25518
#
# Static dielectric constant tensor:
#      x y z
#    x 1.635640 0.000000 -0.012100 
#    y 0.000000 1.571370 0.000000 
#    z -0.012100 0.000000 1.626240 
# 
# From -- ./inp_files/67086.got.cif
#   From: 2010.05.17/outbox.cif.g08.bks.cpg/sg10_34_cif.got.tgz:67086.got - 2010.06.03 11:33:40.
