data_PCOD9142231
_publ_section_title
;
Structure prediction by ZEFSAII (Michael W. Deem and Ramdas Pophale) SiO2 
 PCOD9142231
Probable space group: P 2/M
;
_chemical_formula_sum "Si O2"
_cell_formula_units_Z 32
_cell_length_a 36.031302
_cell_length_b 8.934377
_cell_length_c 24.568964
_cell_angle_alpha 90.000000
_cell_angle_beta 164.185684
_cell_angle_gamma 90.000000
_cell_volume 2155.413037
_symmetry_space_group_name_H-M "P 2/M"
_symmetry_group_IT_number 10
_symmetry_cell_setting 'monoclinic'
loop_
_space_group_symop_operation_xyz
x,y,z
-x,y,-z
-x,-y,-z
x,-y,z
loop_
_atom_site_type_symbol
_atom_site_label
_atom_site_fract_x
_atom_site_fract_y
_atom_site_fract_z
Si Si1 0.316806 0.179601 0.483073
Si Si2 0.106439 0.322518 0.272673
Si Si3 0.864878 0.319450 0.341034
Si Si4 0.808540 0.821330 0.496022
Si Si5 0.432294 0.322634 0.113831
Si Si6 0.106622 0.828086 0.099956
Si Si7 0.796048 0.177975 0.358247
Si Si8 0.503934 0.824940 0.103236
O O1 0.223327 0.247757 0.399531
O O2 0.469264 0.238558 0.705520
O O3 0.246041 0.220937 0.325819
O O4 0.310981 0.000000 0.479632
O O5 0.122448 0.500000 0.293274
O O6 0.122391 0.261882 0.356220
O O7 0.962931 0.272661 0.043775
O O8 0.864394 0.500000 0.343393
O O9 0.856338 0.256350 0.390095
O O10 0.000000 0.270885 0.500000
O O11 0.725912 0.275262 0.113364
O O12 0.846704 0.771196 0.488951
O O13 0.645821 0.800010 0.273575
O O14 0.833587 0.000000 0.535910
O O15 0.439480 0.500000 0.132793
O O16 0.491285 0.280045 0.137713
O O17 0.118362 0.000000 0.097411
O O18 0.000000 0.828894 0.000000
O O19 0.820043 0.000000 0.387977
O O20 0.632068 0.198846 0.123648
O O21 0.502290 0.000000 0.118971
#
# Coordination Sequence:
#
# PCOD9142231 Si02
#       8
#     4   4   4   4   4   4   4   4
#     4  10  18  29  43  59  83 115 148 182 219 258
#     4  11  20  27  39  60  86 116 151 184 213 247
#     4   9  19  35  50  64  88 118 142 174 226 273
#     4  10  18  28  42  59  87 120 147 178 215 256
#     4  10  18  27  43  66  87 111 147 184 215 255
#     4   8  16  29  42  55  77 113 151 180 214 256
#     4   9  18  30  45  66  84 108 149 186 215 251
#     4   9  16  27  42  58  83 116 145 175 214 255
#
# _framework density 14.846342999999999
#
# number of rings (size 3 to 8) (size 9 to 14) (size 15 to 20)
#    0.000    2.500    1.250    3.000    0.000    5.500 
#    0.000    0.000    0.000    3.750    0.000    0.000 
#    0.000    1.000    0.000   11.250    0.000    5.000 
#
# Total GULP energy -178282.407573 kJ/mol
# GULP energy per Si atom -5571.325237 kJ/mol
# Density = 1.481255 g / cm^3
# Si number density = 14.846343 Si / 1000 Ang^3
#
#
#
# Elastic Constant Matrix: (Units=GPa)
#
#
# Indices 1 2 3 4 5 6 
#
# 1 71.9256 35.0128 62.3058 0.0000 -15.0803 0.0000
# 2 35.0128 46.1752 41.9782 0.0000 -10.3003 0.0000
# 3 62.3058 41.9782 98.2795 0.0000 -15.1178 0.0000
# 4 0.0000 0.0000 0.0000 33.2118 0.0000 -19.1827
# 5 -15.0803 -10.3003 -15.1178 0.0000 19.3182 0.0000
# 6 0.0000 0.0000 0.0000 -19.1827 0.0000 33.7899
#
#
#
# Elastic Compliance Matrix: (Units=1/GPa)
#
#
# Indices 1 2 3 4 5 6 
#
# 1 0.034750 -0.009085 -0.016737 0.000000 0.009185 0.000000
# 2 -0.009085 0.038904 -0.009956 0.000000 0.005860 0.000000
# 3 -0.016737 -0.009956 0.025252 0.000000 0.001387 0.000000
# 4 0.000000 0.000000 0.000000 0.044799 0.000000 0.025433
# 5 0.009185 0.005860 0.001387 0.000000 0.063145 0.000000
# 6 0.000000 0.000000 0.000000 0.025433 0.000000 0.044033
#
#
# Mechanical properties :
#
#
# Convention : Reuss Voigt Hill
#
# Bulk Modulus (GPa) = 36.56385 54.99711 45.78048
# Shear Modulus (GPa) = 15.08047 22.40287 18.74167
#
# Velocity S-wave (km/s) = 3.19057 3.88878 3.55685
# Velocity P-wave (km/s) = 6.18503 7.56889 6.91168
#
# Compressibility (1/GPa) = 0.02734942
#
# Stress axis : x y z
#
# Youngs Moduli (GPa) = 28.77708 25.70455 39.60141
#
# Poissons Ratio (x) = 0.23352 0.66281
# Poissons Ratio (y) = 0.26144 0.39427
# Poissons Ratio (z) = 0.48164 0.25591
#
# Static dielectric constant tensor:
#      x y z
#    x 1.469850 0.000000 -0.024980 
#    y 0.000000 1.496930 0.000000 
#    z -0.024980 0.000000 1.522240 
# 
# From -- ./inp_files/87220.got.cif
#   From: 2010.05.17/outbox.cif.g08.bks.cpg/sg10_44_cif.got.tgz:87220.got - 2010.06.03 11:33:40.
