data_PCOD9142951
_publ_section_title
;
Structure prediction by ZEFSAII (Michael W. Deem and Ramdas Pophale) SiO2 
 PCOD9142951
Probable space group: P 2/M
;
_chemical_formula_sum "Si O2"
_cell_formula_units_Z 32
_cell_length_a 11.484185
_cell_length_b 12.648563
_cell_length_c 22.389875
_cell_angle_alpha 90.000000
_cell_angle_beta 34.053743
_cell_angle_gamma 90.000000
_cell_volume 1821.201592
_symmetry_space_group_name_H-M "P 2/M"
_symmetry_group_IT_number 10
_symmetry_cell_setting 'monoclinic'
loop_
_space_group_symop_operation_xyz
x,y,z
-x,y,-z
-x,-y,-z
x,-y,z
loop_
_atom_site_type_symbol
_atom_site_label
_atom_site_fract_x
_atom_site_fract_y
_atom_site_fract_z
Si Si1 0.283335 0.823836 0.930260
Si Si2 0.660257 0.623824 0.480778
Si Si3 0.618751 0.120173 0.887331
Si Si4 0.813439 0.121042 0.162088
Si Si5 0.897544 0.264363 0.698916
Si Si6 0.484297 0.279950 0.338497
Si Si7 0.110770 0.117087 0.516256
Si Si8 0.479861 0.374922 0.207688
O O1 0.454801 0.869446 0.902334
O O2 0.286186 0.872948 0.862444
O O3 0.339913 0.700096 0.896690
O O4 0.054891 0.848426 0.052169
O O5 0.500000 0.667345 0.500000
O O6 0.690385 0.500000 0.457493
O O7 0.554525 0.642198 0.590052
O O8 0.884773 0.678481 0.381893
O O9 0.791339 0.208430 0.800634
O O10 0.701369 0.000000 0.853238
O O11 0.500000 0.138555 0.000000
O O12 0.695378 0.211608 0.248936
O O13 0.793606 0.000000 0.192136
O O14 0.731037 0.340827 0.737281
O O15 0.952821 0.170325 0.629511
O O16 0.305169 0.192768 0.423260
O O17 0.462636 0.339594 0.284390
O O18 0.000000 0.109940 0.500000
O O19 0.173129 0.000000 0.509695
O O20 0.515961 0.500000 0.187514
#
# Coordination Sequence:
#
# PCOD9142951 Si02
#       8
#     4   4   4   4   4   4   4   4
#     4   9  19  33  50  76 105 138 175 213 256 311
#     4  10  22  39  56  73 100 141 181 216 259 309
#     4  10  20  34  54  79 107 138 173 211 258 311
#     4  10  18  32  54  77 106 138 169 208 260 315
#     4  10  20  35  55  79 106 136 174 220 263 312
#     4  10  20  33  51  81 107 133 173 216 259 318
#     4  10  18  30  49  79 113 138 164 205 263 322
#     4  10  19  33  53  78 104 132 168 221 275 310
#
# _framework density 17.570817000000002
#
# number of rings (size 3 to 8) (size 9 to 14) (size 15 to 20)
#    0.000    2.125    1.250    3.000    0.000    1.000 
#    0.000    7.500    0.000   23.625    0.000    0.000 
#    0.000    0.000    0.000    0.000    0.000    0.000 
#
# Total GULP energy -178426.296684 kJ/mol
# GULP energy per Si atom -5575.821771 kJ/mol
# Density = 1.753083 g / cm^3
# Si number density = 17.570817 Si / 1000 Ang^3
#
#
#
# Elastic Constant Matrix: (Units=GPa)
#
#
# Indices 1 2 3 4 5 6 
#
# 1 51.7208 18.6223 19.8477 0.0000 -7.1428 0.0000
# 2 18.6223 112.2904 27.0399 0.0000 0.9895 0.0000
# 3 19.8477 27.0399 64.4086 0.0000 1.0335 0.0000
# 4 0.0000 0.0000 0.0000 20.1445 0.0000 2.5579
# 5 -7.1428 0.9895 1.0335 0.0000 18.8609 0.0000
# 6 0.0000 0.0000 0.0000 2.5579 0.0000 17.9430
#
#
#
# Elastic Compliance Matrix: (Units=1/GPa)
#
#
# Indices 1 2 3 4 5 6 
#
# 1 0.024064 -0.002506 -0.006517 0.000000 0.009602 0.000000
# 2 -0.002506 0.010170 -0.003476 0.000000 -0.001292 0.000000
# 3 -0.006517 -0.003476 0.019047 0.000000 -0.003329 0.000000
# 4 0.000000 0.000000 0.000000 0.050557 0.000000 -0.007207
# 5 0.009602 -0.001292 -0.003329 0.000000 0.056906 0.000000
# 6 0.000000 0.000000 0.000000 -0.007207 0.000000 0.056759
#
#
# Mechanical properties :
#
#
# Convention : Reuss Voigt Hill
#
# Bulk Modulus (GPa) = 35.35931 39.93772 37.64851
# Shear Modulus (GPa) = 19.84683 22.25035 21.04859
#
# Velocity S-wave (km/s) = 3.36450 3.56241 3.46487
# Velocity P-wave (km/s) = 5.93807 6.30079 6.12212
#
# Compressibility (1/GPa) = 0.02828110
#
# Stress axis : x y z
#
# Youngs Moduli (GPa) = 41.55591 98.33237 52.50143
#
# Poissons Ratio (x) = 0.24642 0.34217
# Poissons Ratio (y) = 0.10414 0.18252
# Poissons Ratio (z) = 0.27084 0.34184
#
# Static dielectric constant tensor:
#      x y z
#    x 1.600050 0.000000 -0.002290 
#    y 0.000000 1.597680 0.000000 
#    z -0.002290 0.000000 1.604900 
# 
# From -- ./inp_files/56979.got.cif
#   From: 2010.05.17/outbox.cif.g08.bks.cpg/sg10_29_cif.got.tgz:56979.got - 2010.06.03 11:33:40.
