data_PCOD9142897
_publ_section_title
;
Structure prediction by ZEFSAII (Michael W. Deem and Ramdas Pophale) SiO2 
 PCOD9142897
Probable space group: P 2/M
;
_chemical_formula_sum "Si O2"
_cell_formula_units_Z 32
_cell_length_a 16.976870
_cell_length_b 14.686625
_cell_length_c 12.200432
_cell_angle_alpha 90.000000
_cell_angle_beta 145.726567
_cell_angle_gamma 90.000000
_cell_volume 1713.063584
_symmetry_space_group_name_H-M "P 2/M"
_symmetry_group_IT_number 10
_symmetry_cell_setting 'monoclinic'
loop_
_space_group_symop_operation_xyz
x,y,z
-x,y,-z
-x,-y,-z
x,-y,z
loop_
_atom_site_type_symbol
_atom_site_label
_atom_site_fract_x
_atom_site_fract_y
_atom_site_fract_z
Si Si1 0.143716 0.147227 0.702809
Si Si2 0.800901 0.801653 0.598993
Si Si3 0.638821 0.897142 0.213343
Si Si4 0.451445 0.608161 0.062199
Si Si5 0.156838 0.644227 0.655287
Si Si6 0.741670 0.605825 0.474347
Si Si7 0.100892 0.108526 0.901029
Si Si8 0.343247 0.108200 0.359329
O O1 0.265897 0.095814 0.784142
O O2 0.146427 0.247139 0.651201
O O3 0.144972 0.149401 0.834481
O O4 0.000000 0.103505 0.500000
O O5 0.715634 0.837572 0.393852
O O6 0.815911 0.691945 0.615602
O O7 0.712901 0.836543 0.601270
O O8 0.954908 0.846873 0.771386
O O9 0.611742 0.000000 0.225274
O O10 0.500000 0.856210 0.000000
O O11 0.465647 0.500000 0.071645
O O12 0.576115 0.632882 0.287791
O O13 0.500000 0.646620 0.000000
O O14 0.286700 0.624512 0.886477
O O15 0.207095 0.610046 0.594017
O O16 0.000000 0.609281 0.500000
O O17 0.760202 0.500000 0.532074
O O18 0.078060 0.000000 0.861513
O O19 0.227530 0.121322 0.131391
O O20 0.500000 0.132852 0.500000
O O21 0.345660 0.000000 0.389159
#
# Coordination Sequence:
#
# PCOD9142897 Si02
#       8
#     4   4   4   4   4   4   4   4
#     4  11  21  35  54  85 125 162 197 236 289 356
#     4  12  22  40  64  87 117 159 208 250 297 361
#     4  11  24  35  52  86 124 163 199 242 297 357
#     4   8  16  29  46  67  99 144 188 231 282 339
#     4  10  18  30  48  80 115 153 197 237 288 349
#     4  10  21  36  55  83 115 152 198 247 299 354
#     4  11  23  40  63  88 121 161 202 246 292 355
#     4  10  24  43  65  93 120 154 199 251 300 347
#
# _framework density 18.679984999999999
#
# number of rings (size 3 to 8) (size 9 to 14) (size 15 to 20)
#    0.000    1.625    2.500    3.750    3.500    2.500 
#    0.000    0.000    0.000    1.875    0.000    0.000 
#    0.000    0.000    0.000    0.000    0.000    0.000 
#
# Total GULP energy -178287.930426 kJ/mol
# GULP energy per Si atom -5571.497826 kJ/mol
# Density = 1.863747 g / cm^3
# Si number density = 18.679985 Si / 1000 Ang^3
#
#
#
# Elastic Constant Matrix: (Units=GPa)
#
#
# Indices 1 2 3 4 5 6 
#
# 1 105.4935 25.0797 48.1510 0.0000 4.5370 0.0000
# 2 25.0797 98.0462 25.4445 0.0000 -2.3726 0.0000
# 3 48.1510 25.4445 89.3943 0.0000 26.8715 0.0000
# 4 0.0000 0.0000 0.0000 -7.9237 0.0000 -0.1411
# 5 4.5370 -2.3726 26.8715 0.0000 28.3619 0.0000
# 6 0.0000 0.0000 0.0000 -0.1411 0.0000 22.9791
#
#
#
# Elastic Compliance Matrix: (Units=1/GPa)
#
#
# Indices 1 2 3 4 5 6 
#
# 1 0.013477 -0.001015 -0.008804 0.000000 0.006101 0.000000
# 2 -0.001015 0.011724 -0.004382 0.000000 0.005295 0.000000
# 3 -0.008804 -0.004382 0.023578 0.000000 -0.021297 0.000000
# 4 0.000000 0.000000 0.000000 -0.126190 0.000000 -0.000775
# 5 0.006101 0.005295 -0.021297 0.000000 0.054903 0.000000
# 6 0.000000 0.000000 0.000000 -0.000775 0.000000 0.043513
#
#
# Mechanical properties :
#
#
# Convention : Reuss Voigt Hill
#
# Bulk Modulus (GPa) = 49.07595 54.47605 51.77600
# Shear Modulus (GPa) = 88.96982 21.63404 55.30193
#
# Velocity S-wave (km/s) = 6.90882 3.40684 5.44694
# Velocity P-wave (km/s) = 9.48533 6.68592 8.20588
#
# Compressibility (1/GPa) = 0.02037658
#
# Stress axis : x y z
#
# Youngs Moduli (GPa) = 74.20282 85.29345 42.41323
#
# Poissons Ratio (x) = 0.08656 0.37340
# Poissons Ratio (y) = 0.07530 0.18586
# Poissons Ratio (z) = 0.65328 0.37377
#
# Static dielectric constant tensor:
#      x y z
#    x 1.526800 0.000000 -0.060750 
#    y 0.000000 1.695350 0.000000 
#    z -0.060750 0.000000 1.633090 
# 
# From -- ./inp_files/54041.got.cif
#   From: 2010.05.17/outbox.cif.g08.bks.cpg/sg10_28_cif.got.tgz:54041.got - 2010.06.03 11:33:40.
