data_PCOD9142946
_publ_section_title
;
Structure prediction by ZEFSAII (Michael W. Deem and Ramdas Pophale) SiO2 
 PCOD9142946
Probable space group: P 2/M
;
_chemical_formula_sum "Si O2"
_cell_formula_units_Z 28
_cell_length_a 14.963258
_cell_length_b 11.547132
_cell_length_c 19.200789
_cell_angle_alpha 90.000000
_cell_angle_beta 148.634207
_cell_angle_gamma 90.000000
_cell_volume 1726.792128
_symmetry_space_group_name_H-M "P 2/M"
_symmetry_group_IT_number 10
_symmetry_cell_setting 'monoclinic'
loop_
_space_group_symop_operation_xyz
x,y,z
-x,y,-z
-x,-y,-z
x,-y,z
loop_
_atom_site_type_symbol
_atom_site_label
_atom_site_fract_x
_atom_site_fract_y
_atom_site_fract_z
Si Si1 0.578458 0.704781 0.860244
Si Si2 0.349731 0.500000 0.992931
Si Si3 0.416980 0.862240 0.871739
Si Si4 0.069370 0.737389 0.621550
Si Si5 0.512966 0.360521 0.586203
Si Si6 0.271353 0.362153 0.551551
Si Si7 0.801611 0.638996 0.885321
Si Si8 0.246913 0.500000 0.771769
O O1 0.665829 0.612247 0.969854
O O2 0.508646 0.804333 0.865489
O O3 0.410267 0.658396 0.706028
O O4 0.719900 0.715646 0.892947
O O5 0.550552 0.500000 0.106128
O O6 0.232646 0.500000 0.846412
O O7 0.217421 0.825472 0.742056
O O8 0.434499 0.000000 0.879382
O O9 0.500000 0.820092 0.000000
O O10 0.164467 0.613178 0.683650
O O11 0.000000 0.770332 0.500000
O O12 0.899174 0.713154 0.552805
O O13 0.500000 0.312548 0.500000
O O14 0.502330 0.500000 0.574631
O O15 0.364635 0.328449 0.541886
O O16 0.691039 0.334935 0.743014
O O17 0.230665 0.500000 0.524451
O O18 0.774546 0.500000 0.883845
O O19 0.000000 0.656065 0.000000
#
# Coordination Sequence:
#
# PCOD9142946 Si02
#       8
#     4   2   4   4   4   4   4   2
#     4  11  18  34  54  74 104 143 177 207 259 309
#     4  11  18  30  47  74 106 140 172 202 250 323
#     4  11  25  42  55  71 102 139 178 222 266 306
#     4  12  21  33  52  77 106 133 168 211 254 313
#     4   8  15  29  44  62 102 146 168 191 240 301
#     4  10  18  30  49  77 109 140 171 204 250 311
#     4   9  17  30  48  76 107 134 168 207 249 306
#     4  11  21  28  46  76 110 137 163 211 259 301
#
# _framework density 16.215036999999999
#
# number of rings (size 3 to 8) (size 9 to 14) (size 15 to 20)
#    0.000    1.714    5.000    1.929    0.000    0.286 
#    5.143    0.000    0.000    0.429    0.000    0.000 
#    0.000    3.429    0.000    0.000    0.000    0.000 
#
# Total GULP energy -155980.245097 kJ/mol
# GULP energy per Si atom -5570.723039 kJ/mol
# Density = 1.617813 g / cm^3
# Si number density = 16.215037 Si / 1000 Ang^3
#
#
#
# Elastic Constant Matrix: (Units=GPa)
#
#
# Indices 1 2 3 4 5 6 
#
# 1 130.9119 24.4430 69.0678 0.0000 -1.1257 0.0000
# 2 24.4430 32.2332 14.0469 0.0000 -2.0104 0.0000
# 3 69.0678 14.0469 97.7201 0.0000 0.0335 0.0000
# 4 0.0000 0.0000 0.0000 54.5563 0.0000 18.6741
# 5 -1.1257 -2.0104 0.0335 0.0000 30.5036 0.0000
# 6 0.0000 0.0000 0.0000 18.6741 0.0000 134.2415
#
#
#
# Elastic Compliance Matrix: (Units=1/GPa)
#
#
# Indices 1 2 3 4 5 6 
#
# 1 0.013312 -0.006390 -0.008490 0.000000 0.000079 0.000000
# 2 -0.006390 0.036311 -0.000704 0.000000 0.002158 0.000000
# 3 -0.008490 -0.000704 0.016335 0.000000 -0.000378 0.000000
# 4 0.000000 0.000000 0.000000 0.019246 0.000000 -0.002677
# 5 0.000079 0.002158 -0.000378 0.000000 0.032929 0.000000
# 6 0.000000 0.000000 0.000000 -0.002677 0.000000 0.007822
#
#
# Mechanical properties :
#
#
# Convention : Reuss Voigt Hill
#
# Bulk Modulus (GPa) = 28.74388 52.88672 40.81530
# Shear Modulus (GPa) = 29.63510 54.08079 41.85794
#
# Velocity S-wave (km/s) = 4.27972 5.78141 5.08629
# Velocity P-wave (km/s) = 6.49511 8.78936 7.72785
#
# Compressibility (1/GPa) = 0.03479001
#
# Stress axis : x y z
#
# Youngs Moduli (GPa) = 75.12145 27.54010 61.21653
#
# Poissons Ratio (x) = 0.17597 0.51974
# Poissons Ratio (y) = 0.48000 0.04310
# Poissons Ratio (z) = 0.63780 0.01939
#
# Static dielectric constant tensor:
#      x y z
#    x 1.582180 0.000000 -0.010330 
#    y 0.000000 1.528120 0.000000 
#    z -0.010330 0.000000 1.551250 
# 
# From -- ./inp_files/78055.got.cif
#   From: 2010.05.17/outbox.cif.g08.bks.cpg/sg10_40_cif.got.tgz:78055.got - 2010.06.03 11:33:40.
