data_PCOD9142298
_publ_section_title
;
Structure prediction by ZEFSAII (Michael W. Deem and Ramdas Pophale) SiO2 
 PCOD9142298
Probable space group: P 2/M
;
_chemical_formula_sum "Si O2"
_cell_formula_units_Z 32
_cell_length_a 29.924022
_cell_length_b 8.955146
_cell_length_c 20.298621
_cell_angle_alpha 90.000000
_cell_angle_beta 156.673996
_cell_angle_gamma 90.000000
_cell_volume 2153.837892
_symmetry_space_group_name_H-M "P 2/M"
_symmetry_group_IT_number 10
_symmetry_cell_setting 'monoclinic'
loop_
_space_group_symop_operation_xyz
x,y,z
-x,y,-z
-x,-y,-z
x,-y,z
loop_
_atom_site_type_symbol
_atom_site_label
_atom_site_fract_x
_atom_site_fract_y
_atom_site_fract_z
Si Si1 0.077219 0.820154 0.042970
Si Si2 0.937591 0.674204 0.115983
Si Si3 0.981152 0.180832 0.311049
Si Si4 0.332799 0.326181 0.250996
Si Si5 0.755593 0.181171 0.087692
Si Si6 0.883876 0.826887 0.385196
Si Si7 0.444377 0.678253 0.261898
Si Si8 0.660689 0.822469 0.602403
O O1 0.037400 0.748693 0.920466
O O2 0.073422 0.000000 0.031195
O O3 0.208620 0.778847 0.232457
O O4 0.000000 0.776152 0.000000
O O5 0.966874 0.500000 0.154743
O O6 0.990041 0.754216 0.250332
O O7 0.801739 0.686685 0.940331
O O8 0.078242 0.236201 0.493069
O O9 0.859692 0.220749 0.179461
O O10 0.984887 0.000000 0.314337
O O11 0.358782 0.500000 0.301417
O O12 0.392382 0.285305 0.263669
O O13 0.364439 0.227505 0.356501
O O14 0.791640 0.235449 0.209679
O O15 0.749753 0.000000 0.080582
O O16 0.640250 0.249132 0.905021
O O17 0.000000 0.827922 0.500000
O O18 0.852914 0.000000 0.354645
O O19 0.444905 0.500000 0.255751
O O20 0.570390 0.742735 0.433517
O O21 0.650542 0.000000 0.582435
#
# Coordination Sequence:
#
# PCOD9142298 Si02
#       8
#     4   4   4   4   4   4   4   4
#     4   9  19  36  53  66  83 107 137 178 225 265
#     4  10  18  28  43  65  90 115 145 177 212 255
#     4   9  15  25  42  61  84 114 149 184 216 249
#     4   9  18  30  40  54  83 118 144 171 209 246
#     4   9  16  26  41  59  82 115 154 187 212 242
#     4   7  12  23  38  57  80 110 147 185 218 244
#     4  11  20  29  40  57  87 120 146 174 210 250
#     4  10  20  31  45  64  80 102 141 180 213 253
#
# _framework density 14.857200000000001
#
# number of rings (size 3 to 8) (size 9 to 14) (size 15 to 20)
#    0.000    2.750    1.250    3.000    0.000    3.750 
#    0.000    0.625    0.000    2.250    0.000    0.000 
#    0.000    1.000    0.000   11.500    0.000    4.500 
#
# Total GULP energy -178224.980787 kJ/mol
# GULP energy per Si atom -5569.530650 kJ/mol
# Density = 1.482338 g / cm^3
# Si number density = 14.857200 Si / 1000 Ang^3
#
#
#
# Elastic Constant Matrix: (Units=GPa)
#
#
# Indices 1 2 3 4 5 6 
#
# 1 88.4365 29.3547 57.0886 0.0000 -20.5875 0.0000
# 2 29.3547 23.0557 35.6751 0.0000 -12.5149 0.0000
# 3 57.0886 35.6751 103.3505 0.0000 -32.3701 0.0000
# 4 0.0000 0.0000 0.0000 -13.7180 0.0000 16.4526
# 5 -20.5875 -12.5149 -32.3701 0.0000 22.3203 0.0000
# 6 0.0000 0.0000 0.0000 16.4526 0.0000 1.4781
#
#
#
# Elastic Compliance Matrix: (Units=1/GPa)
#
#
# Indices 1 2 3 4 5 6 
#
# 1 0.020813 -0.018371 -0.004340 0.000000 0.002602 0.000000
# 2 -0.018371 0.110613 -0.025499 0.000000 0.008096 0.000000
# 3 -0.004340 -0.025499 0.027747 0.000000 0.021939 0.000000
# 4 0.000000 0.000000 0.000000 -0.005080 0.000000 0.056545
# 5 0.002602 0.008096 0.021939 0.000000 0.083560 0.000000
# 6 0.000000 0.000000 0.000000 0.056545 0.000000 0.047146
#
#
# Mechanical properties :
#
#
# Convention : Reuss Voigt Hill
#
# Bulk Modulus (GPa) = 15.93550 51.00884 33.47217
# Shear Modulus (GPa) = 12.43364 8.19771 10.31568
#
# Velocity S-wave (km/s) = 2.89602 2.35152 2.63786
# Velocity P-wave (km/s) = 4.68312 6.46376 5.64410
#
# Compressibility (1/GPa) = 0.06275296
#
# Stress axis : x y z
#
# Youngs Moduli (GPa) = 48.04710 9.04055 36.04057
#
# Poissons Ratio (x) = 0.16608 0.15642
# Poissons Ratio (y) = 0.88267 0.91898
# Poissons Ratio (z) = 0.20853 0.23052
#
# Static dielectric constant tensor:
#      x y z
#    x 1.476190 0.000000 -0.020240 
#    y 0.000000 1.494150 0.000000 
#    z -0.020240 0.000000 1.509980 
# 
# From -- ./inp_files/87208.got.cif
#   From: 2010.05.17/outbox.cif.g08.bks.cpg/sg10_44_cif.got.tgz:87208.got - 2010.06.03 11:33:40.
