data_PCOD9142029
_publ_section_title
;
Structure prediction by ZEFSAII (Michael W. Deem and Ramdas Pophale) SiO2 
 PCOD9142029
Probable space group: P 2/M
;
_chemical_formula_sum "Si O2"
_cell_formula_units_Z 32
_cell_length_a 18.161814
_cell_length_b 8.782121
_cell_length_c 24.685326
_cell_angle_alpha 90.000000
_cell_angle_beta 149.359516
_cell_angle_gamma 90.000000
_cell_volume 2006.638243
_symmetry_space_group_name_H-M "P 2/M"
_symmetry_group_IT_number 10
_symmetry_cell_setting 'monoclinic'
loop_
_space_group_symop_operation_xyz
x,y,z
-x,y,-z
-x,-y,-z
x,-y,z
loop_
_atom_site_type_symbol
_atom_site_label
_atom_site_fract_x
_atom_site_fract_y
_atom_site_fract_z
Si Si1 0.450598 0.315611 0.357052
Si Si2 0.615901 0.818868 0.803315
Si Si3 0.929605 0.683925 0.013673
Si Si4 0.873367 0.175743 0.374343
Si Si5 0.662453 0.318650 0.322273
Si Si6 0.908768 0.316716 0.566729
Si Si7 0.825905 0.685410 0.747293
Si Si8 0.775234 0.314423 0.594293
O O1 0.448387 0.500000 0.350610
O O2 0.419897 0.246986 0.278892
O O3 0.323231 0.270882 0.317506
O O4 0.608628 0.271092 0.478355
O O5 0.772498 0.756359 0.918866
O O6 0.489115 0.760746 0.762288
O O7 0.617060 0.000000 0.802249
O O8 0.915860 0.500000 0.006377
O O9 0.000000 0.722983 0.000000
O O10 0.039529 0.732762 0.130487
O O11 0.740931 0.266047 0.317006
O O12 0.000000 0.182872 0.500000
O O13 0.948062 0.245889 0.368724
O O14 0.834971 0.000000 0.341879
O O15 0.644597 0.500000 0.311621
O O16 0.772830 0.278401 0.441465
O O17 0.921829 0.500000 0.573965
O O18 0.870073 0.265777 0.602832
O O19 0.827194 0.500000 0.747462
O O20 0.827350 0.737888 0.686142
O O21 0.777796 0.500000 0.596063
#
# Coordination Sequence:
#
# PCOD9142029 Si02
#       8
#     4   4   4   4   4   4   4   4
#     4  10  17  31  50  71  97 128 165 203 245 289
#     4  12  23  32  47  71  99 131 165 202 248 294
#     4  10  19  34  53  71  92 124 168 212 250 288
#     4   9  17  28  43  67  99 131 159 190 232 286
#     4  10  18  31  49  70  95 126 162 200 241 286
#     4   9  16  27  45  69  98 129 160 193 234 286
#     4   9  17  29  50  74  95 123 166 213 249 283
#     4   9  16  27  47  76 101 125 162 206 244 284
#
# _framework density 15.94707
#
# number of rings (size 3 to 8) (size 9 to 14) (size 15 to 20)
#    0.000    2.250    2.500    2.250    0.000    3.750 
#    0.000    0.000    0.000    3.750    0.000    0.875 
#    0.000    7.000    0.000    0.000    0.000    0.000 
#
# Total GULP energy -178465.047774 kJ/mol
# GULP energy per Si atom -5577.032743 kJ/mol
# Density = 1.591077 g / cm^3
# Si number density = 15.947070 Si / 1000 Ang^3
#
#
#
# Elastic Constant Matrix: (Units=GPa)
#
#
# Indices 1 2 3 4 5 6 
#
# 1 149.7385 36.3612 81.8152 0.0000 8.6104 0.0000
# 2 36.3612 28.2349 25.3492 0.0000 4.5387 0.0000
# 3 81.8152 25.3492 94.2354 0.0000 -7.2897 0.0000
# 4 0.0000 0.0000 0.0000 7.8925 0.0000 1.6003
# 5 8.6104 4.5387 -7.2897 0.0000 19.6389 0.0000
# 6 0.0000 0.0000 0.0000 1.6003 0.0000 -0.2068
#
#
#
# Elastic Compliance Matrix: (Units=1/GPa)
#
#
# Indices 1 2 3 4 5 6 
#
# 1 0.015990 -0.007714 -0.012573 0.000000 -0.009895 0.000000
# 2 -0.007714 0.055801 -0.009317 0.000000 -0.012972 0.000000
# 3 -0.012573 -0.009317 0.025355 0.000000 0.017077 0.000000
# 4 0.000000 0.000000 0.000000 0.049318 0.000000 0.381661
# 5 -0.009895 -0.012972 0.017077 0.000000 0.064595 0.000000
# 6 0.000000 0.000000 0.000000 0.381661 0.000000 -1.882348
#
#
# Mechanical properties :
#
#
# Convention : Reuss Voigt Hill
#
# Bulk Modulus (GPa) = 26.35837 62.13999 44.24918
# Shear Modulus (GPa) = -3.12610 14.04380 5.45885
#
# Velocity S-wave (km/s) = -1.40163 2.97080 1.85217
# Velocity P-wave (km/s) = 3.73432 7.12871 5.69050
#
# Compressibility (1/GPa) = 0.03793861
#
# Stress axis : x y z
#
# Youngs Moduli (GPa) = 62.53802 17.92095 39.43991
#
# Poissons Ratio (x) = 0.13824 0.49589
# Poissons Ratio (y) = 0.48240 0.36745
# Poissons Ratio (z) = 0.78631 0.16697
#
# Static dielectric constant tensor:
#      x y z
#    x 1.535040 0.000000 -0.001370 
#    y 0.000000 1.529540 0.000000 
#    z -0.001370 0.000000 1.511400 
# 
# From -- ./inp_files/54897.got.cif
#   From: 2010.05.17/outbox.cif.g08.bks.cpg/sg10_28_cif.got.tgz:54897.got - 2010.06.03 11:33:40.
