data_PCOD9142364
_publ_section_title
;
Structure prediction by ZEFSAII (Michael W. Deem and Ramdas Pophale) SiO2 
 PCOD9142364
Probable space group: P 2/M
;
_chemical_formula_sum "Si O2"
_cell_formula_units_Z 30
_cell_length_a 23.617498
_cell_length_b 15.158689
_cell_length_c 5.457303
_cell_angle_alpha 90.000000
_cell_angle_beta 62.474677
_cell_angle_gamma 90.000000
_cell_volume 1732.616904
_symmetry_space_group_name_H-M "P 2/M"
_symmetry_group_IT_number 10
_symmetry_cell_setting 'monoclinic'
loop_
_space_group_symop_operation_xyz
x,y,z
-x,y,-z
-x,-y,-z
x,-y,z
loop_
_atom_site_type_symbol
_atom_site_label
_atom_site_fract_x
_atom_site_fract_y
_atom_site_fract_z
Si Si1 0.772879 0.097958 0.204242
Si Si2 0.780873 0.316831 0.688255
Si Si3 0.636490 0.253737 0.977021
Si Si4 0.847926 0.139444 0.554149
Si Si5 0.737423 0.396869 0.275154
Si Si6 0.536595 0.395086 0.176809
Si Si7 0.346392 0.773800 0.557215
Si Si8 0.040745 0.000000 0.668511
O O1 0.813576 0.109560 0.370860
O O2 0.718137 0.170403 0.313726
O O3 0.745061 0.000000 0.259878
O O4 0.813576 0.109560 0.874837
O O5 0.713520 0.262150 0.822961
O O6 0.838188 0.245854 0.573625
O O7 0.776169 0.372637 0.446388
O O8 0.776169 0.372637 0.948938
O O9 0.617267 0.208299 0.764798
O O10 0.605044 0.349527 0.039912
O O11 0.617267 0.208299 0.266136
O O12 0.914859 0.087894 0.420281
O O13 0.719825 0.500000 0.310351
O O14 0.676874 0.329329 0.396252
O O15 0.500000 0.369633 0.500000
O O16 0.542896 0.500000 0.164205
O O17 0.500000 0.369632 0.000000
O O18 0.000000 0.000000 0.500000
O O19 0.000000 0.000000 0.000000
#
# Coordination Sequence:
#
# PCOD9142364 Si02
#       8
#     4   4   4   4   4   4   4   2
#     4  12  19  33  55  82 105 153 183 213 293 345
#     4  10  19  33  49  75 103 144 183 222 292 331
#     4  10  18  31  50  69 102 135 180 238 270 323
#     4  12  20  37  57  74 116 155 176 237 270 323
#     4  10  18  28  45  70 109 139 170 217 268 339
#     4  10  21  35  49  70 104 151 199 231 273 338
#     4  10  19  31  46  76 110 132 181 228 277 352
#     4  12  26  40  56  90 120 156 202 218 254 342
#
# _framework density 17.314847
#
# number of rings (size 3 to 8) (size 9 to 14) (size 15 to 20)
#    0.000    1.333    6.667    2.000    0.000    4.267 
#    0.000    1.333    0.000    0.000    0.000    0.000 
#    0.000   21.333    0.000    0.000    0.000    0.000 
#
# Total GULP energy -167131.672284 kJ/mol
# GULP energy per Si atom -5571.055743 kJ/mol
# Density = 1.727544 g / cm^3
# Si number density = 17.314847 Si / 1000 Ang^3
#
#
#
# Elastic Constant Matrix: (Units=GPa)
#
#
# Indices 1 2 3 4 5 6 
#
# 1 56.6328 13.1263 38.1023 0.0000 22.9191 0.0000
# 2 13.1263 45.3900 17.3749 0.0000 3.6800 0.0000
# 3 38.1023 17.3749 134.1709 0.0000 44.2314 0.0000
# 4 0.0000 0.0000 0.0000 212.2200 0.0000 104.5704
# 5 22.9191 3.6800 44.2314 0.0000 40.9546 0.0000
# 6 0.0000 0.0000 0.0000 104.5704 0.0000 91.4748
#
#
#
# Elastic Compliance Matrix: (Units=1/GPa)
#
#
# Indices 1 2 3 4 5 6 
#
# 1 0.025087 -0.005251 -0.003062 0.000000 -0.010261 0.000000
# 2 -0.005251 0.024365 -0.002968 0.000000 0.003954 0.000000
# 3 -0.003062 -0.002968 0.012507 0.000000 -0.011528 0.000000
# 4 0.000000 0.000000 0.000000 0.010790 0.000000 -0.012335
# 5 -0.010261 0.003954 -0.011528 0.000000 0.042254 0.000000
# 6 0.000000 0.000000 0.000000 -0.012335 0.000000 0.025032
#
#
# Mechanical properties :
#
#
# Convention : Reuss Voigt Hill
#
# Bulk Modulus (GPa) = 25.38145 41.48897 33.43521
# Shear Modulus (GPa) = 28.45270 80.10256 54.27763
#
# Velocity S-wave (km/s) = 4.05811 6.80902 5.60495
# Velocity P-wave (km/s) = 6.05378 9.26448 7.82556
#
# Compressibility (1/GPa) = 0.03939885
#
# Stress axis : x y z
#
# Youngs Moduli (GPa) = 39.86107 41.04205 79.95315
#
# Poissons Ratio (x) = 0.21551 0.24479
# Poissons Ratio (y) = 0.20931 0.23728
# Poissons Ratio (z) = 0.12204 0.12180
#
# Static dielectric constant tensor:
#      x y z
#    x 1.595420 0.000000 0.049810 
#    y 0.000000 1.588940 0.000000 
#    z 0.049810 0.000000 1.652940 
# 
# From -- ./inp_files/13289.got.cif
#   From: 2010.05.17/outbox.cif.g08.bks.cpg/sg10_7_cif.got.tgz:13289.got - 2010.06.03 11:33:40.
