data_PCOD9142755
_publ_section_title
;
Structure prediction by ZEFSAII (Michael W. Deem and Ramdas Pophale) SiO2 
 PCOD9142755
Probable space group: P 2/M
;
_chemical_formula_sum "Si O2"
_cell_formula_units_Z 32
_cell_length_a 30.867980
_cell_length_b 7.673957
_cell_length_c 13.128461
_cell_angle_alpha 90.000000
_cell_angle_beta 151.853807
_cell_angle_gamma 90.000000
_cell_volume 1466.994092
_symmetry_space_group_name_H-M "P 2/M"
_symmetry_group_IT_number 10
_symmetry_cell_setting 'monoclinic'
loop_
_space_group_symop_operation_xyz
x,y,z
-x,y,-z
-x,-y,-z
x,-y,z
loop_
_atom_site_type_symbol
_atom_site_label
_atom_site_fract_x
_atom_site_fract_y
_atom_site_fract_z
Si Si1 0.626978 0.796800 0.052144
Si Si2 0.737709 0.696434 0.846086
Si Si3 0.101631 0.293038 0.681272
Si Si4 0.156993 0.205252 0.130688
Si Si5 0.031526 0.787733 0.174668
Si Si6 0.582113 0.294682 0.390289
Si Si7 0.314879 0.709156 0.599046
Si Si8 0.815301 0.211656 0.362900
O O1 0.655397 0.777314 0.229615
O O2 0.710986 0.724846 0.158692
O O3 0.619247 0.000000 0.013059
O O4 0.526327 0.722001 0.826333
O O5 0.718867 0.500000 0.845650
O O6 0.792771 0.692268 0.853690
O O7 0.641724 0.778904 0.608558
O O8 0.811191 0.781106 0.074750
O O9 0.098863 0.500000 0.699115
O O10 0.129160 0.267966 0.621321
O O11 0.000000 0.223882 0.500000
O O12 0.213532 0.235091 0.352104
O O13 0.161657 0.000000 0.116894
O O14 0.051849 0.257213 0.923207
O O15 0.127119 0.729164 0.419107
O O16 0.034516 0.000000 0.174972
O O17 0.000000 0.722005 0.000000
O O18 0.603883 0.500000 0.434739
O O19 0.619042 0.227990 0.357121
O O20 0.319577 0.500000 0.613925
O O21 0.813626 0.000000 0.359621
#
# Coordination Sequence:
#
# PCOD9142755 Si02
#       8
#     4   4   4   4   4   4   4   4
#     4  11  22  35  53  78 108 142 183 230 272 313
#     4   9  19  36  55  77 107 138 170 215 270 323
#     4  10  21  38  61  86 110 138 176 223 270 319
#     4  10  18  29  51  80 105 135 177 221 263 312
#     4   9  17  31  50  72 104 143 175 207 255 315
#     4   9  19  35  54  76 105 143 182 218 265 324
#     4  10  20  34  53  78 111 149 183 218 266 323
#     4  10  22  38  55  79 110 143 180 222 272 327
#
# _framework density 21.813310999999999
#
# number of rings (size 3 to 8) (size 9 to 14) (size 15 to 20)
#    0.000    2.250    0.000    3.750    0.000    7.750 
#    0.000    1.250    0.000    6.375    0.000    0.000 
#    0.000    0.000    0.000    0.000    0.000    0.000 
#
# Total GULP energy -178576.347371 kJ/mol
# GULP energy per Si atom -5580.510855 kJ/mol
# Density = 2.176366 g / cm^3
# Si number density = 21.813311 Si / 1000 Ang^3
#
#
#
# Elastic Constant Matrix: (Units=GPa)
#
#
# Indices 1 2 3 4 5 6 
#
# 1 77.9534 -3.6547 51.1725 0.0000 12.9003 0.0000
# 2 -3.6547 39.4620 -9.5441 0.0000 5.8123 0.0000
# 3 51.1725 -9.5441 129.3266 0.0000 8.3387 0.0000
# 4 0.0000 0.0000 0.0000 11.5177 0.0000 0.6682
# 5 12.9003 5.8123 8.3387 0.0000 38.3104 0.0000
# 6 0.0000 0.0000 0.0000 0.6682 0.0000 14.2477
#
#
#
# Elastic Compliance Matrix: (Units=1/GPa)
#
#
# Indices 1 2 3 4 5 6 
#
# 1 0.018115 0.000727 -0.006809 0.000000 -0.004728 0.000000
# 2 0.000727 0.026580 0.001977 0.000000 -0.004708 0.000000
# 3 -0.006809 0.001977 0.010593 0.000000 -0.000313 0.000000
# 4 0.000000 0.000000 0.000000 0.087060 0.000000 -0.004083
# 5 -0.004728 -0.004708 -0.000313 0.000000 0.028477 0.000000
# 6 0.000000 0.000000 0.000000 -0.004083 0.000000 0.070378
#
#
# Mechanical properties :
#
#
# Convention : Reuss Voigt Hill
#
# Bulk Modulus (GPa) = 21.24136 35.85437 28.54787
# Shear Modulus (GPa) = 18.86053 26.73304 22.79678
#
# Velocity S-wave (km/s) = 2.94366 3.50457 3.23629
# Velocity P-wave (km/s) = 4.61654 5.73137 5.20389
#
# Compressibility (1/GPa) = 0.04707796
#
# Stress axis : x y z
#
# Youngs Moduli (GPa) = 55.20423 37.62251 94.40444
#
# Poissons Ratio (x) = -0.02736 0.64281
# Poissons Ratio (y) = -0.04014 -0.18667
# Poissons Ratio (z) = 0.37589 -0.07439
#
# Static dielectric constant tensor:
#      x y z
#    x 1.779740 0.000000 -0.004200 
#    y 0.000000 1.824830 0.000000 
#    z -0.004200 0.000000 1.834250 
# 
# From -- ./inp_files/58327.got.cif
#   From: 2010.05.17/outbox.cif.g08.bks.cpg/sg10_30_cif.got.tgz:58327.got - 2010.06.03 11:33:40.
