data_PCOD9142419
_publ_section_title
;
Structure prediction by ZEFSAII (Michael W. Deem and Ramdas Pophale) SiO2 
 PCOD9142419
Probable space group: P 2/M
;
_chemical_formula_sum "Si O2"
_cell_formula_units_Z 32
_cell_length_a 20.777018
_cell_length_b 9.101710
_cell_length_c 25.855789
_cell_angle_alpha 90.000000
_cell_angle_beta 157.277059
_cell_angle_gamma 90.000000
_cell_volume 1888.691591
_symmetry_space_group_name_H-M "P 2/M"
_symmetry_group_IT_number 10
_symmetry_cell_setting 'monoclinic'
loop_
_space_group_symop_operation_xyz
x,y,z
-x,y,-z
-x,-y,-z
x,-y,z
loop_
_atom_site_type_symbol
_atom_site_label
_atom_site_fract_x
_atom_site_fract_y
_atom_site_fract_z
Si Si1 0.834053 0.324352 0.343562
Si Si2 0.446836 0.824672 0.580659
Si Si3 0.186396 0.323705 0.892236
Si Si4 0.852905 0.322846 0.704714
Si Si5 0.337887 0.823582 0.611981
Si Si6 0.341431 0.669447 0.343171
Si Si7 0.023540 0.323608 0.661943
Si Si8 0.468612 0.176128 0.821547
O O1 0.804020 0.500000 0.324725
O O2 0.678274 0.239355 0.251519
O O3 0.000000 0.292311 0.500000
O O4 0.873985 0.286418 0.313777
O O5 0.282660 0.754038 0.432597
O O6 0.441008 0.785302 0.636833
O O7 0.604346 0.763941 0.665611
O O8 0.438802 0.000000 0.569443
O O9 0.212591 0.500000 0.912624
O O10 0.036994 0.288580 0.821342
O O11 0.119569 0.283990 0.785574
O O12 0.355488 0.242529 0.031382
O O13 0.828559 0.500000 0.682658
O O14 0.809937 0.281818 0.732093
O O15 0.156487 0.751068 0.473729
O O16 0.424892 0.780633 0.730027
O O17 0.317214 0.000000 0.597083
O O18 0.500000 0.673855 0.500000
O O19 0.317545 0.500000 0.310084
O O20 0.999256 0.500000 0.644191
O O21 0.471946 0.000000 0.827108
#
# Coordination Sequence:
#
# PCOD9142419 Si02
#       8
#     4   4   4   4   4   4   4   4
#     4  10  20  36  59  84 107 134 174 221 265 315
#     4  10  18  28  47  76 106 135 172 218 260 306
#     4  10  21  37  56  79 108 140 177 220 264 312
#     4   9  17  31  51  74 104 139 173 212 262 312
#     4  10  21  35  52  77 108 140 177 220 262 310
#     4   8  15  27  44  71 105 137 169 211 260 309
#     4  10  20  35  59  84 104 134 176 221 266 312
#     4  11  24  39  55  77 108 145 179 215 264 319
#
# _framework density 16.942947
#
# number of rings (size 3 to 8) (size 9 to 14) (size 15 to 20)
#    0.000    2.250    2.500    1.500    0.000    5.500 
#    0.000    2.500    0.000    0.750    0.000    5.250 
#    0.000    0.000    0.000    0.000    0.000    0.000 
#
# Total GULP energy -178480.920408 kJ/mol
# GULP energy per Si atom -5577.528763 kJ/mol
# Density = 1.690438 g / cm^3
# Si number density = 16.942947 Si / 1000 Ang^3
#
#
#
# Elastic Constant Matrix: (Units=GPa)
#
#
# Indices 1 2 3 4 5 6 
#
# 1 181.1176 55.2579 86.6439 0.0000 14.1760 0.0000
# 2 55.2579 31.1789 43.3198 0.0000 4.3679 0.0000
# 3 86.6439 43.3198 113.1446 0.0000 4.3217 0.0000
# 4 0.0000 0.0000 0.0000 -0.0550 0.0000 -8.3662
# 5 14.1760 4.3679 4.3217 0.0000 22.3097 0.0000
# 6 0.0000 0.0000 0.0000 -8.3662 0.0000 20.8222
#
#
#
# Elastic Compliance Matrix: (Units=1/GPa)
#
#
# Indices 1 2 3 4 5 6 
#
# 1 0.012621 -0.018367 -0.002482 0.000000 -0.003943 0.000000
# 2 -0.018367 0.096853 -0.022908 0.000000 -0.002854 0.000000
# 3 -0.002482 -0.022908 0.019422 0.000000 0.002300 0.000000
# 4 0.000000 0.000000 0.000000 -0.292693 0.000000 -0.117602
# 5 -0.003943 -0.002854 0.002300 0.000000 0.047442 0.000000
# 6 0.000000 0.000000 0.000000 -0.117602 0.000000 0.000774
#
#
# Mechanical properties :
#
#
# Convention : Reuss Voigt Hill
#
# Bulk Modulus (GPa) = 24.16541 77.32047 50.74294
# Shear Modulus (GPa) = -350.30512 17.96332 -166.17090
#
# Velocity S-wave (km/s) = -14.39460 3.25964 -9.91411
# Velocity P-wave (km/s) = 16.18577 7.73963 10.05179
#
# Compressibility (1/GPa) = 0.04138146
#
# Stress axis : x y z
#
# Youngs Moduli (GPa) = 79.23363 10.32494 51.48805
#
# Poissons Ratio (x) = 0.18964 0.12780
# Poissons Ratio (y) = 1.45528 1.17950
# Poissons Ratio (z) = 0.19666 0.23653
#
# Static dielectric constant tensor:
#      x y z
#    x 1.598430 0.000000 0.005910 
#    y 0.000000 1.564910 0.000000 
#    z 0.005910 0.000000 1.532630 
# 
# From -- ./inp_files/93722.got.cif
#   From: 2010.05.17/outbox.cif.g08.bks.cpg/sg10_47_cif.got.tgz:93722.got - 2010.06.03 11:33:40.
