data_PCOD9142160
_publ_section_title
;
Structure prediction by ZEFSAII (Michael W. Deem and Ramdas Pophale) SiO2 
 PCOD9142160
Probable space group: P 2/M
;
_chemical_formula_sum "Si O2"
_cell_formula_units_Z 32
_cell_length_a 15.851759
_cell_length_b 18.356488
_cell_length_c 20.716752
_cell_angle_alpha 90.000000
_cell_angle_beta 19.026795
_cell_angle_gamma 90.000000
_cell_volume 1965.260139
_symmetry_space_group_name_H-M "P 2/M"
_symmetry_group_IT_number 10
_symmetry_cell_setting 'monoclinic'
loop_
_space_group_symop_operation_xyz
x,y,z
-x,y,-z
-x,-y,-z
x,-y,z
loop_
_atom_site_type_symbol
_atom_site_label
_atom_site_fract_x
_atom_site_fract_y
_atom_site_fract_z
Si Si1 0.216395 0.914925 0.674945
Si Si2 0.281093 0.417310 0.332230
Si Si3 0.213019 0.083390 0.238987
Si Si4 0.432810 0.690086 0.118626
Si Si5 0.432628 0.176653 0.187881
Si Si6 0.682979 0.913451 0.117066
Si Si7 0.156658 0.719056 0.491440
Si Si8 0.768380 0.155776 0.473905
O O1 0.500000 0.908328 0.500000
O O2 0.201825 0.864468 0.622283
O O3 0.179245 0.000000 0.681365
O O4 0.991738 0.900205 0.890341
O O5 0.359564 0.500000 0.288597
O O6 0.454534 0.372819 0.155656
O O7 0.256844 0.363488 0.410857
O O8 0.000000 0.419808 0.500000
O O9 0.238610 0.131272 0.284188
O O10 0.995090 0.114552 0.349559
O O11 0.151885 0.000000 0.298242
O O12 0.500000 0.086297 0.000000
O O13 0.573966 0.764678 0.038584
O O14 0.136310 0.715178 0.322134
O O15 0.500000 0.661647 0.000000
O O16 0.593202 0.118595 0.112690
O O17 0.303955 0.229915 0.333377
O O18 0.505800 0.874224 0.299111
O O19 0.637390 0.000000 0.154452
O O20 0.197102 0.760018 0.529603
#
# Coordination Sequence:
#
# PCOD9142160 Si02
#       8
#     4   4   4   4   4   4   4   4
#     4  10  22  39  54  68  90 121 160 211 264 300
#     4   8  15  29  45  60  86 124 162 194 220 260
#     4  11  21  29  42  65  94 129 162 199 240 278
#     4  10  18  26  40  63  90 128 161 188 228 264
#     4  10  18  29  42  61  93 127 158 187 223 275
#     4  10  21  33  49  71  91 121 163 203 247 292
#     4   9  19  30  43  64  92 125 159 187 226 278
#     4  11  21  34  50  70  95 123 165 204 242 290
#
# _framework density 16.282831000000002
#
# number of rings (size 3 to 8) (size 9 to 14) (size 15 to 20)
#    0.000    2.125    1.250    3.750    3.500    2.750 
#    0.000    3.750    0.000    0.000    0.000    0.000 
#    0.000    0.500    0.000   12.375    0.000   10.125 
#
# Total GULP energy -178314.926277 kJ/mol
# GULP energy per Si atom -5572.341446 kJ/mol
# Density = 1.624577 g / cm^3
# Si number density = 16.282831 Si / 1000 Ang^3
#
#
#
# Elastic Constant Matrix: (Units=GPa)
#
#
# Indices 1 2 3 4 5 6 
#
# 1 11.7337 4.3894 -0.3563 0.0000 5.9623 0.0000
# 2 4.3894 101.3452 7.8136 0.0000 7.9411 0.0000
# 3 -0.3563 7.8136 63.3740 0.0000 3.4501 0.0000
# 4 0.0000 0.0000 0.0000 6.8934 0.0000 3.8362
# 5 5.9623 7.9411 3.4501 0.0000 16.8562 0.0000
# 6 0.0000 0.0000 0.0000 3.8362 0.0000 15.2753
#
#
#
# Elastic Compliance Matrix: (Units=1/GPa)
#
#
# Indices 1 2 3 4 5 6 
#
# 1 0.104668 -0.001874 0.002818 0.000000 -0.036717 0.000000
# 2 -0.001874 0.010344 -0.001069 0.000000 -0.003992 0.000000
# 3 0.002818 -0.001069 0.016134 0.000000 -0.003796 0.000000
# 4 0.000000 0.000000 0.000000 0.168636 0.000000 -0.042351
# 5 -0.036717 -0.003992 -0.003796 0.000000 0.074970 0.000000
# 6 0.000000 0.000000 0.000000 -0.042351 0.000000 0.076101
#
#
# Mechanical properties :
#
#
# Convention : Reuss Voigt Hill
#
# Bulk Modulus (GPa) = 7.63955 22.23847 14.93901
# Shear Modulus (GPa) = 10.10648 18.77872 14.44260
#
# Velocity S-wave (km/s) = 2.49405 3.39969 2.98146
# Velocity P-wave (km/s) = 3.60496 5.39423 4.58767
#
# Compressibility (1/GPa) = 0.13089775
#
# Stress axis : x y z
#
# Youngs Moduli (GPa) = 9.55400 96.67851 61.98253
#
# Poissons Ratio (x) = 0.18114 -0.17469
# Poissons Ratio (y) = 0.01790 0.06623
# Poissons Ratio (z) = -0.02693 0.10330
#
# Static dielectric constant tensor:
#      x y z
#    x 1.556580 0.000000 0.054180 
#    y 0.000000 1.564350 0.000000 
#    z 0.054180 0.000000 1.626180 
# 
# From -- ./inp_files/85491.got.cif
#   From: 2010.05.17/outbox.cif.g08.bks.cpg/sg10_43_cif.got.tgz:85491.got - 2010.06.03 11:33:40.
