data_PCOD9142187
_publ_section_title
;
Structure prediction by ZEFSAII (Michael W. Deem and Ramdas Pophale) SiO2 
 PCOD9142187
Probable space group: P 2/M
;
_chemical_formula_sum "Si O2"
_cell_formula_units_Z 32
_cell_length_a 31.503168
_cell_length_b 7.712804
_cell_length_c 10.761569
_cell_angle_alpha 90.000000
_cell_angle_beta 27.739746
_cell_angle_gamma 90.000000
_cell_volume 1217.084897
_symmetry_space_group_name_H-M "P 2/M"
_symmetry_group_IT_number 10
_symmetry_cell_setting 'monoclinic'
loop_
_space_group_symop_operation_xyz
x,y,z
-x,y,-z
-x,-y,-z
x,-y,z
loop_
_atom_site_type_symbol
_atom_site_label
_atom_site_fract_x
_atom_site_fract_y
_atom_site_fract_z
Si Si1 0.059263 0.708357 0.963204
Si Si2 0.434673 0.705243 0.931534
Si Si3 0.612210 0.795740 0.341851
Si Si4 0.274978 0.298823 0.188987
Si Si5 0.101115 0.795651 0.217111
Si Si6 0.112259 0.289675 0.455917
Si Si7 0.773846 0.203714 0.326383
Si Si8 0.601146 0.705268 0.640670
O O1 0.061012 0.500000 0.952767
O O2 0.992122 0.764054 0.249170
O O3 0.162589 0.762989 0.719368
O O4 0.000000 0.769038 0.000000
O O5 0.419978 0.500000 0.987857
O O6 0.508652 0.728413 0.628007
O O7 0.340466 0.782403 0.124289
O O8 0.498175 0.776319 0.879544
O O9 0.667190 0.706109 0.089645
O O10 0.649517 0.765185 0.386212
O O11 0.611370 0.000000 0.318794
O O12 0.259337 0.500000 0.264043
O O13 0.178099 0.226283 0.395608
O O14 0.144975 0.777109 0.239262
O O15 0.000000 0.717487 0.500000
O O16 0.090416 0.000000 0.217319
O O17 0.164503 0.718584 0.945641
O O18 0.115435 0.500000 0.447982
O O19 0.670827 0.265844 0.572850
O O20 0.766835 0.000000 0.328326
O O21 0.588783 0.500000 0.667355
#
# Coordination Sequence:
#
# PCOD9142187 Si02
#       8
#     4   4   4   4   4   4   4   4
#     4  10  22  40  58  77 103 134 171 217 264 310
#     4   8  17  30  43  61  93 137 175 208 248 296
#     4  10  18  27  40  64  98 135 174 209 244 293
#     4  10  18  30  45  64  94 133 174 213 253 299
#     4  10  20  34  49  70 104 139 166 205 259 310
#     4  10  21  34  53  78 101 135 179 217 254 305
#     4  11  21  34  54  79 105 136 171 212 258 304
#     4   9  18  31  46  66  95 132 168 203 246 294
#
# _framework density 26.292332999999999
#
# number of rings (size 3 to 8) (size 9 to 14) (size 15 to 20)
#    0.750    1.500    1.250    2.625    0.000    6.000 
#    0.000    0.000    0.000    0.000    0.000    0.875 
#    0.000    7.000    0.000    0.000    0.000    0.000 
#
# Total GULP energy -178723.498585 kJ/mol
# GULP energy per Si atom -5585.109331 kJ/mol
# Density = 2.623249 g / cm^3
# Si number density = 26.292333 Si / 1000 Ang^3
#
#
#
# Elastic Constant Matrix: (Units=GPa)
#
#
# Indices 1 2 3 4 5 6 
#
# 1 166.3521 -5.2180 57.0851 0.0000 -43.1080 0.0000
# 2 -5.2180 72.1111 3.8985 0.0000 -5.0297 0.0000
# 3 57.0851 3.8985 163.4314 0.0000 -38.6005 0.0000
# 4 0.0000 0.0000 0.0000 -1.1583 0.0000 -5.9157
# 5 -43.1080 -5.0297 -38.6005 0.0000 56.9930 0.0000
# 6 0.0000 0.0000 0.0000 -5.9157 0.0000 33.7023
#
#
#
# Elastic Compliance Matrix: (Units=1/GPa)
#
#
# Indices 1 2 3 4 5 6 
#
# 1 0.007879 0.001003 -0.001604 0.000000 0.004962 0.000000
# 2 0.001003 0.014081 -0.000254 0.000000 0.001829 0.000000
# 3 -0.001604 -0.000254 0.007611 0.000000 0.003919 0.000000
# 4 0.000000 0.000000 0.000000 -0.455234 0.000000 -0.079907
# 5 0.004962 0.001829 0.003919 0.000000 0.024114 0.000000
# 6 0.000000 0.000000 0.000000 -0.079907 0.000000 0.015646
#
#
# Mechanical properties :
#
#
# Convention : Reuss Voigt Hill
#
# Bulk Modulus (GPa) = 35.89338 57.04733 46.47035
# Shear Modulus (GPa) = -13.33668 40.98267 13.82299
#
# Velocity S-wave (km/s) = -2.25466 3.95236 2.29539
# Velocity P-wave (km/s) = 2.62742 6.52477 4.97373
#
# Compressibility (1/GPa) = 0.02786029
#
# Stress axis : x y z
#
# Youngs Moduli (GPa) = 126.91981 71.01574 131.39324
#
# Poissons Ratio (x) = -0.07122 0.21077
# Poissons Ratio (y) = -0.12729 0.03340
# Poissons Ratio (z) = 0.20360 0.01805
#
# Static dielectric constant tensor:
#      x y z
#    x 2.222270 0.000000 0.051240 
#    y 0.000000 1.919040 0.000000 
#    z 0.051240 0.000000 2.125400 
# 
# From -- ./inp_files/58079.got.cif
#   From: 2010.05.17/outbox.cif.g08.bks.cpg/sg10_30_cif.got.tgz:58079.got - 2010.06.03 11:33:40.
