data_PCOD9142149
_publ_section_title
;
Structure prediction by ZEFSAII (Michael W. Deem and Ramdas Pophale) SiO2 
 PCOD9142149
Probable space group: P 2/M
;
_chemical_formula_sum "Si O2"
_cell_formula_units_Z 32
_cell_length_a 18.935983
_cell_length_b 9.145516
_cell_length_c 24.471877
_cell_angle_alpha 90.000000
_cell_angle_beta 30.455247
_cell_angle_gamma 90.000000
_cell_volume 2148.106580
_symmetry_space_group_name_H-M "P 2/M"
_symmetry_group_IT_number 10
_symmetry_cell_setting 'monoclinic'
loop_
_space_group_symop_operation_xyz
x,y,z
-x,y,-z
-x,-y,-z
x,-y,z
loop_
_atom_site_type_symbol
_atom_site_label
_atom_site_fract_x
_atom_site_fract_y
_atom_site_fract_z
Si Si1 0.653940 0.676694 0.335288
Si Si2 0.343033 0.323266 0.538286
Si Si3 0.051190 0.676632 0.905199
Si Si4 0.352689 0.668608 0.983238
Si Si5 0.591035 0.830997 0.883009
Si Si6 0.110036 0.826436 0.085900
Si Si7 0.170865 0.331352 0.216778
Si Si8 0.930748 0.826594 0.316123
O O1 0.650323 0.500000 0.336246
O O2 0.672373 0.714770 0.386949
O O3 0.500563 0.723414 0.418165
O O4 0.788900 0.724215 0.211828
O O5 0.331189 0.500000 0.541562
O O6 0.220311 0.246375 0.587345
O O7 0.044566 0.500000 0.902866
O O8 0.956793 0.750836 0.922088
O O9 0.000000 0.712199 0.000000
O O10 0.372869 0.500000 0.953986
O O11 0.497078 0.747612 0.901410
O O12 0.257212 0.754751 0.004079
O O13 0.263637 0.669346 0.099210
O O14 0.734524 0.750170 0.801769
O O15 0.612873 0.000000 0.853930
O O16 0.500000 0.829277 0.000000
O O17 0.007512 0.802100 0.206314
O O18 0.124162 0.000000 0.069114
O O19 0.145642 0.500000 0.248043
O O20 0.029902 0.247915 0.294914
O O21 0.922399 0.000000 0.330356
#
# Coordination Sequence:
#
# PCOD9142149 Si02
#       8
#     4   4   4   4   4   4   4   4
#     4   8  15  27  43  62  79 100 133 168 207 249
#     4   9  15  26  44  59  77 105 134 168 204 246
#     4  10  19  31  47  63  80 104 136 174 211 250
#     4   9  16  25  38  53  71  99 136 173 202 237
#     4   9  15  23  34  50  74 102 132 167 204 240
#     4  10  19  29  40  56  79 105 134 170 210 250
#     4   9  16  24  35  51  73 104 138 167 198 240
#     4  10  18  26  37  57  81 105 134 171 209 242
#
# _framework density 14.896839999999999
#
# number of rings (size 3 to 8) (size 9 to 14) (size 15 to 20)
#    0.000    2.750    1.250    2.625    0.000    5.750 
#    0.000    1.875    0.000    0.000    0.000    0.000 
#    0.000    0.000    0.000    1.125    0.000   23.375 
#
# Total GULP energy -178228.791324 kJ/mol
# GULP energy per Si atom -5569.649729 kJ/mol
# Density = 1.486293 g / cm^3
# Si number density = 14.896840 Si / 1000 Ang^3
#
#
#
# Elastic Constant Matrix: (Units=GPa)
#
#
# Indices 1 2 3 4 5 6 
#
# 1 101.0965 60.6470 64.4540 0.0000 -44.1442 0.0000
# 2 60.6470 79.8684 40.5184 0.0000 -24.5681 0.0000
# 3 64.4540 40.5184 75.0605 0.0000 -26.5701 0.0000
# 4 0.0000 0.0000 0.0000 -2.2114 0.0000 4.2635
# 5 -44.1442 -24.5681 -26.5701 0.0000 32.8231 0.0000
# 6 0.0000 0.0000 0.0000 4.2635 0.0000 12.9569
#
#
#
# Elastic Compliance Matrix: (Units=1/GPa)
#
#
# Indices 1 2 3 4 5 6 
#
# 1 0.047140 -0.014566 -0.019669 0.000000 0.036574 0.000000
# 2 -0.014566 0.023182 -0.001119 0.000000 -0.003145 0.000000
# 3 -0.019669 -0.001119 0.029653 0.000000 -0.003287 0.000000
# 4 0.000000 0.000000 0.000000 -0.276677 0.000000 0.091042
# 5 0.036574 -0.003145 -0.003287 0.000000 0.074641 0.000000
# 6 0.000000 0.000000 0.000000 0.091042 0.000000 0.047221
#
#
# Mechanical properties :
#
#
# Convention : Reuss Voigt Hill
#
# Bulk Modulus (GPa) = 34.16949 65.25158 49.71054
# Shear Modulus (GPa) = 195.13291 14.74079 104.93685
#
# Velocity S-wave (km/s) = 11.45748 3.14908 8.40210
# Velocity P-wave (km/s) = 14.07192 7.55776 11.29466
#
# Compressibility (1/GPa) = 0.02926588
#
# Stress axis : x y z
#
# Youngs Moduli (GPa) = 21.21337 43.13775 33.72346
#
# Poissons Ratio (x) = 0.62835 0.66332
# Poissons Ratio (y) = 0.30900 0.03773
# Poissons Ratio (z) = 0.41725 0.04826
#
# Static dielectric constant tensor:
#      x y z
#    x 1.473000 0.000000 -0.021210 
#    y 0.000000 1.493960 0.000000 
#    z -0.021210 0.000000 1.483400 
# 
# From -- ./inp_files/56397.got.cif
#   From: 2010.05.17/outbox.cif.g08.bks.cpg/sg10_29_cif.got.tgz:56397.got - 2010.06.03 11:33:40.
