data_PCOD9142107
_publ_section_title
;
Structure prediction by ZEFSAII (Michael W. Deem and Ramdas Pophale) SiO2 
 PCOD9142107
Probable space group: P 2/M
;
_chemical_formula_sum "Si O2"
_cell_formula_units_Z 32
_cell_length_a 11.461873
_cell_length_b 17.563092
_cell_length_c 10.805791
_cell_angle_alpha 90.000000
_cell_angle_beta 54.091468
_cell_angle_gamma 90.000000
_cell_volume 1761.869164
_symmetry_space_group_name_H-M "P 2/M"
_symmetry_group_IT_number 10
_symmetry_cell_setting 'monoclinic'
loop_
_space_group_symop_operation_xyz
x,y,z
-x,y,-z
-x,-y,-z
x,-y,z
loop_
_atom_site_type_symbol
_atom_site_label
_atom_site_fract_x
_atom_site_fract_y
_atom_site_fract_z
Si Si1 0.535632 0.806473 0.841348
Si Si2 0.292791 0.585173 0.239021
Si Si3 0.906518 0.917946 0.182490
Si Si4 0.400546 0.636471 0.902492
Si Si5 0.970825 0.758876 0.840295
Si Si6 0.400106 0.145705 0.676251
Si Si7 0.151806 0.261503 0.346961
Si Si8 0.773650 0.290737 0.184703
O O1 0.453898 0.724072 0.889701
O O2 0.475990 0.854324 0.762834
O O3 0.705625 0.788873 0.718579
O O4 0.500000 0.838554 0.000000
O O5 0.235813 0.500000 0.284691
O O6 0.450564 0.591161 0.203750
O O7 0.194635 0.652055 0.354984
O O8 0.325116 0.605562 0.073900
O O9 0.960460 0.842462 0.218798
O O10 0.742716 0.904416 0.243869
O O11 0.922471 0.000000 0.236516
O O12 0.000000 0.919898 0.000000
O O13 0.298150 0.640438 0.846006
O O14 0.102255 0.700970 0.789547
O O15 0.879892 0.738271 0.778699
O O16 0.861938 0.755881 0.023743
O O17 0.500000 0.124465 0.500000
O O18 0.347199 0.233481 0.690655
O O19 0.000000 0.237426 0.500000
#
# Coordination Sequence:
#
# PCOD9142107 Si02
#       8
#     4   4   4   4   4   4   4   4
#     4  10  18  33  54  77 109 142 180 229 272 319
#     4  10  18  30  50  75 106 140 179 220 269 325
#     4  10  20  35  57  80 107 147 185 216 265 336
#     4   9  14  29  48  74  97 132 183 224 252 312
#     4  10  17  33  54  78 104 139 180 225 262 320
#     4  10  20  32  52  83 113 137 175 233 284 314
#     4  11  22  32  53  81 110 139 182 226 274 322
#     4   9  16  29  52  75 104 135 174 222 268 309
#
# _framework density 18.162528999999999
#
# number of rings (size 3 to 8) (size 9 to 14) (size 15 to 20)
#    0.000    2.125    6.250    1.500    3.500    0.500 
#    0.000    0.000    0.000    3.750    0.000    0.875 
#    0.000    0.000    0.000    0.000    0.000    0.000 
#
# Total GULP energy -178171.395365 kJ/mol
# GULP energy per Si atom -5567.856105 kJ/mol
# Density = 1.812119 g / cm^3
# Si number density = 18.162529 Si / 1000 Ang^3
#
#
#
# Elastic Constant Matrix: (Units=GPa)
#
#
# Indices 1 2 3 4 5 6 
#
# 1 82.7461 28.0425 16.5283 0.0000 -18.6148 0.0000
# 2 28.0425 48.9564 4.3765 0.0000 -2.5245 0.0000
# 3 16.5283 4.3765 75.5864 0.0000 -22.0770 0.0000
# 4 0.0000 0.0000 0.0000 23.3622 0.0000 -8.5191
# 5 -18.6148 -2.5245 -22.0770 0.0000 25.5881 0.0000
# 6 0.0000 0.0000 0.0000 -8.5191 0.0000 14.1195
#
#
#
# Elastic Compliance Matrix: (Units=1/GPa)
#
#
# Indices 1 2 3 4 5 6 
#
# 1 0.018150 -0.009776 0.000230 0.000000 0.012438 0.000000
# 2 -0.009776 0.025832 -0.000924 0.000000 -0.005360 0.000000
# 3 0.000230 -0.000924 0.017721 0.000000 0.015366 0.000000
# 4 0.000000 0.000000 0.000000 0.054878 0.000000 0.033111
# 5 0.012438 -0.005360 0.015366 0.000000 0.060858 0.000000
# 6 0.000000 0.000000 0.000000 0.033111 0.000000 0.090801
#
#
# Mechanical properties :
#
#
# Convention : Reuss Voigt Hill
#
# Bulk Modulus (GPa) = 24.53099 33.90928 29.22013
# Shear Modulus (GPa) = 16.51432 23.17006 19.84219
#
# Velocity S-wave (km/s) = 3.01865 3.57558 3.30885
# Velocity P-wave (km/s) = 5.06807 5.97970 5.54266
#
# Compressibility (1/GPa) = 0.04076476
#
# Stress axis : x y z
#
# Youngs Moduli (GPa) = 55.09549 38.71145 56.43010
#
# Poissons Ratio (x) = 0.37843 -0.01298
# Poissons Ratio (y) = 0.53860 0.05212
# Poissons Ratio (z) = -0.01267 0.03575
#
# Static dielectric constant tensor:
#      x y z
#    x 1.663660 0.000000 -0.003190 
#    y 0.000000 1.626630 0.000000 
#    z -0.003190 0.000000 1.671130 
# 
# From -- ./inp_files/47821.got.cif
#   From: 2010.05.17/outbox.cif.g08.bks.cpg/sg10_24_cif.got.tgz:47821.got - 2010.06.03 11:33:40.
