data_PCOD9142175
_publ_section_title
;
Structure prediction by ZEFSAII (Michael W. Deem and Ramdas Pophale) SiO2 
 PCOD9142175
Probable space group: P 2/M
;
_chemical_formula_sum "Si O2"
_cell_formula_units_Z 28
_cell_length_a 5.427374
_cell_length_b 15.582091
_cell_length_c 18.800706
_cell_angle_alpha 90.000000
_cell_angle_beta 74.456563
_cell_angle_gamma 90.000000
_cell_volume 1531.823465
_symmetry_space_group_name_H-M "P 2/M"
_symmetry_group_IT_number 10
_symmetry_cell_setting 'monoclinic'
loop_
_space_group_symop_operation_xyz
x,y,z
-x,y,-z
-x,-y,-z
x,-y,z
loop_
_atom_site_type_symbol
_atom_site_label
_atom_site_fract_x
_atom_site_fract_y
_atom_site_fract_z
Si Si1 0.593552 0.136311 0.676089
Si Si2 0.052466 0.598566 0.748224
Si Si3 0.416134 0.326125 0.286526
Si Si4 0.407732 0.312931 0.889352
Si Si5 0.294181 0.000000 0.452434
Si Si6 0.703544 0.500000 0.048322
Si Si7 0.007029 0.901812 0.768081
Si Si8 0.922371 0.742614 0.876600
O O1 0.612090 0.238936 0.667586
O O2 0.656425 0.082482 0.601257
O O3 0.300598 0.114945 0.721058
O O4 0.802858 0.110660 0.719891
O O5 0.019274 0.500000 0.772156
O O6 0.345219 0.617933 0.705486
O O7 0.847296 0.623155 0.703727
O O8 0.990525 0.662930 0.817951
O O9 0.494934 0.297693 0.199512
O O10 0.355320 0.413497 0.903964
O O11 0.636300 0.279306 0.920181
O O12 0.144013 0.262910 0.917055
O O13 0.500000 0.000000 0.500000
O O14 0.000000 0.000000 0.500000
O O15 0.500000 0.500000 0.000000
O O16 0.000000 0.500000 0.000000
O O17 0.941735 0.830716 0.831982
O O18 0.988618 0.000000 0.794384
#
# Coordination Sequence:
#
# PCOD9142175 Si02
#       8
#     4   4   4   4   2   2   4   4
#     4  12  20  37  54  77 116 149 194 251 274 360
#     4  10  18  26  45  72 113 135 173 217 283 370
#     4  10  19  32  50  78 102 146 185 235 310 317
#     4  10  20  34  53  72 112 144 194 242 267 349
#     4  12  26  40  56  84 118 170 208 224 284 366
#     4  12  26  40  54  82 122 176 210 220 280 354
#     4  12  19  33  53  82 111 155 177 238 316 357
#     4  10  19  31  48  80 106 140 191 223 305 351
#
# _framework density 18.278867999999999
#
# number of rings (size 3 to 8) (size 9 to 14) (size 15 to 20)
#    0.000    1.143    7.143    2.143    8.000    0.000 
#    0.000    0.000    0.000    0.000    0.000    0.000 
#    0.000   22.857    0.000    0.000    0.000    0.000 
#
# Total GULP energy -156256.589360 kJ/mol
# GULP energy per Si atom -5580.592477 kJ/mol
# Density = 1.823726 g / cm^3
# Si number density = 18.278868 Si / 1000 Ang^3
#
#
#
# Elastic Constant Matrix: (Units=GPa)
#
#
# Indices 1 2 3 4 5 6 
#
# 1 181.1219 26.3497 11.4990 0.0000 -18.2570 0.0000
# 2 26.3497 125.2672 16.7893 0.0000 -7.0651 0.0000
# 3 11.4990 16.7893 32.5071 0.0000 -11.5828 0.0000
# 4 0.0000 0.0000 0.0000 1.3932 0.0000 0.4163
# 5 -18.2570 -7.0651 -11.5828 0.0000 20.0350 0.0000
# 6 0.0000 0.0000 0.0000 0.4163 0.0000 29.1521
#
#
#
# Elastic Compliance Matrix: (Units=1/GPa)
#
#
# Indices 1 2 3 4 5 6 
#
# 1 0.006203 -0.001035 0.000283 0.000000 0.005451 0.000000
# 2 -0.001035 0.008755 -0.004272 0.000000 -0.000326 0.000000
# 3 0.000283 -0.004272 0.040836 0.000000 0.022360 0.000000
# 4 0.000000 0.000000 0.000000 0.720864 0.000000 -0.010295
# 5 0.005451 -0.000326 0.022360 0.000000 0.067692 0.000000
# 6 0.000000 0.000000 0.000000 -0.010295 0.000000 0.034450
#
#
# Mechanical properties :
#
#
# Convention : Reuss Voigt Hill
#
# Bulk Modulus (GPa) = 21.85993 49.79692 35.82842
# Shear Modulus (GPa) = 5.53038 29.06659 17.29849
#
# Velocity S-wave (km/s) = 1.74130 3.99203 3.07964
# Velocity P-wave (km/s) = 4.00349 6.96781 5.68235
#
# Compressibility (1/GPa) = 0.04574581
#
# Stress axis : x y z
#
# Youngs Moduli (GPa) = 161.20502 114.22248 24.48825
#
# Poissons Ratio (x) = 0.11825 -0.00692
# Poissons Ratio (y) = 0.16689 0.10460
# Poissons Ratio (z) = -0.04557 0.48790
#
# Static dielectric constant tensor:
#      x y z
#    x 1.863100 0.000000 -0.038750 
#    y 0.000000 1.507490 0.000000 
#    z -0.038750 0.000000 1.609110 
# 
# From -- ./inp_files/73498.got.cif
#   From: 2010.05.17/outbox.cif.g08.bks.cpg/sg10_37_cif.got.tgz:73498.got - 2010.06.03 11:33:40.
