data_PCOD9142750
_publ_section_title
;
Structure prediction by ZEFSAII (Michael W. Deem and Ramdas Pophale) SiO2 
 PCOD9142750
Probable space group: P 2/M
;
_chemical_formula_sum "Si O2"
_cell_formula_units_Z 32
_cell_length_a 19.745566
_cell_length_b 8.849027
_cell_length_c 28.027917
_cell_angle_alpha 90.000000
_cell_angle_beta 155.939906
_cell_angle_gamma 90.000000
_cell_volume 1996.599089
_symmetry_space_group_name_H-M "P 2/M"
_symmetry_group_IT_number 10
_symmetry_cell_setting 'monoclinic'
loop_
_space_group_symop_operation_xyz
x,y,z
-x,y,-z
-x,-y,-z
x,-y,z
loop_
_atom_site_type_symbol
_atom_site_label
_atom_site_fract_x
_atom_site_fract_y
_atom_site_fract_z
Si Si1 0.274789 0.320414 0.592841
Si Si2 0.077286 0.182310 0.656856
Si Si3 0.612831 0.820729 0.778646
Si Si4 0.857125 0.318576 0.015372
Si Si5 0.684897 0.184150 0.103984
Si Si6 0.677464 0.819629 0.272649
Si Si7 0.142315 0.674044 0.132661
Si Si8 0.698529 0.181307 0.004040
O O1 0.282627 0.500000 0.595072
O O2 0.430506 0.248709 0.665336
O O3 0.291656 0.267675 0.658673
O O4 0.100522 0.259090 0.461353
O O5 0.181508 0.229613 0.770502
O O6 0.188042 0.217396 0.681393
O O7 0.057683 0.000000 0.645447
O O8 0.709236 0.773033 0.792572
O O9 0.606169 0.000000 0.779183
O O10 0.721418 0.753909 0.892385
O O11 0.844240 0.500000 0.003281
O O12 0.815343 0.262666 0.041132
O O13 0.040048 0.275733 0.113440
O O14 0.723475 0.230050 0.074723
O O15 0.680906 0.000000 0.101628
O O16 0.500000 0.234250 0.000000
O O17 0.688234 0.000000 0.289202
O O18 0.493050 0.789257 0.133964
O O19 0.196870 0.500000 0.173169
O O20 0.000000 0.675304 0.000000
O O21 0.722589 0.000000 0.016414
#
# Coordination Sequence:
#
# PCOD9142750 Si02
#       8
#     4   4   4   4   4   4   4   4
#     4  12  24  35  48  69 102 138 172 206 249 302
#     4  10  20  35  54  73  98 131 172 215 253 295
#     4  11  20  31  49  72  98 129 167 206 248 294
#     4  10  19  31  47  71 104 137 164 196 243 298
#     4   9  16  31  54  77  97 125 167 213 258 295
#     4  10  19  32  51  74  99 131 169 209 251 295
#     4   8  16  30  46  67  99 134 163 192 238 298
#     4  10  18  29  51  78 101 130 169 209 247 294
#
# _framework density 16.027253999999999
#
# number of rings (size 3 to 8) (size 9 to 14) (size 15 to 20)
#    0.000    2.000    2.500    3.750    0.000    4.750 
#    0.000    0.625    0.000    0.750    0.000    0.875 
#    0.000    7.000    0.000    0.000    0.000    0.000 
#
# Total GULP energy -178556.501998 kJ/mol
# GULP energy per Si atom -5579.890687 kJ/mol
# Density = 1.599077 g / cm^3
# Si number density = 16.027254 Si / 1000 Ang^3
#
#
#
# Elastic Constant Matrix: (Units=GPa)
#
#
# Indices 1 2 3 4 5 6 
#
# 1 139.6712 57.0425 72.9082 0.0000 27.6656 0.0000
# 2 57.0425 60.4024 52.6788 0.0000 10.2929 0.0000
# 3 72.9082 52.6788 99.2235 0.0000 11.4604 0.0000
# 4 0.0000 0.0000 0.0000 9.8364 0.0000 18.7737
# 5 27.6656 10.2929 11.4604 0.0000 17.3451 0.0000
# 6 0.0000 0.0000 0.0000 18.7737 0.0000 31.7440
#
#
#
# Elastic Compliance Matrix: (Units=1/GPa)
#
#
# Indices 1 2 3 4 5 6 
#
# 1 0.017436 -0.007391 -0.006693 0.000000 -0.019002 0.000000
# 2 -0.007391 0.035052 -0.013141 0.000000 -0.000330 0.000000
# 3 -0.006693 -0.013141 0.021478 0.000000 0.004282 0.000000
# 4 0.000000 0.000000 0.000000 -0.789533 0.000000 0.466937
# 5 -0.019002 -0.000330 0.004282 0.000000 0.085328 0.000000
# 6 0.000000 0.000000 0.000000 0.466937 0.000000 -0.244649
#
#
# Mechanical properties :
#
#
# Convention : Reuss Voigt Hill
#
# Bulk Modulus (GPa) = 51.23759 73.83958 62.53859
# Shear Modulus (GPa) = -6.14301 19.56293 6.70996
#
# Velocity S-wave (km/s) = -1.95989 3.49750 2.04834
# Velocity P-wave (km/s) = 5.18815 7.90451 6.68574
#
# Compressibility (1/GPa) = 0.01951692
#
# Stress axis : x y z
#
# Youngs Moduli (GPa) = 57.35367 28.52919 46.55877
#
# Poissons Ratio (x) = 0.21085 0.31162
# Poissons Ratio (y) = 0.42388 0.61182
# Poissons Ratio (z) = 0.38387 0.37490
#
# Static dielectric constant tensor:
#      x y z
#    x 1.548930 0.000000 0.011490 
#    y 0.000000 1.536610 0.000000 
#    z 0.011490 0.000000 1.511670 
# 
# From -- ./inp_files/95683.got.cif
#   From: 2010.05.17/outbox.cif.g08.bks.cpg/sg10_48_cif.got.tgz:95683.got - 2010.06.03 11:33:40.
