data_PCOD9142693
_publ_section_title
;
Structure prediction by ZEFSAII (Michael W. Deem and Ramdas Pophale) SiO2 
 PCOD9142693
Probable space group: P 2/M
;
_chemical_formula_sum "Si O2"
_cell_formula_units_Z 32
_cell_length_a 28.868914
_cell_length_b 7.838833
_cell_length_c 23.733823
_cell_angle_alpha 90.000000
_cell_angle_beta 162.445580
_cell_angle_gamma 90.000000
_cell_volume 1619.934564
_symmetry_space_group_name_H-M "P 2/M"
_symmetry_group_IT_number 10
_symmetry_cell_setting 'monoclinic'
loop_
_space_group_symop_operation_xyz
x,y,z
-x,y,-z
-x,-y,-z
x,-y,z
loop_
_atom_site_type_symbol
_atom_site_label
_atom_site_fract_x
_atom_site_fract_y
_atom_site_fract_z
Si Si1 0.027735 0.205937 0.468809
Si Si2 0.240518 0.195067 0.549327
Si Si3 0.852152 0.705113 0.794567
Si Si4 0.913381 0.793590 0.737151
Si Si5 0.763731 0.203834 0.941095
Si Si6 0.075394 0.302857 0.765608
Si Si7 0.532242 0.295292 0.474356
Si Si8 0.646278 0.209309 0.205169
O O1 0.196137 0.260571 0.642703
O O2 0.000000 0.267341 0.500000
O O3 0.909841 0.262734 0.283282
O O4 0.024803 0.000000 0.466377
O O5 0.207995 0.272265 0.450399
O O6 0.345645 0.270583 0.720621
O O7 0.069733 0.195413 0.379393
O O8 0.291513 0.000000 0.600003
O O9 0.850735 0.500000 0.798946
O O10 0.871500 0.744313 0.751389
O O11 0.692338 0.771201 0.634753
O O12 0.000000 0.771142 0.000000
O O13 0.913889 0.000000 0.733870
O O14 0.084239 0.734979 0.916789
O O15 0.610184 0.259465 0.731772
O O16 0.767216 0.000000 0.945834
O O17 0.785660 0.265558 0.030806
O O18 0.032773 0.500000 0.722181
O O19 0.500000 0.228800 0.500000
O O20 0.546460 0.500000 0.495162
O O21 0.645563 0.000000 0.206077
O O22 0.500000 0.264611 0.000000
#
# Coordination Sequence:
#
# PCOD9142693 Si02
#       8
#     4   4   4   4   4   4   4   4
#     4   9  17  30  47  68  97 131 167 206 248 297
#     4   8  15  29  47  69  98 128 164 206 246 295
#     4  10  21  36  54  76 102 133 167 204 248 300
#     4   9  18  32  51  75 101 130 165 208 254 300
#     4  10  20  35  55  78 103 132 170 213 257 305
#     4  10  18  29  49  74  99 129 167 208 253 304
#     4  10  21  37  56  78 105 137 173 210 250 300
#     4   8  13  24  45  69  91 120 159 200 238 280
#
# _framework density 19.753883999999999
#
# number of rings (size 3 to 8) (size 9 to 14) (size 15 to 20)
#    0.000    2.750    0.000    3.750    0.000    4.750 
#    0.000    1.250    0.000    9.000    0.000    0.000 
#    0.000    0.000    0.000    0.000    0.000    0.000 
#
# Total GULP energy -178381.597408 kJ/mol
# GULP energy per Si atom -5574.424919 kJ/mol
# Density = 1.970892 g / cm^3
# Si number density = 19.753884 Si / 1000 Ang^3
#
#
#
# Elastic Constant Matrix: (Units=GPa)
#
#
# Indices 1 2 3 4 5 6 
#
# 1 162.5510 8.7037 99.3851 0.0000 -37.5156 0.0000
# 2 8.7037 32.3466 4.0114 0.0000 3.0473 0.0000
# 3 99.3851 4.0114 173.9909 0.0000 -36.8794 0.0000
# 4 0.0000 0.0000 0.0000 23.8441 0.0000 -10.2550
# 5 -37.5156 3.0473 -36.8794 0.0000 35.1069 0.0000
# 6 0.0000 0.0000 0.0000 -10.2550 0.0000 23.4859
#
#
#
# Elastic Compliance Matrix: (Units=1/GPa)
#
#
# Indices 1 2 3 4 5 6 
#
# 1 0.010702 -0.002958 -0.004588 0.000000 0.006873 0.000000
# 2 -0.002958 0.032366 -0.000414 0.000000 -0.006406 0.000000
# 3 -0.004588 -0.000414 0.009450 0.000000 0.005061 0.000000
# 4 0.000000 0.000000 0.000000 0.051636 0.000000 0.022547
# 5 0.006873 -0.006406 0.005061 0.000000 0.041702 0.000000
# 6 0.000000 0.000000 0.000000 0.022547 0.000000 0.052424
#
#
# Mechanical properties :
#
#
# Convention : Reuss Voigt Hill
#
# Bulk Modulus (GPa) = 27.32425 65.89876 46.61151
# Shear Modulus (GPa) = 22.08494 33.60660 27.84577
#
# Velocity S-wave (km/s) = 3.34729 4.12911 3.75858
# Velocity P-wave (km/s) = 5.36670 7.49434 6.51792
#
# Compressibility (1/GPa) = 0.03659753
#
# Stress axis : x y z
#
# Youngs Moduli (GPa) = 93.44391 30.89663 105.81719
#
# Poissons Ratio (x) = 0.09140 0.48547
# Poissons Ratio (y) = 0.27642 0.04384
# Poissons Ratio (z) = 0.42870 0.01280
#
# Static dielectric constant tensor:
#      x y z
#    x 1.694190 0.000000 -0.028090 
#    y 0.000000 1.723530 0.000000 
#    z -0.028090 0.000000 1.701160 
# 
# From -- ./inp_files/86809.got.cif
#   From: 2010.05.17/outbox.cif.g08.bks.cpg/sg10_44_cif.got.tgz:86809.got - 2010.06.03 11:33:40.
