data_PCOD9142866
_publ_section_title
;
Structure prediction by ZEFSAII (Michael W. Deem and Ramdas Pophale) SiO2 
 PCOD9142866
Probable space group: P 2/M
;
_chemical_formula_sum "Si O2"
_cell_formula_units_Z 30
_cell_length_a 17.039241
_cell_length_b 9.693886
_cell_length_c 13.637999
_cell_angle_alpha 90.000000
_cell_angle_beta 48.481400
_cell_angle_gamma 90.000000
_cell_volume 1686.670216
_symmetry_space_group_name_H-M "P 2/M"
_symmetry_group_IT_number 10
_symmetry_cell_setting 'monoclinic'
loop_
_space_group_symop_operation_xyz
x,y,z
-x,y,-z
-x,-y,-z
x,-y,z
loop_
_atom_site_type_symbol
_atom_site_label
_atom_site_fract_x
_atom_site_fract_y
_atom_site_fract_z
Si Si1 0.439238 0.336940 0.340062
Si Si2 0.204091 0.667243 0.207641
Si Si3 0.768011 0.668436 0.594264
Si Si4 0.933232 0.837884 0.154229
Si Si5 0.019824 0.333645 0.694267
Si Si6 0.334523 0.667216 0.909993
Si Si7 0.280340 0.155686 0.770803
Si Si8 0.500000 0.231220 0.500000
O O1 0.434675 0.500000 0.328693
O O2 0.331375 0.279736 0.385813
O O3 0.543759 0.288963 0.197312
O O4 0.458635 0.312402 0.439004
O O5 0.207899 0.500000 0.207340
O O6 0.234523 0.715581 0.290841
O O7 0.085660 0.704262 0.276345
O O8 0.280425 0.709269 0.056085
O O9 0.765629 0.500000 0.597078
O O10 0.877199 0.705241 0.452675
O O11 0.974270 0.742440 0.206952
O O12 0.811686 0.807514 0.228916
O O13 0.941470 0.000000 0.173897
O O14 0.000000 0.816640 0.000000
O O15 0.019445 0.500000 0.708168
O O16 0.328323 0.500000 0.905779
O O17 0.280982 0.738829 0.860751
O O18 0.395502 0.156643 0.626225
O O19 0.257422 0.000000 0.824722
#
# Coordination Sequence:
#
# PCOD9142866 Si02
#       8
#     4   4   4   4   4   4   4   2
#     4   9  17  28  44  70 101 128 155 192 238 281
#     4   9  17  30  48  70  96 124 158 199 238 280
#     4   9  17  29  47  72  99 126 157 195 239 282
#     4  10  21  35  50  70  98 130 160 193 236 285
#     4  10  19  31  50  74  96 123 160 199 238 278
#     4   9  18  31  48  71  96 124 158 197 238 278
#     4  10  20  33  49  70  96 127 161 194 234 285
#     4  10  18  30  48  70  95 126 161 194 231 280
#
# _framework density 17.786522999999999
#
# number of rings (size 3 to 8) (size 9 to 14) (size 15 to 20)
#    0.000    2.533    0.000    2.400    0.000    3.467 
#    0.000    2.667    0.000    2.400    0.000    3.733 
#    0.000    0.000    0.000    0.000    0.000    0.000 
#
# Total GULP energy -167163.393085 kJ/mol
# GULP energy per Si atom -5572.113103 kJ/mol
# Density = 1.774604 g / cm^3
# Si number density = 17.786523 Si / 1000 Ang^3
#
#
#
# Elastic Constant Matrix: (Units=GPa)
#
#
# Indices 1 2 3 4 5 6 
#
# 1 131.2875 9.7242 61.5631 0.0000 1.6525 0.0000
# 2 9.7242 5.6219 6.6043 0.0000 0.5217 0.0000
# 3 61.5631 6.6043 73.6950 0.0000 3.4725 0.0000
# 4 0.0000 0.0000 0.0000 8.4451 0.0000 -6.4752
# 5 1.6525 0.5217 3.4725 0.0000 23.2294 0.0000
# 6 0.0000 0.0000 0.0000 -6.4752 0.0000 7.3624
#
#
#
# Elastic Compliance Matrix: (Units=1/GPa)
#
#
# Indices 1 2 3 4 5 6 
#
# 1 0.013114 -0.011003 -0.010008 0.000000 0.000810 0.000000
# 2 -0.011003 0.208112 -0.009341 0.000000 -0.002495 0.000000
# 3 -0.010008 -0.009341 0.022884 0.000000 -0.002499 0.000000
# 4 0.000000 0.000000 0.000000 0.363599 0.000000 0.319783
# 5 0.000810 -0.002495 -0.002499 0.000000 0.043421 0.000000
# 6 0.000000 0.000000 0.000000 0.319783 0.000000 0.417072
#
#
# Mechanical properties :
#
#
# Convention : Reuss Voigt Hill
#
# Bulk Modulus (GPa) = 5.45232 40.70973 23.08103
# Shear Modulus (GPa) = 4.20153 16.65491 10.42822
#
# Velocity S-wave (km/s) = 1.53861 3.06335 2.42399
# Velocity P-wave (km/s) = 2.49570 5.95397 4.56499
#
# Compressibility (1/GPa) = 0.18340803
#
# Stress axis : x y z
#
# Youngs Moduli (GPa) = 76.25224 4.80510 43.69790
#
# Poissons Ratio (x) = 0.05287 0.43731
# Poissons Ratio (y) = 0.83899 0.40819
# Poissons Ratio (z) = 0.76310 0.04488
#
# Static dielectric constant tensor:
#      x y z
#    x 1.612940 0.000000 -0.024140 
#    y 0.000000 1.586690 0.000000 
#    z -0.024140 0.000000 1.608420 
# 
# From -- ./inp_files/50689.got.cif
#   From: 2010.05.17/outbox.cif.g08.bks.cpg/sg10_26_cif.got.tgz:50689.got - 2010.06.03 11:33:40.
