data_PCOD9142626
_publ_section_title
;
Structure prediction by ZEFSAII (Michael W. Deem and Ramdas Pophale) SiO2 
 PCOD9142626
Probable space group: P 2/M
;
_chemical_formula_sum "Si O2"
_cell_formula_units_Z 32
_cell_length_a 15.255191
_cell_length_b 8.416550
_cell_length_c 29.825741
_cell_angle_alpha 90.000000
_cell_angle_beta 25.389010
_cell_angle_gamma 90.000000
_cell_volume 1641.947024
_symmetry_space_group_name_H-M "P 2/M"
_symmetry_group_IT_number 10
_symmetry_cell_setting 'monoclinic'
loop_
_space_group_symop_operation_xyz
x,y,z
-x,y,-z
-x,-y,-z
x,-y,z
loop_
_atom_site_type_symbol
_atom_site_label
_atom_site_fract_x
_atom_site_fract_y
_atom_site_fract_z
Si Si1 0.687697 0.185280 0.025509
Si Si2 0.088153 0.807940 0.161674
Si Si3 0.234091 0.309689 0.400861
Si Si4 0.339724 0.319211 0.124199
Si Si5 0.636346 0.186862 0.562910
Si Si6 0.925399 0.818161 0.684331
Si Si7 0.630417 0.805546 0.395936
Si Si8 0.411400 0.311372 0.225542
O O1 0.497667 0.211233 0.078919
O O2 0.619336 0.273152 0.102456
O O3 0.709662 0.000000 0.025705
O O4 0.876427 0.238002 0.906857
O O5 0.268861 0.735134 0.108257
O O6 0.868906 0.761748 0.283136
O O7 0.104665 0.000000 0.156134
O O8 0.218543 0.500000 0.408825
O O9 0.327815 0.258052 0.404748
O O10 0.382347 0.267493 0.290824
O O11 0.000000 0.249406 0.500000
O O12 0.412188 0.500000 0.091648
O O13 0.135171 0.300361 0.248485
O O14 0.850156 0.203766 0.438062
O O15 0.470472 0.249764 0.604237
O O16 0.594909 0.000000 0.588425
O O17 0.765742 0.784210 0.718424
O O18 0.906587 0.000000 0.709362
O O19 0.500000 0.754376 0.500000
O O20 0.622519 0.000000 0.399998
O O21 0.371726 0.500000 0.239150
#
# Coordination Sequence:
#
# PCOD9142626 Si02
#       8
#     4   4   4   4   4   4   4   4
#     4  10  20  33  51  75 102 134 172 215 263 312
#     4  10  20  35  54  73  99 135 174 217 264 312
#     4  10  20  34  52  76 110 145 172 208 265 321
#     4  11  21  31  48  74 104 137 173 214 260 310
#     4  10  20  32  53  81 105 137 179 220 259 306
#     4  10  18  29  47  73 105 137 169 208 256 308
#     4   9  18  35  57  79 105 137 175 217 261 307
#     4  10  19  32  50  73 103 139 170 202 255 314
#
# _framework density 19.489056000000001
#
# number of rings (size 3 to 8) (size 9 to 14) (size 15 to 20)
#    0.000    2.000    1.250    4.875    0.000    6.250 
#    0.000    0.625    0.000    2.250    0.000    5.250 
#    0.000    0.000    0.000    0.000    0.000    0.000 
#
# Total GULP energy -178425.903368 kJ/mol
# GULP energy per Si atom -5575.809480 kJ/mol
# Density = 1.944470 g / cm^3
# Si number density = 19.489056 Si / 1000 Ang^3
#
#
#
# Elastic Constant Matrix: (Units=GPa)
#
#
# Indices 1 2 3 4 5 6 
#
# 1 82.8695 -4.0192 33.7663 0.0000 19.2430 0.0000
# 2 -4.0192 7.2931 14.8260 0.0000 6.0843 0.0000
# 3 33.7663 14.8260 96.8591 0.0000 19.1161 0.0000
# 4 0.0000 0.0000 0.0000 18.3927 0.0000 10.4054
# 5 19.2430 6.0843 19.1161 0.0000 31.4649 0.0000
# 6 0.0000 0.0000 0.0000 10.4054 0.0000 19.3352
#
#
#
# Elastic Compliance Matrix: (Units=1/GPa)
#
#
# Indices 1 2 3 4 5 6 
#
# 1 0.024278 0.055300 -0.013507 0.000000 -0.017335 0.000000
# 2 0.055300 0.340391 -0.058762 0.000000 -0.063941 0.000000
# 3 -0.013507 -0.058762 0.022901 0.000000 0.005710 0.000000
# 4 0.000000 0.000000 0.000000 0.078168 0.000000 -0.042067
# 5 -0.017335 -0.063941 0.005710 0.000000 0.051278 0.000000
# 6 0.000000 0.000000 0.000000 -0.042067 0.000000 0.074358
#
#
# Mechanical properties :
#
#
# Convention : Reuss Voigt Hill
#
# Bulk Modulus (GPa) = 2.82780 30.68531 16.75655
# Shear Modulus (GPa) = 6.72778 23.33515 15.03146
#
# Velocity S-wave (km/s) = 1.85999 3.46402 2.78020
# Velocity P-wave (km/s) = 2.46310 5.63723 4.35001
#
# Compressibility (1/GPa) = 0.35363181
#
# Stress axis : x y z
#
# Youngs Moduli (GPa) = 41.18908 2.93780 43.66706
#
# Poissons Ratio (x) = -0.16246 0.58982
# Poissons Ratio (y) = -2.27776 2.56595
# Poissons Ratio (z) = 0.55635 0.17263
#
# Static dielectric constant tensor:
#      x y z
#    x 1.677600 0.000000 0.023000 
#    y 0.000000 1.667920 0.000000 
#    z 0.023000 0.000000 1.758090 
# 
# From -- ./inp_files/93105.got.cif
#   From: 2010.05.17/outbox.cif.g08.bks.cpg/sg10_47_cif.got.tgz:93105.got - 2010.06.03 11:33:40.
