data_PCOD9142006
_publ_section_title
;
Structure prediction by ZEFSAII (Michael W. Deem and Ramdas Pophale) SiO2 
 PCOD9142006
Probable space group: P 2/M
;
_chemical_formula_sum "Si O2"
_cell_formula_units_Z 32
_cell_length_a 11.717603
_cell_length_b 7.609160
_cell_length_c 26.050026
_cell_angle_alpha 90.000000
_cell_angle_beta 35.315175
_cell_angle_gamma 90.000000
_cell_volume 1342.662669
_symmetry_space_group_name_H-M "P 2/M"
_symmetry_group_IT_number 10
_symmetry_cell_setting 'monoclinic'
loop_
_space_group_symop_operation_xyz
x,y,z
-x,y,-z
-x,-y,-z
x,-y,z
loop_
_atom_site_type_symbol
_atom_site_label
_atom_site_fract_x
_atom_site_fract_y
_atom_site_fract_z
Si Si1 0.965186 0.285013 0.624573
Si Si2 0.177057 0.715541 0.713066
Si Si3 0.791107 0.287997 0.793903
Si Si4 0.940252 0.297675 0.132590
Si Si5 0.357477 0.206007 0.951761
Si Si6 0.701098 0.702941 0.632849
Si Si7 0.608639 0.714824 0.552330
Si Si8 0.639240 0.202202 0.165098
O O1 0.959795 0.500000 0.625620
O O2 0.191967 0.233128 0.549955
O O3 0.826217 0.229151 0.722277
O O4 0.879605 0.222403 0.601516
O O5 0.173313 0.500000 0.713750
O O6 0.391807 0.771305 0.614091
O O7 0.982765 0.773696 0.754436
O O8 0.154341 0.772570 0.780465
O O9 0.791421 0.500000 0.794501
O O10 0.577782 0.230339 0.891768
O O11 0.881331 0.500000 0.150006
O O12 0.851547 0.209043 0.114699
O O13 0.176033 0.287534 0.048824
O O14 0.356693 0.278565 0.893571
O O15 0.313455 0.000000 0.965328
O O16 0.752629 0.500000 0.603625
O O17 0.643217 0.774887 0.598634
O O18 0.514394 0.709492 0.739605
O O19 0.603444 0.500000 0.553384
O O20 0.576463 0.000000 0.184020
#
# Coordination Sequence:
#
# PCOD9142006 Si02
#       8
#     4   4   4   4   4   4   4   4
#     4   9  17  28  51  85 114 143 181 226 275 324
#     4   9  19  34  54  82 114 144 181 232 280 315
#     4  10  20  36  57  82 110 145 191 232 267 321
#     4  11  22  38  60  85 111 144 181 224 276 331
#     4  11  24  40  57  81 112 146 180 226 281 329
#     4  10  17  30  54  82 111 145 185 225 273 330
#     4   9  16  29  51  83 118 143 174 229 282 322
#     4  11  22  36  56  82 113 145 178 223 278 331
#
# _framework density 23.833237
#
# number of rings (size 3 to 8) (size 9 to 14) (size 15 to 20)
#    0.000    2.000    2.500    1.875    0.000    5.500 
#    0.000    6.250    0.000    2.250    0.000    0.875 
#    0.000    0.000    0.000    0.000    0.000    0.000 
#
# Total GULP energy -178843.069248 kJ/mol
# GULP energy per Si atom -5588.845914 kJ/mol
# Density = 2.377899 g / cm^3
# Si number density = 23.833237 Si / 1000 Ang^3
#
#
#
# Elastic Constant Matrix: (Units=GPa)
#
#
# Indices 1 2 3 4 5 6 
#
# 1 53.8363 1.6082 2.8266 0.0000 -37.5239 0.0000
# 2 1.6082 51.9867 -7.1168 0.0000 2.7932 0.0000
# 3 2.8266 -7.1168 117.8421 0.0000 -40.1158 0.0000
# 4 0.0000 0.0000 0.0000 -457.9669 0.0000 -67.2307
# 5 -37.5239 2.7932 -40.1158 0.0000 41.6241 0.0000
# 6 0.0000 0.0000 0.0000 -67.2307 0.0000 -18.6428
#
#
#
# Elastic Compliance Matrix: (Units=1/GPa)
#
#
# Indices 1 2 3 4 5 6 
#
# 1 0.170271 -0.007475 0.071272 0.000000 0.222690 0.000000
# 2 -0.007475 0.019726 -0.002045 0.000000 -0.010034 0.000000
# 3 0.071272 -0.002045 0.042523 0.000000 0.105372 0.000000
# 4 0.000000 0.000000 0.000000 -0.004640 0.000000 0.016733
# 5 0.222690 -0.010034 0.105372 0.000000 0.327005 0.000000
# 6 0.000000 0.000000 0.000000 0.016733 0.000000 -0.113985
#
#
# Mechanical properties :
#
#
# Convention : Reuss Voigt Hill
#
# Bulk Modulus (GPa) = 2.80879 24.25569 13.53224
# Shear Modulus (GPa) = 11.46600 -71.90731 -30.22066
#
# Velocity S-wave (km/s) = 2.19576 -5.49877 -3.56477
# Velocity P-wave (km/s) = 2.75855 5.48781 3.35458
#
# Compressibility (1/GPa) = 0.35602493
#
# Stress axis : x y z
#
# Youngs Moduli (GPa) = 5.87299 50.69429 23.51647
#
# Poissons Ratio (x) = 0.37895 -1.67608
# Poissons Ratio (y) = 0.04390 0.04809
# Poissons Ratio (z) = -0.41858 0.10367
#
# Static dielectric constant tensor:
#      x y z
#    x 1.917350 0.000000 -0.019740 
#    y 0.000000 1.912680 0.000000 
#    z -0.019740 0.000000 1.893300 
# 
# From -- ./inp_files/58087.got.cif
#   From: 2010.05.17/outbox.cif.g08.bks.cpg/sg10_30_cif.got.tgz:58087.got - 2010.06.03 11:33:40.
