data_PCOD9142118
_publ_section_title
;
Structure prediction by ZEFSAII (Michael W. Deem and Ramdas Pophale) SiO2 
 PCOD9142118
Probable space group: P 2/M
;
_chemical_formula_sum "Si O2"
_cell_formula_units_Z 32
_cell_length_a 8.933196
_cell_length_b 14.967829
_cell_length_c 23.923811
_cell_angle_alpha 90.000000
_cell_angle_beta 148.451610
_cell_angle_gamma 90.000000
_cell_volume 1673.705796
_symmetry_space_group_name_H-M "P 2/M"
_symmetry_group_IT_number 10
_symmetry_cell_setting 'monoclinic'
loop_
_space_group_symop_operation_xyz
x,y,z
-x,y,-z
-x,-y,-z
x,-y,z
loop_
_atom_site_type_symbol
_atom_site_label
_atom_site_fract_x
_atom_site_fract_y
_atom_site_fract_z
Si Si1 0.306064 0.234279 0.070741
Si Si2 0.325615 0.790538 0.285895
Si Si3 0.228528 0.597127 0.235546
Si Si4 0.131079 0.400579 0.602501
Si Si5 0.804799 0.103643 0.066194
Si Si6 0.260609 0.221473 0.691733
Si Si7 0.808940 0.897344 0.496341
Si Si8 0.345670 0.400556 0.010591
O O1 0.538351 0.210078 0.191095
O O2 0.237826 0.155676 0.005419
O O3 0.423377 0.320204 0.075121
O O4 0.000000 0.259024 0.000000
O O5 0.238457 0.688826 0.273476
O O6 0.525853 0.784723 0.293980
O O7 0.524451 0.840112 0.393959
O O8 0.046272 0.845945 0.179230
O O9 0.174985 0.500000 0.246669
O O10 0.532665 0.591195 0.302435
O O11 0.987157 0.607752 0.111682
O O12 0.020937 0.500000 0.582817
O O13 0.107170 0.318403 0.637153
O O14 0.000000 0.375998 0.500000
O O15 0.886125 0.000000 0.083947
O O16 0.500000 0.107255 0.000000
O O17 0.015454 0.147731 0.607315
O O18 0.000000 0.895504 0.500000
O O19 0.740502 0.000000 0.486736
O O20 0.401105 0.500000 0.050897
O O21 0.500000 0.392704 0.000000
#
# Coordination Sequence:
#
# PCOD9142118 Si02
#       8
#     4   4   4   4   4   4   4   4
#     4  12  22  37  55  85 120 153 182 235 294 347
#     4  10  17  34  55  79 110 143 187 236 279 334
#     4   9  16  27  48  77 105 135 175 221 268 322
#     4   9  16  28  47  75 111 145 180 227 277 325
#     4  11  24  40  58  81 109 149 197 240 285 341
#     4  10  19  31  50  79 115 143 180 228 289 343
#     4   9  18  31  50  76 105 143 186 235 287 334
#     4  10  21  37  57  82 116 158 196 227 269 336
#
# _framework density 19.119250000000001
#
# number of rings (size 3 to 8) (size 9 to 14) (size 15 to 20)
#    0.000    2.000    2.500    3.375    0.000    2.000 
#    0.000    0.000    0.000    0.750    0.000    2.625 
#    0.000    8.000    0.000    0.000    0.000    0.000 
#
# Total GULP energy -178434.329216 kJ/mol
# GULP energy per Si atom -5576.072788 kJ/mol
# Density = 1.907573 g / cm^3
# Si number density = 19.119250 Si / 1000 Ang^3
#
#
#
# Elastic Constant Matrix: (Units=GPa)
#
#
# Indices 1 2 3 4 5 6 
#
# 1 15.7319 14.6476 9.6309 0.0000 -2.2198 0.0000
# 2 14.6476 163.6355 63.9189 0.0000 -4.1458 0.0000
# 3 9.6309 63.9189 134.9661 0.0000 -13.2406 0.0000
# 4 0.0000 0.0000 0.0000 9.7819 0.0000 10.3207
# 5 -2.2198 -4.1458 -13.2406 0.0000 10.0855 0.0000
# 6 0.0000 0.0000 0.0000 10.3207 0.0000 8.9752
#
#
#
# Elastic Compliance Matrix: (Units=1/GPa)
#
#
# Indices 1 2 3 4 5 6 
#
# 1 0.071193 -0.005570 -0.001296 0.000000 0.011677 0.000000
# 2 -0.005570 0.007963 -0.003642 0.000000 -0.002734 0.000000
# 3 -0.001296 -0.003642 0.010390 0.000000 0.011858 0.000000
# 4 0.000000 0.000000 0.000000 -0.479380 0.000000 0.551245
# 5 0.011677 -0.002734 0.011858 0.000000 0.116165 0.000000
# 6 0.000000 0.000000 0.000000 0.551245 0.000000 -0.522466
#
#
# Mechanical properties :
#
#
# Convention : Reuss Voigt Hill
#
# Bulk Modulus (GPa) = 14.59258 54.52538 34.55898
# Shear Modulus (GPa) = -6.64651 20.84428 7.09888
#
# Velocity S-wave (km/s) = -1.86652 3.30544 1.92899
# Velocity P-wave (km/s) = 1.73314 6.56874 4.80376
#
# Compressibility (1/GPa) = 0.06852796
#
# Stress axis : x y z
#
# Youngs Moduli (GPa) = 14.04637 125.57872 96.24748
#
# Poissons Ratio (x) = 0.69953 0.12478
# Poissons Ratio (y) = 0.07824 0.35053
# Poissons Ratio (z) = 0.01821 0.45736
#
# Static dielectric constant tensor:
#      x y z
#    x 1.656430 0.000000 0.003790 
#    y 0.000000 1.729100 0.000000 
#    z 0.003790 0.000000 1.643900 
# 
# From -- ./inp_files/88274.got.cif
#   From: 2010.05.17/outbox.cif.g08.bks.cpg/sg10_45_cif.got.tgz:88274.got - 2010.06.03 11:33:40.
