data_PCOD9142042
_publ_section_title
;
Structure prediction by ZEFSAII (Michael W. Deem and Ramdas Pophale) SiO2 
 PCOD9142042
Probable space group: P 2/M
;
_chemical_formula_sum "Si O2"
_cell_formula_units_Z 32
_cell_length_a 8.594165
_cell_length_b 20.525295
_cell_length_c 12.027011
_cell_angle_alpha 90.000000
_cell_angle_beta 140.866137
_cell_angle_gamma 90.000000
_cell_volume 1338.975485
_symmetry_space_group_name_H-M "P 2/M"
_symmetry_group_IT_number 10
_symmetry_cell_setting 'monoclinic'
loop_
_space_group_symop_operation_xyz
x,y,z
-x,y,-z
-x,-y,-z
x,-y,z
loop_
_atom_site_type_symbol
_atom_site_label
_atom_site_fract_x
_atom_site_fract_y
_atom_site_fract_z
Si Si1 0.149786 0.425800 0.755119
Si Si2 0.322805 0.373698 0.618654
Si Si3 0.195152 0.297821 0.902692
Si Si4 0.669081 0.284693 0.703378
Si Si5 0.286948 0.248548 0.721857
Si Si6 0.245802 0.133676 0.213747
Si Si7 0.595103 0.894426 0.228970
Si Si8 0.113001 0.075146 0.819702
O O1 0.178885 0.500000 0.804923
O O2 0.288590 0.412448 0.714670
O O3 0.236759 0.372302 0.890364
O O4 0.863067 0.408097 0.569353
O O5 0.587079 0.351202 0.722457
O O6 0.228194 0.300543 0.594910
O O7 0.152983 0.259425 0.764314
O O8 0.956052 0.292180 0.841643
O O9 0.432501 0.267575 0.090381
O O10 0.500000 0.288357 0.500000
O O11 0.656437 0.208369 0.732354
O O12 0.281691 0.175269 0.684418
O O13 0.461000 0.090165 0.273215
O O14 0.133260 0.111289 0.271095
O O15 0.000000 0.130815 0.000000
O O16 0.802615 0.926796 0.263682
O O17 0.350199 0.893264 0.014092
O O18 0.095865 0.000000 0.847597
#
# Coordination Sequence:
#
# PCOD9142042 Si02
#       8
#     4   4   4   4   4   4   4   4
#     4  10  21  41  59  80 116 158 198 230 278 357
#     4  10  20  35  56  83 109 152 187 236 293 344
#     4  10  20  34  56  85 113 151 184 238 293 352
#     4  12  22  36  55  89 121 143 190 247 305 353
#     4  10  19  35  58  85 116 147 190 242 306 346
#     4  10  21  35  56  85 118 155 191 247 303 347
#     4  10  17  31  52  82 116 151 192 247 301 346
#     4  10  20  32  51  82 121 160 197 238 288 351
#
# _framework density 23.898869999999999
#
# number of rings (size 3 to 8) (size 9 to 14) (size 15 to 20)
#    0.000    1.750    2.500    5.250    0.000    2.750 
#    0.000    7.500    0.000    0.375    0.000   15.750 
#    0.000    0.000    0.000    0.000    0.000    0.000 
#
# Total GULP energy -178425.814631 kJ/mol
# GULP energy per Si atom -5575.806707 kJ/mol
# Density = 2.384448 g / cm^3
# Si number density = 23.898870 Si / 1000 Ang^3
#
#
#
# Elastic Constant Matrix: (Units=GPa)
#
#
# Indices 1 2 3 4 5 6 
#
# 1 162.2348 27.9921 19.7170 0.0000 34.6582 0.0000
# 2 27.9921 96.3866 -9.5413 0.0000 8.1667 0.0000
# 3 19.7170 -9.5413 60.7227 0.0000 6.2953 0.0000
# 4 0.0000 0.0000 0.0000-3008.8552 0.0000 -300.9167
# 5 34.6582 8.1667 6.2953 0.0000 27.0670 0.0000
# 6 0.0000 0.0000 0.0000 -300.9167 0.0000 -38.5501
#
#
#
# Elastic Compliance Matrix: (Units=1/GPa)
#
#
# Indices 1 2 3 4 5 6 
#
# 1 0.008985 -0.001938 -0.002142 0.000000 -0.010422 0.000000
# 2 -0.001938 0.011322 0.002567 0.000000 -0.001531 0.000000
# 3 -0.002142 0.002567 0.017792 0.000000 -0.002170 0.000000
# 4 0.000000 0.000000 0.000000 -0.001515 0.000000 0.011828
# 5 -0.010422 -0.001531 -0.002170 0.000000 0.051257 0.000000
# 6 0.000000 0.000000 0.000000 0.011828 0.000000 -0.118269
#
#
# Mechanical properties :
#
#
# Convention : Reuss Voigt Hill
#
# Bulk Modulus (GPa) = 28.51186 43.96440 36.23813
# Shear Modulus (GPa) = -318.24029 -585.32258 -451.78143
#
# Velocity S-wave (km/s) = -11.55207 -15.66678 -13.76405
# Velocity P-wave (km/s) = 12.88323 17.57351 15.40788
#
# Compressibility (1/GPa) = 0.03507313
#
# Stress axis : x y z
#
# Youngs Moduli (GPa) = 111.29538 88.32629 56.20477
#
# Poissons Ratio (x) = 0.17121 0.12037
# Poissons Ratio (y) = 0.21573 -0.14428
# Poissons Ratio (z) = 0.23835 -0.22674
#
# Static dielectric constant tensor:
#      x y z
#    x 2.249400 0.000000 0.062160 
#    y 0.000000 1.859430 0.000000 
#    z 0.062160 0.000000 1.976240 
# 
# From -- ./inp_files/62510.got.cif
#   From: 2010.05.17/outbox.cif.g08.bks.cpg/sg10_32_cif.got.tgz:62510.got - 2010.06.03 11:33:40.
