data_PCOD9142682
_publ_section_title
;
Structure prediction by ZEFSAII (Michael W. Deem and Ramdas Pophale) SiO2 
 PCOD9142682
Probable space group: P 2/M
;
_chemical_formula_sum "Si O2"
_cell_formula_units_Z 24
_cell_length_a 15.201272
_cell_length_b 13.969876
_cell_length_c 9.748077
_cell_angle_alpha 90.000000
_cell_angle_beta 40.184955
_cell_angle_gamma 90.000000
_cell_volume 1335.747060
_symmetry_space_group_name_H-M "P 2/M"
_symmetry_group_IT_number 10
_symmetry_cell_setting 'monoclinic'
loop_
_space_group_symop_operation_xyz
x,y,z
-x,y,-z
-x,-y,-z
x,-y,z
loop_
_atom_site_type_symbol
_atom_site_label
_atom_site_fract_x
_atom_site_fract_y
_atom_site_fract_z
Si Si1 0.404708 0.612647 0.422948
Si Si2 0.362965 0.105238 0.754309
Si Si3 0.661637 0.306208 0.779420
Si Si4 0.697455 0.685012 0.178477
Si Si5 0.132019 0.389630 0.266693
Si Si6 0.357360 0.895580 0.089131
O O1 0.426927 0.500000 0.366625
O O2 0.328475 0.666357 0.390867
O O3 0.551480 0.663396 0.276595
O O4 0.318176 0.624354 0.664892
O O5 0.500000 0.105628 0.500000
O O6 0.289815 0.203119 0.801353
O O7 0.298601 0.000000 0.809097
O O8 0.385267 0.114274 0.892686
O O9 0.744108 0.379644 0.774138
O O10 0.709943 0.200472 0.770527
O O11 0.500000 0.312109 0.000000
O O12 0.817196 0.657978 0.933195
O O13 0.103347 0.500000 0.270128
O O14 0.000000 0.347543 0.500000
O O15 0.289249 0.000000 0.190497
O O16 0.500000 0.899593 0.000000
#
# Coordination Sequence:
#
# PCOD9142682 Si02
#       6
#     4   4   4   4   4   4
#     4  11  21  31  52  81 109 139 180 230 272 317
#     4  10  18  29  48  76 110 141 173 219 278 333
#     4  11  20  34  54  81 108 142 182 231 270 321
#     4  11  19  35  52  78 111 144 177 224 280 325
#     4  11  23  38  56  78 110 149 186 226 275 330
#     4   9  17  29  47  75 110 140 170 218 274 322
#
# _framework density 17.967472999999998
#
# number of rings (size 3 to 8) (size 9 to 14) (size 15 to 20)
#    0.000    1.500    5.000    3.500    0.000    0.667 
#    0.000    0.833    0.000    5.000    0.000    0.000 
#    0.000    2.667    0.000    0.000    0.000    0.000 
#
# Total GULP energy -133681.272849 kJ/mol
# GULP energy per Si atom -5570.053035 kJ/mol
# Density = 1.792658 g / cm^3
# Si number density = 17.967473 Si / 1000 Ang^3
#
#
#
# Elastic Constant Matrix: (Units=GPa)
#
#
# Indices 1 2 3 4 5 6 
#
# 1 26.7894 -0.5549 14.5363 0.0000 16.6519 0.0000
# 2 -0.5549 115.3183 34.7620 0.0000 5.7334 0.0000
# 3 14.5363 34.7620 103.7572 0.0000 10.8030 0.0000
# 4 0.0000 0.0000 0.0000 19.7963 0.0000 13.7645
# 5 16.6519 5.7334 10.8030 0.0000 24.3912 0.0000
# 6 0.0000 0.0000 0.0000 13.7645 0.0000 50.9670
#
#
#
# Elastic Compliance Matrix: (Units=1/GPa)
#
#
# Indices 1 2 3 4 5 6 
#
# 1 0.069175 0.004546 -0.006485 0.000000 -0.045422 0.000000
# 2 0.004546 0.009962 -0.003572 0.000000 -0.003863 0.000000
# 3 -0.006485 -0.003572 0.011736 0.000000 0.000069 0.000000
# 4 0.000000 0.000000 0.000000 0.062193 0.000000 -0.016796
# 5 -0.045422 -0.003863 0.000069 0.000000 0.072885 0.000000
# 6 0.000000 0.000000 0.000000 -0.016796 0.000000 0.024157
#
#
# Mechanical properties :
#
#
# Convention : Reuss Voigt Hill
#
# Bulk Modulus (GPa) = 12.52340 38.15020 25.33680
# Shear Modulus (GPa) = 17.37627 32.17233 24.77430
#
# Velocity S-wave (km/s) = 3.11319 4.23612 3.71730
# Velocity P-wave (km/s) = 4.46181 6.72349 5.70584
#
# Compressibility (1/GPa) = 0.07985053
#
# Stress axis : x y z
#
# Youngs Moduli (GPa) = 14.45608 100.37657 85.20688
#
# Poissons Ratio (x) = -0.45632 0.55258
# Poissons Ratio (y) = -0.06572 0.30440
# Poissons Ratio (z) = 0.09375 0.35859
#
# Static dielectric constant tensor:
#      x y z
#    x 1.605570 0.000000 0.020860 
#    y 0.000000 1.691670 0.000000 
#    z 0.020860 0.000000 1.630320 
# 
# From -- ./inp_files/29295.got.cif
#   From: 2010.05.17/outbox.cif.g08.bks.cpg/sg10_15_cif.got.tgz:29295.got - 2010.06.03 11:33:40.
