data_PCOD9142529
_publ_section_title
;
Structure prediction by ZEFSAII (Michael W. Deem and Ramdas Pophale) SiO2 
 PCOD9142529
Probable space group: P 2/M
;
_chemical_formula_sum "Si O2"
_cell_formula_units_Z 32
_cell_length_a 16.683074
_cell_length_b 9.324798
_cell_length_c 22.692148
_cell_angle_alpha 90.000000
_cell_angle_beta 37.976498
_cell_angle_gamma 90.000000
_cell_volume 2172.225897
_symmetry_space_group_name_H-M "P 2/M"
_symmetry_group_IT_number 10
_symmetry_cell_setting 'monoclinic'
loop_
_space_group_symop_operation_xyz
x,y,z
-x,y,-z
-x,-y,-z
x,-y,z
loop_
_atom_site_type_symbol
_atom_site_label
_atom_site_fract_x
_atom_site_fract_y
_atom_site_fract_z
Si Si1 0.435702 0.335185 0.971866
Si Si2 0.289854 0.833422 0.642576
Si Si3 0.921846 0.330443 0.302266
Si Si4 0.323770 0.169619 0.211656
Si Si5 0.741458 0.669086 0.522531
Si Si6 0.850624 0.171660 0.573174
Si Si7 0.194501 0.829109 0.159137
Si Si8 0.528347 0.833780 0.579809
O O1 0.409727 0.500000 0.970564
O O2 0.544550 0.261123 0.868363
O O3 0.500000 0.335462 0.000000
O O4 0.305000 0.242739 0.054324
O O5 0.168540 0.734095 0.697091
O O6 0.384320 0.789793 0.641648
O O7 0.382178 0.830118 0.531001
O O8 0.251121 0.000000 0.673192
O O9 0.943058 0.500000 0.282336
O O10 0.841202 0.309655 0.409949
O O11 0.056598 0.245662 0.228619
O O12 0.237389 0.202588 0.318676
O O13 0.240841 0.195522 0.200003
O O14 0.355936 0.000000 0.193302
O O15 0.728978 0.500000 0.539698
O O16 0.797163 0.747569 0.547299
O O17 0.603633 0.736690 0.582695
O O18 0.000000 0.211306 0.500000
O O19 0.847049 0.000000 0.564771
O O20 0.187522 0.000000 0.154086
O O21 0.523804 0.000000 0.601697
#
# Coordination Sequence:
#
# PCOD9142529 Si02
#       8
#     4   4   4   4   4   4   4   4
#     4   9  17  29  45  64  85 108 135 171 217 264
#     4   8  14  25  41  60  80 107 142 175 210 252
#     4  10  19  28  39  60  90 118 143 174 214 259
#     4   9  18  31  46  63  82 109 147 185 217 250
#     4  10  20  30  41  60  86 116 148 181 217 256
#     4  10  20  33  47  62  83 114 152 188 217 247
#     4  10  18  29  46  64  84 111 143 178 214 256
#     4   8  14  26  43  59  78 107 143 179 211 249
#
# _framework density 14.731434
#
# number of rings (size 3 to 8) (size 9 to 14) (size 15 to 20)
#    0.000    2.750    0.000    3.000    0.000    5.750 
#    0.000    2.500    0.000    0.000    0.000    0.000 
#    0.000    1.000    0.000   10.500    0.000    5.500 
#
# Total GULP energy -178287.525305 kJ/mol
# GULP energy per Si atom -5571.485166 kJ/mol
# Density = 1.469790 g / cm^3
# Si number density = 14.731434 Si / 1000 Ang^3
#
#
#
# Elastic Constant Matrix: (Units=GPa)
#
#
# Indices 1 2 3 4 5 6 
#
# 1 114.2443 76.7553 53.9401 0.0000 -19.6066 0.0000
# 2 76.7553 95.2972 64.6109 0.0000 -21.1380 0.0000
# 3 53.9401 64.6109 73.3116 0.0000 -15.2650 0.0000
# 4 0.0000 0.0000 0.0000 19.9250 0.0000 -0.4415
# 5 -19.6066 -21.1380 -15.2650 0.0000 19.0013 0.0000
# 6 0.0000 0.0000 0.0000 -0.4415 0.0000 16.5109
#
#
#
# Elastic Compliance Matrix: (Units=1/GPa)
#
#
# Indices 1 2 3 4 5 6 
#
# 1 0.019284 -0.014008 -0.001134 0.000000 0.003404 0.000000
# 2 -0.014008 0.039058 -0.021710 0.000000 0.011555 0.000000
# 3 -0.001134 -0.021710 0.034028 0.000000 0.002015 0.000000
# 4 0.000000 0.000000 0.000000 0.050218 0.000000 0.001343
# 5 0.003404 0.011555 0.002015 0.000000 0.070614 0.000000
# 6 0.000000 0.000000 0.000000 0.001343 0.000000 0.060602
#
#
# Mechanical properties :
#
#
# Convention : Reuss Voigt Hill
#
# Bulk Modulus (GPa) = 53.57443 74.82950 64.20196
# Shear Modulus (GPa) = 14.13498 16.92389 15.52944
#
# Velocity S-wave (km/s) = 3.10096 3.39311 3.25032
# Velocity P-wave (km/s) = 7.01909 8.13984 7.60015
#
# Compressibility (1/GPa) = 0.01866562
#
# Stress axis : x y z
#
# Youngs Moduli (GPa) = 51.85583 25.60266 29.38721
#
# Poissons Ratio (x) = 0.35864 0.03334
# Poissons Ratio (y) = 0.72639 0.63801
# Poissons Ratio (z) = 0.05883 0.55584
#
# Static dielectric constant tensor:
#      x y z
#    x 1.477260 0.000000 -0.008470 
#    y 0.000000 1.489580 0.000000 
#    z -0.008470 0.000000 1.468910 
# 
# From -- ./inp_files/66065.got.cif
#   From: 2010.05.17/outbox.cif.g08.bks.cpg/sg10_34_cif.got.tgz:66065.got - 2010.06.03 11:33:40.
