data_PCOD9142676
_publ_section_title
;
Structure prediction by ZEFSAII (Michael W. Deem and Ramdas Pophale) SiO2 
 PCOD9142676
Probable space group: P 2/M
;
_chemical_formula_sum "Si O2"
_cell_formula_units_Z 32
_cell_length_a 32.034324
_cell_length_b 7.585713
_cell_length_c 12.621950
_cell_angle_alpha 90.000000
_cell_angle_beta 151.278100
_cell_angle_gamma 90.000000
_cell_volume 1473.957289
_symmetry_space_group_name_H-M "P 2/M"
_symmetry_group_IT_number 10
_symmetry_cell_setting 'monoclinic'
loop_
_space_group_symop_operation_xyz
x,y,z
-x,y,-z
-x,-y,-z
x,-y,z
loop_
_atom_site_type_symbol
_atom_site_label
_atom_site_fract_x
_atom_site_fract_y
_atom_site_fract_z
Si Si1 0.712292 0.286735 0.800753
Si Si2 0.005142 0.207917 0.630643
Si Si3 0.522811 0.698846 0.362164
Si Si4 0.575872 0.202293 0.253547
Si Si5 0.165721 0.209884 0.121849
Si Si6 0.811847 0.713337 0.229268
Si Si7 0.328094 0.289687 0.912109
Si Si8 0.267176 0.786511 0.538898
O O1 0.707584 0.500000 0.791748
O O2 0.614037 0.221831 0.606888
O O3 0.753220 0.236652 0.778620
O O4 0.778516 0.228568 0.039434
O O5 0.909717 0.227308 0.466949
O O6 0.000000 0.284136 0.500000
O O7 0.024503 0.000000 0.661953
O O8 0.081478 0.283696 0.873813
O O9 0.517108 0.500000 0.393607
O O10 0.544900 0.693937 0.286437
O O11 0.426228 0.780883 0.151163
O O12 0.654965 0.276683 0.362930
O O13 0.594755 0.000000 0.329795
O O14 0.500000 0.193666 0.000000
O O15 0.185016 0.273015 0.284806
O O16 0.154156 0.000000 0.106232
O O17 0.811921 0.500000 0.230350
O O18 0.742261 0.776143 0.160461
O O19 0.336000 0.500000 0.943466
O O20 0.289726 0.263527 0.708829
O O21 0.268418 0.000000 0.541709
#
# Coordination Sequence:
#
# PCOD9142676 Si02
#       8
#     4   4   4   4   4   4   4   4
#     4  10  20  33  53  82 111 140 178 222 270 321
#     4  10  20  36  61  88 109 134 173 223 278 329
#     4  10  20  32  50  78 109 143 182 223 265 311
#     4  10  18  29  48  75 105 138 178 223 267 311
#     4  10  20  35  56  85 114 137 169 221 280 327
#     4  10  22  39  57  79 109 145 183 222 269 324
#     4  10  22  38  54  75 109 152 190 222 259 312
#     4  10  20  34  54  79 109 145 181 221 269 320
#
# _framework density 21.710265
#
# number of rings (size 3 to 8) (size 9 to 14) (size 15 to 20)
#    0.000    2.000    3.750    0.000    0.000    3.000 
#    0.000    3.125    0.000    3.750    0.000    3.500 
#    0.000    0.000    0.000    0.000    0.000    0.000 
#
# Total GULP energy -178459.508222 kJ/mol
# GULP energy per Si atom -5576.859632 kJ/mol
# Density = 2.166085 g / cm^3
# Si number density = 21.710265 Si / 1000 Ang^3
#
#
#
# Elastic Constant Matrix: (Units=GPa)
#
#
# Indices 1 2 3 4 5 6 
#
# 1 47.4406 -16.1146 16.4541 0.0000 10.8381 0.0000
# 2 -16.1146 48.3068 -3.2289 0.0000 -0.5741 0.0000
# 3 16.4541 -3.2289 151.9554 0.0000 11.0961 0.0000
# 4 0.0000 0.0000 0.0000 13.6989 0.0000 3.3132
# 5 10.8381 -0.5741 11.0961 0.0000 22.4847 0.0000
# 6 0.0000 0.0000 0.0000 3.3132 0.0000 21.3047
#
#
#
# Elastic Compliance Matrix: (Units=1/GPa)
#
#
# Indices 1 2 3 4 5 6 
#
# 1 0.027533 0.008913 -0.001908 0.000000 -0.012102 0.000000
# 2 0.008913 0.023618 -0.000201 0.000000 -0.003594 0.000000
# 3 -0.001908 -0.000201 0.006968 0.000000 -0.002524 0.000000
# 4 0.000000 0.000000 0.000000 0.075851 0.000000 -0.011796
# 5 -0.012102 -0.003594 -0.002524 0.000000 0.051462 0.000000
# 6 0.000000 0.000000 0.000000 -0.011796 0.000000 0.048772
#
#
# Mechanical properties :
#
#
# Convention : Reuss Voigt Hill
#
# Bulk Modulus (GPa) = 13.94156 26.88044 20.41100
# Shear Modulus (GPa) = 20.44940 28.20380 24.32660
#
# Velocity S-wave (km/s) = 3.07241 3.60821 3.35104
# Velocity P-wave (km/s) = 4.36140 5.45594 4.93908
#
# Compressibility (1/GPa) = 0.07172800
#
# Stress axis : x y z
#
# Youngs Moduli (GPa) = 36.31948 42.34003 143.52287
#
# Poissons Ratio (x) = -0.37740 0.27387
# Poissons Ratio (y) = -0.32373 0.02883
# Poissons Ratio (z) = 0.06931 0.00850
#
# Static dielectric constant tensor:
#      x y z
#    x 1.747990 0.000000 0.000030 
#    y 0.000000 1.842690 0.000000 
#    z 0.000030 0.000000 1.860240 
# 
# From -- ./inp_files/58234.got.cif
#   From: 2010.05.17/outbox.cif.g08.bks.cpg/sg10_30_cif.got.tgz:58234.got - 2010.06.03 11:33:40.
