data_PCOD9142686
_publ_section_title
;
Structure prediction by ZEFSAII (Michael W. Deem and Ramdas Pophale) SiO2 
 PCOD9142686
Probable space group: P 2/M
;
_chemical_formula_sum "Si O2"
_cell_formula_units_Z 32
_cell_length_a 32.066028
_cell_length_b 8.501398
_cell_length_c 22.190075
_cell_angle_alpha 90.000000
_cell_angle_beta 160.834288
_cell_angle_gamma 90.000000
_cell_volume 1985.944326
_symmetry_space_group_name_H-M "P 2/M"
_symmetry_group_IT_number 10
_symmetry_cell_setting 'monoclinic'
loop_
_space_group_symop_operation_xyz
x,y,z
-x,y,-z
-x,-y,-z
x,-y,z
loop_
_atom_site_type_symbol
_atom_site_label
_atom_site_fract_x
_atom_site_fract_y
_atom_site_fract_z
Si Si1 0.596687 0.188552 0.184667
Si Si2 0.117029 0.690266 0.435442
Si Si3 0.492462 0.688343 0.169739
Si Si4 0.871556 0.317434 0.865319
Si Si5 0.203801 0.691591 0.788055
Si Si6 0.955551 0.690824 0.795619
Si Si7 0.279933 0.814621 0.446828
Si Si8 0.984281 0.308251 0.575354
O O1 0.737193 0.255202 0.365698
O O2 0.545155 0.243902 0.178935
O O3 0.603173 0.000000 0.193001
O O4 0.500000 0.240175 0.000000
O O5 0.116795 0.500000 0.435520
O O6 0.052352 0.740714 0.284442
O O7 0.046087 0.746019 0.398848
O O8 0.491309 0.500000 0.163105
O O9 0.588879 0.737002 0.353911
O O10 0.348819 0.744884 0.985342
O O11 0.833148 0.500000 0.817637
O O12 0.766570 0.226305 0.683992
O O13 0.000000 0.312881 0.000000
O O14 0.921330 0.257721 0.997840
O O15 0.205175 0.500000 0.790687
O O16 0.128273 0.737853 0.624331
O O17 0.116364 0.742400 0.724921
O O18 0.953519 0.500000 0.795831
O O19 0.829749 0.750167 0.658124
O O20 0.288770 0.000000 0.466668
O O21 0.985695 0.500000 0.578116
#
# Coordination Sequence:
#
# PCOD9142686 Si02
#       8
#     4   4   4   4   4   4   4   4
#     4  11  23  34  43  62  95 128 155 188 229 271
#     4  10  18  29  49  71  92 121 155 187 226 281
#     4  11  20  31  48  68  91 123 159 190 229 277
#     4   8  15  28  44  61  88 121 152 185 225 271
#     4   8  15  27  45  68  93 117 149 197 238 267
#     4   9  17  29  44  66  93 122 152 187 226 273
#     4  11  20  29  43  65  93 123 153 189 229 270
#     4   8  14  27  46  70  93 114 149 196 237 269
#
# _framework density 16.113240999999999
#
# number of rings (size 3 to 8) (size 9 to 14) (size 15 to 20)
#    0.000    2.500    1.250    4.125    0.000    4.250 
#    0.000    0.000    0.000    1.500    0.000    7.000 
#    0.000    7.000    0.000    0.000    0.000    0.000 
#
# Total GULP energy -178367.703324 kJ/mol
# GULP energy per Si atom -5573.990729 kJ/mol
# Density = 1.607657 g / cm^3
# Si number density = 16.113241 Si / 1000 Ang^3
#
#
#
# Elastic Constant Matrix: (Units=GPa)
#
#
# Indices 1 2 3 4 5 6 
#
# 1 119.5421 9.3158 60.0923 0.0000 -12.3411 0.0000
# 2 9.3158 7.5299 2.6766 0.0000 -3.4941 0.0000
# 3 60.0923 2.6766 68.2548 0.0000 -11.8739 0.0000
# 4 0.0000 0.0000 0.0000 4.8744 0.0000 -10.0794
# 5 -12.3411 -3.4941 -11.8739 0.0000 24.8254 0.0000
# 6 0.0000 0.0000 0.0000 -10.0794 0.0000 1.7429
#
#
#
# Elastic Compliance Matrix: (Units=1/GPa)
#
#
# Indices 1 2 3 4 5 6 
#
# 1 0.016647 -0.015903 -0.014161 0.000000 -0.000736 0.000000
# 2 -0.015903 0.157604 0.011240 0.000000 0.019653 0.000000
# 3 -0.014161 0.011240 0.028063 0.000000 0.007965 0.000000
# 4 0.000000 0.000000 0.000000 -0.018720 0.000000 -0.108265
# 5 -0.000736 0.019653 0.007965 0.000000 0.046491 0.000000
# 6 0.000000 0.000000 0.000000 -0.108265 0.000000 -0.052357
#
#
# Mechanical properties :
#
#
# Convention : Reuss Voigt Hill
#
# Bulk Modulus (GPa) = 6.07290 37.72182 21.89736
# Shear Modulus (GPa) = 18.50041 14.50465 16.50253
#
# Velocity S-wave (km/s) = 3.39211 3.00354 3.20372
# Velocity P-wave (km/s) = 4.37252 5.95731 5.22535
#
# Compressibility (1/GPa) = 0.16466602
#
# Stress axis : x y z
#
# Youngs Moduli (GPa) = 60.07115 6.34501 35.63420
#
# Poissons Ratio (x) = 0.10091 0.50460
# Poissons Ratio (y) = 0.95532 -0.40052
# Poissons Ratio (z) = 0.85064 -0.07132
#
# Static dielectric constant tensor:
#      x y z
#    x 1.544470 0.000000 -0.026930 
#    y 0.000000 1.541340 0.000000 
#    z -0.026930 0.000000 1.539230 
# 
# From -- ./inp_files/56407.got.cif
#   From: 2010.05.17/outbox.cif.g08.bks.cpg/sg10_29_cif.got.tgz:56407.got - 2010.06.03 11:33:40.
