data_PCOD9142167
_publ_section_title
;
Structure prediction by ZEFSAII (Michael W. Deem and Ramdas Pophale) SiO2 
 PCOD9142167
Probable space group: P 2/M
;
_chemical_formula_sum "Si O2"
_cell_formula_units_Z 28
_cell_length_a 8.215048
_cell_length_b 10.674447
_cell_length_c 26.634134
_cell_angle_alpha 90.000000
_cell_angle_beta 42.193981
_cell_angle_gamma 90.000000
_cell_volume 1568.672960
_symmetry_space_group_name_H-M "P 2/M"
_symmetry_group_IT_number 10
_symmetry_cell_setting 'monoclinic'
loop_
_space_group_symop_operation_xyz
x,y,z
-x,y,-z
-x,-y,-z
x,-y,z
loop_
_atom_site_type_symbol
_atom_site_label
_atom_site_fract_x
_atom_site_fract_y
_atom_site_fract_z
Si Si1 0.245220 0.850433 0.538664
Si Si2 0.271362 0.362570 0.218329
Si Si3 0.268612 0.235434 0.317092
Si Si4 0.832025 0.643821 0.086533
Si Si5 0.930239 0.858821 0.258417
Si Si6 0.216046 0.138887 0.824827
Si Si7 0.628563 0.853015 0.600424
O O1 0.500000 0.797566 0.500000
O O2 0.232652 0.821895 0.482226
O O3 0.006606 0.811258 0.622701
O O4 0.258002 0.000000 0.539075
O O5 0.180048 0.500000 0.224506
O O6 0.284969 0.352090 0.275973
O O7 0.547889 0.347941 0.136889
O O8 0.106072 0.249684 0.236829
O O9 0.490629 0.149490 0.246818
O O10 0.318176 0.237839 0.365295
O O11 0.872194 0.500000 0.095160
O O12 0.871404 0.748675 0.119929
O O13 0.000000 0.664868 0.000000
O O14 0.885445 0.848839 0.208581
O O15 0.660302 0.848916 0.343486
O O16 0.021106 0.000000 0.248546
O O17 0.153371 0.000000 0.858041
O O18 0.682976 0.000000 0.602263
#
# Coordination Sequence:
#
# PCOD9142167 Si02
#       7
#     4   4   4   4   4   4   4
#     4  10  18  26  42  71 103 132 165 207 251 292
#     4  10  21  35  53  76 100 128 165 205 246 296
#     4  10  18  30  48  67  98 133 167 205 247 291
#     4   9  19  36  55  75 100 131 167 203 240 290
#     4   9  18  33  52  75 103 132 166 206 247 293
#     4   9  18  32  52  78 103 130 165 204 248 297
#     4   9  17  29  47  73 101 131 169 209 247 291
#
# _framework density 17.849481999999998
#
# number of rings (size 3 to 8) (size 9 to 14) (size 15 to 20)
#    0.000    2.571    0.000    3.429    0.000    6.571 
#    0.000    2.857    0.000    9.857    0.000    0.000 
#    0.000    0.000    0.000    0.000    0.000    0.000 
#
# Total GULP energy -155961.719984 kJ/mol
# GULP energy per Si atom -5570.061428 kJ/mol
# Density = 1.780886 g / cm^3
# Si number density = 17.849482 Si / 1000 Ang^3
#
#
#
# Elastic Constant Matrix: (Units=GPa)
#
#
# Indices 1 2 3 4 5 6 
#
# 1 55.6084 41.6824 31.2097 0.0000 -10.0308 0.0000
# 2 41.6824 109.9110 48.9172 0.0000 3.9772 0.0000
# 3 31.2097 48.9172 113.4685 0.0000 6.6599 0.0000
# 4 0.0000 0.0000 0.0000 6.0941 0.0000 -1.2607
# 5 -10.0308 3.9772 6.6599 0.0000 14.3077 0.0000
# 6 0.0000 0.0000 0.0000 -1.2607 0.0000 19.2424
#
#
#
# Elastic Compliance Matrix: (Units=1/GPa)
#
#
# Indices 1 2 3 4 5 6 
#
# 1 0.036599 -0.012032 -0.006767 0.000000 0.032153 0.000000
# 2 -0.012032 0.015225 -0.002581 0.000000 -0.011466 0.000000
# 3 -0.006767 -0.002581 0.012361 0.000000 -0.009781 0.000000
# 4 0.000000 0.000000 0.000000 0.166349 0.000000 0.010899
# 5 0.032153 -0.011466 -0.009781 0.000000 0.100175 0.000000
# 6 0.000000 0.000000 0.000000 0.010899 0.000000 0.052683
#
#
# Mechanical properties :
#
#
# Convention : Reuss Voigt Hill
#
# Bulk Modulus (GPa) = 46.67325 58.06740 52.37032
# Shear Modulus (GPa) = 11.53955 18.40740 14.97347
#
# Velocity S-wave (km/s) = 2.54538 3.21480 2.89948
# Velocity P-wave (km/s) = 5.90285 6.81045 6.37283
#
# Compressibility (1/GPa) = 0.02142555
#
# Stress axis : x y z
#
# Youngs Moduli (GPa) = 27.32296 65.68219 80.89859
#
# Poissons Ratio (x) = 0.79026 0.54744
# Poissons Ratio (y) = 0.32874 0.20882
# Poissons Ratio (z) = 0.18489 0.16954
#
# Static dielectric constant tensor:
#      x y z
#    x 1.658150 0.000000 -0.004220 
#    y 0.000000 1.598830 0.000000 
#    z -0.004220 0.000000 1.609170 
# 
# From -- ./inp_files/94496.got.cif
#   From: 2010.05.17/outbox.cif.g08.bks.cpg/sg10_48_cif.got.tgz:94496.got - 2010.06.03 11:33:40.
