data_PCOD9142498
_publ_section_title
;
Structure prediction by ZEFSAII (Michael W. Deem and Ramdas Pophale) SiO2 
 PCOD9142498
Probable space group: P 2/M
;
_chemical_formula_sum "Si O2"
_cell_formula_units_Z 30
_cell_length_a 15.834169
_cell_length_b 23.351808
_cell_length_c 15.242252
_cell_angle_alpha 90.000000
_cell_angle_beta 161.360949
_cell_angle_gamma 90.000000
_cell_volume 1801.269798
_symmetry_space_group_name_H-M "P 2/M"
_symmetry_group_IT_number 10
_symmetry_cell_setting 'monoclinic'
loop_
_space_group_symop_operation_xyz
x,y,z
-x,y,-z
-x,-y,-z
x,-y,z
loop_
_atom_site_type_symbol
_atom_site_label
_atom_site_fract_x
_atom_site_fract_y
_atom_site_fract_z
Si Si1 0.257757 0.338628 0.698165
Si Si2 0.741764 0.000000 0.805494
Si Si3 0.251418 0.332504 0.193969
Si Si4 0.542191 0.565481 0.240297
Si Si5 0.907191 0.267791 0.624875
Si Si6 0.386952 0.770155 0.194499
Si Si7 0.007901 0.392824 0.802582
Si Si8 0.259125 0.125742 0.194515
O O1 0.350845 0.391282 0.728379
O O2 0.175759 0.286348 0.553915
O O3 0.000000 0.355114 0.500000
O O4 0.500000 0.324013 0.000000
O O5 0.500000 0.000000 0.500000
O O6 0.740844 0.062240 0.849261
O O7 0.000000 0.000000 0.000000
O O8 0.500000 0.347261 0.500000
O O9 0.353174 0.284464 0.226112
O O10 0.127213 0.385282 0.016951
O O11 0.000000 0.308265 0.000000
O O12 0.535027 0.500000 0.203344
O O13 0.747713 0.571082 0.524158
O O14 0.251552 0.585659 0.983289
O O15 0.684465 0.230118 0.452622
O O16 0.924409 0.328665 0.692442
O O17 0.191551 0.240201 0.920320
O O18 0.298914 0.825171 0.162403
O O19 0.500000 0.128872 0.500000
O O20 0.000000 0.133177 0.000000
#
# Coordination Sequence:
#
# PCOD9142498 Si02
#       8
#     4   2   4   4   4   4   4   4
#     4  11  21  35  54  75  98 120 143 177 226 289
#     4   8  16  28  42  60  94 140 178 208 242 278
#     4  11  19  29  47  69  90 116 154 199 238 269
#     4  11  22  37  56  73  91 119 151 182 221 277
#     4  10  20  34  49  69  96 126 152 181 235 291
#     4  11  19  30  47  70  98 126 161 201 233 274
#     4  10  20  36  51  68  94 123 151 184 234 288
#     4  10  18  29  44  68 100 138 179 212 240 267
#
# _framework density 16.654917000000001
#
# number of rings (size 3 to 8) (size 9 to 14) (size 15 to 20)
#    0.000    1.600    0.000   10.000    0.000    0.533 
#    0.000    0.000    0.000    8.000    0.000    0.000 
#    0.000    0.000    0.000   12.000    0.000    0.000 
#
# Total GULP energy -167321.492235 kJ/mol
# GULP energy per Si atom -5577.383074 kJ/mol
# Density = 1.661701 g / cm^3
# Si number density = 16.654917 Si / 1000 Ang^3
#
#
#
# Elastic Constant Matrix: (Units=GPa)
#
#
# Indices 1 2 3 4 5 6 
#
# 1 36.5891 12.8536 21.2895 0.0000 -11.3046 0.0000
# 2 12.8536 64.9843 7.0114 0.0000 -7.0327 0.0000
# 3 21.2895 7.0114 114.2316 0.0000 -4.7813 0.0000
# 4 0.0000 0.0000 0.0000 -1.4437 0.0000 -0.0718
# 5 -11.3046 -7.0327 -4.7813 0.0000 36.0101 0.0000
# 6 0.0000 0.0000 0.0000 -0.0718 0.0000 7.4456
#
#
#
# Elastic Compliance Matrix: (Units=1/GPa)
#
#
# Indices 1 2 3 4 5 6 
#
# 1 0.035536 -0.005383 -0.005902 0.000000 0.009321 0.000000
# 2 -0.005383 0.016617 0.000049 0.000000 0.001562 0.000000
# 3 -0.005902 0.000049 0.009829 0.000000 -0.000538 0.000000
# 4 0.000000 0.000000 0.000000 -0.692311 0.000000 -0.006678
# 5 0.009321 0.001562 -0.000538 0.000000 0.030929 0.000000
# 6 0.000000 0.000000 0.000000 -0.006678 0.000000 0.134243
#
#
# Mechanical properties :
#
#
# Convention : Reuss Voigt Hill
#
# Bulk Modulus (GPa) = 25.31168 33.12381 29.21774
# Shear Modulus (GPa) = -11.64102 20.04577 4.20237
#
# Velocity S-wave (km/s) = -2.64664 3.47305 1.59018
# Velocity P-wave (km/s) = 2.42716 6.00119 4.57741
#
# Compressibility (1/GPa) = 0.03950746
#
# Stress axis : x y z
#
# Youngs Moduli (GPa) = 28.14081 60.17982 101.74352
#
# Poissons Ratio (x) = 0.32396 0.60052
# Poissons Ratio (y) = 0.15149 -0.00496
# Poissons Ratio (z) = 0.16609 -0.00293
#
# Static dielectric constant tensor:
#      x y z
#    x 1.553970 0.000000 -0.050400 
#    y 0.000000 1.572480 0.000000 
#    z -0.050400 0.000000 1.537770 
# 
# From -- ./inp_files/67908.got.cif
#   From: 2010.05.17/outbox.cif.g08.bks.cpg/sg10_34_cif.got.tgz:67908.got - 2010.06.03 11:33:40.
