data_PCOD9142739
_publ_section_title
;
Structure prediction by ZEFSAII (Michael W. Deem and Ramdas Pophale) SiO2 
 PCOD9142739
Probable space group: P 2/M
;
_chemical_formula_sum "Si O2"
_cell_formula_units_Z 28
_cell_length_a 12.319786
_cell_length_b 8.939425
_cell_length_c 18.966953
_cell_angle_alpha 90.000000
_cell_angle_beta 36.680327
_cell_angle_gamma 90.000000
_cell_volume 1247.782961
_symmetry_space_group_name_H-M "P 2/M"
_symmetry_group_IT_number 10
_symmetry_cell_setting 'monoclinic'
loop_
_space_group_symop_operation_xyz
x,y,z
-x,y,-z
-x,-y,-z
x,-y,z
loop_
_atom_site_type_symbol
_atom_site_label
_atom_site_fract_x
_atom_site_fract_y
_atom_site_fract_z
Si Si1 0.372904 0.168636 0.928266
Si Si2 0.166221 0.676991 0.701004
Si Si3 0.709780 0.175998 0.501232
Si Si4 0.955130 0.829441 0.099437
Si Si5 0.385668 0.675677 0.311432
Si Si6 0.883697 0.173913 0.648021
Si Si7 0.789737 0.179664 0.848541
O O1 0.464207 0.273132 0.823200
O O2 0.447161 0.000000 0.881069
O O3 0.157419 0.160568 0.025558
O O4 0.366384 0.211638 0.013747
O O5 0.189678 0.500000 0.691933
O O6 0.168952 0.747356 0.778128
O O7 0.964292 0.721814 0.778575
O O8 0.293348 0.746806 0.573672
O O9 0.589503 0.244655 0.626234
O O10 0.914409 0.197227 0.426731
O O11 0.678423 0.000000 0.509477
O O12 0.885906 0.000000 0.124374
O O13 0.000000 0.758348 0.000000
O O14 0.384588 0.500000 0.322445
O O15 0.197753 0.728465 0.371990
O O16 0.758596 0.202306 0.781998
O O17 0.871937 0.000000 0.632961
O O18 0.834031 0.000000 0.831746
#
# Coordination Sequence:
#
# PCOD9142739 Si02
#       7
#     4   4   4   4   4   4   4
#     4   9  18  34  53  73 100 134 169 204 248 301
#     4  10  18  29  50  80 109 132 158 200 255 303
#     4  10  20  36  55  71  94 134 181 218 248 291
#     4   9  18  35  60  85 105 129 165 204 241 293
#     4  12  24  33  45  70 104 138 171 212 259 301
#     4   9  18  33  52  72  94 128 176 222 257 292
#     4   8  16  32  52  71  95 132 175 213 248 294
#
# _framework density 22.439800999999999
#
# number of rings (size 3 to 8) (size 9 to 14) (size 15 to 20)
#    0.000    2.429    0.000    5.143    0.000    7.714 
#    0.000    2.857    0.000    0.857    0.000    6.000 
#    0.000    0.000    0.000    0.000    0.000    0.000 
#
# Total GULP energy -156307.917587 kJ/mol
# GULP energy per Si atom -5582.425628 kJ/mol
# Density = 2.238873 g / cm^3
# Si number density = 22.439801 Si / 1000 Ang^3
#
#
#
# Elastic Constant Matrix: (Units=GPa)
#
#
# Indices 1 2 3 4 5 6 
#
# 1 51.0706 22.2197 36.5722 0.0000 22.0420 0.0000
# 2 22.2197 107.8185 70.4617 0.0000 36.6132 0.0000
# 3 36.5722 70.4617 153.1232 0.0000 61.1990 0.0000
# 4 0.0000 0.0000 0.0000 11.6531 0.0000 3.2720
# 5 22.0420 36.6132 61.1990 0.0000 51.6348 0.0000
# 6 0.0000 0.0000 0.0000 3.2720 0.0000 -2.9783
#
#
#
# Elastic Compliance Matrix: (Units=1/GPa)
#
#
# Indices 1 2 3 4 5 6 
#
# 1 0.024890 -0.001054 -0.002873 0.000000 -0.006473 0.000000
# 2 -0.001054 0.013787 -0.004494 0.000000 -0.004000 0.000000
# 3 -0.002873 -0.004494 0.014291 0.000000 -0.012525 0.000000
# 4 0.000000 0.000000 0.000000 0.065584 0.000000 0.072051
# 5 -0.006473 -0.004000 -0.012525 0.000000 0.039811 0.000000
# 6 0.000000 0.000000 0.000000 0.072051 0.000000 -0.256608
#
#
# Mechanical properties :
#
#
# Convention : Reuss Voigt Hill
#
# Bulk Modulus (GPa) = 27.68037 63.39104 45.53570
# Shear Modulus (GPa) = -72.08570 24.24583 -23.91993
#
# Velocity S-wave (km/s) = -5.67396 3.29064 -3.26845
# Velocity P-wave (km/s) = 5.52837 6.53823 2.46836
#
# Compressibility (1/GPa) = 0.03612669
#
# Stress axis : x y z
#
# Youngs Moduli (GPa) = 40.17636 72.53055 69.97641
#
# Poissons Ratio (x) = 0.07644 0.20102
# Poissons Ratio (y) = 0.04234 0.31447
# Poissons Ratio (z) = 0.11542 0.32595
#
# Static dielectric constant tensor:
#      x y z
#    x 1.907220 0.000000 -0.014200 
#    y 0.000000 1.751170 0.000000 
#    z -0.014200 0.000000 1.930840 
# 
# From -- ./inp_files/68617.got.cif
#   From: 2010.05.17/outbox.cif.g08.bks.cpg/sg10_35_cif.got.tgz:68617.got - 2010.06.03 11:33:40.
