data_PCOD9142248
_publ_section_title
;
Structure prediction by ZEFSAII (Michael W. Deem and Ramdas Pophale) SiO2 
 PCOD9142248
Probable space group: P 2/M
;
_chemical_formula_sum "Si O2"
_cell_formula_units_Z 32
_cell_length_a 21.962103
_cell_length_b 7.379161
_cell_length_c 17.329984
_cell_angle_alpha 90.000000
_cell_angle_beta 27.221004
_cell_angle_gamma 90.000000
_cell_volume 1284.688890
_symmetry_space_group_name_H-M "P 2/M"
_symmetry_group_IT_number 10
_symmetry_cell_setting 'monoclinic'
loop_
_space_group_symop_operation_xyz
x,y,z
-x,y,-z
-x,-y,-z
x,-y,z
loop_
_atom_site_type_symbol
_atom_site_label
_atom_site_fract_x
_atom_site_fract_y
_atom_site_fract_z
Si Si1 0.388190 0.219582 0.356653
Si Si2 0.992208 0.284530 0.815655
Si Si3 0.831072 0.785481 0.513627
Si Si4 0.323427 0.294970 0.006432
Si Si5 0.302106 0.277710 0.853813
Si Si6 0.646556 0.288002 0.863859
Si Si7 0.133229 0.721714 0.805235
Si Si8 0.585383 0.706581 0.494363
O O1 0.265738 0.284304 0.444406
O O2 0.397296 0.294877 0.432092
O O3 0.390820 0.000000 0.357262
O O4 0.517035 0.290672 0.167828
O O5 0.990485 0.500000 0.827102
O O6 0.026389 0.251053 0.686983
O O7 0.101084 0.213975 0.754235
O O8 0.844850 0.222865 0.006021
O O9 0.762932 0.720762 0.668742
O O10 0.820312 0.000000 0.530176
O O11 0.268814 0.500000 0.063969
O O12 0.305011 0.217606 0.940842
O O13 0.291938 0.210807 0.125259
O O14 0.310734 0.500000 0.843567
O O15 0.434666 0.217777 0.657443
O O16 0.622535 0.500000 0.906914
O O17 0.500000 0.215626 0.000000
O O18 0.142927 0.500000 0.795083
O O19 0.270989 0.789293 0.687313
O O20 0.000000 0.769519 0.000000
O O21 0.585583 0.500000 0.465992
#
# Coordination Sequence:
#
# PCOD9142248 Si02
#       8
#     4   4   4   4   4   4   4   4
#     4  10  18  27  44  71  99 125 160 205 249 291
#     4  10  19  34  54  73  97 131 170 203 242 301
#     4  11  22  32  46  71 102 131 164 211 258 294
#     4   9  17  31  49  70  99 128 163 209 251 293
#     4   8  16  30  51  75  96 127 169 209 244 284
#     4  10  19  30  48  73  98 130 171 209 252 303
#     4   9  17  29  50  80 107 130 159 199 244 290
#     4   9  16  30  51  73  99 130 164 202 244 288
#
# _framework density 24.908754999999999
#
# number of rings (size 3 to 8) (size 9 to 14) (size 15 to 20)
#    0.000    2.500    2.500    1.500    0.000    1.750 
#    0.000    3.750    0.000    9.000    0.000    0.000 
#    0.000    5.000    0.000    0.000    0.000    0.000 
#
# Total GULP energy -178367.052284 kJ/mol
# GULP energy per Si atom -5573.970384 kJ/mol
# Density = 2.485206 g / cm^3
# Si number density = 24.908755 Si / 1000 Ang^3
#
#
#
# Elastic Constant Matrix: (Units=GPa)
#
#
# Indices 1 2 3 4 5 6 
#
# 1 79.9364 4.5199 51.9454 0.0000 2.5158 0.0000
# 2 4.5199 104.1822 -3.6983 0.0000 -5.2261 0.0000
# 3 51.9454 -3.6983 174.1539 0.0000 -0.4226 0.0000
# 4 0.0000 0.0000 0.0000 8.8016 0.0000 16.4481
# 5 2.5158 -5.2261 -0.4226 0.0000 43.8242 0.0000
# 6 0.0000 0.0000 0.0000 16.4481 0.0000 -6.9377
#
#
#
# Elastic Compliance Matrix: (Units=1/GPa)
#
#
# Indices 1 2 3 4 5 6 
#
# 1 0.015639 -0.000898 -0.004686 0.000000 -0.001050 0.000000
# 2 -0.000898 0.009715 0.000477 0.000000 0.001215 0.000000
# 3 -0.004686 0.000477 0.007151 0.000000 0.000395 0.000000
# 4 0.000000 0.000000 0.000000 0.020922 0.000000 0.049602
# 5 -0.001050 0.001215 0.000395 0.000000 0.023027 0.000000
# 6 0.000000 0.000000 0.000000 0.049602 0.000000 -0.026543
#
#
# Mechanical properties :
#
#
# Convention : Reuss Voigt Hill
#
# Bulk Modulus (GPa) = 44.85988 51.53405 48.19696
# Shear Modulus (GPa) = 74.01260 29.50466 51.75863
#
# Velocity S-wave (km/s) = 5.45692 3.44540 4.56338
# Velocity P-wave (km/s) = 7.59952 6.04664 6.86712
#
# Compressibility (1/GPa) = 0.02229164
#
# Stress axis : x y z
#
# Youngs Moduli (GPa) = 63.94236 102.92969 139.84179
#
# Poissons Ratio (x) = 0.09238 0.65534
# Poissons Ratio (y) = 0.05739 -0.06670
# Poissons Ratio (z) = 0.29965 -0.04909
#
# Static dielectric constant tensor:
#      x y z
#    x 2.031330 0.000000 0.022970 
#    y 0.000000 1.988260 0.000000 
#    z 0.022970 0.000000 2.058540 
# 
# From -- ./inp_files/86817.got.cif
#   From: 2010.05.17/outbox.cif.g08.bks.cpg/sg10_44_cif.got.tgz:86817.got - 2010.06.03 11:33:40.
