data_PCOD9142869
_publ_section_title
;
Structure prediction by ZEFSAII (Michael W. Deem and Ramdas Pophale) SiO2 
 PCOD9142869
Probable space group: P 2/M
;
_chemical_formula_sum "Si O2"
_cell_formula_units_Z 32
_cell_length_a 24.386519
_cell_length_b 8.667116
_cell_length_c 21.319583
_cell_angle_alpha 90.000000
_cell_angle_beta 156.109046
_cell_angle_gamma 90.000000
_cell_volume 1824.967723
_symmetry_space_group_name_H-M "P 2/M"
_symmetry_group_IT_number 10
_symmetry_cell_setting 'monoclinic'
loop_
_space_group_symop_operation_xyz
x,y,z
-x,y,-z
-x,-y,-z
x,-y,z
loop_
_atom_site_type_symbol
_atom_site_label
_atom_site_fract_x
_atom_site_fract_y
_atom_site_fract_z
Si Si1 0.471902 0.187038 0.125069
Si Si2 0.348863 0.818213 0.871940
Si Si3 0.261809 0.184757 0.432670
Si Si4 0.919366 0.315495 0.645455
Si Si5 0.451495 0.684900 0.242945
Si Si6 0.233770 0.186152 0.625837
Si Si7 0.982827 0.813969 0.910821
Si Si8 0.161726 0.314016 0.987506
O O1 0.367885 0.243181 0.962130
O O2 0.464702 0.000000 0.121267
O O3 0.446895 0.258373 0.166341
O O4 0.623804 0.224307 0.259845
O O5 0.249582 0.756057 0.714166
O O6 0.317297 0.000000 0.845343
O O7 0.500000 0.810168 0.000000
O O8 0.192867 0.250663 0.423610
O O9 0.412318 0.248474 0.584479
O O10 0.161420 0.229004 0.271003
O O11 0.265542 0.000000 0.441680
O O12 0.911332 0.500000 0.636391
O O13 0.885467 0.252119 0.541378
O O14 0.062563 0.268893 0.826102
O O15 0.457311 0.500000 0.249856
O O16 0.314441 0.736170 0.134095
O O17 0.224601 0.000000 0.617559
O O18 0.096309 0.751466 0.982259
O O19 0.990209 0.000000 0.918344
O O20 0.000000 0.759536 0.000000
O O21 0.158992 0.500000 0.988077
#
# Coordination Sequence:
#
# PCOD9142869 Si02
#       8
#     4   4   4   4   4   4   4   4
#     4   9  16  27  45  68  96 129 165 202 250 300
#     4   7  12  23  39  62  92 126 159 200 249 297
#     4  10  19  32  52  77 102 129 162 198 242 293
#     4  10  18  30  48  70  97 128 166 209 249 287
#     4  11  21  33  49  72 104 135 167 206 244 284
#     4   9  15  25  44  69  96 124 162 207 252 299
#     4   9  19  37  60  83 104 127 160 202 242 283
#     4   9  21  37  51  72 103 138 169 198 238 292
#
# _framework density 17.534555999999998
#
# number of rings (size 3 to 8) (size 9 to 14) (size 15 to 20)
#    0.000    2.750    1.250    2.625    0.000    2.250 
#    0.000    1.250    0.000    6.750    0.000    5.250 
#    0.000    0.000    0.000    0.000    0.000    0.000 
#
# Total GULP energy -178298.823099 kJ/mol
# GULP energy per Si atom -5571.838222 kJ/mol
# Density = 1.749465 g / cm^3
# Si number density = 17.534556 Si / 1000 Ang^3
#
#
#
# Elastic Constant Matrix: (Units=GPa)
#
#
# Indices 1 2 3 4 5 6 
#
# 1 82.8225 19.7432 67.6611 0.0000 -18.1834 0.0000
# 2 19.7432 15.3313 25.5411 0.0000 -1.8825 0.0000
# 3 67.6611 25.5411 119.7669 0.0000 -7.2141 0.0000
# 4 0.0000 0.0000 0.0000 36.2525 0.0000 -3.8411
# 5 -18.1834 -1.8825 -7.2141 0.0000 33.0928 0.0000
# 6 0.0000 0.0000 0.0000 -3.8411 0.0000 12.9759
#
#
#
# Elastic Compliance Matrix: (Units=1/GPa)
#
#
# Indices 1 2 3 4 5 6 
#
# 1 0.027930 -0.014601 -0.011948 0.000000 0.011912 0.000000
# 2 -0.014601 0.108839 -0.015273 0.000000 -0.005161 0.000000
# 3 -0.011948 -0.015273 0.018147 0.000000 -0.003478 0.000000
# 4 0.000000 0.000000 0.000000 0.028477 0.000000 0.008430
# 5 0.011912 -0.005161 -0.003478 0.000000 0.035711 0.000000
# 6 0.000000 0.000000 0.000000 0.008430 0.000000 0.079561
#
#
# Mechanical properties :
#
#
# Convention : Reuss Voigt Hill
#
# Bulk Modulus (GPa) = 14.03054 49.31237 31.67145
# Shear Modulus (GPa) = 12.31325 23.46260 17.88792
#
# Velocity S-wave (km/s) = 2.65283 3.66194 3.19745
# Velocity P-wave (km/s) = 4.17162 6.78703 5.63321
#
# Compressibility (1/GPa) = 0.07127310
#
# Stress axis : x y z
#
# Youngs Moduli (GPa) = 35.80344 9.18789 55.10606
#
# Poissons Ratio (x) = 0.13415 0.65839
# Poissons Ratio (y) = 0.52276 0.84162
# Poissons Ratio (z) = 0.42777 0.14032
#
# Static dielectric constant tensor:
#      x y z
#    x 1.580500 0.000000 -0.027820 
#    y 0.000000 1.590660 0.000000 
#    z -0.027820 0.000000 1.624720 
# 
# From -- ./inp_files/91228.got.cif
#   From: 2010.05.17/outbox.cif.g08.bks.cpg/sg10_46_cif.got.tgz:91228.got - 2010.06.03 11:33:40.
