data_PCOD9142876
_publ_section_title
;
Structure prediction by ZEFSAII (Michael W. Deem and Ramdas Pophale) SiO2 
 PCOD9142876
Probable space group: P 2/M
;
_chemical_formula_sum "Si O2"
_cell_formula_units_Z 32
_cell_length_a 16.001704
_cell_length_b 8.774386
_cell_length_c 14.689534
_cell_angle_alpha 90.000000
_cell_angle_beta 90.376924
_cell_angle_gamma 90.000000
_cell_volume 2062.441266
_symmetry_space_group_name_H-M "P 2/M"
_symmetry_group_IT_number 10
_symmetry_cell_setting 'monoclinic'
loop_
_space_group_symop_operation_xyz
x,y,z
-x,y,-z
-x,-y,-z
x,-y,z
loop_
_atom_site_type_symbol
_atom_site_label
_atom_site_fract_x
_atom_site_fract_y
_atom_site_fract_z
Si Si1 0.001849 0.685629 0.395301
Si Si2 0.832526 0.682791 0.713965
Si Si3 0.678564 0.315077 0.399722
Si Si4 0.505464 0.324756 0.610387
Si Si5 0.679452 0.819351 0.602515
Si Si6 0.902179 0.816746 0.101796
Si Si7 0.902484 0.183852 0.894899
Si Si8 0.162043 0.683852 0.717569
O O1 0.000993 0.500000 0.396088
O O2 0.086273 0.732259 0.344494
O O3 0.000000 0.736688 0.500000
O O4 0.919444 0.735247 0.340215
O O5 0.828589 0.500000 0.711761
O O6 0.750128 0.750426 0.667711
O O7 0.848309 0.740056 0.816205
O O8 0.677846 0.500000 0.408028
O O9 0.586769 0.270233 0.361964
O O10 0.690451 0.248557 0.500810
O O11 0.754110 0.269770 0.334633
O O12 0.500000 0.325350 0.500000
O O13 0.517844 0.500000 0.639702
O O14 0.586652 0.228111 0.634705
O O15 0.686538 0.000000 0.598652
O O16 0.847290 0.745727 0.180846
O O17 0.999693 0.773486 0.117453
O O18 0.898322 0.000000 0.106657
O O19 0.879531 0.772615 0.998245
O O20 0.897299 0.000000 0.887959
O O21 0.160815 0.500000 0.720083
#
# Coordination Sequence:
#
# PCOD9142876 Si02
#       8
#     4   4   4   4   4   4   4   4
#     4   9  17  28  42  62  91 125 157 188 224 265
#     4  11  20  31  48  69  93 125 161 199 237 275
#     4   9  18  32  50  70  96 128 159 195 237 278
#     4   8  15  30  49  68  91 122 158 195 236 279
#     4  11  21  31  46  69  97 128 160 197 236 280
#     4   9  18  32  49  67  93 126 155 193 242 283
#     4   9  18  33  49  66  92 125 158 195 239 282
#     4  10  18  30  48  71  95 123 160 198 232 274
#
# _framework density 15.515593000000001
#
# number of rings (size 3 to 8) (size 9 to 14) (size 15 to 20)
#    0.000    2.500    1.250    3.750    0.000    5.250 
#    0.000    1.250    0.000    1.875    0.000    0.875 
#    0.000    7.000    0.000    0.000    0.000    0.000 
#
# Total GULP energy -178400.248303 kJ/mol
# GULP energy per Si atom -5575.007759 kJ/mol
# Density = 1.548028 g / cm^3
# Si number density = 15.515593 Si / 1000 Ang^3
#
#
#
# Elastic Constant Matrix: (Units=GPa)
#
#
# Indices 1 2 3 4 5 6 
#
# 1 136.3057 40.1394 76.2206 0.0000 7.1691 0.0000
# 2 40.1394 31.8989 33.7252 0.0000 2.6040 0.0000
# 3 76.2206 33.7252 114.9095 0.0000 0.6592 0.0000
# 4 0.0000 0.0000 0.0000 21.2899 0.0000 2.6666
# 5 7.1691 2.6040 0.6592 0.0000 9.9245 0.0000
# 6 0.0000 0.0000 0.0000 2.6666 0.0000 14.5166
#
#
#
# Elastic Compliance Matrix: (Units=1/GPa)
#
#
# Indices 1 2 3 4 5 6 
#
# 1 0.014487 -0.010914 -0.006365 0.000000 -0.007179 0.000000
# 2 -0.010914 0.054919 -0.008845 0.000000 -0.005938 0.000000
# 3 -0.006365 -0.008845 0.015487 0.000000 0.005890 0.000000
# 4 0.000000 0.000000 0.000000 0.048077 0.000000 -0.008831
# 5 -0.007179 -0.005938 0.005890 0.000000 0.107113 0.000000
# 6 0.000000 0.000000 0.000000 -0.008831 0.000000 0.070509
#
#
# Mechanical properties :
#
#
# Convention : Reuss Voigt Hill
#
# Bulk Modulus (GPa) = 30.63315 64.80938 47.72127
# Shear Modulus (GPa) = 13.37896 18.01479 15.69688
#
# Velocity S-wave (km/s) = 2.93967 3.41115 3.18415
# Velocity P-wave (km/s) = 5.59540 7.57468 6.65899
#
# Compressibility (1/GPa) = 0.03264437
#
# Stress axis : x y z
#
# Youngs Moduli (GPa) = 69.02536 18.20878 64.57194
#
# Poissons Ratio (x) = 0.19874 0.41101
# Poissons Ratio (y) = 0.75337 0.57111
# Poissons Ratio (z) = 0.43936 0.16105
#
# Static dielectric constant tensor:
#      x y z
#    x 1.524660 0.000000 -0.005550 
#    y 0.000000 1.519930 0.000000 
#    z -0.005550 0.000000 1.495710 
# 
# From -- ./inp_files/66037.got.cif
#   From: 2010.05.17/outbox.cif.g08.bks.cpg/sg10_34_cif.got.tgz:66037.got - 2010.06.03 11:33:40.
