data_PCOD9142055
_publ_section_title
;
Structure prediction by ZEFSAII (Michael W. Deem and Ramdas Pophale) SiO2 
 PCOD9142055
Probable space group: P 2/M
;
_chemical_formula_sum "Si O2"
_cell_formula_units_Z 28
_cell_length_a 17.724383
_cell_length_b 16.061532
_cell_length_c 12.752693
_cell_angle_alpha 90.000000
_cell_angle_beta 26.157483
_cell_angle_gamma 90.000000
_cell_volume 1600.445551
_symmetry_space_group_name_H-M "P 2/M"
_symmetry_group_IT_number 10
_symmetry_cell_setting 'monoclinic'
loop_
_space_group_symop_operation_xyz
x,y,z
-x,y,-z
-x,-y,-z
x,-y,z
loop_
_atom_site_type_symbol
_atom_site_label
_atom_site_fract_x
_atom_site_fract_y
_atom_site_fract_z
Si Si1 0.687603 0.784720 0.996549
Si Si2 0.584241 0.093347 0.747506
Si Si3 0.312263 0.746781 0.240118
Si Si4 0.016977 0.730477 0.221068
Si Si5 0.410764 0.725794 0.501468
Si Si6 0.860009 0.146067 0.247598
Si Si7 0.153637 0.596510 0.892612
O O1 0.586679 0.870543 0.095542
O O2 0.541912 0.731997 0.240711
O O3 0.739581 0.754597 0.816129
O O4 0.852165 0.778209 0.865211
O O5 0.646692 0.163583 0.753736
O O6 0.733627 0.092137 0.474811
O O7 0.559948 0.000000 0.817384
O O8 0.158384 0.708058 0.498825
O O9 0.500000 0.704566 0.000000
O O10 0.961739 0.793478 0.199115
O O11 0.105322 0.652080 0.054142
O O12 0.500000 0.747105 0.500000
O O13 0.262995 0.792949 0.664836
O O14 0.319639 0.637513 0.631843
O O15 0.000000 0.103451 0.000000
O O16 0.177809 0.500000 0.888409
O O17 0.000000 0.603760 0.000000
#
# Coordination Sequence:
#
# PCOD9142055 Si02
#       7
#     4   4   4   4   4   4   4
#     4  10  20  32  55  82 104 148 186 224 268 323
#     4   9  20  35  53  80 113 143 180 234 280 318
#     4   9  20  34  57  80 101 143 190 225 267 321
#     4  11  18  36  56  78 112 141 187 229 261 328
#     4  11  18  33  55  82 112 141 180 226 267 325
#     4  10  17  31  55  77 106 148 188 217 272 326
#     4  11  22  35  57  87 115 145 176 224 281 320
#
# _framework density 17.495128000000001
#
# number of rings (size 3 to 8) (size 9 to 14) (size 15 to 20)
#    0.000    1.857    4.286    1.286    0.000    3.143 
#    0.000    2.857    0.000   24.429    0.000    0.000 
#    0.000    0.000    0.000    0.000    0.000    0.000 
#
# Total GULP energy -155922.677509 kJ/mol
# GULP energy per Si atom -5568.667054 kJ/mol
# Density = 1.745531 g / cm^3
# Si number density = 17.495128 Si / 1000 Ang^3
#
#
#
# Elastic Constant Matrix: (Units=GPa)
#
#
# Indices 1 2 3 4 5 6 
#
# 1 117.2695 29.7852 11.4844 0.0000 -5.3758 0.0000
# 2 29.7852 73.1728 15.7183 0.0000 2.4567 0.0000
# 3 11.4844 15.7183 118.5448 0.0000 14.2956 0.0000
# 4 0.0000 0.0000 0.0000 -8.3959 0.0000 -4.6747
# 5 -5.3758 2.4567 14.2956 0.0000 30.7228 0.0000
# 6 0.0000 0.0000 0.0000 -4.6747 0.0000 8.5080
#
#
#
# Elastic Compliance Matrix: (Units=1/GPa)
#
#
# Indices 1 2 3 4 5 6 
#
# 1 0.009686 -0.003869 -0.000707 0.000000 0.002333 0.000000
# 2 -0.003869 0.015615 -0.001550 0.000000 -0.001204 0.000000
# 3 -0.000707 -0.001550 0.009227 0.000000 -0.004293 0.000000
# 4 0.000000 0.000000 0.000000 -0.091204 0.000000 -0.050112
# 5 0.002333 -0.001204 -0.004293 0.000000 0.035051 0.000000
# 6 0.000000 0.000000 0.000000 -0.050112 0.000000 0.090003
#
#
# Mechanical properties :
#
#
# Convention : Reuss Voigt Hill
#
# Bulk Modulus (GPa) = 44.89199 46.99588 45.94393
# Shear Modulus (GPa) = 56.78174 22.96692 39.87433
#
# Velocity S-wave (km/s) = 5.70318 3.62713 4.77924
# Velocity P-wave (km/s) = 8.31166 6.66799 7.53478
#
# Compressibility (1/GPa) = 0.02227569
#
# Stress axis : x y z
#
# Youngs Moduli (GPa) = 103.23856 64.04186 108.37292
#
# Poissons Ratio (x) = 0.24780 0.07659
# Poissons Ratio (y) = 0.39947 0.16801
# Poissons Ratio (z) = 0.07296 0.09929
#
# Static dielectric constant tensor:
#      x y z
#    x 1.603370 0.000000 -0.005070 
#    y 0.000000 1.567300 0.000000 
#    z -0.005070 0.000000 1.642350 
# 
# From -- ./inp_files/54102.got.cif
#   From: 2010.05.17/outbox.cif.g08.bks.cpg/sg10_28_cif.got.tgz:54102.got - 2010.06.03 11:33:40.
