data_PCOD9142179
_publ_section_title
;
Structure prediction by ZEFSAII (Michael W. Deem and Ramdas Pophale) SiO2 
 PCOD9142179
Probable space group: P 2/M
;
_chemical_formula_sum "Si O2"
_cell_formula_units_Z 28
_cell_length_a 15.082036
_cell_length_b 7.539800
_cell_length_c 22.555912
_cell_angle_alpha 90.000000
_cell_angle_beta 142.289527
_cell_angle_gamma 90.000000
_cell_volume 1568.911865
_symmetry_space_group_name_H-M "P 2/M"
_symmetry_group_IT_number 10
_symmetry_cell_setting 'monoclinic'
loop_
_space_group_symop_operation_xyz
x,y,z
-x,y,-z
-x,-y,-z
x,-y,z
loop_
_atom_site_type_symbol
_atom_site_label
_atom_site_fract_x
_atom_site_fract_y
_atom_site_fract_z
Si Si1 0.966908 0.285035 0.586527
Si Si2 0.518348 0.212049 0.416468
Si Si3 0.663124 0.288106 0.373107
Si Si4 0.962377 0.794199 0.241469
Si Si5 0.712994 0.713654 0.272613
Si Si6 0.649477 0.208994 0.104262
Si Si7 0.735187 0.782444 0.633872
O O1 0.961402 0.500000 0.586964
O O2 0.819089 0.220953 0.478823
O O3 0.984959 0.213731 0.662410
O O4 0.116209 0.239229 0.632356
O O5 0.548704 0.254504 0.364507
O O6 0.368096 0.273107 0.366569
O O7 0.649668 0.274600 0.528777
O O8 0.518426 0.000000 0.421760
O O9 0.677399 0.500000 0.375806
O O10 0.635808 0.223245 0.291860
O O11 0.800385 0.715190 0.157667
O O12 0.099339 0.718119 0.278314
O O13 0.948314 0.000000 0.216421
O O14 0.704632 0.500000 0.265017
O O15 0.657188 0.777789 0.179605
O O16 0.650972 0.000000 0.090406
O O17 0.500000 0.285034 0.000000
O O18 0.739763 0.000000 0.635380
#
# Coordination Sequence:
#
# PCOD9142179 Si02
#       7
#     4   4   4   4   4   4   4
#     4   9  16  26  39  57  83 113 141 168 196 232
#     4   9  16  26  40  57  81 112 145 174 197 232
#     4  10  18  27  39  59  86 114 141 170 203 235
#     4   9  15  26  44  61  81 110 139 166 202 247
#     4   9  18  30  43  59  82 113 143 166 197 248
#     4   9  18  31  46  66  87 103 128 173 218 247
#     4   8  14  25  40  58  80 110 144 172 198 235
#
# _framework density 17.846764
#
# number of rings (size 3 to 8) (size 9 to 14) (size 15 to 20)
#    0.000    3.000    1.429    1.286    0.000    2.571 
#    0.000    2.143    0.000    4.286    0.000    1.000 
#    0.000    8.000    0.000    0.000    0.000    0.000 
#
# Total GULP energy -155962.720192 kJ/mol
# GULP energy per Si atom -5570.097150 kJ/mol
# Density = 1.780614 g / cm^3
# Si number density = 17.846764 Si / 1000 Ang^3
#
#
#
# Elastic Constant Matrix: (Units=GPa)
#
#
# Indices 1 2 3 4 5 6 
#
# 1 147.3119 3.3144 63.5407 0.0000 14.9253 0.0000
# 2 3.3144 41.9056 1.8542 0.0000 5.0738 0.0000
# 3 63.5407 1.8542 74.3494 0.0000 21.6531 0.0000
# 4 0.0000 0.0000 0.0000 8.8455 0.0000 -5.6201
# 5 14.9253 5.0738 21.6531 0.0000 22.1067 0.0000
# 6 0.0000 0.0000 0.0000 -5.6201 0.0000 12.5353
#
#
#
# Elastic Compliance Matrix: (Units=1/GPa)
#
#
# Indices 1 2 3 4 5 6 
#
# 1 0.010868 -0.000739 -0.010049 0.000000 0.002674 0.000000
# 2 -0.000739 0.024706 0.002129 0.000000 -0.007257 0.000000
# 3 -0.010049 0.002129 0.028194 0.000000 -0.021319 0.000000
# 4 0.000000 0.000000 0.000000 0.158083 0.000000 0.070875
# 5 0.002674 -0.007257 -0.021319 0.000000 0.065977 0.000000
# 6 0.000000 0.000000 0.000000 0.070875 0.000000 0.111551
#
#
# Mechanical properties :
#
#
# Convention : Reuss Voigt Hill
#
# Bulk Modulus (GPa) = 21.52845 44.55395 33.04120
# Shear Modulus (GPa) = 11.56925 21.68800 16.62862
#
# Velocity S-wave (km/s) = 2.54885 3.48980 3.05576
# Velocity P-wave (km/s) = 4.55536 6.42318 5.56815
#
# Compressibility (1/GPa) = 0.04645016
#
# Stress axis : x y z
#
# Youngs Moduli (GPa) = 92.01000 40.47597 35.46872
#
# Poissons Ratio (x) = 0.02990 0.35642
# Poissons Ratio (y) = 0.06797 -0.07550
# Poissons Ratio (z) = 0.92459 -0.08616
#
# Static dielectric constant tensor:
#      x y z
#    x 1.669600 0.000000 0.015150 
#    y 0.000000 1.669760 0.000000 
#    z 0.015150 0.000000 1.588290 
# 
# From -- ./inp_files/45998.got.cif
#   From: 2010.05.17/outbox.cif.g08.bks.cpg/sg10_23_cif.got.tgz:45998.got - 2010.06.03 11:33:40.
