data_PCOD9142070
_publ_section_title
;
Structure prediction by ZEFSAII (Michael W. Deem and Ramdas Pophale) SiO2 
 PCOD9142070
Probable space group: P 2/M
;
_chemical_formula_sum "Si O2"
_cell_formula_units_Z 28
_cell_length_a 9.703184
_cell_length_b 14.181802
_cell_length_c 13.710941
_cell_angle_alpha 90.000000
_cell_angle_beta 48.808103
_cell_angle_gamma 90.000000
_cell_volume 1419.789958
_symmetry_space_group_name_H-M "P 2/M"
_symmetry_group_IT_number 10
_symmetry_cell_setting 'monoclinic'
loop_
_space_group_symop_operation_xyz
x,y,z
-x,y,-z
-x,-y,-z
x,-y,z
loop_
_atom_site_type_symbol
_atom_site_label
_atom_site_fract_x
_atom_site_fract_y
_atom_site_fract_z
Si Si1 0.362035 0.888164 0.779200
Si Si2 0.447682 0.392479 0.864358
Si Si3 0.148043 0.392856 0.843524
Si Si4 0.642676 0.226638 0.518186
Si Si5 0.339312 0.798845 0.003620
Si Si6 0.784137 0.391791 0.586045
Si Si7 0.079249 0.798285 0.767465
O O1 0.531506 0.841640 0.641952
O O2 0.356423 0.846884 0.890216
O O3 0.178862 0.856105 0.807149
O O4 0.376187 0.000000 0.773213
O O5 0.415534 0.500000 0.912450
O O6 0.340727 0.381996 0.810478
O O7 0.368649 0.313019 0.970903
O O8 0.661318 0.377654 0.740639
O O9 0.133823 0.500000 0.812277
O O10 0.114002 0.311302 0.781652
O O11 0.000000 0.382176 0.000000
O O12 0.500000 0.254121 0.500000
O O13 0.714447 0.316714 0.541522
O O14 0.812704 0.180407 0.382040
O O15 0.500000 0.831564 0.000000
O O16 0.135716 0.815751 0.137467
O O17 0.749247 0.500000 0.571940
O O18 0.000000 0.380245 0.500000
#
# Coordination Sequence:
#
# PCOD9142070 Si02
#       7
#     4   4   4   4   4   4   4
#     4  11  24  47  71  89 119 161 206 263 329 388
#     4  10  19  36  60  88 127 173 211 249 298 357
#     4  10  17  31  58  89 127 170 210 250 297 364
#     4  10  22  39  64  96 125 162 207 261 315 378
#     4  12  25  40  63  97 128 166 207 259 310 376
#     4  10  21  37  61  89 127 177 218 247 292 361
#     4  11  22  38  64  99 127 158 211 256 318 371
#
# _framework density 19.721226000000001
#
# number of rings (size 3 to 8) (size 9 to 14) (size 15 to 20)
#    0.000    1.429    4.286    1.286    2.000    5.143 
#    0.000    0.000    0.000    3.000    0.000    0.000 
#    0.000    0.000    0.000    0.000    0.000    0.000 
#
# Total GULP energy -156485.297012 kJ/mol
# GULP energy per Si atom -5588.760608 kJ/mol
# Density = 1.967634 g / cm^3
# Si number density = 19.721226 Si / 1000 Ang^3
#
#
#
# Elastic Constant Matrix: (Units=GPa)
#
#
# Indices 1 2 3 4 5 6 
#
# 1 102.2513 41.6825 70.1471 0.0000 -31.0767 0.0000
# 2 41.6825 87.8420 23.4453 0.0000 -5.1810 0.0000
# 3 70.1471 23.4453 93.3365 0.0000 -31.2871 0.0000
# 4 0.0000 0.0000 0.0000 -22.1665 0.0000 2.2697
# 5 -31.0767 -5.1810 -31.2871 0.0000 31.8248 0.0000
# 6 0.0000 0.0000 0.0000 2.2697 0.0000 -1.0659
#
#
#
# Elastic Compliance Matrix: (Units=1/GPa)
#
#
# Indices 1 2 3 4 5 6 
#
# 1 0.025519 -0.007820 -0.013853 0.000000 0.010027 0.000000
# 2 -0.007820 0.014649 0.000652 0.000000 -0.004610 0.000000
# 3 -0.013853 0.000652 0.024554 0.000000 0.010718 0.000000
# 4 0.000000 0.000000 0.000000 -0.057693 0.000000 -0.122857
# 5 0.010027 -0.004610 0.010718 0.000000 0.050999 0.000000
# 6 0.000000 0.000000 0.000000 -0.122857 0.000000 -1.199834
#
#
# Mechanical properties :
#
#
# Convention : Reuss Voigt Hill
#
# Bulk Modulus (GPa) = 44.09318 61.55329 52.82323
# Shear Modulus (GPa) = -4.57790 11.59549 3.50879
#
# Velocity S-wave (km/s) = -1.52524 2.42744 1.33531
# Velocity P-wave (km/s) = 4.39374 6.25588 5.40560
#
# Compressibility (1/GPa) = 0.02267924
#
# Stress axis : x y z
#
# Youngs Moduli (GPa) = 39.18685 68.26444 40.72607
#
# Poissons Ratio (x) = 0.53384 0.56419
# Poissons Ratio (y) = 0.30645 -0.02656
# Poissons Ratio (z) = 0.54287 -0.04452
#
# Static dielectric constant tensor:
#      x y z
#    x 1.702900 0.000000 -0.019670 
#    y 0.000000 1.671000 0.000000 
#    z -0.019670 0.000000 1.726770 
# 
# From -- ./inp_files/42853.got.cif
#   From: 2010.05.17/outbox.cif.g08.bks.cpg/sg10_22_cif.got.tgz:42853.got - 2010.06.03 11:33:40.
