data_PCOD9142313
_publ_section_title
;
Structure prediction by ZEFSAII (Michael W. Deem and Ramdas Pophale) SiO2 
 PCOD9142313
Probable space group: P 2/M
;
_chemical_formula_sum "Si O2"
_cell_formula_units_Z 24
_cell_length_a 5.413295
_cell_length_b 15.022411
_cell_length_c 12.725371
_cell_angle_alpha 90.000000
_cell_angle_beta 75.204918
_cell_angle_gamma 90.000000
_cell_volume 1000.526931
_symmetry_space_group_name_H-M "P 2/M"
_symmetry_group_IT_number 10
_symmetry_cell_setting 'monoclinic'
loop_
_space_group_symop_operation_xyz
x,y,z
-x,y,-z
-x,-y,-z
x,-y,z
loop_
_atom_site_type_symbol
_atom_site_label
_atom_site_fract_x
_atom_site_fract_y
_atom_site_fract_z
Si Si1 0.669452 0.396775 0.876327
Si Si2 0.562264 0.201599 0.868613
Si Si3 0.875614 0.643968 0.278888
Si Si4 0.934428 0.102498 0.132590
Si Si5 0.687005 0.595105 0.605543
Si Si6 0.770768 0.775104 0.461170
O O1 0.644276 0.500000 0.843788
O O2 0.576128 0.304220 0.831346
O O3 0.976254 0.372338 0.847541
O O4 0.500000 0.395925 0.000000
O O5 0.337894 0.150977 0.833219
O O6 0.832194 0.151375 0.834930
O O7 0.500000 0.202161 0.000000
O O8 0.601406 0.599094 0.319516
O O9 0.837650 0.740795 0.337335
O O10 0.092926 0.601457 0.330985
O O11 0.917262 0.000000 0.167828
O O12 0.000000 0.102935 0.000000
O O13 0.717516 0.500000 0.547475
O O14 0.726224 0.681541 0.529799
O O15 0.500000 0.823103 0.500000
O O16 0.000000 0.819690 0.500000
#
# Coordination Sequence:
#
# PCOD9142313 Si02
#       6
#     4   4   4   4   4   4
#     4  10  21  36  50  65  93 139 187 217 231 254
#     4   9  18  31  46  67  93 119 154 198 238 282
#     4  10  20  32  45  61  83 115 158 202 237 271
#     4   9  16  29  51  74  91 108 138 191 259 315
#     4  10  18  28  44  64  82 102 139 196 254 298
#     4   8  16  27  42  63  83 102 134 188 248 297
#
# _framework density 23.987358
#
# number of rings (size 3 to 8) (size 9 to 14) (size 15 to 20)
#    0.000    2.667    0.000    2.000    0.000   10.000 
#    0.000    5.000    0.000   12.000    0.000    0.000 
#    0.000    0.000    0.000    0.000    0.000  150.000 
#
# Total GULP energy -133870.805783 kJ/mol
# GULP energy per Si atom -5577.950241 kJ/mol
# Density = 2.393276 g / cm^3
# Si number density = 23.987358 Si / 1000 Ang^3
#
#
#
# Elastic Constant Matrix: (Units=GPa)
#
#
# Indices 1 2 3 4 5 6 
#
# 1 204.1988 76.3140 47.2323 0.0000 -40.5984 0.0000
# 2 76.3140 156.4527 22.2954 0.0000 -13.5509 0.0000
# 3 47.2323 22.2954 106.7224 0.0000 -37.5563 0.0000
# 4 0.0000 0.0000 0.0000 14.5657 0.0000 -0.6375
# 5 -40.5984 -13.5509 -37.5563 0.0000 46.1086 0.0000
# 6 0.0000 0.0000 0.0000 -0.6375 0.0000 7.2595
#
#
#
# Elastic Compliance Matrix: (Units=1/GPa)
#
#
# Indices 1 2 3 4 5 6 
#
# 1 0.007138 -0.002948 -0.000892 0.000000 0.004692 0.000000
# 2 -0.002948 0.007849 -0.000612 0.000000 -0.000788 0.000000
# 3 -0.000892 -0.000612 0.013392 0.000000 0.009942 0.000000
# 4 0.000000 0.000000 0.000000 0.068920 0.000000 0.006053
# 5 0.004692 -0.000788 0.009942 0.000000 0.033686 0.000000
# 6 0.000000 0.000000 0.000000 0.006053 0.000000 0.138282
#
#
# Mechanical properties :
#
#
# Convention : Reuss Voigt Hill
#
# Bulk Modulus (GPa) = 51.35164 84.33971 67.84568
# Shear Modulus (GPa) = 17.56466 35.02224 26.29345
#
# Velocity S-wave (km/s) = 2.70894 3.82518 3.31439
# Velocity P-wave (km/s) = 5.58916 7.39903 6.55685
#
# Compressibility (1/GPa) = 0.01947357
#
# Stress axis : x y z
#
# Youngs Moduli (GPa) = 140.08987 127.40740 74.67402
#
# Poissons Ratio (x) = 0.37564 0.06661
# Poissons Ratio (y) = 0.41304 0.04571
# Poissons Ratio (z) = 0.12497 0.07799
#
# Static dielectric constant tensor:
#      x y z
#    x 1.988260 0.000000 -0.008740 
#    y 0.000000 1.875160 0.000000 
#    z -0.008740 0.000000 2.105640 
# 
# From -- ./inp_files/81393.got.cif
#   From: 2010.05.17/outbox.cif.g08.bks.cpg/sg10_41_cif.got.tgz:81393.got - 2010.06.03 11:33:40.
