data_PCOD9142326
_publ_section_title
;
Structure prediction by ZEFSAII (Michael W. Deem and Ramdas Pophale) SiO2 
 PCOD9142326
Probable space group: P 2/M
;
_chemical_formula_sum "Si O2"
_cell_formula_units_Z 32
_cell_length_a 31.575922
_cell_length_b 7.590088
_cell_length_c 22.065487
_cell_angle_alpha 90.000000
_cell_angle_beta 160.300451
_cell_angle_gamma 90.000000
_cell_volume 1782.622833
_symmetry_space_group_name_H-M "P 2/M"
_symmetry_group_IT_number 10
_symmetry_cell_setting 'monoclinic'
loop_
_space_group_symop_operation_xyz
x,y,z
-x,y,-z
-x,-y,-z
x,-y,z
loop_
_atom_site_type_symbol
_atom_site_label
_atom_site_fract_x
_atom_site_fract_y
_atom_site_fract_z
Si Si1 0.051008 0.715808 0.716442
Si Si2 0.852178 0.293681 0.026646
Si Si3 0.480111 0.212050 0.664079
Si Si4 0.879064 0.294672 0.382274
Si Si5 0.278129 0.710847 0.936093
Si Si6 0.565110 0.204056 0.647330
Si Si7 0.041599 0.787325 0.960544
Si Si8 0.802808 0.215043 0.713074
O O1 0.046475 0.500000 0.708552
O O2 0.177513 0.771666 0.851160
O O3 0.932315 0.779899 0.516973
O O4 0.066140 0.771117 0.806185
O O5 0.828425 0.500000 0.005048
O O6 0.714723 0.208499 0.841277
O O7 0.920460 0.271668 0.054808
O O8 0.526470 0.279686 0.660671
O O9 0.339240 0.275557 0.487269
O O10 0.475400 0.000000 0.654493
O O11 0.583168 0.253557 0.853579
O O12 0.848988 0.500000 0.353542
O O13 0.766944 0.218818 0.190158
O O14 0.000000 0.290984 0.500000
O O15 0.262869 0.500000 0.912513
O O16 0.500000 0.284384 0.500000
O O17 0.522870 0.000000 0.592399
O O18 0.142716 0.731989 0.147806
O O19 0.041813 0.000000 0.960592
O O20 0.905432 0.728878 0.801616
O O21 0.802681 0.000000 0.712306
#
# Coordination Sequence:
#
# PCOD9142326 Si02
#       8
#     4   4   4   4   4   4   4   4
#     4   8  14  25  40  61  89 118 146 175 209 257
#     4  11  20  29  44  68  96 118 140 178 228 268
#     4  10  18  28  44  66  90 113 143 183 226 260
#     4   7  11  21  40  60  79 112 153 179 198 245
#     4   9  15  26  43  63  87 116 148 177 211 259
#     4  10  20  32  45  61  86 122 157 180 204 255
#     4   9  17  33  53  66  81 111 156 194 219 255
#     4   8  16  32  52  67  80 111 155 193 221 255
#
# _framework density 17.951076
#
# number of rings (size 3 to 8) (size 9 to 14) (size 15 to 20)
#    0.000    3.000    1.250    3.375    0.000    2.250 
#    0.000    3.750    0.000    4.875    0.000    0.875 
#    0.000    7.000    0.000    0.000    0.000    0.000 
#
# Total GULP energy -178291.227717 kJ/mol
# GULP energy per Si atom -5571.600866 kJ/mol
# Density = 1.791022 g / cm^3
# Si number density = 17.951076 Si / 1000 Ang^3
#
#
#
# Elastic Constant Matrix: (Units=GPa)
#
#
# Indices 1 2 3 4 5 6 
#
# 1 70.7139 -8.4336 74.1607 0.0000 -10.8814 0.0000
# 2 -8.4336 35.9701 -1.2152 0.0000 -1.2118 0.0000
# 3 74.1607 -1.2152 166.2201 0.0000 -21.4325 0.0000
# 4 0.0000 0.0000 0.0000 5.7671 0.0000 -4.1203
# 5 -10.8814 -1.2118 -21.4325 0.0000 24.7311 0.0000
# 6 0.0000 0.0000 0.0000 -4.1203 0.0000 13.9628
#
#
#
# Elastic Compliance Matrix: (Units=1/GPa)
#
#
# Indices 1 2 3 4 5 6 
#
# 1 0.027952 0.006213 -0.012160 0.000000 0.002065 0.000000
# 2 0.006213 0.029255 -0.002275 0.000000 0.002196 0.000000
# 3 -0.012160 -0.002275 0.012069 0.000000 0.004998 0.000000
# 4 0.000000 0.000000 0.000000 0.219718 0.000000 0.064836
# 5 0.002065 0.002196 0.004998 0.000000 0.045782 0.000000
# 6 0.000000 0.000000 0.000000 0.064836 0.000000 0.090751
#
#
# Mechanical properties :
#
#
# Convention : Reuss Voigt Hill
#
# Bulk Modulus (GPa) = 18.92777 44.65868 31.79322
# Shear Modulus (GPa) = 10.87945 22.78501 16.83223
#
# Velocity S-wave (km/s) = 2.46450 3.56657 3.06547
# Velocity P-wave (km/s) = 4.32034 6.47244 5.50263
#
# Compressibility (1/GPa) = 0.05283243
#
# Stress axis : x y z
#
# Youngs Moduli (GPa) = 35.77502 34.18267 82.85697
#
# Poissons Ratio (x) = -0.21236 1.00750
# Poissons Ratio (y) = -0.22225 0.18849
# Poissons Ratio (z) = 0.43501 0.07776
#
# Static dielectric constant tensor:
#      x y z
#    x 1.607290 0.000000 -0.037960 
#    y 0.000000 1.695970 0.000000 
#    z -0.037960 0.000000 1.630830 
# 
# From -- ./inp_files/83384.got.cif
#   From: 2010.05.17/outbox.cif.g08.bks.cpg/sg10_42_cif.got.tgz:83384.got - 2010.06.03 11:33:40.
