data_PCOD9142728
_publ_section_title
;
Structure prediction by ZEFSAII (Michael W. Deem and Ramdas Pophale) SiO2 
 PCOD9142728
Probable space group: P 2/M
;
_chemical_formula_sum "Si O2"
_cell_formula_units_Z 22
_cell_length_a 7.851618
_cell_length_b 10.679147
_cell_length_c 12.652033
_cell_angle_alpha 90.000000
_cell_angle_beta 57.296434
_cell_angle_gamma 90.000000
_cell_volume 892.685280
_symmetry_space_group_name_H-M "P 2/M"
_symmetry_group_IT_number 10
_symmetry_cell_setting 'monoclinic'
loop_
_space_group_symop_operation_xyz
x,y,z
-x,y,-z
-x,-y,-z
x,-y,z
loop_
_atom_site_type_symbol
_atom_site_label
_atom_site_fract_x
_atom_site_fract_y
_atom_site_fract_z
Si Si1 0.159532 0.500000 0.160865
Si Si2 0.737205 0.773517 0.359441
Si Si3 0.773214 0.224794 0.576443
Si Si4 0.301222 0.500000 0.717042
Si Si5 0.238076 0.000000 0.039436
Si Si6 0.268975 0.500000 0.361227
Si Si7 0.748588 0.000000 0.202499
Si Si8 0.229597 0.765114 0.182656
O O1 0.143124 0.500000 0.295110
O O2 0.270018 0.632623 0.111250
O O3 0.940422 0.500000 0.176733
O O4 0.678773 0.816907 0.497349
O O5 0.669613 0.632337 0.352980
O O6 0.690092 0.875436 0.285631
O O7 0.984226 0.765968 0.277690
O O8 0.782640 0.375102 0.559453
O O9 0.690564 0.215870 0.723976
O O10 0.000000 0.170059 0.500000
O O11 0.486286 0.500000 0.739163
O O12 0.288634 0.877888 0.088815
O O13 0.992958 0.000000 0.115266
O O14 0.324306 0.000000 0.893045
#
# Coordination Sequence:
#
# PCOD9142728 Si02
#       8
#     2   4   4   2   2   2   2   4
#     4   8  16  32  49  76 109 135 167 213 256 299
#     4   9  17  29  44  69 102 136 167 203 251 306
#     4   9  16  27  45  72 105 135 165 204 252 303
#     4  10  19  31  52  78 106 139 177 204 246 314
#     4   9  16  29  49  74  94 128 181 214 251 312
#     4  10  18  29  50  77 108 143 168 204 255 304
#     4   9  18  31  47  67 102 137 166 215 263 296
#     4   8  15  27  46  70 101 131 165 213 254 295
#
# _framework density 24.644742000000001
#
# number of rings (size 3 to 8) (size 9 to 14) (size 15 to 20)
#    0.000    3.091    0.000    1.909    0.000    3.636 
#    0.000    4.545    0.000   12.000    0.000   15.273 
#    0.000    0.000    0.000    0.000    0.000    0.000 
#
# Total GULP energy -122794.947617 kJ/mol
# GULP energy per Si atom -5581.588528 kJ/mol
# Density = 2.458865 g / cm^3
# Si number density = 24.644742 Si / 1000 Ang^3
#
#
#
# Elastic Constant Matrix: (Units=GPa)
#
#
# Indices 1 2 3 4 5 6 
#
# 1 115.3929 33.8949 47.4604 0.0000 5.4604 0.0000
# 2 33.8949 184.1323 98.7121 0.0000 29.5037 0.0000
# 3 47.4604 98.7121 107.2562 0.0000 25.0756 0.0000
# 4 0.0000 0.0000 0.0000 21.9279 0.0000 14.4860
# 5 5.4604 29.5037 25.0756 0.0000 47.9581 0.0000
# 6 0.0000 0.0000 0.0000 14.4860 0.0000 10.2216
#
#
#
# Elastic Compliance Matrix: (Units=1/GPa)
#
#
# Indices 1 2 3 4 5 6 
#
# 1 0.010779 0.001042 -0.006029 0.000000 0.001284 0.000000
# 2 0.001042 0.010935 -0.010167 0.000000 -0.001530 0.000000
# 3 -0.006029 -0.010167 0.022473 0.000000 -0.004809 0.000000
# 4 0.000000 0.000000 0.000000 0.715151 0.000000 -1.013509
# 5 0.001284 -0.001530 -0.004809 0.000000 0.024161 0.000000
# 6 0.000000 0.000000 0.000000 -1.013509 0.000000 1.534175
#
#
# Mechanical properties :
#
#
# Convention : Reuss Voigt Hill
#
# Bulk Modulus (GPa) = 72.05398 85.21291 78.63344
# Shear Modulus (GPa) = 2.12530 31.13579 16.63055
#
# Velocity S-wave (km/s) = 0.92965 3.55827 2.60053
# Velocity P-wave (km/s) = 5.51841 7.17867 6.40258
#
# Compressibility (1/GPa) = 0.01387848
#
# Stress axis : x y z
#
# Youngs Moduli (GPa) = 92.77461 91.45227 44.49831
#
# Poissons Ratio (x) = -0.09531 0.26828
# Poissons Ratio (y) = -0.09669 0.45242
# Poissons Ratio (z) = 0.55933 0.92981
#
# Static dielectric constant tensor:
#      x y z
#    x 2.028550 0.000000 -0.019430 
#    y 0.000000 1.936630 0.000000 
#    z -0.019430 0.000000 1.879380 
# 
# From -- ./inp_files/41676.got.cif
#   From: 2010.05.17/outbox.cif.g08.bks.cpg/sg10_21_cif.got.tgz:41676.got - 2010.06.03 11:33:40.
